MODEL 1
REMARK VINA RESULT: -5.526323185      0.000      0.000
REMARK  1 active torsions:
REMARK  status: ('A' for Active; 'I' for Inactive)
REMARK       I    between atoms: N1_2  and  C2_4 
REMARK    1  A    between atoms: C2_4  and  C3_6 
ROOT
HETATM    1  C3  UNL     1       1.830 -13.720  15.517  1.00  0.00     0.082 C 
HETATM    2  C4  UNL     1       0.564 -13.653  14.713  1.00  0.00     0.015 C 
HETATM    3  C5  UNL     1       0.780 -12.368  13.925  1.00  0.00     0.010 C 
HETATM    4  C6  UNL     1       1.297 -11.432  14.978  1.00  0.00    -0.040 A 
HETATM    5  C7  UNL     1       0.288 -10.443  15.516  1.00  0.00     0.015 C 
HETATM    6  C8  UNL     1       2.640 -10.811  14.642  1.00  0.00     0.010 A 
HETATM    7  C9  UNL     1       3.262 -11.693  15.694  1.00  0.00     0.007 A 
HETATM    8  C10 UNL     1       1.938 -12.298  16.044  1.00  0.00     0.007 A 
ENDROOT
BRANCH   1   9
HETATM    9  C2  UNL     1       1.754 -14.724  16.571  1.00  0.00     0.221 C 
HETATM   10  N1  UNL     1       1.942 -14.420  17.933  1.00  0.00    -0.365 N 
HETATM   11  C1  UNL     1       1.861 -15.430  18.951  1.00  0.00     0.149 C 
ATOM     12  H1  UNL     1       2.141 -13.457  18.204  1.00  0.00     0.161 HD
HETATM   13  O1  UNL     1       1.509 -15.915  16.256  1.00  0.00    -0.273 OA
ENDBRANCH   1   9
TORSDOF 1
ENDMDL
MODEL 2
REMARK VINA RESULT: -4.981841013      1.327      1.456
REMARK  1 active torsions:
REMARK  status: ('A' for Active; 'I' for Inactive)
REMARK       I    between atoms: N1_2  and  C2_4 
REMARK    1  A    between atoms: C2_4  and  C3_6 
ROOT
HETATM    1  C3  UNL     1       2.051 -13.528  15.613  1.00  0.00     0.082 C 
HETATM    2  C4  UNL     1       1.328 -14.348  14.584  1.00  0.00     0.015 C 
HETATM    3  C5  UNL     1       1.407 -13.436  13.367  1.00  0.00     0.010 C 
HETATM    4  C6  UNL     1       1.051 -12.099  13.949  1.00  0.00    -0.040 A 
HETATM    5  C7  UNL     1      -0.364 -11.636  13.689  1.00  0.00     0.015 C 
HETATM    6  C8  UNL     1       2.098 -11.027  13.709  1.00  0.00     0.010 A 
HETATM    7  C9  UNL     1       2.459 -11.114  15.169  1.00  0.00     0.007 A 
HETATM    8  C10 UNL     1       1.418 -12.160  15.420  1.00  0.00     0.007 A 
ENDROOT
BRANCH   1   9
HETATM    9  C2  UNL     1       1.875 -14.062  16.958  1.00  0.00     0.221 C 
HETATM   10  N1  UNL     1       1.806 -15.442  17.231  1.00  0.00    -0.365 N 
HETATM   11  C1  UNL     1       1.632 -15.940  18.567  1.00  0.00     0.149 C 
ATOM     12  H1  UNL     1       1.883 -16.105  16.460  1.00  0.00     0.161 HD
HETATM   13  O1  UNL     1       1.779 -13.260  17.920  1.00  0.00    -0.273 OA
ENDBRANCH   1   9
TORSDOF 1
ENDMDL
MODEL 3
REMARK VINA RESULT: -4.980581686      0.961      2.067
REMARK  1 active torsions:
REMARK  status: ('A' for Active; 'I' for Inactive)
REMARK       I    between atoms: N1_2  and  C2_4 
REMARK    1  A    between atoms: C2_4  and  C3_6 
ROOT
HETATM    1  C3  UNL     1       1.719 -12.444  16.310  1.00  0.00     0.082 C 
HETATM    2  C4  UNL     1       3.041 -12.276  15.619  1.00  0.00     0.015 C 
HETATM    3  C5  UNL     1       2.838 -10.944  14.909  1.00  0.00     0.010 C 
HETATM    4  C6  UNL     1       1.465 -11.103  14.324  1.00  0.00    -0.040 A 
HETATM    5  C7  UNL     1       1.423 -11.425  12.848  1.00  0.00     0.015 C 
HETATM    6  C8  UNL     1       0.492 -10.014  14.738  1.00  0.00     0.010 A 
HETATM    7  C9  UNL     1      -0.203 -11.028  15.610  1.00  0.00     0.007 A 
HETATM    8  C10 UNL     1       0.742 -12.112  15.195  1.00  0.00     0.007 A 
ENDROOT
BRANCH   1   9
HETATM    9  C2  UNL     1       1.551 -13.790  16.845  1.00  0.00     0.221 C 
HETATM   10  N1  UNL     1       2.007 -14.169  18.123  1.00  0.00    -0.365 N 
HETATM   11  C1  UNL     1       1.827 -15.502  18.623  1.00  0.00     0.149 C 
ATOM     12  H1  UNL     1       2.476 -13.478  18.708  1.00  0.00     0.161 HD
HETATM   13  O1  UNL     1       0.975 -14.655  16.139  1.00  0.00    -0.273 OA
ENDBRANCH   1   9
TORSDOF 1
ENDMDL
MODEL 4
REMARK VINA RESULT: -4.955986936      1.571      1.603
REMARK  1 active torsions:
REMARK  status: ('A' for Active; 'I' for Inactive)
REMARK       I    between atoms: N1_2  and  C2_4 
REMARK    1  A    between atoms: C2_4  and  C3_6 
ROOT
HETATM    1  C3  UNL     1       1.740 -14.296  15.955  1.00  0.00     0.082 C 
HETATM    2  C4  UNL     1       1.146 -14.374  14.579  1.00  0.00     0.015 C 
HETATM    3  C5  UNL     1       1.597 -13.047  13.984  1.00  0.00     0.010 C 
HETATM    4  C6  UNL     1       1.309 -12.084  15.100  1.00  0.00    -0.040 A 
HETATM    5  C7  UNL     1       0.054 -11.258  14.933  1.00  0.00     0.015 C 
HETATM    6  C8  UNL     1       2.516 -11.277  15.542  1.00  0.00     0.010 A 
HETATM    7  C9  UNL     1       2.549 -12.101  16.803  1.00  0.00     0.007 A 
HETATM    8  C10 UNL     1       1.349 -12.891  16.383  1.00  0.00     0.007 A 
ENDROOT
BRANCH   1   9
HETATM    9  C2  UNL     1       1.218 -15.335  16.834  1.00  0.00     0.221 C 
HETATM   10  N1  UNL     1       0.188 -16.216  16.451  1.00  0.00    -0.365 N 
HETATM   11  C1  UNL     1      -0.307 -17.230  17.338  1.00  0.00     0.149 C 
ATOM     12  H1  UNL     1      -0.216 -16.132  15.518  1.00  0.00     0.161 HD
HETATM   13  O1  UNL     1       1.704 -15.455  17.987  1.00  0.00    -0.273 OA
ENDBRANCH   1   9
TORSDOF 1
ENDMDL
MODEL 5
REMARK VINA RESULT: -4.926918905      2.884      4.518
REMARK  1 active torsions:
REMARK  status: ('A' for Active; 'I' for Inactive)
REMARK       I    between atoms: N1_2  and  C2_4 
REMARK    1  A    between atoms: C2_4  and  C3_6 
ROOT
HETATM    1  C3  UNL     1       0.750 -12.252  13.877  1.00  0.00     0.082 C 
HETATM    2  C4  UNL     1       1.855 -11.332  14.309  1.00  0.00     0.015 C 
HETATM    3  C5  UNL     1       2.773 -12.295  15.049  1.00  0.00     0.010 C 
HETATM    4  C6  UNL     1       1.803 -13.084  15.879  1.00  0.00    -0.040 A 
HETATM    5  C7  UNL     1       1.728 -12.689  17.336  1.00  0.00     0.015 C 
HETATM    6  C8  UNL     1       1.882 -14.583  15.657  1.00  0.00     0.010 A 
HETATM    7  C9  UNL     1       0.566 -14.500  14.927  1.00  0.00     0.007 A 
HETATM    8  C10 UNL     1       0.471 -13.024  15.156  1.00  0.00     0.007 A 
ENDROOT
BRANCH   1   9
HETATM    9  C2  UNL     1      -0.407 -11.519  13.380  1.00  0.00     0.221 C 
HETATM   10  N1  UNL     1      -1.490 -11.148  14.201  1.00  0.00    -0.365 N 
HETATM   11  C1  UNL     1      -2.618 -10.426  13.683  1.00  0.00     0.149 C 
ATOM     12  H1  UNL     1      -1.472 -11.400  15.189  1.00  0.00     0.161 HD
HETATM   13  O1  UNL     1      -0.446 -11.200  12.165  1.00  0.00    -0.273 OA
ENDBRANCH   1   9
TORSDOF 1
ENDMDL
