MODEL 1
REMARK VINA RESULT: -4.892960903      0.000      0.000
REMARK  2 active torsions:
REMARK  status: ('A' for Active; 'I' for Inactive)
REMARK    1  A    between atoms: C3_3  and  C4_4 
REMARK    2  A    between atoms: C8_10  and  C9_11 
ROOT
HETATM    1  C1  UNL     1       4.497 -10.827  15.386  1.00  0.00     0.098 C 
HETATM    2  C2  UNL     1       3.476 -11.497  15.521  1.00  0.00    -0.167 C 
HETATM    3  C3  UNL     1       2.292 -12.301  15.694  1.00  0.00     0.096 C 
HETATM    4  C5  UNL     1       2.756 -13.727  16.204  1.00  0.00     0.032 C 
HETATM    5  C6  UNL     1       1.637 -14.628  15.735  1.00  0.00     0.003 C 
HETATM    6  C7  UNL     1       0.716 -13.753  14.886  1.00  0.00     0.011 C 
HETATM    7  C8  UNL     1       1.752 -12.740  14.388  1.00  0.00     0.036 C 
ENDROOT
BRANCH   3   8
HETATM    8  C4  UNL     1       1.392 -11.820  16.714  1.00  0.00     0.251 C 
HETATM    9  N1  UNL     1       0.186 -11.081  16.590  1.00  0.00    -0.061 NA
HETATM   10  O1  UNL     1       1.710 -12.089  17.940  1.00  0.00    -0.275 OA
ENDBRANCH   3   8
BRANCH   7  11
HETATM   11  C9  UNL     1       1.364 -11.854  13.361  1.00  0.00    -0.024 C 
HETATM   12  C10 UNL     1       1.830 -11.788  12.142  1.00  0.00    -0.034 C 
HETATM   13  C11 UNL     1       1.278 -10.752  11.176  1.00  0.00     0.036 C 
ENDBRANCH   7  11
TORSDOF 2
ENDMDL
MODEL 2
REMARK VINA RESULT: -4.634679763      1.908      3.819
REMARK  2 active torsions:
REMARK  status: ('A' for Active; 'I' for Inactive)
REMARK    1  A    between atoms: C3_3  and  C4_4 
REMARK    2  A    between atoms: C8_10  and  C9_11 
ROOT
HETATM    1  C1  UNL     1       1.741 -11.697  11.646  1.00  0.00     0.098 C 
HETATM    2  C2  UNL     1       1.557 -11.794  12.856  1.00  0.00    -0.167 C 
HETATM    3  C3  UNL     1       1.314 -11.905  14.273  1.00  0.00     0.096 C 
HETATM    4  C5  UNL     1      -0.179 -11.449  14.537  1.00  0.00     0.032 C 
HETATM    5  C6  UNL     1      -0.133 -10.977  15.971  1.00  0.00     0.003 C 
HETATM    6  C7  UNL     1       1.335 -11.029  16.388  1.00  0.00     0.011 C 
HETATM    7  C8  UNL     1       1.975 -10.808  15.014  1.00  0.00     0.036 C 
ENDROOT
BRANCH   3   8
HETATM    8  C4  UNL     1       1.383 -13.254  14.781  1.00  0.00     0.251 C 
HETATM    9  N1  UNL     1       2.417 -13.902  15.508  1.00  0.00    -0.061 NA
HETATM   10  O1  UNL     1       0.358 -14.011  14.554  1.00  0.00    -0.275 OA
ENDBRANCH   3   8
BRANCH   7  11
HETATM   11  C9  UNL     1       3.362 -10.553  14.967  1.00  0.00    -0.024 C 
HETATM   12  C10 UNL     1       4.251 -10.782  15.897  1.00  0.00    -0.034 C 
HETATM   13  C11 UNL     1       5.709 -10.431  15.653  1.00  0.00     0.036 C 
ENDBRANCH   7  11
TORSDOF 2
ENDMDL
MODEL 3
REMARK VINA RESULT: -4.593158516      2.437      3.583
REMARK  2 active torsions:
REMARK  status: ('A' for Active; 'I' for Inactive)
REMARK    1  A    between atoms: C3_3  and  C4_4 
REMARK    2  A    between atoms: C8_10  and  C9_11 
ROOT
HETATM    1  C1  UNL     1       0.714 -14.716  15.207  1.00  0.00     0.098 C 
HETATM    2  C2  UNL     1       1.041 -13.550  15.411  1.00  0.00    -0.167 C 
HETATM    3  C3  UNL     1       1.438 -12.189  15.673  1.00  0.00     0.096 C 
HETATM    4  C5  UNL     1       1.953 -12.123  17.169  1.00  0.00     0.032 C 
HETATM    5  C6  UNL     1       1.713 -10.677  17.539  1.00  0.00     0.003 C 
HETATM    6  C7  UNL     1       0.965 -10.057  16.360  1.00  0.00     0.011 C 
HETATM    7  C8  UNL     1       0.257 -11.314  15.846  1.00  0.00     0.036 C 
ENDROOT
BRANCH   3   8
HETATM    8  C4  UNL     1       2.554 -11.734  14.878  1.00  0.00     0.251 C 
HETATM    9  N1  UNL     1       2.567 -11.006  13.659  1.00  0.00    -0.061 NA
HETATM   10  O1  UNL     1       3.735 -12.020  15.323  1.00  0.00    -0.275 OA
ENDBRANCH   3   8
BRANCH   7  11
HETATM   11  C9  UNL     1      -0.749 -11.150  14.871  1.00  0.00    -0.024 C 
HETATM   12  C10 UNL     1      -1.670 -10.226  14.817  1.00  0.00    -0.034 C 
HETATM   13  C11 UNL     1      -2.674 -10.222  13.676  1.00  0.00     0.036 C 
ENDBRANCH   7  11
TORSDOF 2
ENDMDL
MODEL 4
REMARK VINA RESULT: -4.526135161      1.467      3.693
REMARK  2 active torsions:
REMARK  status: ('A' for Active; 'I' for Inactive)
REMARK    1  A    between atoms: C3_3  and  C4_4 
REMARK    2  A    between atoms: C8_10  and  C9_11 
ROOT
HETATM    1  C1  UNL     1       1.490 -11.610  12.222  1.00  0.00     0.098 C 
HETATM    2  C2  UNL     1       1.765 -11.490  13.413  1.00  0.00    -0.167 C 
HETATM    3  C3  UNL     1       2.106 -11.330  14.805  1.00  0.00     0.096 C 
HETATM    4  C5  UNL     1       3.454 -10.501  14.873  1.00  0.00     0.032 C 
HETATM    5  C6  UNL     1       4.047 -10.939  16.192  1.00  0.00     0.003 C 
HETATM    6  C7  UNL     1       3.143 -12.055  16.714  1.00  0.00     0.011 C 
HETATM    7  C8  UNL     1       2.636 -12.591  15.371  1.00  0.00     0.036 C 
ENDROOT
BRANCH   3   8
HETATM    8  C4  UNL     1       1.156 -10.551  15.562  1.00  0.00     0.251 C 
HETATM    9  N1  UNL     1       0.145 -10.975  16.466  1.00  0.00    -0.061 NA
HETATM   10  O1  UNL     1       1.212  -9.266  15.413  1.00  0.00    -0.275 OA
ENDBRANCH   3   8
BRANCH   7  11
HETATM   11  C9  UNL     1       1.927 -13.810  15.375  1.00  0.00    -0.024 C 
HETATM   12  C10 UNL     1       1.496 -14.483  16.408  1.00  0.00    -0.034 C 
HETATM   13  C11 UNL     1       0.747 -15.789  16.202  1.00  0.00     0.036 C 
ENDBRANCH   7  11
TORSDOF 2
ENDMDL
MODEL 5
REMARK VINA RESULT: -4.451715824      2.657      4.095
REMARK  2 active torsions:
REMARK  status: ('A' for Active; 'I' for Inactive)
REMARK    1  A    between atoms: C3_3  and  C4_4 
REMARK    2  A    between atoms: C8_10  and  C9_11 
ROOT
HETATM    1  C1  UNL     1       4.000 -10.459  15.162  1.00  0.00     0.098 C 
HETATM    2  C2  UNL     1       2.949 -10.749  14.598  1.00  0.00    -0.167 C 
HETATM    3  C3  UNL     1       1.708 -11.065  13.935  1.00  0.00     0.096 C 
HETATM    4  C5  UNL     1       0.794  -9.773  13.996  1.00  0.00     0.032 C 
HETATM    5  C6  UNL     1      -0.601 -10.348  13.911  1.00  0.00     0.003 C 
HETATM    6  C7  UNL     1      -0.437 -11.866  13.965  1.00  0.00     0.011 C 
HETATM    7  C8  UNL     1       0.857 -11.931  14.782  1.00  0.00     0.036 C 
ENDROOT
BRANCH   3   8
HETATM    8  C4  UNL     1       1.844 -11.354  12.528  1.00  0.00     0.251 C 
HETATM    9  N1  UNL     1       1.900 -12.604  11.856  1.00  0.00    -0.061 NA
HETATM   10  O1  UNL     1       1.932 -10.335  11.734  1.00  0.00    -0.275 OA
ENDBRANCH   3   8
BRANCH   7  11
HETATM   11  C9  UNL     1       1.262 -13.190  15.273  1.00  0.00    -0.024 C 
HETATM   12  C10 UNL     1       0.723 -14.355  15.033  1.00  0.00    -0.034 C 
HETATM   13  C11 UNL     1       1.310 -15.606  15.666  1.00  0.00     0.036 C 
ENDBRANCH   7  11
TORSDOF 2
ENDMDL
