MODEL 1
REMARK VINA RESULT: -5.658440986      0.000      0.000
REMARK  1 active torsions:
REMARK  status: ('A' for Active; 'I' for Inactive)
REMARK       I    between atoms: N1_2  and  C2_4 
REMARK    1  A    between atoms: C2_4  and  C3_6 
ROOT
HETATM    1  C3  UNL     1       2.218 -13.817  15.596  1.00  0.00     0.082 C 
HETATM    2  C4  UNL     1       3.092 -12.748  16.194  1.00  0.00     0.020 C 
HETATM    3  C5  UNL     1       2.868 -11.409  15.620  1.00  0.00    -0.005 C 
HETATM    4  C6  UNL     1       2.490 -11.355  14.182  1.00  0.00    -0.009 C 
HETATM    5  C7  UNL     1       1.573 -12.447  13.730  1.00  0.00     0.010 C 
HETATM    6  C8  UNL     1       1.020 -13.133  14.983  1.00  0.00    -0.001 C 
HETATM    7  C9  UNL     1       0.495 -12.018  15.865  1.00  0.00     0.010 C 
HETATM    8  C10 UNL     1       1.477 -10.875  15.937  1.00  0.00    -0.009 C 
HETATM    9  C11 UNL     1       1.569 -10.183  14.568  1.00  0.00     0.010 C 
ENDROOT
BRANCH   1  10
HETATM   10  C2  UNL     1       1.852 -14.843  16.592  1.00  0.00     0.221 C 
HETATM   11  N1  UNL     1       2.250 -14.603  17.938  1.00  0.00    -0.365 N 
HETATM   12  C1  UNL     1       1.928 -15.563  18.975  1.00  0.00     0.149 C 
ATOM     13  H1  UNL     1       2.763 -13.753  18.172  1.00  0.00     0.161 HD
HETATM   14  O1  UNL     1       1.228 -15.872  16.303  1.00  0.00    -0.273 OA
ENDBRANCH   1  10
TORSDOF 1
ENDMDL
MODEL 2
REMARK VINA RESULT: -5.585198966      0.803      1.629
REMARK  1 active torsions:
REMARK  status: ('A' for Active; 'I' for Inactive)
REMARK       I    between atoms: N1_2  and  C2_4 
REMARK    1  A    between atoms: C2_4  and  C3_6 
ROOT
HETATM    1  C3  UNL     1       1.046 -13.767  15.711  1.00  0.00     0.082 C 
HETATM    2  C4  UNL     1       1.684 -13.660  14.352  1.00  0.00     0.020 C 
HETATM    3  C5  UNL     1       1.861 -12.273  13.888  1.00  0.00    -0.005 C 
HETATM    4  C6  UNL     1       0.828 -11.290  14.314  1.00  0.00    -0.009 C 
HETATM    5  C7  UNL     1       0.318 -11.477  15.708  1.00  0.00     0.010 C 
HETATM    6  C8  UNL     1       1.263 -12.452  16.418  1.00  0.00    -0.001 C 
HETATM    7  C9  UNL     1       2.660 -11.912  16.188  1.00  0.00     0.010 C 
HETATM    8  C10 UNL     1       2.854 -11.503  14.749  1.00  0.00    -0.009 C 
HETATM    9  C11 UNL     1       1.982 -10.277  14.436  1.00  0.00     0.010 C 
ENDROOT
BRANCH   1  10
HETATM   10  C2  UNL     1       1.566 -14.924  16.467  1.00  0.00     0.221 C 
HETATM   11  N1  UNL     1       1.538 -14.828  17.887  1.00  0.00    -0.365 N 
HETATM   12  C1  UNL     1       2.030 -15.921  18.702  1.00  0.00     0.149 C 
ATOM     13  H1  UNL     1       1.171 -13.987  18.332  1.00  0.00     0.161 HD
HETATM   14  O1  UNL     1       2.010 -15.942  15.922  1.00  0.00    -0.273 OA
ENDBRANCH   1  10
TORSDOF 1
ENDMDL
MODEL 3
REMARK VINA RESULT: -5.404639682      0.886      1.220
REMARK  1 active torsions:
REMARK  status: ('A' for Active; 'I' for Inactive)
REMARK       I    between atoms: N1_2  and  C2_4 
REMARK    1  A    between atoms: C2_4  and  C3_6 
ROOT
HETATM    1  C3  UNL     1       2.482 -12.986  16.352  1.00  0.00     0.082 C 
HETATM    2  C4  UNL     1       1.873 -11.947  17.254  1.00  0.00     0.020 C 
HETATM    3  C5  UNL     1       1.369 -10.762  16.537  1.00  0.00    -0.005 C 
HETATM    4  C6  UNL     1       2.113 -10.354  15.315  1.00  0.00    -0.009 C 
HETATM    5  C7  UNL     1       2.618 -11.487  14.478  1.00  0.00     0.010 C 
HETATM    6  C8  UNL     1       1.927 -12.764  14.966  1.00  0.00    -0.001 C 
HETATM    7  C9  UNL     1       0.446 -12.446  14.996  1.00  0.00     0.010 C 
HETATM    8  C10 UNL     1       0.193 -11.099  15.628  1.00  0.00    -0.009 C 
HETATM    9  C11 UNL     1       0.741  -9.988  14.720  1.00  0.00     0.010 C 
ENDROOT
BRANCH   1  10
HETATM   10  C2  UNL     1       2.247 -14.353  16.858  1.00  0.00     0.221 C 
HETATM   11  N1  UNL     1       2.148 -14.507  18.269  1.00  0.00    -0.365 N 
HETATM   12  C1  UNL     1       1.918 -15.818  18.845  1.00  0.00     0.149 C 
ATOM     13  H1  UNL     1       2.240 -13.694  18.877  1.00  0.00     0.161 HD
HETATM   14  O1  UNL     1       2.136 -15.337  16.116  1.00  0.00    -0.273 OA
ENDBRANCH   1  10
TORSDOF 1
ENDMDL
MODEL 4
REMARK VINA RESULT: -4.933265638      1.506      1.648
REMARK  1 active torsions:
REMARK  status: ('A' for Active; 'I' for Inactive)
REMARK       I    between atoms: N1_2  and  C2_4 
REMARK    1  A    between atoms: C2_4  and  C3_6 
ROOT
HETATM    1  C3  UNL     1       1.899 -13.854  15.169  1.00  0.00     0.082 C 
HETATM    2  C4  UNL     1       2.672 -13.630  16.440  1.00  0.00     0.020 C 
HETATM    3  C5  UNL     1       3.022 -12.218  16.680  1.00  0.00    -0.005 C 
HETATM    4  C6  UNL     1       3.291 -11.384  15.477  1.00  0.00    -0.009 C 
HETATM    5  C7  UNL     1       2.414 -11.674  14.301  1.00  0.00     0.010 C 
HETATM    6  C8  UNL     1       1.253 -12.543  14.794  1.00  0.00    -0.001 C 
HETATM    7  C9  UNL     1       0.687 -11.827  16.003  1.00  0.00     0.010 C 
HETATM    8  C10 UNL     1       1.788 -11.356  16.919  1.00  0.00    -0.009 C 
HETATM    9  C11 UNL     1       2.592 -10.240  16.234  1.00  0.00     0.010 C 
ENDROOT
BRANCH   1  10
HETATM   10  C2  UNL     1       0.929 -14.959  15.309  1.00  0.00     0.221 C 
HETATM   11  N1  UNL     1       0.983 -15.712  16.515  1.00  0.00    -0.365 N 
HETATM   12  C1  UNL     1       0.064 -16.813  16.728  1.00  0.00     0.149 C 
ATOM     13  H1  UNL     1       1.670 -15.477  17.231  1.00  0.00     0.161 HD
HETATM   14  O1  UNL     1       0.097 -15.240  14.437  1.00  0.00    -0.273 OA
ENDBRANCH   1  10
TORSDOF 1
ENDMDL
MODEL 5
REMARK VINA RESULT: -4.889814803      3.007      4.605
REMARK  1 active torsions:
REMARK  status: ('A' for Active; 'I' for Inactive)
REMARK       I    between atoms: N1_2  and  C2_4 
REMARK    1  A    between atoms: C2_4  and  C3_6 
ROOT
HETATM    1  C3  UNL     1       1.037 -11.114  14.013  1.00  0.00     0.082 C 
HETATM    2  C4  UNL     1       2.481 -11.516  14.140  1.00  0.00     0.020 C 
HETATM    3  C5  UNL     1       2.795 -12.212  15.400  1.00  0.00    -0.005 C 
HETATM    4  C6  UNL     1       2.021 -11.798  16.602  1.00  0.00    -0.009 C 
HETATM    5  C7  UNL     1       0.582 -11.479  16.345  1.00  0.00     0.010 C 
HETATM    6  C8  UNL     1       0.239 -11.995  14.944  1.00  0.00    -0.001 C 
HETATM    7  C9  UNL     1       0.714 -13.432  14.906  1.00  0.00     0.010 C 
HETATM    8  C10 UNL     1       2.096 -13.563  15.498  1.00  0.00    -0.009 C 
HETATM    9  C11 UNL     1       2.042 -13.283  17.007  1.00  0.00     0.010 C 
ENDROOT
BRANCH   1  10
HETATM   10  C2  UNL     1       0.572 -11.181  12.613  1.00  0.00     0.221 C 
HETATM   11  N1  UNL     1       1.437 -11.817  11.679  1.00  0.00    -0.365 N 
HETATM   12  C1  UNL     1       1.053 -11.923  10.285  1.00  0.00     0.149 C 
ATOM     13  H1  UNL     1       2.329 -12.200  11.992  1.00  0.00     0.161 HD
HETATM   14  O1  UNL     1      -0.512 -10.716  12.239  1.00  0.00    -0.273 OA
ENDBRANCH   1  10
TORSDOF 1
ENDMDL
