MODEL 1
REMARK VINA RESULT: -4.531026946      0.000      0.000
REMARK  2 active torsions:
REMARK  status: ('A' for Active; 'I' for Inactive)
REMARK    1  A    between atoms: C5_5  and  C6_6 
REMARK    2  A    between atoms: N2_8  and  N3_10 
ROOT
HETATM    1  C6  UNL     1       1.150 -12.237  16.227  1.00  0.00     0.119 C 
HETATM    2  N1  UNL     1       0.233 -11.239  16.656  1.00  0.00    -0.086 NA
HETATM    3  N2  UNL     1       1.440 -12.233  14.980  1.00  0.00    -0.208 N 
ATOM      4  H2  UNL     1       2.099 -12.954  14.685  1.00  0.00     0.195 HD
ENDROOT
BRANCH   1   5
HETATM    5  C5  UNL     1       1.750 -13.233  17.142  1.00  0.00     0.060 A 
HETATM    6  C2  UNL     1       1.664 -14.666  16.974  1.00  0.00    -0.037 A 
HETATM    7  C1  UNL     1       0.831 -15.374  15.954  1.00  0.00     0.015 C 
HETATM    8  C3  UNL     1       1.870 -15.528  18.209  1.00  0.00     0.015 C 
HETATM    9  C4  UNL     1       2.939 -13.970  16.539  1.00  0.00     0.022 A 
ENDBRANCH   1   5
BRANCH   3  10
HETATM   10  N3  UNL     1       0.998 -11.407  13.987  1.00  0.00     0.001 N 
HETATM   11  C7  UNL     1       1.633 -11.823  12.748  1.00  0.00     0.301 C 
HETATM   12  C8  UNL     1      -0.441 -11.514  13.756  1.00  0.00     0.301 C 
HETATM   13  C9  UNL     1       1.253  -9.990  14.235  1.00  0.00     0.301 C 
ENDBRANCH   3  10
TORSDOF 2
ENDMDL
MODEL 2
REMARK VINA RESULT: -4.516468077      0.870      1.626
REMARK  2 active torsions:
REMARK  status: ('A' for Active; 'I' for Inactive)
REMARK    1  A    between atoms: C5_5  and  C6_6 
REMARK    2  A    between atoms: N2_8  and  N3_10 
ROOT
HETATM    1  C6  UNL     1       1.003 -12.662  15.311  1.00  0.00     0.119 C 
HETATM    2  N1  UNL     1       0.252 -13.397  14.353  1.00  0.00    -0.086 NA
HETATM    3  N2  UNL     1       1.221 -11.433  15.030  1.00  0.00    -0.208 N 
ATOM      4  H2  UNL     1       1.761 -10.918  15.725  1.00  0.00     0.195 HD
ENDROOT
BRANCH   1   5
HETATM    5  C5  UNL     1       1.513 -13.256  16.566  1.00  0.00     0.060 A 
HETATM    6  C2  UNL     1       1.899 -14.640  16.728  1.00  0.00    -0.037 A 
HETATM    7  C1  UNL     1       1.697 -15.723  15.717  1.00  0.00     0.015 C 
HETATM    8  C3  UNL     1       1.911 -15.202  18.140  1.00  0.00     0.015 C 
HETATM    9  C4  UNL     1       2.993 -13.613  16.508  1.00  0.00     0.022 A 
ENDBRANCH   1   5
BRANCH   3  10
HETATM   10  N3  UNL     1       0.838 -10.710  13.937  1.00  0.00     0.001 N 
HETATM   11  C7  UNL     1       1.228  -9.328  14.161  1.00  0.00     0.301 C 
HETATM   12  C8  UNL     1       1.518 -11.125  12.712  1.00  0.00     0.301 C 
HETATM   13  C9  UNL     1      -0.590 -10.790  13.642  1.00  0.00     0.301 C 
ENDBRANCH   3  10
TORSDOF 2
ENDMDL
MODEL 3
REMARK VINA RESULT: -4.435322293      0.883      1.676
REMARK  2 active torsions:
REMARK  status: ('A' for Active; 'I' for Inactive)
REMARK    1  A    between atoms: C5_5  and  C6_6 
REMARK    2  A    between atoms: N2_8  and  N3_10 
ROOT
HETATM    1  C6  UNL     1       0.964 -12.648  15.351  1.00  0.00     0.119 C 
HETATM    2  N1  UNL     1       0.279 -13.398  14.355  1.00  0.00    -0.086 NA
HETATM    3  N2  UNL     1       1.114 -11.400  15.110  1.00  0.00    -0.208 N 
ATOM      4  H2  UNL     1       1.607 -10.874  15.831  1.00  0.00     0.195 HD
ENDROOT
BRANCH   1   5
HETATM    5  C5  UNL     1       1.484 -13.247  16.600  1.00  0.00     0.060 A 
HETATM    6  C2  UNL     1       1.905 -14.623  16.743  1.00  0.00    -0.037 A 
HETATM    7  C1  UNL     1       1.736 -15.696  15.715  1.00  0.00     0.015 C 
HETATM    8  C3  UNL     1       1.924 -15.206  18.146  1.00  0.00     0.015 C 
HETATM    9  C4  UNL     1       2.973 -13.565  16.544  1.00  0.00     0.022 A 
ENDBRANCH   1   5
BRANCH   3  10
HETATM   10  N3  UNL     1       0.711 -10.669  14.029  1.00  0.00     0.001 N 
HETATM   11  C7  UNL     1      -0.742 -10.683  14.001  1.00  0.00     0.301 C 
HETATM   12  C8  UNL     1       1.097  -9.262  14.117  1.00  0.00     0.301 C 
HETATM   13  C9  UNL     1       1.246 -11.145  12.756  1.00  0.00     0.301 C 
ENDBRANCH   3  10
TORSDOF 2
ENDMDL
MODEL 4
REMARK VINA RESULT: -4.406439701      1.058      2.050
REMARK  2 active torsions:
REMARK  status: ('A' for Active; 'I' for Inactive)
REMARK    1  A    between atoms: C5_5  and  C6_6 
REMARK    2  A    between atoms: N2_8  and  N3_10 
ROOT
HETATM    1  C6  UNL     1       1.278 -12.477  15.974  1.00  0.00     0.119 C 
HETATM    2  N1  UNL     1       1.636 -12.622  14.605  1.00  0.00    -0.086 NA
HETATM    3  N2  UNL     1       0.462 -11.530  16.243  1.00  0.00    -0.208 N 
ATOM      4  H2  UNL     1       0.214 -11.437  17.229  1.00  0.00     0.195 HD
ENDROOT
BRANCH   1   5
HETATM    5  C5  UNL     1       1.803 -13.354  17.044  1.00  0.00     0.060 A 
HETATM    6  C2  UNL     1       1.683 -14.794  17.064  1.00  0.00    -0.037 A 
HETATM    7  C1  UNL     1       0.880 -15.614  16.105  1.00  0.00     0.015 C 
HETATM    8  C3  UNL     1       1.802 -15.487  18.412  1.00  0.00     0.015 C 
HETATM    9  C4  UNL     1       2.998 -14.193  16.607  1.00  0.00     0.022 A 
ENDBRANCH   1   5
BRANCH   3  10
HETATM   10  N3  UNL     1      -0.127 -10.625  15.407  1.00  0.00     0.001 N 
HETATM   11  C7  UNL     1      -1.007  -9.789  16.206  1.00  0.00     0.301 C 
HETATM   12  C8  UNL     1       0.833  -9.716  14.784  1.00  0.00     0.301 C 
HETATM   13  C9  UNL     1      -0.870 -11.231  14.304  1.00  0.00     0.301 C 
ENDBRANCH   3  10
TORSDOF 2
ENDMDL
MODEL 5
REMARK VINA RESULT: -4.356438210      2.192      5.250
REMARK  2 active torsions:
REMARK  status: ('A' for Active; 'I' for Inactive)
REMARK    1  A    between atoms: C5_5  and  C6_6 
REMARK    2  A    between atoms: N2_8  and  N3_10 
ROOT
HETATM    1  C6  UNL     1      -0.716 -11.357  14.422  1.00  0.00     0.119 C 
HETATM    2  N1  UNL     1      -0.398 -11.991  13.190  1.00  0.00    -0.086 NA
HETATM    3  N2  UNL     1       0.068 -11.610  15.402  1.00  0.00    -0.208 N 
ATOM      4  H2  UNL     1      -0.171 -11.149  16.280  1.00  0.00     0.195 HD
ENDROOT
BRANCH   1   5
HETATM    5  C5  UNL     1      -1.875 -10.453  14.592  1.00  0.00     0.060 A 
HETATM    6  C2  UNL     1      -1.812  -9.010  14.542  1.00  0.00    -0.037 A 
HETATM    7  C1  UNL     1      -0.559  -8.196  14.474  1.00  0.00     0.015 C 
HETATM    8  C3  UNL     1      -2.932  -8.237  15.219  1.00  0.00     0.015 C 
HETATM    9  C4  UNL     1      -2.286  -9.748  13.306  1.00  0.00     0.022 A 
ENDBRANCH   1   5
BRANCH   3  10
HETATM   10  N3  UNL     1       1.177 -12.406  15.445  1.00  0.00     0.001 N 
HETATM   11  C7  UNL     1       1.701 -12.363  16.799  1.00  0.00     0.301 C 
HETATM   12  C8  UNL     1       0.880 -13.811  15.173  1.00  0.00     0.301 C 
HETATM   13  C9  UNL     1       2.216 -12.030  14.489  1.00  0.00     0.301 C 
ENDBRANCH   3  10
TORSDOF 2
ENDMDL
