MODEL 1
REMARK VINA RESULT: -4.649860232      0.000      0.000
REMARK  3 active torsions:
REMARK  status: ('A' for Active; 'I' for Inactive)
REMARK    1  A    between atoms: C5_5  and  N1_6 
REMARK    2  A    between atoms: N1_6  and  C6_8 
REMARK    3  A    between atoms: C6_8  and  C7_10 
ROOT
HETATM    1  C1  UNL     1       2.032 -15.637  18.340  1.00  0.00     0.012 C 
HETATM    2  C2  UNL     1       1.473 -15.426  17.293  1.00  0.00    -0.110 C 
HETATM    3  C3  UNL     1       0.770 -15.184  16.025  1.00  0.00     0.088 A 
HETATM    4  C4  UNL     1       1.562 -15.347  14.795  1.00  0.00     0.045 A 
HETATM    5  C5  UNL     1       1.073 -13.982  15.249  1.00  0.00     0.099 A 
ENDROOT
BRANCH   5   6
HETATM    6  N1  UNL     1       0.122 -13.329  14.405  1.00  0.00    -0.378 N 
ATOM      7  H1  UNL     1      -0.731 -13.826  14.151  1.00  0.00     0.160 HD
BRANCH   6   8
HETATM    8  C6  UNL     1       0.322 -12.017  13.908  1.00  0.00     0.077 C 
HETATM    9  S1  UNL     1      -0.936 -10.983  13.960  1.00  0.00    -0.065 SA
BRANCH   8  10
HETATM   10  C7  UNL     1       1.599 -11.530  13.349  1.00  0.00     0.047 A 
HETATM   11  C8  UNL     1       1.675 -10.428  12.383  1.00  0.00     0.012 A 
HETATM   12  C9  UNL     1       1.744 -11.817  11.837  1.00  0.00     0.012 A 
ENDBRANCH   8  10
ENDBRANCH   6   8
ENDBRANCH   5   6
TORSDOF 3
ENDMDL
MODEL 2
REMARK VINA RESULT: -4.553586112      1.563      2.146
REMARK  3 active torsions:
REMARK  status: ('A' for Active; 'I' for Inactive)
REMARK    1  A    between atoms: C5_5  and  N1_6 
REMARK    2  A    between atoms: N1_6  and  C6_8 
REMARK    3  A    between atoms: C6_8  and  C7_10 
ROOT
HETATM    1  C1  UNL     1       2.052 -15.660  18.624  1.00  0.00     0.012 C 
HETATM    2  C2  UNL     1       1.514 -15.509  17.555  1.00  0.00    -0.110 C 
HETATM    3  C3  UNL     1       0.837 -15.339  16.262  1.00  0.00     0.088 A 
HETATM    4  C4  UNL     1       1.652 -15.571  15.059  1.00  0.00     0.045 A 
HETATM    5  C5  UNL     1       1.155 -14.183  15.426  1.00  0.00     0.099 A 
ENDROOT
BRANCH   5   6
HETATM    6  N1  UNL     1       0.222 -13.579  14.527  1.00  0.00    -0.378 N 
ATOM      7  H1  UNL     1      -0.459 -14.173  14.055  1.00  0.00     0.160 HD
BRANCH   6   8
HETATM    8  C6  UNL     1       0.208 -12.186  14.269  1.00  0.00     0.077 C 
HETATM    9  S1  UNL     1       1.218 -11.612  13.126  1.00  0.00    -0.065 SA
BRANCH   8  10
HETATM   10  C7  UNL     1      -0.666 -11.224  14.970  1.00  0.00     0.047 A 
HETATM   11  C8  UNL     1      -0.313  -9.810  15.144  1.00  0.00     0.012 A 
HETATM   12  C9  UNL     1      -0.064 -10.721  16.302  1.00  0.00     0.012 A 
ENDBRANCH   8  10
ENDBRANCH   6   8
ENDBRANCH   5   6
TORSDOF 3
ENDMDL
MODEL 3
REMARK VINA RESULT: -4.527470713      0.872      1.106
REMARK  3 active torsions:
REMARK  status: ('A' for Active; 'I' for Inactive)
REMARK    1  A    between atoms: C5_5  and  N1_6 
REMARK    2  A    between atoms: N1_6  and  C6_8 
REMARK    3  A    between atoms: C6_8  and  C7_10 
ROOT
HETATM    1  C1  UNL     1       1.798 -15.418  17.763  1.00  0.00     0.012 C 
HETATM    2  C2  UNL     1       1.374 -15.092  16.682  1.00  0.00    -0.110 C 
HETATM    3  C3  UNL     1       0.843 -14.718  15.363  1.00  0.00     0.088 A 
HETATM    4  C4  UNL     1       1.802 -14.134  14.412  1.00  0.00     0.045 A 
HETATM    5  C5  UNL     1       0.684 -13.306  15.022  1.00  0.00     0.099 A 
ENDROOT
BRANCH   5   6
HETATM    6  N1  UNL     1      -0.316 -12.820  14.124  1.00  0.00    -0.378 N 
ATOM      7  H1  UNL     1      -0.985 -13.481  13.731  1.00  0.00     0.160 HD
BRANCH   6   8
HETATM    8  C6  UNL     1      -0.411 -11.454  13.759  1.00  0.00     0.077 C 
HETATM    9  S1  UNL     1      -1.333 -10.480  14.683  1.00  0.00    -0.065 SA
BRANCH   8  10
HETATM   10  C7  UNL     1       0.276 -10.860  12.594  1.00  0.00     0.047 A 
HETATM   11  C8  UNL     1       1.363 -11.538  11.881  1.00  0.00     0.012 A 
HETATM   12  C9  UNL     1       1.751 -10.499  12.882  1.00  0.00     0.012 A 
ENDBRANCH   8  10
ENDBRANCH   6   8
ENDBRANCH   5   6
TORSDOF 3
ENDMDL
MODEL 4
REMARK VINA RESULT: -4.411976457      1.679      2.102
REMARK  3 active torsions:
REMARK  status: ('A' for Active; 'I' for Inactive)
REMARK    1  A    between atoms: C5_5  and  N1_6 
REMARK    2  A    between atoms: N1_6  and  C6_8 
REMARK    3  A    between atoms: C6_8  and  C7_10 
ROOT
HETATM    1  C1  UNL     1       2.014 -15.671  18.200  1.00  0.00     0.012 C 
HETATM    2  C2  UNL     1       1.439 -15.395  17.177  1.00  0.00    -0.110 C 
HETATM    3  C3  UNL     1       0.718 -15.073  15.937  1.00  0.00     0.088 A 
HETATM    4  C4  UNL     1       1.486 -15.169  14.686  1.00  0.00     0.045 A 
HETATM    5  C5  UNL     1       1.018 -13.830  15.229  1.00  0.00     0.099 A 
ENDROOT
BRANCH   5   6
HETATM    6  N1  UNL     1       0.059 -13.121  14.441  1.00  0.00    -0.378 N 
ATOM      7  H1  UNL     1      -0.454 -13.627  13.719  1.00  0.00     0.160 HD
BRANCH   6   8
HETATM    8  C6  UNL     1      -0.206 -11.741  14.626  1.00  0.00     0.077 C 
HETATM    9  S1  UNL     1       0.271 -11.054  16.024  1.00  0.00    -0.065 SA
BRANCH   8  10
HETATM   10  C7  UNL     1      -0.885 -10.889  13.630  1.00  0.00     0.047 A 
HETATM   11  C8  UNL     1      -1.331  -9.523  13.925  1.00  0.00     0.012 A 
HETATM   12  C9  UNL     1      -2.362 -10.603  13.986  1.00  0.00     0.012 A 
ENDBRANCH   8  10
ENDBRANCH   6   8
ENDBRANCH   5   6
TORSDOF 3
ENDMDL
MODEL 5
REMARK VINA RESULT: -4.366523804      1.845      2.493
REMARK  3 active torsions:
REMARK  status: ('A' for Active; 'I' for Inactive)
REMARK    1  A    between atoms: C5_5  and  N1_6 
REMARK    2  A    between atoms: N1_6  and  C6_8 
REMARK    3  A    between atoms: C6_8  and  C7_10 
ROOT
HETATM    1  C1  UNL     1       1.819 -15.420  17.622  1.00  0.00     0.012 C 
HETATM    2  C2  UNL     1       1.395 -15.056  16.554  1.00  0.00    -0.110 C 
HETATM    3  C3  UNL     1       0.867 -14.636  15.248  1.00  0.00     0.088 A 
HETATM    4  C4  UNL     1       1.788 -13.887  14.378  1.00  0.00     0.045 A 
HETATM    5  C5  UNL     1       0.574 -13.224  15.007  1.00  0.00     0.099 A 
ENDROOT
BRANCH   5   6
HETATM    6  N1  UNL     1      -0.444 -12.773  14.111  1.00  0.00    -0.378 N 
ATOM      7  H1  UNL     1      -1.044 -13.464  13.661  1.00  0.00     0.160 HD
BRANCH   6   8
HETATM    8  C6  UNL     1      -0.652 -11.401  13.826  1.00  0.00     0.077 C 
HETATM    9  S1  UNL     1       0.263 -10.717  12.663  1.00  0.00    -0.065 SA
BRANCH   8  10
HETATM   10  C7  UNL     1      -1.646 -10.553  14.515  1.00  0.00     0.047 A 
HETATM   11  C8  UNL     1      -1.460  -9.112  14.714  1.00  0.00     0.012 A 
HETATM   12  C9  UNL     1      -1.137 -10.005  15.868  1.00  0.00     0.012 A 
ENDBRANCH   8  10
ENDBRANCH   6   8
ENDBRANCH   5   6
TORSDOF 3
ENDMDL
