MODEL 1
REMARK VINA RESULT: -5.886615618      0.000      0.000
REMARK  2 active torsions:
REMARK  status: ('A' for Active; 'I' for Inactive)
REMARK    1  A    between atoms: C2_2  and  C3_4 
REMARK    2  A    between atoms: C9_10  and  C10_11 
ROOT
HETATM    1  C3  UNL     1      -0.773  14.076  15.726  1.00  0.00     0.059 C 
HETATM    2  C4  UNL     1      -0.878  14.092  14.213  1.00  0.00     0.018 C 
HETATM    3  C5  UNL     1      -1.703  12.878  13.828  1.00  0.00    -0.001 C 
HETATM    4  C6  UNL     1      -2.531  12.725  15.123  1.00  0.00     0.011 C 
HETATM    5  C7  UNL     1      -1.281  12.682  16.024  1.00  0.00    -0.002 C 
HETATM    6  C8  UNL     1      -0.343  11.724  15.327  1.00  0.00     0.019 C 
HETATM    7  C9  UNL     1      -0.942  11.600  13.943  1.00  0.00     0.079 C 
ENDROOT
BRANCH   1   8
HETATM    8  C2  UNL     1      -1.607  15.131  16.346  1.00  0.00     0.127 C 
HETATM    9  C1  UNL     1      -2.069  15.101  17.745  1.00  0.00     0.091 C 
HETATM   10  O1  UNL     1      -1.951  16.110  15.672  1.00  0.00    -0.298 OA
ENDBRANCH   1   8
BRANCH   7  11
HETATM   11  C10 UNL     1       0.048  11.374  12.893  1.00  0.00     0.235 C 
HETATM   12  N1  UNL     1      -0.363  11.426  11.542  1.00  0.00    -0.062 NA
HETATM   13  O2  UNL     1       1.235  11.141  13.212  1.00  0.00    -0.276 OA
ENDBRANCH   7  11
TORSDOF 2
ENDMDL
MODEL 2
REMARK VINA RESULT: -5.323654519      2.391      4.664
REMARK  2 active torsions:
REMARK  status: ('A' for Active; 'I' for Inactive)
REMARK    1  A    between atoms: C2_2  and  C3_4 
REMARK    2  A    between atoms: C9_10  and  C10_11 
ROOT
HETATM    1  C3  UNL     1      -1.811  12.588  13.694  1.00  0.00     0.059 C 
HETATM    2  C4  UNL     1      -0.794  13.638  14.098  1.00  0.00     0.018 C 
HETATM    3  C5  UNL     1      -0.519  13.421  15.575  1.00  0.00    -0.001 C 
HETATM    4  C6  UNL     1      -0.842  11.913  15.665  1.00  0.00     0.011 C 
HETATM    5  C7  UNL     1      -2.247  12.086  15.053  1.00  0.00    -0.002 C 
HETATM    6  C8  UNL     1      -2.835  13.273  15.782  1.00  0.00     0.019 C 
HETATM    7  C9  UNL     1      -1.630  13.901  16.448  1.00  0.00     0.079 C 
ENDROOT
BRANCH   1   8
HETATM    8  C2  UNL     1      -1.204  11.525  12.862  1.00  0.00     0.127 C 
HETATM    9  C1  UNL     1      -1.824  10.211  12.619  1.00  0.00     0.091 C 
HETATM   10  O1  UNL     1      -0.108  11.725  12.323  1.00  0.00    -0.298 OA
ENDBRANCH   1   8
BRANCH   7  11
HETATM   11  C10 UNL     1      -1.726  15.353  16.584  1.00  0.00     0.235 C 
HETATM   12  N1  UNL     1      -1.562  15.933  17.862  1.00  0.00    -0.062 NA
HETATM   13  O2  UNL     1      -1.950  16.049  15.568  1.00  0.00    -0.276 OA
ENDBRANCH   7  11
TORSDOF 2
ENDMDL
MODEL 3
REMARK VINA RESULT: -5.236077283      2.497      4.748
REMARK  2 active torsions:
REMARK  status: ('A' for Active; 'I' for Inactive)
REMARK    1  A    between atoms: C2_2  and  C3_4 
REMARK    2  A    between atoms: C9_10  and  C10_11 
ROOT
HETATM    1  C3  UNL     1      -0.007  12.687  14.900  1.00  0.00     0.059 C 
HETATM    2  C4  UNL     1      -1.130  12.516  15.905  1.00  0.00     0.018 C 
HETATM    3  C5  UNL     1      -2.207  13.514  15.516  1.00  0.00    -0.001 C 
HETATM    4  C6  UNL     1      -1.905  13.623  14.006  1.00  0.00     0.011 C 
HETATM    5  C7  UNL     1      -0.423  13.981  14.235  1.00  0.00    -0.002 C 
HETATM    6  C8  UNL     1      -0.452  15.033  15.321  1.00  0.00     0.019 C 
HETATM    7  C9  UNL     1      -1.853  14.918  15.878  1.00  0.00     0.079 C 
ENDROOT
BRANCH   1   8
HETATM    8  C2  UNL     1       0.058  11.554  13.949  1.00  0.00     0.127 C 
HETATM    9  C1  UNL     1      -0.487  10.214  14.225  1.00  0.00     0.091 C 
HETATM   10  O1  UNL     1       0.598  11.714  12.847  1.00  0.00    -0.298 OA
ENDBRANCH   1   8
BRANCH   7  11
HETATM   11  C10 UNL     1      -1.946  15.231  17.302  1.00  0.00     0.235 C 
HETATM   12  N1  UNL     1      -1.164  16.286  17.823  1.00  0.00    -0.062 NA
HETATM   13  O2  UNL     1      -2.713  14.559  18.027  1.00  0.00    -0.276 OA
ENDBRANCH   7  11
TORSDOF 2
ENDMDL
MODEL 4
REMARK VINA RESULT: -5.175407350      2.328      4.637
REMARK  2 active torsions:
REMARK  status: ('A' for Active; 'I' for Inactive)
REMARK    1  A    between atoms: C2_2  and  C3_4 
REMARK    2  A    between atoms: C9_10  and  C10_11 
ROOT
HETATM    1  C3  UNL     1      -0.169  12.622  14.074  1.00  0.00     0.059 C 
HETATM    2  C4  UNL     1      -0.359  12.409  15.564  1.00  0.00     0.018 C 
HETATM    3  C5  UNL     1      -1.824  12.682  15.852  1.00  0.00    -0.001 C 
HETATM    4  C6  UNL     1      -2.414  12.332  14.468  1.00  0.00     0.011 C 
HETATM    5  C7  UNL     1      -1.475  13.302  13.722  1.00  0.00    -0.002 C 
HETATM    6  C8  UNL     1      -1.528  14.578  14.531  1.00  0.00     0.019 C 
HETATM    7  C9  UNL     1      -2.158  14.136  15.833  1.00  0.00     0.079 C 
ENDROOT
BRANCH   1   8
HETATM    8  C2  UNL     1       0.019  11.342  13.355  1.00  0.00     0.127 C 
HETATM    9  C1  UNL     1       0.224  10.044  14.020  1.00  0.00     0.091 C 
HETATM   10  O1  UNL     1       0.007  11.332  12.118  1.00  0.00    -0.298 OA
ENDBRANCH   1   8
BRANCH   7  11
HETATM   11  C10 UNL     1      -1.693  14.891  16.995  1.00  0.00     0.235 C 
HETATM   12  N1  UNL     1      -0.951  16.075  16.790  1.00  0.00    -0.062 NA
HETATM   13  O2  UNL     1      -1.962  14.473  18.144  1.00  0.00    -0.276 OA
ENDBRANCH   7  11
TORSDOF 2
ENDMDL
MODEL 5
REMARK VINA RESULT: -5.088864971      1.182      1.229
REMARK  2 active torsions:
REMARK  status: ('A' for Active; 'I' for Inactive)
REMARK    1  A    between atoms: C2_2  and  C3_4 
REMARK    2  A    between atoms: C9_10  and  C10_11 
ROOT
HETATM    1  C3  UNL     1      -0.763  13.120  15.649  1.00  0.00     0.059 C 
HETATM    2  C4  UNL     1      -0.806  13.430  14.164  1.00  0.00     0.018 C 
HETATM    3  C5  UNL     1      -1.694  12.373  13.533  1.00  0.00    -0.001 C 
HETATM    4  C6  UNL     1      -2.580  12.038  14.752  1.00  0.00     0.011 C 
HETATM    5  C7  UNL     1      -1.372  11.736  15.661  1.00  0.00    -0.002 C 
HETATM    6  C8  UNL     1      -0.473  10.861  14.818  1.00  0.00     0.019 C 
HETATM    7  C9  UNL     1      -1.024  11.044  13.421  1.00  0.00     0.079 C 
ENDROOT
BRANCH   1   8
HETATM    8  C2  UNL     1      -1.549  14.096  16.437  1.00  0.00     0.127 C 
HETATM    9  C1  UNL     1      -1.829  15.475  16.001  1.00  0.00     0.091 C 
HETATM   10  O1  UNL     1      -2.012  13.760  17.534  1.00  0.00    -0.298 OA
ENDBRANCH   1   8
BRANCH   7  11
HETATM   11  C10 UNL     1      -0.009  10.951  12.374  1.00  0.00     0.235 C 
HETATM   12  N1  UNL     1      -0.351  11.322  11.054  1.00  0.00    -0.062 NA
HETATM   13  O2  UNL     1       1.138  10.545  12.667  1.00  0.00    -0.276 OA
ENDBRANCH   7  11
TORSDOF 2
ENDMDL
