MODEL 1
REMARK VINA RESULT: -5.970484198      0.000      0.000
REMARK  1 active torsions:
REMARK  status: ('A' for Active; 'I' for Inactive)
REMARK    1  A    between atoms: C7_7  and  N1_8 
REMARK       I    between atoms: N1_8  and  C8_10 
REMARK       I    between atoms: C8_10  and  N2_12 
ROOT
HETATM    1  C1  UNL     1       1.358 -11.252  10.928  1.00  0.00     0.015 C 
HETATM    2  C2  UNL     1       0.883 -10.210  11.878  1.00  0.00    -0.042 C 
HETATM    3  C3  UNL     1      -0.385  -9.586  11.408  1.00  0.00     0.015 C 
HETATM    4  C4  UNL     1       1.906  -9.072  12.033  1.00  0.00     0.014 C 
HETATM    5  C5  UNL     1       1.990  -8.765  13.487  1.00  0.00    -0.012 C 
HETATM    6  C6  UNL     1       2.931  -9.791  14.116  1.00  0.00     0.030 C 
HETATM    7  C7  UNL     1       2.210 -11.074  13.718  1.00  0.00     0.091 C 
HETATM    8  C12 UNL     1       0.822 -10.695  13.309  1.00  0.00     0.017 C 
HETATM    9  C13 UNL     1       0.668  -9.340  14.023  1.00  0.00     0.012 C 
ENDROOT
BRANCH   7  10
HETATM   10  N1  UNL     1       2.257 -12.058  14.767  1.00  0.00    -0.338 N 
HETATM   11  C8  UNL     1       1.836 -13.394  14.629  1.00  0.00     0.320 C 
HETATM   12  O1  UNL     1       1.387 -13.782  13.536  1.00  0.00    -0.247 OA
HETATM   13  N2  UNL     1       1.918 -14.289  15.709  1.00  0.00    -0.303 N 
HETATM   14  C9  UNL     1       1.569 -15.696  15.866  1.00  0.00     0.135 C 
HETATM   15  C11 UNL     1       2.364 -14.243  17.102  1.00  0.00     0.276 C 
HETATM   16  C10 UNL     1       1.528 -15.492  17.364  1.00  0.00     0.079 C 
HETATM   17  F1  UNL     1       1.890 -13.175  17.812  1.00  0.00    -0.227 F 
ATOM     18  H1  UNL     1       2.620 -11.767  15.675  1.00  0.00     0.164 HD
ENDBRANCH   7  10
TORSDOF 1
ENDMDL
MODEL 2
REMARK VINA RESULT: -5.946390461      1.313      1.996
REMARK  1 active torsions:
REMARK  status: ('A' for Active; 'I' for Inactive)
REMARK    1  A    between atoms: C7_7  and  N1_8 
REMARK       I    between atoms: N1_8  and  C8_10 
REMARK       I    between atoms: C8_10  and  N2_12 
ROOT
HETATM    1  C1  UNL     1      -2.416 -10.192  13.488  1.00  0.00     0.015 C 
HETATM    2  C2  UNL     1      -1.174  -9.390  13.317  1.00  0.00    -0.042 C 
HETATM    3  C3  UNL     1      -1.442  -7.935  13.481  1.00  0.00     0.015 C 
HETATM    4  C4  UNL     1      -0.567  -9.574  11.915  1.00  0.00     0.014 C 
HETATM    5  C5  UNL     1       0.901  -9.736  12.101  1.00  0.00    -0.012 C 
HETATM    6  C6  UNL     1       1.154 -11.194  12.479  1.00  0.00     0.030 C 
HETATM    7  C7  UNL     1       0.282 -11.289  13.726  1.00  0.00     0.091 C 
HETATM    8  C12 UNL     1      -0.024  -9.891  14.161  1.00  0.00     0.017 C 
HETATM    9  C13 UNL     1       1.128  -9.120  13.492  1.00  0.00     0.012 C 
ENDROOT
BRANCH   7  10
HETATM   10  N1  UNL     1       0.901 -12.092  14.748  1.00  0.00    -0.338 N 
HETATM   11  C8  UNL     1       0.772 -13.490  14.852  1.00  0.00     0.320 C 
HETATM   12  O1  UNL     1       0.082 -14.103  14.019  1.00  0.00    -0.247 OA
HETATM   13  N2  UNL     1       1.413 -14.195  15.884  1.00  0.00    -0.303 N 
HETATM   14  C9  UNL     1       1.465 -15.608  16.243  1.00  0.00     0.135 C 
HETATM   15  C11 UNL     1       2.279 -13.874  17.020  1.00  0.00     0.276 C 
HETATM   16  C10 UNL     1       1.885 -15.211  17.641  1.00  0.00     0.079 C 
HETATM   17  F1  UNL     1       1.842 -12.828  17.785  1.00  0.00    -0.227 F 
ATOM     18  H1  UNL     1       1.472 -11.615  15.445  1.00  0.00     0.164 HD
ENDBRANCH   7  10
TORSDOF 1
ENDMDL
MODEL 3
REMARK VINA RESULT: -5.770351556      1.891      2.563
REMARK  1 active torsions:
REMARK  status: ('A' for Active; 'I' for Inactive)
REMARK    1  A    between atoms: C7_7  and  N1_8 
REMARK       I    between atoms: N1_8  and  C8_10 
REMARK       I    between atoms: C8_10  and  N2_12 
ROOT
HETATM    1  C1  UNL     1      -2.682 -10.126  13.506  1.00  0.00     0.015 C 
HETATM    2  C2  UNL     1      -2.023  -9.132  14.397  1.00  0.00    -0.042 C 
HETATM    3  C3  UNL     1      -3.026  -8.268  15.079  1.00  0.00     0.015 C 
HETATM    4  C4  UNL     1      -1.091  -8.194  13.612  1.00  0.00     0.014 C 
HETATM    5  C5  UNL     1       0.160  -8.066  14.409  1.00  0.00    -0.012 C 
HETATM    6  C6  UNL     1       1.021  -9.291  14.106  1.00  0.00     0.030 C 
HETATM    7  C7  UNL     1       0.049 -10.393  14.513  1.00  0.00     0.091 C 
HETATM    8  C12 UNL     1      -1.021  -9.756  15.342  1.00  0.00     0.017 C 
HETATM    9  C13 UNL     1      -0.302  -8.481  15.816  1.00  0.00     0.012 C 
ENDROOT
BRANCH   7  10
HETATM   10  N1  UNL     1       0.722 -11.481  15.171  1.00  0.00    -0.338 N 
HETATM   11  C8  UNL     1       0.619 -12.831  14.790  1.00  0.00     0.320 C 
HETATM   12  O1  UNL     1      -0.097 -13.139  13.820  1.00  0.00    -0.247 OA
HETATM   13  N2  UNL     1       1.314 -13.831  15.491  1.00  0.00    -0.303 N 
HETATM   14  C9  UNL     1       1.403 -15.279  15.336  1.00  0.00     0.135 C 
HETATM   15  C11 UNL     1       2.223 -13.897  16.636  1.00  0.00     0.276 C 
HETATM   16  C10 UNL     1       1.876 -15.377  16.769  1.00  0.00     0.079 C 
HETATM   17  F1  UNL     1       1.804 -13.192  17.731  1.00  0.00    -0.227 F 
ATOM     18  H1  UNL     1       1.315 -11.258  15.970  1.00  0.00     0.164 HD
ENDBRANCH   7  10
TORSDOF 1
ENDMDL
MODEL 4
REMARK VINA RESULT: -5.768784421      2.337      3.024
REMARK  1 active torsions:
REMARK  status: ('A' for Active; 'I' for Inactive)
REMARK    1  A    between atoms: C7_7  and  N1_8 
REMARK       I    between atoms: N1_8  and  C8_10 
REMARK       I    between atoms: C8_10  and  N2_12 
ROOT
HETATM    1  C1  UNL     1       0.508  -8.732  12.414  1.00  0.00     0.015 C 
HETATM    2  C2  UNL     1      -0.947  -8.979  12.604  1.00  0.00    -0.042 C 
HETATM    3  C3  UNL     1      -1.727  -8.564  11.406  1.00  0.00     0.015 C 
HETATM    4  C4  UNL     1      -1.508  -8.184  13.795  1.00  0.00     0.014 C 
HETATM    5  C5  UNL     1      -2.394  -9.111  14.551  1.00  0.00    -0.012 C 
HETATM    6  C6  UNL     1      -1.500  -9.963  15.450  1.00  0.00     0.030 C 
HETATM    7  C7  UNL     1      -0.591 -10.580  14.394  1.00  0.00     0.091 C 
HETATM    8  C12 UNL     1      -1.255 -10.385  13.068  1.00  0.00     0.017 C 
HETATM    9  C13 UNL     1      -2.718 -10.187  13.501  1.00  0.00     0.012 C 
ENDROOT
BRANCH   7  10
HETATM   10  N1  UNL     1      -0.284 -11.954  14.692  1.00  0.00    -0.338 N 
HETATM   11  C8  UNL     1       0.828 -12.379  15.443  1.00  0.00     0.320 C 
HETATM   12  O1  UNL     1       1.620 -11.533  15.893  1.00  0.00    -0.247 OA
HETATM   13  N2  UNL     1       1.050 -13.745  15.686  1.00  0.00    -0.303 N 
HETATM   14  C9  UNL     1       2.087 -14.473  16.410  1.00  0.00     0.135 C 
HETATM   15  C11 UNL     1       0.393 -15.010  15.355  1.00  0.00     0.276 C 
HETATM   16  C10 UNL     1       1.714 -15.719  15.640  1.00  0.00     0.079 C 
HETATM   17  F1  UNL     1       0.041 -15.136  14.039  1.00  0.00    -0.227 F 
ATOM     18  H1  UNL     1      -0.916 -12.670  14.334  1.00  0.00     0.164 HD
ENDBRANCH   7  10
TORSDOF 1
ENDMDL
MODEL 5
REMARK VINA RESULT: -5.466166859      1.002      1.926
REMARK  1 active torsions:
REMARK  status: ('A' for Active; 'I' for Inactive)
REMARK    1  A    between atoms: C7_7  and  N1_8 
REMARK       I    between atoms: N1_8  and  C8_10 
REMARK       I    between atoms: C8_10  and  N2_12 
ROOT
HETATM    1  C1  UNL     1      -0.913  -8.847  14.065  1.00  0.00     0.015 C 
HETATM    2  C2  UNL     1       0.512  -8.609  13.709  1.00  0.00    -0.042 C 
HETATM    3  C3  UNL     1       0.890  -7.183  13.916  1.00  0.00     0.015 C 
HETATM    4  C4  UNL     1       0.792  -8.931  12.232  1.00  0.00     0.014 C 
HETATM    5  C5  UNL     1       2.074  -9.686  12.193  1.00  0.00    -0.012 C 
HETATM    6  C6  UNL     1       1.756 -11.143  12.523  1.00  0.00     0.030 C 
HETATM    7  C7  UNL     1       1.102 -10.957  13.888  1.00  0.00     0.091 C 
HETATM    8  C12 UNL     1       1.459  -9.586  14.368  1.00  0.00     0.017 C 
HETATM    9  C13 UNL     1       2.722  -9.306  13.534  1.00  0.00     0.012 C 
ENDROOT
BRANCH   7  10
HETATM   10  N1  UNL     1       1.470 -12.006  14.802  1.00  0.00    -0.338 N 
HETATM   11  C8  UNL     1       0.916 -13.299  14.798  1.00  0.00     0.320 C 
HETATM   12  O1  UNL     1       0.044 -13.587  13.959  1.00  0.00    -0.247 OA
HETATM   13  N2  UNL     1       1.336 -14.264  15.729  1.00  0.00    -0.303 N 
HETATM   14  C9  UNL     1       0.956 -15.652  15.967  1.00  0.00     0.135 C 
HETATM   15  C11 UNL     1       2.293 -14.336  16.834  1.00  0.00     0.276 C 
HETATM   16  C10 UNL     1       1.521 -15.541  17.365  1.00  0.00     0.079 C 
HETATM   17  F1  UNL     1       2.227 -13.285  17.707  1.00  0.00    -0.227 F 
ATOM     18  H1  UNL     1       2.183 -11.797  15.501  1.00  0.00     0.164 HD
ENDBRANCH   7  10
TORSDOF 1
ENDMDL
