MODEL 1
REMARK VINA RESULT: -6.023697817      0.000      0.000
REMARK  1 active torsions:
REMARK  status: ('A' for Active; 'I' for Inactive)
REMARK       I    between atoms: C2_2  and  N1_4 
REMARK    1  A    between atoms: N1_4  and  C3_6 
ROOT
HETATM    1  C3  UNL     1       2.079 -12.908  16.166  1.00  0.00     0.097 C 
HETATM    2  C4  UNL     1       2.213 -11.441  16.218  1.00  0.00     0.019 C 
HETATM    3  C5  UNL     1       3.279 -10.682  15.585  1.00  0.00     0.012 C 
HETATM    4  C6  UNL     1       2.628  -9.507  14.871  1.00  0.00    -0.014 C 
HETATM    5  C7  UNL     1       2.519  -9.860  13.430  1.00  0.00     0.005 C 
HETATM    6  C8  UNL     1       2.123 -11.322  13.208  1.00  0.00     0.009 C 
HETATM    7  C9  UNL     1       0.928 -11.578  14.017  1.00  0.00     0.029 A 
HETATM    8  C10 UNL     1       0.499 -12.994  14.289  1.00  0.00     0.181 A 
HETATM    9  F1  UNL     1       1.470 -13.869  13.826  1.00  0.00    -0.248 F 
HETATM   10  C11 UNL     1       0.616 -12.649  15.760  1.00  0.00     0.052 A 
HETATM   11  C12 UNL     1       0.958 -11.311  15.441  1.00  0.00    -0.020 A 
HETATM   12  C13 UNL     1       0.332 -10.056  15.787  1.00  0.00     0.011 C 
HETATM   13  C14 UNL     1       1.404  -8.992  15.523  1.00  0.00     0.005 C 
ENDROOT
BRANCH   1  14
HETATM   14  N1  UNL     1       2.103 -13.581  17.452  1.00  0.00    -0.356 N 
HETATM   15  C2  UNL     1       1.903 -14.982  17.502  1.00  0.00     0.213 C 
HETATM   16  C1  UNL     1       1.924 -15.684  18.805  1.00  0.00     0.117 C 
HETATM   17  O1  UNL     1       1.706 -15.643  16.452  1.00  0.00    -0.274 OA
ATOM     18  H1  UNL     1       2.262 -13.051  18.309  1.00  0.00     0.162 HD
ENDBRANCH   1  14
TORSDOF 1
ENDMDL
MODEL 2
REMARK VINA RESULT: -5.782814154      3.057      4.837
REMARK  1 active torsions:
REMARK  status: ('A' for Active; 'I' for Inactive)
REMARK       I    between atoms: C2_2  and  N1_4 
REMARK    1  A    between atoms: N1_4  and  C3_6 
ROOT
HETATM    1  C3  UNL     1       1.174 -11.229  13.284  1.00  0.00     0.097 C 
HETATM    2  C4  UNL     1       2.063 -11.977  14.191  1.00  0.00     0.019 C 
HETATM    3  C5  UNL     1       3.077 -11.375  15.041  1.00  0.00     0.012 C 
HETATM    4  C6  UNL     1       2.939 -12.008  16.418  1.00  0.00    -0.014 C 
HETATM    5  C7  UNL     1       2.180 -11.058  17.275  1.00  0.00     0.005 C 
HETATM    6  C8  UNL     1       1.031 -10.377  16.528  1.00  0.00     0.009 C 
HETATM    7  C9  UNL     1       0.238 -11.432  15.891  1.00  0.00     0.029 A 
HETATM    8  C10 UNL     1      -0.745 -11.078  14.807  1.00  0.00     0.181 A 
HETATM    9  F1  UNL     1      -0.600  -9.740  14.470  1.00  0.00    -0.248 F 
HETATM   10  C11 UNL     1       0.028 -12.035  13.922  1.00  0.00     0.052 A 
HETATM   11  C12 UNL     1       0.885 -12.373  14.998  1.00  0.00    -0.020 A 
HETATM   12  C13 UNL     1       1.168 -13.639  15.633  1.00  0.00     0.011 C 
HETATM   13  C14 UNL     1       2.473 -13.411  16.407  1.00  0.00     0.005 C 
ENDROOT
BRANCH   1  14
HETATM   14  N1  UNL     1       1.279 -11.581  11.880  1.00  0.00    -0.356 N 
HETATM   15  C2  UNL     1       0.563 -10.823  10.922  1.00  0.00     0.213 C 
HETATM   16  C1  UNL     1       0.659 -11.170   9.486  1.00  0.00     0.117 C 
HETATM   17  O1  UNL     1      -0.157  -9.855  11.273  1.00  0.00    -0.274 OA
ATOM     18  H1  UNL     1       1.861 -12.366  11.587  1.00  0.00     0.162 HD
ENDBRANCH   1  14
TORSDOF 1
ENDMDL
MODEL 3
REMARK VINA RESULT: -5.768311520      2.032      3.170
REMARK  1 active torsions:
REMARK  status: ('A' for Active; 'I' for Inactive)
REMARK       I    between atoms: C2_2  and  N1_4 
REMARK    1  A    between atoms: N1_4  and  C3_6 
ROOT
HETATM    1  C3  UNL     1       0.856 -12.336  14.931  1.00  0.00     0.097 C 
HETATM    2  C4  UNL     1       0.230 -11.945  13.654  1.00  0.00     0.019 C 
HETATM    3  C5  UNL     1      -0.937 -11.089  13.530  1.00  0.00     0.012 C 
HETATM    4  C6  UNL     1      -0.633 -10.074  12.438  1.00  0.00    -0.014 C 
HETATM    5  C7  UNL     1      -0.227  -8.807  13.102  1.00  0.00     0.005 C 
HETATM    6  C8  UNL     1       0.663  -9.039  14.326  1.00  0.00     0.009 C 
HETATM    7  C9  UNL     1       1.760  -9.917  13.907  1.00  0.00     0.029 A 
HETATM    8  C10 UNL     1       2.601 -10.609  14.946  1.00  0.00     0.181 A 
HETATM    9  F1  UNL     1       2.049 -10.404  16.201  1.00  0.00    -0.248 F 
HETATM   10  C11 UNL     1       2.186 -11.908  14.283  1.00  0.00     0.052 A 
HETATM   11  C12 UNL     1       1.458 -11.197  13.297  1.00  0.00    -0.020 A 
HETATM   12  C13 UNL     1       1.576 -11.168  11.857  1.00  0.00     0.011 C 
HETATM   13  C14 UNL     1       0.251 -10.573  11.363  1.00  0.00     0.005 C 
ENDROOT
BRANCH   1  14
HETATM   14  N1  UNL     1       0.894 -13.762  15.195  1.00  0.00    -0.356 N 
HETATM   15  C2  UNL     1       1.349 -14.220  16.455  1.00  0.00     0.213 C 
HETATM   16  C1  UNL     1       1.394 -15.672  16.740  1.00  0.00     0.117 C 
HETATM   17  O1  UNL     1       1.719 -13.409  17.340  1.00  0.00    -0.274 OA
ATOM     18  H1  UNL     1       0.595 -14.427  14.481  1.00  0.00     0.162 HD
ENDBRANCH   1  14
TORSDOF 1
ENDMDL
MODEL 4
REMARK VINA RESULT: -5.643241557      1.835      2.834
REMARK  1 active torsions:
REMARK  status: ('A' for Active; 'I' for Inactive)
REMARK       I    between atoms: C2_2  and  N1_4 
REMARK    1  A    between atoms: N1_4  and  C3_6 
ROOT
HETATM    1  C3  UNL     1       1.196 -12.085  15.047  1.00  0.00     0.097 C 
HETATM    2  C4  UNL     1      -0.106 -11.430  15.264  1.00  0.00     0.019 C 
HETATM    3  C5  UNL     1      -0.357 -10.387  16.244  1.00  0.00     0.012 C 
HETATM    4  C6  UNL     1      -1.153  -9.297  15.543  1.00  0.00    -0.014 C 
HETATM    5  C7  UNL     1      -0.204  -8.214  15.172  1.00  0.00     0.005 C 
HETATM    6  C8  UNL     1       1.138  -8.750  14.669  1.00  0.00     0.009 C 
HETATM    7  C9  UNL     1       0.850  -9.730  13.617  1.00  0.00     0.029 A 
HETATM    8  C10 UNL     1       1.924 -10.683  13.168  1.00  0.00     0.181 A 
HETATM    9  F1  UNL     1       3.028 -10.562  13.999  1.00  0.00    -0.248 F 
HETATM   10  C11 UNL     1       0.968 -11.795  13.552  1.00  0.00     0.052 A 
HETATM   11  C12 UNL     1      -0.026 -10.849  13.903  1.00  0.00    -0.020 A 
HETATM   12  C13 UNL     1      -1.368 -10.646  13.411  1.00  0.00     0.011 C 
HETATM   13  C14 UNL     1      -2.056  -9.782  14.477  1.00  0.00     0.005 C 
ENDROOT
BRANCH   1  14
HETATM   14  N1  UNL     1       1.213 -13.522  15.254  1.00  0.00    -0.356 N 
HETATM   15  C2  UNL     1       1.530 -14.031  16.537  1.00  0.00     0.213 C 
HETATM   16  C1  UNL     1       1.552 -15.493  16.766  1.00  0.00     0.117 C 
HETATM   17  O1  UNL     1       1.795 -13.257  17.491  1.00  0.00    -0.274 OA
ATOM     18  H1  UNL     1       0.999 -14.157  14.486  1.00  0.00     0.162 HD
ENDBRANCH   1  14
TORSDOF 1
ENDMDL
MODEL 5
REMARK VINA RESULT: -5.605258988      2.142      2.934
REMARK  1 active torsions:
REMARK  status: ('A' for Active; 'I' for Inactive)
REMARK       I    between atoms: C2_2  and  N1_4 
REMARK    1  A    between atoms: N1_4  and  C3_6 
ROOT
HETATM    1  C3  UNL     1       0.361 -12.122  14.429  1.00  0.00     0.097 C 
HETATM    2  C4  UNL     1       1.421 -11.381  13.721  1.00  0.00     0.019 C 
HETATM    3  C5  UNL     1       1.576 -11.331  12.277  1.00  0.00     0.012 C 
HETATM    4  C6  UNL     1       1.819  -9.877  11.903  1.00  0.00    -0.014 C 
HETATM    5  C7  UNL     1       0.530  -9.316  11.418  1.00  0.00     0.005 C 
HETATM    6  C8  UNL     1      -0.671  -9.800  12.234  1.00  0.00     0.009 C 
HETATM    7  C9  UNL     1      -0.364  -9.557  13.647  1.00  0.00     0.029 A 
HETATM    8  C10 UNL     1      -1.180 -10.233  14.716  1.00  0.00     0.181 A 
HETATM    9  F1  UNL     1      -2.036 -11.155  14.132  1.00  0.00    -0.248 F 
HETATM   10  C11 UNL     1       0.127 -10.818  15.214  1.00  0.00     0.052 A 
HETATM   11  C12 UNL     1       0.847 -10.109  14.221  1.00  0.00    -0.020 A 
HETATM   12  C13 UNL     1       1.909  -9.136  14.323  1.00  0.00     0.011 C 
HETATM   13  C14 UNL     1       2.542  -9.090  12.926  1.00  0.00     0.005 C 
ENDROOT
BRANCH   1  14
HETATM   14  N1  UNL     1       0.824 -13.150  15.343  1.00  0.00    -0.356 N 
HETATM   15  C2  UNL     1       0.685 -14.512  14.979  1.00  0.00     0.213 C 
HETATM   16  C1  UNL     1       1.152 -15.573  15.900  1.00  0.00     0.117 C 
HETATM   17  O1  UNL     1       0.168 -14.836  13.881  1.00  0.00    -0.274 OA
ATOM     18  H1  UNL     1       1.244 -12.895  16.236  1.00  0.00     0.162 HD
ENDBRANCH   1  14
TORSDOF 1
ENDMDL
