MODEL 1
REMARK VINA RESULT: -5.428809847      0.000      0.000
REMARK  3 active torsions:
REMARK  status: ('A' for Active; 'I' for Inactive)
REMARK    1  A    between atoms: C7_7  and  N1_8 
REMARK    2  A    between atoms: N1_8  and  C8_10 
REMARK    3  A    between atoms: C8_10  and  N2_12 
ROOT
HETATM    1  N1  UNL     1      -0.527 -11.743  14.162  1.00  0.00    -0.362 N 
ATOM      2  H1  UNL     1      -1.500 -12.038  14.233  1.00  0.00     0.162 HD
ENDROOT
BRANCH   1   3
HETATM    3  C7  UNL     1      -0.105 -11.232  12.913  1.00  0.00     0.087 C 
HETATM    4  C2  UNL     1      -0.538  -9.868  12.533  1.00  0.00     0.004 C 
HETATM    5  C1  UNL     1       0.277  -8.770  13.180  1.00  0.00     0.012 C 
HETATM    6  C3  UNL     1      -0.339  -9.737  11.015  1.00  0.00     0.006 C 
HETATM    7  C4  UNL     1       1.076 -10.024  10.617  1.00  0.00     0.001 C 
HETATM    8  C5  UNL     1       1.673 -11.225  11.268  1.00  0.00     0.002 C 
HETATM    9  C6  UNL     1       1.393 -11.315  12.751  1.00  0.00     0.025 C 
ENDBRANCH   1   3
BRANCH   1  10
HETATM   10  C8  UNL     1       0.269 -11.886  15.322  1.00  0.00     0.170 C 
HETATM   11  S1  UNL     1       0.455 -10.665  16.386  1.00  0.00    -0.041 SA
BRANCH  10  12
HETATM   12  N2  UNL     1       0.939 -13.100  15.616  1.00  0.00    -0.355 N 
HETATM   13  C9  UNL     1       2.030 -13.350  16.533  1.00  0.00     0.128 C 
HETATM   14  C10 UNL     1       1.893 -14.786  16.993  1.00  0.00     0.058 C 
HETATM   15  C11 UNL     1       1.130 -15.461  15.871  1.00  0.00     0.189 C 
HETATM   16  F1  UNL     1       1.941 -16.288  15.120  1.00  0.00    -0.248 F 
HETATM   17  C12 UNL     1       0.608 -14.368  14.995  1.00  0.00     0.162 C 
ENDBRANCH  10  12
ENDBRANCH   1  10
TORSDOF 3
ENDMDL
MODEL 2
REMARK VINA RESULT: -5.408003784      1.676      2.512
REMARK  3 active torsions:
REMARK  status: ('A' for Active; 'I' for Inactive)
REMARK    1  A    between atoms: C7_7  and  N1_8 
REMARK    2  A    between atoms: N1_8  and  C8_10 
REMARK    3  A    between atoms: C8_10  and  N2_12 
ROOT
HETATM    1  N1  UNL     1       0.913 -11.953  13.144  1.00  0.00    -0.362 N 
ATOM      2  H1  UNL     1       1.218 -12.460  12.314  1.00  0.00     0.162 HD
ENDROOT
BRANCH   1   3
HETATM    3  C7  UNL     1      -0.255 -11.167  13.019  1.00  0.00     0.087 C 
HETATM    4  C2  UNL     1      -1.151 -11.054  14.192  1.00  0.00     0.004 C 
HETATM    5  C1  UNL     1      -0.675 -10.058  15.228  1.00  0.00     0.012 C 
HETATM    6  C3  UNL     1      -2.508 -10.550  13.677  1.00  0.00     0.006 C 
HETATM    7  C4  UNL     1      -2.370  -9.257  12.932  1.00  0.00     0.001 C 
HETATM    8  C5  UNL     1      -1.232  -9.214  11.970  1.00  0.00     0.002 C 
HETATM    9  C6  UNL     1       0.057  -9.775  12.528  1.00  0.00     0.025 C 
ENDBRANCH   1   3
BRANCH   1  10
HETATM   10  C8  UNL     1       1.702 -12.104  14.308  1.00  0.00     0.170 C 
HETATM   11  S1  UNL     1       2.840 -11.010  14.717  1.00  0.00    -0.041 SA
BRANCH  10  12
HETATM   12  N2  UNL     1       1.538 -13.212  15.176  1.00  0.00    -0.355 N 
HETATM   13  C9  UNL     1       0.783 -14.431  14.980  1.00  0.00     0.128 C 
HETATM   14  C10 UNL     1       1.469 -15.505  15.796  1.00  0.00     0.058 C 
HETATM   15  C11 UNL     1       2.189 -14.738  16.886  1.00  0.00     0.189 C 
HETATM   16  F1  UNL     1       1.570 -14.882  18.113  1.00  0.00    -0.248 F 
HETATM   17  C12 UNL     1       2.147 -13.298  16.490  1.00  0.00     0.162 C 
ENDBRANCH  10  12
ENDBRANCH   1  10
TORSDOF 3
ENDMDL
MODEL 3
REMARK VINA RESULT: -5.391718839      1.860      2.376
REMARK  3 active torsions:
REMARK  status: ('A' for Active; 'I' for Inactive)
REMARK    1  A    between atoms: C7_7  and  N1_8 
REMARK    2  A    between atoms: N1_8  and  C8_10 
REMARK    3  A    between atoms: C8_10  and  N2_12 
ROOT
HETATM    1  N1  UNL     1       0.586 -11.114  16.697  1.00  0.00    -0.362 N 
ATOM      2  H1  UNL     1       0.260 -10.710  17.575  1.00  0.00     0.162 HD
ENDROOT
BRANCH   1   3
HETATM    3  C7  UNL     1      -0.224 -10.905  15.558  1.00  0.00     0.087 C 
HETATM    4  C2  UNL     1      -1.284  -9.873  15.634  1.00  0.00     0.004 C 
HETATM    5  C1  UNL     1      -0.772  -8.461  15.445  1.00  0.00     0.012 C 
HETATM    6  C3  UNL     1      -2.267 -10.149  14.485  1.00  0.00     0.006 C 
HETATM    7  C4  UNL     1      -1.573 -10.166  13.157  1.00  0.00     0.001 C 
HETATM    8  C5  UNL     1      -0.290 -10.925  13.137  1.00  0.00     0.002 C 
HETATM    9  C6  UNL     1       0.603 -10.642  14.324  1.00  0.00     0.025 C 
ENDBRANCH   1   3
BRANCH   1  10
HETATM   10  C8  UNL     1       1.805 -11.830  16.740  1.00  0.00     0.170 C 
HETATM   11  S1  UNL     1       3.235 -11.071  16.927  1.00  0.00    -0.041 SA
BRANCH  10  12
HETATM   12  N2  UNL     1       1.839 -13.242  16.626  1.00  0.00    -0.355 N 
HETATM   13  C9  UNL     1       2.234 -14.236  17.602  1.00  0.00     0.128 C 
HETATM   14  C10 UNL     1       1.455 -15.493  17.285  1.00  0.00     0.058 C 
HETATM   15  C11 UNL     1       1.134 -15.366  15.809  1.00  0.00     0.189 C 
HETATM   16  F1  UNL     1       1.895 -16.225  15.040  1.00  0.00    -0.248 F 
HETATM   17  C12 UNL     1       1.456 -13.959  15.424  1.00  0.00     0.162 C 
ENDBRANCH  10  12
ENDBRANCH   1  10
TORSDOF 3
ENDMDL
MODEL 4
REMARK VINA RESULT: -5.365469898      2.212      3.303
REMARK  3 active torsions:
REMARK  status: ('A' for Active; 'I' for Inactive)
REMARK    1  A    between atoms: C7_7  and  N1_8 
REMARK    2  A    between atoms: N1_8  and  C8_10 
REMARK    3  A    between atoms: C8_10  and  N2_12 
ROOT
HETATM    1  N1  UNL     1      -0.940 -11.930  13.791  1.00  0.00    -0.362 N 
ATOM      2  H1  UNL     1      -1.486 -12.538  13.180  1.00  0.00     0.162 HD
ENDROOT
BRANCH   1   3
HETATM    3  C7  UNL     1      -1.605 -10.805  14.331  1.00  0.00     0.087 C 
HETATM    4  C2  UNL     1      -1.011 -10.144  15.515  1.00  0.00     0.004 C 
HETATM    5  C1  UNL     1       0.139  -9.219  15.183  1.00  0.00     0.012 C 
HETATM    6  C3  UNL     1      -2.112  -9.279  16.149  1.00  0.00     0.006 C 
HETATM    7  C4  UNL     1      -2.678  -8.300  15.166  1.00  0.00     0.001 C 
HETATM    8  C5  UNL     1      -2.967  -8.869  13.819  1.00  0.00     0.002 C 
HETATM    9  C6  UNL     1      -1.863  -9.752  13.282  1.00  0.00     0.025 C 
ENDBRANCH   1   3
BRANCH   1  10
HETATM   10  C8  UNL     1       0.408 -12.296  14.014  1.00  0.00     0.170 C 
HETATM   11  S1  UNL     1       1.630 -11.597  13.194  1.00  0.00    -0.041 SA
BRANCH  10  12
HETATM   12  N2  UNL     1       0.759 -13.286  14.966  1.00  0.00    -0.355 N 
HETATM   13  C9  UNL     1       0.520 -14.713  14.941  1.00  0.00     0.128 C 
HETATM   14  C10 UNL     1       1.635 -15.356  15.737  1.00  0.00     0.058 C 
HETATM   15  C11 UNL     1       2.093 -14.263  16.681  1.00  0.00     0.189 C 
HETATM   16  F1  UNL     1       1.685 -14.500  17.980  1.00  0.00    -0.248 F 
HETATM   17  C12 UNL     1       1.463 -12.996  16.201  1.00  0.00     0.162 C 
ENDBRANCH  10  12
ENDBRANCH   1  10
TORSDOF 3
ENDMDL
MODEL 5
REMARK VINA RESULT: -5.265832573      1.445      2.055
REMARK  3 active torsions:
REMARK  status: ('A' for Active; 'I' for Inactive)
REMARK    1  A    between atoms: C7_7  and  N1_8 
REMARK    2  A    between atoms: N1_8  and  C8_10 
REMARK    3  A    between atoms: C8_10  and  N2_12 
ROOT
HETATM    1  N1  UNL     1       0.132 -11.194  15.913  1.00  0.00    -0.362 N 
ATOM      2  H1  UNL     1      -0.747 -11.293  16.420  1.00  0.00     0.162 HD
ENDROOT
BRANCH   1   3
HETATM    3  C7  UNL     1       0.085 -10.491  14.687  1.00  0.00     0.087 C 
HETATM    4  C2  UNL     1      -0.833 -10.982  13.634  1.00  0.00     0.004 C 
HETATM    5  C1  UNL     1      -2.274 -10.572  13.845  1.00  0.00     0.012 C 
HETATM    6  C3  UNL     1      -0.379 -10.352  12.308  1.00  0.00     0.006 C 
HETATM    7  C4  UNL     1      -0.345  -8.856  12.391  1.00  0.00     0.001 C 
HETATM    8  C5  UNL     1       0.276  -8.318  13.635  1.00  0.00     0.002 C 
HETATM    9  C6  UNL     1      -0.178  -9.020  14.895  1.00  0.00     0.025 C 
ENDBRANCH   1   3
BRANCH   1  10
HETATM   10  C8  UNL     1       1.278 -11.773  16.505  1.00  0.00     0.170 C 
HETATM   11  S1  UNL     1       2.382 -10.869  17.293  1.00  0.00    -0.041 SA
BRANCH  10  12
HETATM   12  N2  UNL     1       1.518 -13.169  16.445  1.00  0.00    -0.355 N 
HETATM   13  C9  UNL     1       2.175 -14.032  17.402  1.00  0.00     0.128 C 
HETATM   14  C10 UNL     1       1.569 -15.409  17.236  1.00  0.00     0.058 C 
HETATM   15  C11 UNL     1       1.060 -15.419  15.809  1.00  0.00     0.189 C 
HETATM   16  F1  UNL     1       1.849 -16.198  14.986  1.00  0.00    -0.248 F 
HETATM   17  C12 UNL     1       1.111 -14.004  15.331  1.00  0.00     0.162 C 
ENDBRANCH  10  12
ENDBRANCH   1  10
TORSDOF 3
ENDMDL
