MODEL 1
REMARK VINA RESULT: -6.123637942      0.000      0.000
REMARK  1 active torsions:
REMARK  status: ('A' for Active; 'I' for Inactive)
REMARK       I    between atoms: C1_2  and  N1_4 
REMARK       I    between atoms: N1_4  and  C2_6 
REMARK    1  A    between atoms: C2_6  and  C3_8 
ROOT
HETATM    1  C3  UNL     1       0.627 -11.514  15.271  1.00  0.00     0.042 C 
HETATM    2  C4  UNL     1       1.796 -10.673  14.792  1.00  0.00     0.024 C 
HETATM    3  C5  UNL     1       1.298  -9.605  13.852  1.00  0.00    -0.013 C 
HETATM    4  C6  UNL     1       0.497 -10.173  12.707  1.00  0.00     0.009 C 
HETATM    5  C7  UNL     1      -0.663 -10.985  13.235  1.00  0.00    -0.013 C 
HETATM    6  C8  UNL     1      -1.558 -10.045  14.004  1.00  0.00     0.009 C 
HETATM    7  C9  UNL     1      -0.784  -9.517  15.177  1.00  0.00    -0.013 C 
HETATM    8  C10 UNL     1       0.367  -8.695  14.642  1.00  0.00     0.009 C 
HETATM    9  C11 UNL     1      -0.275 -10.619  16.074  1.00  0.00     0.024 C 
HETATM   10  C12 UNL     1      -0.124 -12.096  14.086  1.00  0.00     0.024 C 
ENDROOT
BRANCH   1  11
HETATM   11  C2  UNL     1       1.130 -12.653  16.074  1.00  0.00     0.234 C 
HETATM   12  N1  UNL     1       1.249 -13.922  15.473  1.00  0.00    -0.283 N 
HETATM   13  C1  UNL     1       1.733 -15.048  16.223  1.00  0.00     0.321 C 
ATOM     14  H1  UNL     1       0.990 -14.043  14.493  1.00  0.00     0.172 HD
HETATM   15  O1  UNL     1       1.840 -16.171  15.694  1.00  0.00    -0.254 OA
HETATM   16 CL1  UNL     1       2.188 -14.892  17.899  1.00  0.00    -0.020 Cl
HETATM   17  O2  UNL     1       1.454 -12.510  17.293  1.00  0.00    -0.272 OA
ENDBRANCH   1  11
TORSDOF 1
ENDMDL
MODEL 2
REMARK VINA RESULT: -6.108530302      0.167      1.882
REMARK  1 active torsions:
REMARK  status: ('A' for Active; 'I' for Inactive)
REMARK       I    between atoms: C1_2  and  N1_4 
REMARK       I    between atoms: N1_4  and  C2_6 
REMARK    1  A    between atoms: C2_6  and  C3_8 
ROOT
HETATM    1  C3  UNL     1       0.608 -11.504  15.251  1.00  0.00     0.042 C 
HETATM    2  C4  UNL     1      -0.243 -12.029  14.110  1.00  0.00     0.024 C 
HETATM    3  C5  UNL     1      -0.880 -10.874  13.382  1.00  0.00    -0.013 C 
HETATM    4  C6  UNL     1      -1.659  -9.970  14.304  1.00  0.00     0.009 C 
HETATM    5  C7  UNL     1      -0.763  -9.459  15.410  1.00  0.00    -0.013 C 
HETATM    6  C8  UNL     1       0.325  -8.637  14.766  1.00  0.00     0.009 C 
HETATM    7  C9  UNL     1       1.137  -9.542  13.886  1.00  0.00    -0.013 C 
HETATM    8  C10 UNL     1       0.240 -10.039  12.776  1.00  0.00     0.009 C 
HETATM    9  C11 UNL     1       1.729 -10.704  14.647  1.00  0.00     0.024 C 
HETATM   10  C12 UNL     1      -0.226 -10.632  16.174  1.00  0.00     0.024 C 
ENDROOT
BRANCH   1  11
HETATM   11  C2  UNL     1       1.114 -12.638  16.058  1.00  0.00     0.234 C 
HETATM   12  N1  UNL     1       1.243 -13.908  15.460  1.00  0.00    -0.283 N 
HETATM   13  C1  UNL     1       1.730 -15.030  16.214  1.00  0.00     0.321 C 
ATOM     14  H1  UNL     1       0.988 -14.032  14.480  1.00  0.00     0.172 HD
HETATM   15  O1  UNL     1       1.845 -16.153  15.688  1.00  0.00    -0.254 OA
HETATM   16 CL1  UNL     1       2.180 -14.868  17.891  1.00  0.00    -0.020 Cl
HETATM   17  O2  UNL     1       1.435 -12.491  17.278  1.00  0.00    -0.272 OA
ENDBRANCH   1  11
TORSDOF 1
ENDMDL
MODEL 3
REMARK VINA RESULT: -6.050029551      0.818      1.155
REMARK  1 active torsions:
REMARK  status: ('A' for Active; 'I' for Inactive)
REMARK       I    between atoms: C1_2  and  N1_4 
REMARK       I    between atoms: N1_4  and  C2_6 
REMARK    1  A    between atoms: C2_6  and  C3_8 
ROOT
HETATM    1  C3  UNL     1       1.048 -11.595  14.880  1.00  0.00     0.042 C 
HETATM    2  C4  UNL     1       1.786 -10.351  15.338  1.00  0.00     0.024 C 
HETATM    3  C5  UNL     1       1.648  -9.269  14.298  1.00  0.00    -0.013 C 
HETATM    4  C6  UNL     1       2.091  -9.724  12.930  1.00  0.00     0.009 C 
HETATM    5  C7  UNL     1       1.313 -10.952  12.513  1.00  0.00    -0.013 C 
HETATM    6  C8  UNL     1      -0.139 -10.555  12.420  1.00  0.00     0.009 C 
HETATM    7  C9  UNL     1      -0.602 -10.152  13.790  1.00  0.00    -0.013 C 
HETATM    8  C10 UNL     1       0.170  -8.917  14.196  1.00  0.00     0.009 C 
HETATM    9  C11 UNL     1      -0.414 -11.251  14.808  1.00  0.00     0.024 C 
HETATM   10  C12 UNL     1       1.554 -12.038  13.518  1.00  0.00     0.024 C 
ENDROOT
BRANCH   1  11
HETATM   11  C2  UNL     1       1.307 -12.704  15.826  1.00  0.00     0.234 C 
HETATM   12  N1  UNL     1       1.455 -14.015  15.330  1.00  0.00    -0.283 N 
HETATM   13  C1  UNL     1       1.706 -15.114  16.220  1.00  0.00     0.321 C 
ATOM     14  H1  UNL     1       1.383 -14.185  14.326  1.00  0.00     0.172 HD
HETATM   15  O1  UNL     1       1.837 -16.274  15.784  1.00  0.00    -0.254 OA
HETATM   16 CL1  UNL     1       1.837 -14.874  17.942  1.00  0.00    -0.020 Cl
HETATM   17  O2  UNL     1       1.397 -12.499  17.076  1.00  0.00    -0.272 OA
ENDBRANCH   1  11
TORSDOF 1
ENDMDL
MODEL 4
REMARK VINA RESULT: -6.032293415      0.128      1.828
REMARK  1 active torsions:
REMARK  status: ('A' for Active; 'I' for Inactive)
REMARK       I    between atoms: C1_2  and  N1_4 
REMARK       I    between atoms: N1_4  and  C2_6 
REMARK    1  A    between atoms: C2_6  and  C3_8 
ROOT
HETATM    1  C3  UNL     1       0.602 -11.520  15.167  1.00  0.00     0.042 C 
HETATM    2  C4  UNL     1      -0.291 -10.621  16.003  1.00  0.00     0.024 C 
HETATM    3  C5  UNL     1      -0.665  -9.399  15.206  1.00  0.00    -0.013 C 
HETATM    4  C6  UNL     1       0.540  -8.666  14.672  1.00  0.00     0.009 C 
HETATM    5  C7  UNL     1       1.386  -9.598  13.833  1.00  0.00    -0.013 C 
HETATM    6  C8  UNL     1       0.547 -10.028  12.656  1.00  0.00     0.009 C 
HETATM    7  C9  UNL     1      -0.628 -10.803  13.176  1.00  0.00    -0.013 C 
HETATM    8  C10 UNL     1      -1.475  -9.864  14.003  1.00  0.00     0.009 C 
HETATM    9  C11 UNL     1      -0.210 -11.999  13.996  1.00  0.00     0.024 C 
HETATM   10  C12 UNL     1       1.821 -10.751  14.686  1.00  0.00     0.024 C 
ENDROOT
BRANCH   1  11
HETATM   11  C2  UNL     1       1.092 -12.645  15.996  1.00  0.00     0.234 C 
HETATM   12  N1  UNL     1       1.243 -13.918  15.412  1.00  0.00    -0.283 N 
HETATM   13  C1  UNL     1       1.715 -15.032  16.187  1.00  0.00     0.321 C 
ATOM     14  H1  UNL     1       1.014 -14.051  14.426  1.00  0.00     0.172 HD
HETATM   15  O1  UNL     1       1.850 -16.158  15.673  1.00  0.00    -0.254 OA
HETATM   16 CL1  UNL     1       2.120 -14.854  17.874  1.00  0.00    -0.020 Cl
HETATM   17  O2  UNL     1       1.379 -12.486  17.223  1.00  0.00    -0.272 OA
ENDBRANCH   1  11
TORSDOF 1
ENDMDL
MODEL 5
REMARK VINA RESULT: -6.005582260      0.801      1.477
REMARK  1 active torsions:
REMARK  status: ('A' for Active; 'I' for Inactive)
REMARK       I    between atoms: C1_2  and  N1_4 
REMARK       I    between atoms: N1_4  and  C2_6 
REMARK    1  A    between atoms: C2_6  and  C3_8 
ROOT
HETATM    1  C3  UNL     1       1.180 -11.605  14.962  1.00  0.00     0.042 C 
HETATM    2  C4  UNL     1       1.606 -12.009  13.563  1.00  0.00     0.024 C 
HETATM    3  C5  UNL     1       1.253 -10.913  12.591  1.00  0.00    -0.013 C 
HETATM    4  C6  UNL     1      -0.204 -10.531  12.656  1.00  0.00     0.009 C 
HETATM    5  C7  UNL     1      -0.572 -10.119  14.064  1.00  0.00    -0.013 C 
HETATM    6  C8  UNL     1       0.242  -8.895  14.402  1.00  0.00     0.009 C 
HETATM    7  C9  UNL     1       1.692  -9.280  14.391  1.00  0.00    -0.013 C 
HETATM    8  C10 UNL     1       2.057  -9.679  12.980  1.00  0.00     0.009 C 
HETATM    9  C11 UNL     1       1.996 -10.404  15.353  1.00  0.00     0.024 C 
HETATM   10  C12 UNL     1      -0.301 -11.268  14.987  1.00  0.00     0.024 C 
ENDROOT
BRANCH   1  11
HETATM   11  C2  UNL     1       1.388 -12.738  15.893  1.00  0.00     0.234 C 
HETATM   12  N1  UNL     1       1.512 -14.043  15.376  1.00  0.00    -0.283 N 
HETATM   13  C1  UNL     1       1.714 -15.165  16.250  1.00  0.00     0.321 C 
ATOM     14  H1  UNL     1       1.458 -14.193  14.368  1.00  0.00     0.172 HD
HETATM   15  O1  UNL     1       1.824 -16.319  15.795  1.00  0.00    -0.254 OA
HETATM   16 CL1  UNL     1       1.814 -14.959  17.979  1.00  0.00    -0.020 Cl
HETATM   17  O2  UNL     1       1.457 -12.558  17.148  1.00  0.00    -0.272 OA
ENDBRANCH   1  11
TORSDOF 1
ENDMDL
