MODEL 1
REMARK VINA RESULT: -5.102534541      0.000      0.000
REMARK  3 active torsions:
REMARK  status: ('A' for Active; 'I' for Inactive)
REMARK    1  A    between atoms: C1_2  and  N1_3 
REMARK    2  A    between atoms: C1_2  and  N2_10 
REMARK    3  A    between atoms: N1_3  and  C2_5 
ROOT
HETATM    1  S1  UNL     1       1.750 -11.591  13.122  1.00  0.00    -0.041 SA
HETATM    2  C1  UNL     1       0.513 -12.323  13.887  1.00  0.00     0.170 C 
ENDROOT
BRANCH   2   3
HETATM    3  N1  UNL     1      -0.834 -11.981  13.586  1.00  0.00    -0.361 N 
ATOM      4  H1  UNL     1      -1.515 -12.712  13.379  1.00  0.00     0.162 HD
BRANCH   3   5
HETATM    5  C2  UNL     1      -1.233 -10.600  13.573  1.00  0.00     0.102 C 
HETATM    6  C3  UNL     1      -2.752 -10.383  13.569  1.00  0.00     0.028 C 
HETATM    7  C4  UNL     1      -2.483  -9.208  14.518  1.00  0.00     0.024 C 
HETATM    8  C5  UNL     1      -1.246  -9.991  14.980  1.00  0.00     0.105 C 
HETATM    9 CL1  UNL     1       0.151  -8.989  15.358  1.00  0.00    -0.123 Cl
ENDBRANCH   3   5
ENDBRANCH   2   3
BRANCH   2  10
HETATM   10  N2  UNL     1       0.791 -13.306  14.856  1.00  0.00    -0.358 N 
HETATM   11  C6  UNL     1       0.595 -14.713  14.594  1.00  0.00     0.125 C 
HETATM   12  C7  UNL     1       0.632 -15.499  15.886  1.00  0.00     0.020 C 
HETATM   13  C8  UNL     1       1.914 -15.272  16.646  1.00  0.00     0.003 C 
HETATM   14  C9  UNL     1       2.439 -13.874  16.486  1.00  0.00     0.020 C 
HETATM   15  C10 UNL     1       1.284 -12.922  16.154  1.00  0.00     0.125 C 
ENDBRANCH   2  10
TORSDOF 3
ENDMDL
MODEL 2
REMARK VINA RESULT: -5.014574223      0.307      1.354
REMARK  3 active torsions:
REMARK  status: ('A' for Active; 'I' for Inactive)
REMARK    1  A    between atoms: C1_2  and  N1_3 
REMARK    2  A    between atoms: C1_2  and  N2_10 
REMARK    3  A    between atoms: N1_3  and  C2_5 
ROOT
HETATM    1  S1  UNL     1       1.755 -11.578  12.965  1.00  0.00    -0.041 SA
HETATM    2  C1  UNL     1       0.695 -12.332  13.945  1.00  0.00     0.170 C 
ENDROOT
BRANCH   2   3
HETATM    3  N1  UNL     1      -0.695 -12.041  13.875  1.00  0.00    -0.361 N 
ATOM      4  H1  UNL     1      -1.380 -12.794  13.941  1.00  0.00     0.162 HD
BRANCH   3   5
HETATM    5  C2  UNL     1      -1.132 -10.681  13.710  1.00  0.00     0.102 C 
HETATM    6  C3  UNL     1      -2.656 -10.505  13.704  1.00  0.00     0.028 C 
HETATM    7  C4  UNL     1      -2.408  -9.222  14.508  1.00  0.00     0.024 C 
HETATM    8  C5  UNL     1      -1.143  -9.914  15.038  1.00  0.00     0.105 C 
HETATM    9 CL1  UNL     1       0.230  -8.840  15.276  1.00  0.00    -0.123 Cl
ENDBRANCH   3   5
ENDBRANCH   2   3
BRANCH   2  10
HETATM   10  N2  UNL     1       1.171 -13.281  14.870  1.00  0.00    -0.358 N 
HETATM   11  C6  UNL     1       1.620 -12.902  16.190  1.00  0.00     0.125 C 
HETATM   12  C7  UNL     1       2.390 -14.036  16.829  1.00  0.00     0.020 C 
HETATM   13  C8  UNL     1       1.578 -15.305  16.886  1.00  0.00     0.003 C 
HETATM   14  C9  UNL     1       0.663 -15.458  15.705  1.00  0.00     0.020 C 
HETATM   15  C10 UNL     1       1.224 -14.675  14.511  1.00  0.00     0.125 C 
ENDBRANCH   2  10
TORSDOF 3
ENDMDL
MODEL 3
REMARK VINA RESULT: -4.931567535      1.602      2.243
REMARK  3 active torsions:
REMARK  status: ('A' for Active; 'I' for Inactive)
REMARK    1  A    between atoms: C1_2  and  N1_3 
REMARK    2  A    between atoms: C1_2  and  N2_10 
REMARK    3  A    between atoms: N1_3  and  C2_5 
ROOT
HETATM    1  S1  UNL     1       3.179 -10.864  15.040  1.00  0.00    -0.041 SA
HETATM    2  C1  UNL     1       1.784 -11.681  14.846  1.00  0.00     0.170 C 
ENDROOT
BRANCH   2   3
HETATM    3  N1  UNL     1       0.658 -11.065  14.234  1.00  0.00    -0.361 N 
ATOM      4  H1  UNL     1       0.719 -10.725  13.274  1.00  0.00     0.162 HD
BRANCH   3   5
HETATM    5  C2  UNL     1      -0.567 -10.924  14.973  1.00  0.00     0.102 C 
HETATM    6  C3  UNL     1      -0.422 -10.150  16.290  1.00  0.00     0.028 C 
HETATM    7  C4  UNL     1      -1.782  -9.524  15.951  1.00  0.00     0.024 C 
HETATM    8  C5  UNL     1      -1.405  -9.739  14.478  1.00  0.00     0.105 C 
HETATM    9 CL1  UNL     1      -2.754 -10.179  13.438  1.00  0.00    -0.123 Cl
ENDBRANCH   3   5
ENDBRANCH   2   3
BRANCH   2  10
HETATM   10  N2  UNL     1       1.703 -13.014  15.293  1.00  0.00    -0.358 N 
HETATM   11  C6  UNL     1       1.835 -13.359  16.690  1.00  0.00     0.125 C 
HETATM   12  C7  UNL     1       2.056 -14.847  16.846  1.00  0.00     0.020 C 
HETATM   13  C8  UNL     1       0.956 -15.650  16.199  1.00  0.00     0.003 C 
HETATM   14  C9  UNL     1       0.416 -14.996  14.960  1.00  0.00     0.020 C 
HETATM   15  C10 UNL     1       1.485 -14.081  14.350  1.00  0.00     0.125 C 
ENDBRANCH   2  10
TORSDOF 3
ENDMDL
MODEL 4
REMARK VINA RESULT: -4.867890703      2.680      5.156
REMARK  3 active torsions:
REMARK  status: ('A' for Active; 'I' for Inactive)
REMARK    1  A    between atoms: C1_2  and  N1_3 
REMARK    2  A    between atoms: C1_2  and  N2_10 
REMARK    3  A    between atoms: N1_3  and  C2_5 
ROOT
HETATM    1  S1  UNL     1       3.705 -10.744  16.334  1.00  0.00    -0.041 SA
HETATM    2  C1  UNL     1       2.646 -11.792  15.676  1.00  0.00     0.170 C 
ENDROOT
BRANCH   2   3
HETATM    3  N1  UNL     1       2.726 -13.183  15.960  1.00  0.00    -0.361 N 
ATOM      4  H1  UNL     1       3.622 -13.666  15.903  1.00  0.00     0.162 HD
BRANCH   3   5
HETATM    5  C2  UNL     1       1.538 -13.905  16.326  1.00  0.00     0.102 C 
HETATM    6  C3  UNL     1       0.866 -14.644  15.161  1.00  0.00     0.028 C 
HETATM    7  C4  UNL     1       0.596 -15.771  16.167  1.00  0.00     0.024 C 
HETATM    8  C5  UNL     1       1.860 -15.292  16.895  1.00  0.00     0.105 C 
HETATM    9 CL1  UNL     1       1.777 -15.403  18.649  1.00  0.00    -0.123 Cl
ENDBRANCH   3   5
ENDBRANCH   2   3
BRANCH   2  10
HETATM   10  N2  UNL     1       1.642 -11.303  14.818  1.00  0.00    -0.358 N 
HETATM   11  C6  UNL     1       1.695 -11.508  13.389  1.00  0.00     0.125 C 
HETATM   12  C7  UNL     1       0.706 -10.601  12.691  1.00  0.00     0.020 C 
HETATM   13  C8  UNL     1      -0.698 -10.796  13.206  1.00  0.00     0.003 C 
HETATM   14  C9  UNL     1      -0.733 -11.127  14.671  1.00  0.00     0.020 C 
HETATM   15  C10 UNL     1       0.522 -10.574  15.356  1.00  0.00     0.125 C 
ENDBRANCH   2  10
TORSDOF 3
ENDMDL
MODEL 5
REMARK VINA RESULT: -4.860870367      2.644      5.303
REMARK  3 active torsions:
REMARK  status: ('A' for Active; 'I' for Inactive)
REMARK    1  A    between atoms: C1_2  and  N1_3 
REMARK    2  A    between atoms: C1_2  and  N2_10 
REMARK    3  A    between atoms: N1_3  and  C2_5 
ROOT
HETATM    1  S1  UNL     1       3.913 -10.655  16.848  1.00  0.00    -0.041 SA
HETATM    2  C1  UNL     1       2.516 -11.446  16.575  1.00  0.00     0.170 C 
ENDROOT
BRANCH   2   3
HETATM    3  N1  UNL     1       2.122 -12.534  17.400  1.00  0.00    -0.361 N 
ATOM      4  H1  UNL     1       1.682 -12.358  18.304  1.00  0.00     0.162 HD
BRANCH   3   5
HETATM    5  C2  UNL     1       2.347 -13.883  16.957  1.00  0.00     0.102 C 
HETATM    6  C3  UNL     1       1.952 -14.956  17.981  1.00  0.00     0.028 C 
HETATM    7  C4  UNL     1       1.436 -15.763  16.782  1.00  0.00     0.024 C 
HETATM    8  C5  UNL     1       1.188 -14.409  16.102  1.00  0.00     0.105 C 
HETATM    9 CL1  UNL     1       1.494 -14.398  14.368  1.00  0.00    -0.123 Cl
ENDBRANCH   3   5
ENDBRANCH   2   3
BRANCH   2  10
HETATM   10  N2  UNL     1       1.696 -11.038  15.504  1.00  0.00    -0.358 N 
HETATM   11  C6  UNL     1       2.193 -10.959  14.150  1.00  0.00     0.125 C 
HETATM   12  C7  UNL     1       1.232 -10.177  13.283  1.00  0.00     0.020 C 
HETATM   13  C8  UNL     1      -0.156 -10.767  13.308  1.00  0.00     0.003 C 
HETATM   14  C9  UNL     1      -0.505 -11.361  14.642  1.00  0.00     0.020 C 
HETATM   15  C10 UNL     1       0.320 -10.684  15.742  1.00  0.00     0.125 C 
ENDBRANCH   2  10
TORSDOF 3
ENDMDL
