MODEL 1
REMARK VINA RESULT: -4.951664042      0.000      0.000
REMARK  7 active torsions:
REMARK  status: ('A' for Active; 'I' for Inactive)
REMARK    1  A    between atoms: C3_3  and  N1_4 
REMARK    2  A    between atoms: N3_8  and  C5_9 
REMARK    3  A    between atoms: C5_9  and  C6_10 
REMARK    4  A    between atoms: C7_11  and  C8_12 
REMARK    5  A    between atoms: C8_12  and  C9_13 
REMARK    6  A    between atoms: C9_13  and  C10_14 
REMARK    7  A    between atoms: C10_14  and  O1_15 
ROOT
HETATM    1  C1  UNL     1     -20.381   1.632  17.436  1.00  0.00     0.014 C 
HETATM    2  C2  UNL     1     -20.935   2.008  16.430  1.00  0.00    -0.097 C 
HETATM    3  C3  UNL     1     -21.623   2.446  15.211  1.00  0.00     0.223 C 
ENDROOT
BRANCH   3   4
HETATM    4  N1  UNL     1     -23.056   2.480  15.423  1.00  0.00    -0.326 N 
HETATM    5  C4  UNL     1     -23.954   1.920  14.605  1.00  0.00     0.201 A 
HETATM    6  N2  UNL     1     -25.198   2.135  15.094  1.00  0.00    -0.292 N 
HETATM    7  N3  UNL     1     -25.088   2.827  16.215  1.00  0.00    -0.276 N 
ATOM      8  H2  UNL     1     -26.070   1.817  14.669  1.00  0.00     0.188 HD
HETATM    9  C11 UNL     1     -23.768   3.038  16.416  1.00  0.00     0.205 A 
BRANCH   7  10
HETATM   10  C5  UNL     1     -26.127   3.301  17.108  1.00  0.00     0.244 C 
BRANCH  10  11
HETATM   11  C6  UNL     1     -26.977   2.157  17.464  1.00  0.00    -0.071 C 
HETATM   12  C7  UNL     1     -27.686   1.221  17.778  1.00  0.00    -0.013 C 
BRANCH  12  13
HETATM   13  C8  UNL     1     -28.525   0.146  18.156  1.00  0.00    -0.013 C 
BRANCH  13  14
HETATM   14  C9  UNL     1     -29.228  -0.784  18.467  1.00  0.00    -0.067 C 
BRANCH  14  15
HETATM   15  C10 UNL     1     -30.073  -1.940  18.839  1.00  0.00     0.258 C 
BRANCH  15  16
HETATM   16  O1  UNL     1     -29.238  -3.071  18.900  1.00  0.00    -0.389 OA
ATOM     17  H1  UNL     1     -28.465  -2.881  18.380  1.00  0.00     0.210 HD
ENDBRANCH  15  16
ENDBRANCH  14  15
ENDBRANCH  13  14
ENDBRANCH  12  13
ENDBRANCH  10  11
ENDBRANCH   7  10
ENDBRANCH   3   4
TORSDOF 7
ENDMDL
MODEL 2
REMARK VINA RESULT: -4.905524207      1.093      1.129
REMARK  7 active torsions:
REMARK  status: ('A' for Active; 'I' for Inactive)
REMARK    1  A    between atoms: C3_3  and  N1_4 
REMARK    2  A    between atoms: N3_8  and  C5_9 
REMARK    3  A    between atoms: C5_9  and  C6_10 
REMARK    4  A    between atoms: C7_11  and  C8_12 
REMARK    5  A    between atoms: C8_12  and  C9_13 
REMARK    6  A    between atoms: C9_13  and  C10_14 
REMARK    7  A    between atoms: C10_14  and  O1_15 
ROOT
HETATM    1  C1  UNL     1     -21.063   0.807  15.284  1.00  0.00     0.014 C 
HETATM    2  C2  UNL     1     -21.759   1.734  14.947  1.00  0.00    -0.097 C 
HETATM    3  C3  UNL     1     -22.621   2.846  14.531  1.00  0.00     0.223 C 
ENDROOT
BRANCH   3   4
HETATM    4  N1  UNL     1     -23.963   2.668  15.051  1.00  0.00    -0.326 N 
HETATM    5  C4  UNL     1     -24.915   1.945  14.451  1.00  0.00     0.201 A 
HETATM    6  N2  UNL     1     -26.043   1.985  15.199  1.00  0.00    -0.292 N 
HETATM    7  N3  UNL     1     -25.805   2.729  16.266  1.00  0.00    -0.276 N 
ATOM      8  H2  UNL     1     -26.924   1.521  14.976  1.00  0.00     0.188 HD
HETATM    9  C11 UNL     1     -24.524   3.149  16.172  1.00  0.00     0.205 A 
BRANCH   7  10
HETATM   10  C5  UNL     1     -26.691   3.073  17.361  1.00  0.00     0.244 C 
BRANCH  10  11
HETATM   11  C6  UNL     1     -27.419   1.860  17.754  1.00  0.00    -0.071 C 
HETATM   12  C7  UNL     1     -28.017   0.860  18.101  1.00  0.00    -0.013 C 
BRANCH  12  13
HETATM   13  C8  UNL     1     -28.716  -0.294  18.525  1.00  0.00    -0.013 C 
BRANCH  13  14
HETATM   14  C9  UNL     1     -29.297  -1.291  18.880  1.00  0.00    -0.067 C 
BRANCH  14  15
HETATM   15  C10 UNL     1     -29.989  -2.526  19.311  1.00  0.00     0.258 C 
BRANCH  15  16
HETATM   16  O1  UNL     1     -29.315  -3.012  20.446  1.00  0.00    -0.389 OA
ATOM     17  H1  UNL     1     -29.597  -2.491  21.189  1.00  0.00     0.210 HD
ENDBRANCH  15  16
ENDBRANCH  14  15
ENDBRANCH  13  14
ENDBRANCH  12  13
ENDBRANCH  10  11
ENDBRANCH   7  10
ENDBRANCH   3   4
TORSDOF 7
ENDMDL
MODEL 3
REMARK VINA RESULT: -4.891125634      1.014      1.419
REMARK  7 active torsions:
REMARK  status: ('A' for Active; 'I' for Inactive)
REMARK    1  A    between atoms: C3_3  and  N1_4 
REMARK    2  A    between atoms: N3_8  and  C5_9 
REMARK    3  A    between atoms: C5_9  and  C6_10 
REMARK    4  A    between atoms: C7_11  and  C8_12 
REMARK    5  A    between atoms: C8_12  and  C9_13 
REMARK    6  A    between atoms: C9_13  and  C10_14 
REMARK    7  A    between atoms: C10_14  and  O1_15 
ROOT
HETATM    1  C1  UNL     1     -20.662   1.902  16.337  1.00  0.00     0.014 C 
HETATM    2  C2  UNL     1     -21.634   1.930  15.620  1.00  0.00    -0.097 C 
HETATM    3  C3  UNL     1     -22.826   1.954  14.765  1.00  0.00     0.223 C 
ENDROOT
BRANCH   3   4
HETATM    4  N1  UNL     1     -23.967   2.457  15.505  1.00  0.00    -0.326 N 
HETATM    5  C4  UNL     1     -23.882   3.173  16.630  1.00  0.00     0.201 A 
HETATM    6  N2  UNL     1     -25.128   3.482  17.059  1.00  0.00    -0.292 N 
HETATM    7  N3  UNL     1     -25.998   2.963  16.208  1.00  0.00    -0.276 N 
ATOM      8  H2  UNL     1     -25.357   4.021  17.894  1.00  0.00     0.188 HD
HETATM    9  C11 UNL     1     -25.281   2.332  15.252  1.00  0.00     0.205 A 
BRANCH   7  10
HETATM   10  C5  UNL     1     -27.447   3.017  16.229  1.00  0.00     0.244 C 
BRANCH  10  11
HETATM   11  C6  UNL     1     -27.936   1.812  16.911  1.00  0.00    -0.071 C 
HETATM   12  C7  UNL     1     -28.362   0.818  17.467  1.00  0.00    -0.013 C 
BRANCH  12  13
HETATM   13  C8  UNL     1     -28.873  -0.341  18.097  1.00  0.00    -0.013 C 
BRANCH  13  14
HETATM   14  C9  UNL     1     -29.307  -1.340  18.617  1.00  0.00    -0.067 C 
BRANCH  14  15
HETATM   15  C10 UNL     1     -29.858  -2.554  19.258  1.00  0.00     0.258 C 
BRANCH  15  16
HETATM   16  O1  UNL     1     -29.205  -2.710  20.495  1.00  0.00    -0.389 OA
ATOM     17  H1  UNL     1     -28.943  -3.621  20.566  1.00  0.00     0.210 HD
ENDBRANCH  15  16
ENDBRANCH  14  15
ENDBRANCH  13  14
ENDBRANCH  12  13
ENDBRANCH  10  11
ENDBRANCH   7  10
ENDBRANCH   3   4
TORSDOF 7
ENDMDL
MODEL 4
REMARK VINA RESULT: -4.864063750      1.197      1.434
REMARK  7 active torsions:
REMARK  status: ('A' for Active; 'I' for Inactive)
REMARK    1  A    between atoms: C3_3  and  N1_4 
REMARK    2  A    between atoms: N3_8  and  C5_9 
REMARK    3  A    between atoms: C5_9  and  C6_10 
REMARK    4  A    between atoms: C7_11  and  C8_12 
REMARK    5  A    between atoms: C8_12  and  C9_13 
REMARK    6  A    between atoms: C9_13  and  C10_14 
REMARK    7  A    between atoms: C10_14  and  O1_15 
ROOT
HETATM    1  C1  UNL     1     -20.676   1.748  15.720  1.00  0.00     0.014 C 
HETATM    2  C2  UNL     1     -21.668   2.341  16.072  1.00  0.00    -0.097 C 
HETATM    3  C3  UNL     1     -22.877   3.066  16.477  1.00  0.00     0.223 C 
ENDROOT
BRANCH   3   4
HETATM    4  N1  UNL     1     -24.016   2.628  15.695  1.00  0.00    -0.326 N 
HETATM    5  C4  UNL     1     -23.926   1.935  14.554  1.00  0.00     0.201 A 
HETATM    6  N2  UNL     1     -25.171   1.687  14.084  1.00  0.00    -0.292 N 
HETATM    7  N3  UNL     1     -26.043   2.220  14.923  1.00  0.00    -0.276 N 
ATOM      8  H2  UNL     1     -25.396   1.178  13.229  1.00  0.00     0.188 HD
HETATM    9  C11 UNL     1     -25.330   2.798  15.914  1.00  0.00     0.205 A 
BRANCH   7  10
HETATM   10  C5  UNL     1     -27.492   2.225  14.861  1.00  0.00     0.244 C 
BRANCH  10  11
HETATM   11  C6  UNL     1     -27.995   1.350  15.928  1.00  0.00    -0.071 C 
HETATM   12  C7  UNL     1     -28.420   0.612  16.796  1.00  0.00    -0.013 C 
BRANCH  12  13
HETATM   13  C8  UNL     1     -28.913  -0.264  17.791  1.00  0.00    -0.013 C 
BRANCH  13  14
HETATM   14  C9  UNL     1     -29.315  -1.023  18.640  1.00  0.00    -0.067 C 
BRANCH  14  15
HETATM   15  C10 UNL     1     -29.827  -1.956  19.668  1.00  0.00     0.258 C 
BRANCH  15  16
HETATM   16  O1  UNL     1     -29.304  -3.230  19.378  1.00  0.00    -0.389 OA
ATOM     17  H1  UNL     1     -29.420  -3.379  18.446  1.00  0.00     0.210 HD
ENDBRANCH  15  16
ENDBRANCH  14  15
ENDBRANCH  13  14
ENDBRANCH  12  13
ENDBRANCH  10  11
ENDBRANCH   7  10
ENDBRANCH   3   4
TORSDOF 7
ENDMDL
MODEL 5
REMARK VINA RESULT: -4.853016224      1.766      1.929
REMARK  7 active torsions:
REMARK  status: ('A' for Active; 'I' for Inactive)
REMARK    1  A    between atoms: C3_3  and  N1_4 
REMARK    2  A    between atoms: N3_8  and  C5_9 
REMARK    3  A    between atoms: C5_9  and  C6_10 
REMARK    4  A    between atoms: C7_11  and  C8_12 
REMARK    5  A    between atoms: C8_12  and  C9_13 
REMARK    6  A    between atoms: C9_13  and  C10_14 
REMARK    7  A    between atoms: C10_14  and  O1_15 
ROOT
HETATM    1  C1  UNL     1     -20.032   1.176  17.354  1.00  0.00     0.014 C 
HETATM    2  C2  UNL     1     -20.696   2.082  16.910  1.00  0.00    -0.097 C 
HETATM    3  C3  UNL     1     -21.503   3.172  16.350  1.00  0.00     0.223 C 
ENDROOT
BRANCH   3   4
HETATM    4  N1  UNL     1     -22.632   2.639  15.613  1.00  0.00    -0.326 N 
HETATM    5  C4  UNL     1     -22.529   1.796  14.581  1.00  0.00     0.201 A 
HETATM    6  N2  UNL     1     -23.768   1.495  14.125  1.00  0.00    -0.292 N 
HETATM    7  N3  UNL     1     -24.650   2.144  14.867  1.00  0.00    -0.276 N 
ATOM      8  H2  UNL     1     -23.983   0.874  13.344  1.00  0.00     0.188 HD
HETATM    9  C11 UNL     1     -23.948   2.848  15.783  1.00  0.00     0.205 A 
BRANCH   7  10
HETATM   10  C5  UNL     1     -26.097   2.151  14.777  1.00  0.00     0.244 C 
BRANCH  10  11
HETATM   11  C6  UNL     1     -26.636   1.918  16.123  1.00  0.00    -0.071 C 
HETATM   12  C7  UNL     1     -27.082   1.703  17.234  1.00  0.00    -0.013 C 
BRANCH  12  13
HETATM   13  C8  UNL     1     -27.591   1.431  18.525  1.00  0.00    -0.013 C 
BRANCH  13  14
HETATM   14  C9  UNL     1     -28.036   1.182  19.620  1.00  0.00    -0.067 C 
BRANCH  14  15
HETATM   15  C10 UNL     1     -28.558   0.872  20.969  1.00  0.00     0.258 C 
BRANCH  15  16
HETATM   16  O1  UNL     1     -29.109  -0.422  20.920  1.00  0.00    -0.389 OA
ATOM     17  H1  UNL     1     -28.770  -0.904  21.666  1.00  0.00     0.210 HD
ENDBRANCH  15  16
ENDBRANCH  14  15
ENDBRANCH  13  14
ENDBRANCH  12  13
ENDBRANCH  10  11
ENDBRANCH   7  10
ENDBRANCH   3   4
TORSDOF 7
ENDMDL
