MODEL 1
REMARK VINA RESULT: -5.963784738      0.000      0.000
REMARK  5 active torsions:
REMARK  status: ('A' for Active; 'I' for Inactive)
REMARK    1  A    between atoms: C3_4  and  C4_5 
REMARK    2  A    between atoms: C4_5  and  N2_7 
REMARK    3  A    between atoms: C4_5  and  C7_17 
REMARK       I    between atoms: N2_7  and  C6_9 
REMARK       I    between atoms: C6_9  and  N3_11 
REMARK    4  A    between atoms: N3_11  and  N4_13 
REMARK    5  A    between atoms: N4_13  and  N5_14 
ROOT
HETATM    1  N2  UNL     1     -22.416   2.729  15.111  1.00  0.00    -0.319 N 
ATOM      2  H2  UNL     1     -22.211   2.546  14.129  1.00  0.00     0.166 HD
HETATM    3  C6  UNL     1     -21.515   2.208  16.071  1.00  0.00     0.347 C 
HETATM    4  O1  UNL     1     -21.695   2.385  17.299  1.00  0.00    -0.245 OA
HETATM    5  N3  UNL     1     -20.364   1.463  15.705  1.00  0.00    -0.165 N 
ATOM      6  H3  UNL     1     -19.497   1.955  15.488  1.00  0.00     0.209 HD
ENDROOT
BRANCH   1   7
HETATM    7  C4  UNL     1     -23.591   3.491  15.409  1.00  0.00     0.141 C 
HETATM    8  C5  UNL     1     -24.558   2.780  16.325  1.00  0.00     0.055 C 
BRANCH   7   9
HETATM    9  C3  UNL     1     -24.250   3.904  14.121  1.00  0.00     0.097 C 
HETATM   10  N1  UNL     1     -25.084   3.226  13.483  1.00  0.00    -0.399 N 
HETATM   11  C1  UNL     1     -25.535   1.937  13.900  1.00  0.00     0.148 C 
HETATM   12  C2  UNL     1     -25.665   3.722  12.241  1.00  0.00     0.148 C 
ENDBRANCH   7   9
BRANCH   7  13
HETATM   13  C7  UNL     1     -23.162   4.724  16.142  1.00  0.00     0.264 C 
HETATM   14  N6  UNL     1     -23.589   4.951  17.479  1.00  0.00    -0.059 NA
HETATM   15  O2  UNL     1     -22.426   5.541  15.554  1.00  0.00    -0.274 OA
ENDBRANCH   7  13
ENDBRANCH   1   7
BRANCH   5  16
HETATM   16  N4  UNL     1     -20.391   0.236  15.646  1.00  0.00    -0.239 NA
BRANCH  16  17
HETATM   17  N5  UNL     1     -20.357  -0.999  15.723  1.00  0.00    -0.260 N 
ATOM     18  H52 UNL     1     -19.733  -0.829  16.512  1.00  0.00     0.193 HD
ATOM     19  H51 UNL     1     -20.405  -2.017  15.689  1.00  0.00     0.193 HD
ENDBRANCH  16  17
ENDBRANCH   5  16
TORSDOF 5
ENDMDL
MODEL 2
REMARK VINA RESULT: -5.820512908      1.506      2.625
REMARK  5 active torsions:
REMARK  status: ('A' for Active; 'I' for Inactive)
REMARK    1  A    between atoms: C3_4  and  C4_5 
REMARK    2  A    between atoms: C4_5  and  N2_7 
REMARK    3  A    between atoms: C4_5  and  C7_17 
REMARK       I    between atoms: N2_7  and  C6_9 
REMARK       I    between atoms: C6_9  and  N3_11 
REMARK    4  A    between atoms: N3_11  and  N4_13 
REMARK    5  A    between atoms: N4_13  and  N5_14 
ROOT
HETATM    1  N2  UNL     1     -22.262   2.617  14.884  1.00  0.00    -0.319 N 
ATOM      2  H2  UNL     1     -21.932   2.367  13.952  1.00  0.00     0.166 HD
HETATM    3  C6  UNL     1     -21.500   2.162  15.988  1.00  0.00     0.347 C 
HETATM    4  O1  UNL     1     -21.838   2.421  17.167  1.00  0.00    -0.245 OA
HETATM    5  N3  UNL     1     -20.318   1.391  15.827  1.00  0.00    -0.165 N 
ATOM      6  H3  UNL     1     -19.425   1.866  15.693  1.00  0.00     0.209 HD
ENDROOT
BRANCH   1   7
HETATM    7  C4  UNL     1     -23.458   3.399  14.974  1.00  0.00     0.141 C 
HETATM    8  C5  UNL     1     -23.256   4.742  15.634  1.00  0.00     0.055 C 
BRANCH   7   9
HETATM    9  C3  UNL     1     -24.522   2.594  15.671  1.00  0.00     0.097 C 
HETATM   10  N1  UNL     1     -25.367   3.048  16.471  1.00  0.00    -0.399 N 
HETATM   11  C1  UNL     1     -25.441   4.426  16.842  1.00  0.00     0.148 C 
HETATM   12  C2  UNL     1     -26.359   2.178  17.093  1.00  0.00     0.148 C 
ENDBRANCH   7   9
BRANCH   7  13
HETATM   13  C7  UNL     1     -23.918   3.691  13.580  1.00  0.00     0.264 C 
HETATM   14  N6  UNL     1     -25.040   4.536  13.354  1.00  0.00    -0.059 NA
HETATM   15  O2  UNL     1     -23.298   3.178  12.628  1.00  0.00    -0.274 OA
ENDBRANCH   7  13
ENDBRANCH   1   7
BRANCH   5  16
HETATM   16  N4  UNL     1     -20.350   0.163  15.847  1.00  0.00    -0.239 NA
BRANCH  16  17
HETATM   17  N5  UNL     1     -20.237  -1.069  15.833  1.00  0.00    -0.260 N 
ATOM     18  H52 UNL     1     -19.769  -0.912  14.941  1.00  0.00     0.193 HD
ATOM     19  H51 UNL     1     -20.203  -2.084  15.930  1.00  0.00     0.193 HD
ENDBRANCH  16  17
ENDBRANCH   5  16
TORSDOF 5
ENDMDL
MODEL 3
REMARK VINA RESULT: -5.716846524      1.424      2.780
REMARK  5 active torsions:
REMARK  status: ('A' for Active; 'I' for Inactive)
REMARK    1  A    between atoms: C3_4  and  C4_5 
REMARK    2  A    between atoms: C4_5  and  N2_7 
REMARK    3  A    between atoms: C4_5  and  C7_17 
REMARK       I    between atoms: N2_7  and  C6_9 
REMARK       I    between atoms: C6_9  and  N3_11 
REMARK    4  A    between atoms: N3_11  and  N4_13 
REMARK    5  A    between atoms: N4_13  and  N5_14 
ROOT
HETATM    1  N2  UNL     1     -22.461   2.368  14.463  1.00  0.00    -0.319 N 
ATOM      2  H2  UNL     1     -22.404   1.837  13.594  1.00  0.00     0.166 HD
HETATM    3  C6  UNL     1     -21.430   2.173  15.414  1.00  0.00     0.347 C 
HETATM    4  O1  UNL     1     -21.426   2.784  16.508  1.00  0.00    -0.245 OA
HETATM    5  N3  UNL     1     -20.347   1.283  15.186  1.00  0.00    -0.165 N 
ATOM      6  H3  UNL     1     -19.521   1.616  14.690  1.00  0.00     0.209 HD
ENDROOT
BRANCH   1   7
HETATM    7  C4  UNL     1     -23.577   3.251  14.625  1.00  0.00     0.141 C 
HETATM    8  C5  UNL     1     -24.258   3.612  13.326  1.00  0.00     0.055 C 
BRANCH   7   9
HETATM    9  C3  UNL     1     -23.129   4.477  15.376  1.00  0.00     0.097 C 
HETATM   10  N1  UNL     1     -23.771   5.545  15.468  1.00  0.00    -0.399 N 
HETATM   11  C1  UNL     1     -25.046   5.753  14.858  1.00  0.00     0.148 C 
HETATM   12  C2  UNL     1     -23.245   6.676  16.224  1.00  0.00     0.148 C 
ENDBRANCH   7   9
BRANCH   7  13
HETATM   13  C7  UNL     1     -24.607   2.539  15.445  1.00  0.00     0.264 C 
HETATM   14  N6  UNL     1     -25.660   1.823  14.813  1.00  0.00    -0.059 NA
HETATM   15  O2  UNL     1     -24.519   2.590  16.688  1.00  0.00    -0.274 OA
ENDBRANCH   7  13
ENDBRANCH   1   7
BRANCH   5  16
HETATM   16  N4  UNL     1     -20.387   0.119  15.577  1.00  0.00    -0.239 NA
BRANCH  16  17
HETATM   17  N5  UNL     1     -20.296  -1.073  15.901  1.00  0.00    -0.260 N 
ATOM     18  H52 UNL     1     -19.616  -1.120  15.142  1.00  0.00     0.193 HD
ATOM     19  H51 UNL     1     -20.304  -2.029  16.256  1.00  0.00     0.193 HD
ENDBRANCH  16  17
ENDBRANCH   5  16
TORSDOF 5
ENDMDL
MODEL 4
REMARK VINA RESULT: -5.657208514      1.805      2.375
REMARK  5 active torsions:
REMARK  status: ('A' for Active; 'I' for Inactive)
REMARK    1  A    between atoms: C3_4  and  C4_5 
REMARK    2  A    between atoms: C4_5  and  N2_7 
REMARK    3  A    between atoms: C4_5  and  C7_17 
REMARK       I    between atoms: N2_7  and  C6_9 
REMARK       I    between atoms: C6_9  and  N3_11 
REMARK    4  A    between atoms: N3_11  and  N4_13 
REMARK    5  A    between atoms: N4_13  and  N5_14 
ROOT
HETATM    1  N2  UNL     1     -23.243   1.515  14.407  1.00  0.00    -0.319 N 
ATOM      2  H2  UNL     1     -23.366   0.737  13.759  1.00  0.00     0.166 HD
HETATM    3  C6  UNL     1     -21.958   1.693  14.975  1.00  0.00     0.347 C 
HETATM    4  O1  UNL     1     -21.723   2.622  15.782  1.00  0.00    -0.245 OA
HETATM    5  N3  UNL     1     -20.867   0.838  14.665  1.00  0.00    -0.165 N 
ATOM      6  H3  UNL     1     -20.289   1.040  13.850  1.00  0.00     0.209 HD
ENDROOT
BRANCH   1   7
HETATM    7  C4  UNL     1     -24.383   2.341  14.671  1.00  0.00     0.141 C 
HETATM    8  C5  UNL     1     -24.485   2.793  16.108  1.00  0.00     0.055 C 
BRANCH   7   9
HETATM    9  C3  UNL     1     -25.627   1.618  14.228  1.00  0.00     0.097 C 
HETATM   10  N1  UNL     1     -26.799   1.971  14.479  1.00  0.00    -0.399 N 
HETATM   11  C1  UNL     1     -27.126   3.136  15.239  1.00  0.00     0.148 C 
HETATM   12  C2  UNL     1     -27.938   1.196  13.999  1.00  0.00     0.148 C 
ENDBRANCH   7   9
BRANCH   7  13
HETATM   13  C7  UNL     1     -24.242   3.589  13.856  1.00  0.00     0.264 C 
HETATM   14  N6  UNL     1     -24.315   3.534  12.437  1.00  0.00    -0.059 NA
HETATM   15  O2  UNL     1     -24.059   4.670  14.450  1.00  0.00    -0.274 OA
ENDBRANCH   7  13
ENDBRANCH   1   7
BRANCH   5  16
HETATM   16  N4  UNL     1     -20.606  -0.139  15.363  1.00  0.00    -0.239 NA
BRANCH  16  17
HETATM   17  N5  UNL     1     -20.240  -1.158  15.963  1.00  0.00    -0.260 N 
ATOM     18  H52 UNL     1     -20.155  -1.553  15.026  1.00  0.00     0.193 HD
ATOM     19  H51 UNL     1     -19.955  -1.933  16.561  1.00  0.00     0.193 HD
ENDBRANCH  16  17
ENDBRANCH   5  16
TORSDOF 5
ENDMDL
MODEL 5
REMARK VINA RESULT: -5.578594697      1.530      1.848
REMARK  5 active torsions:
REMARK  status: ('A' for Active; 'I' for Inactive)
REMARK    1  A    between atoms: C3_4  and  C4_5 
REMARK    2  A    between atoms: C4_5  and  N2_7 
REMARK    3  A    between atoms: C4_5  and  C7_17 
REMARK       I    between atoms: N2_7  and  C6_9 
REMARK       I    between atoms: C6_9  and  N3_11 
REMARK    4  A    between atoms: N3_11  and  N4_13 
REMARK    5  A    between atoms: N4_13  and  N5_14 
ROOT
HETATM    1  N2  UNL     1     -22.767   2.089  14.916  1.00  0.00    -0.319 N 
ATOM      2  H2  UNL     1     -22.663   1.710  13.975  1.00  0.00     0.166 HD
HETATM    3  C6  UNL     1     -21.695   1.893  15.819  1.00  0.00     0.347 C 
HETATM    4  O1  UNL     1     -21.743   2.324  16.995  1.00  0.00    -0.245 OA
HETATM    5  N3  UNL     1     -20.509   1.203  15.451  1.00  0.00    -0.165 N 
ATOM      6  H3  UNL     1     -19.748   1.717  15.008  1.00  0.00     0.209 HD
ENDROOT
BRANCH   1   7
HETATM    7  C4  UNL     1     -23.986   2.778  15.219  1.00  0.00     0.141 C 
HETATM    8  C5  UNL     1     -24.225   2.964  16.698  1.00  0.00     0.055 C 
BRANCH   7   9
HETATM    9  C3  UNL     1     -25.133   2.062  14.558  1.00  0.00     0.097 C 
HETATM   10  N1  UNL     1     -26.248   1.845  15.077  1.00  0.00    -0.399 N 
HETATM   11  C1  UNL     1     -26.595   2.257  16.401  1.00  0.00     0.148 C 
HETATM   12  C2  UNL     1     -27.295   1.141  14.346  1.00  0.00     0.148 C 
ENDBRANCH   7   9
BRANCH   7  13
HETATM   13  C7  UNL     1     -23.888   4.155  14.642  1.00  0.00     0.264 C 
HETATM   14  N6  UNL     1     -23.111   5.153  15.291  1.00  0.00    -0.059 NA
HETATM   15  O2  UNL     1     -24.500   4.404  13.584  1.00  0.00    -0.274 OA
ENDBRANCH   7  13
ENDBRANCH   1   7
BRANCH   5  16
HETATM   16  N4  UNL     1     -20.384  -0.002  15.656  1.00  0.00    -0.239 NA
BRANCH  16  17
HETATM   17  N5  UNL     1     -20.122  -1.183  15.919  1.00  0.00    -0.260 N 
ATOM     18  H52 UNL     1     -19.764  -0.800  16.794  1.00  0.00     0.193 HD
ATOM     19  H51 UNL     1     -19.955  -2.184  16.025  1.00  0.00     0.193 HD
ENDBRANCH  16  17
ENDBRANCH   5  16
TORSDOF 5
ENDMDL
