MODEL 1
REMARK VINA RESULT: -5.032336876      0.000      0.000
REMARK  2 active torsions:
REMARK  status: ('A' for Active; 'I' for Inactive)
REMARK    1  A    between atoms: C2_2  and  C3_3 
REMARK       I    between atoms: N2_5  and  C4_7 
REMARK    2  A    between atoms: C4_7  and  C5_9 
ROOT
HETATM    1  C3  UNL     1       0.901 -14.329  15.160  1.00  0.00     0.117 C 
HETATM    2  N1  UNL     1       0.196 -15.316  14.355  1.00  0.00    -0.083 NA
HETATM    3  N2  UNL     1       0.577 -13.143  14.932  1.00  0.00    -0.315 N 
ATOM      4  H2  UNL     1      -0.138 -13.074  14.207  1.00  0.00     0.170 HD
HETATM    5  C4  UNL     1       0.944 -11.907  15.413  1.00  0.00     0.236 C 
HETATM    6  O1  UNL     1       0.397 -11.427  16.438  1.00  0.00    -0.272 OA
ENDROOT
BRANCH   5   7
HETATM    7  C5  UNL     1       1.994 -11.113  14.729  1.00  0.00     0.068 A 
HETATM    8  C6  UNL     1       3.421 -11.407  15.161  1.00  0.00     0.031 C 
HETATM    9  C7  UNL     1       1.744 -11.008  13.253  1.00  0.00    -0.066 A 
HETATM   10  C8  UNL     1       1.638 -11.637  12.090  1.00  0.00     0.016 C 
HETATM   11  C9  UNL     1       1.729  -9.831  14.115  1.00  0.00     0.033 A 
HETATM   12  C10 UNL     1       0.451  -9.051  14.322  1.00  0.00     0.016 C 
ENDBRANCH   5   7
BRANCH   1  13
HETATM   13  C2  UNL     1       1.869 -14.818  16.105  1.00  0.00     0.035 C 
HETATM   14  C1  UNL     1       1.665 -15.315  17.290  1.00  0.00     0.015 C 
ENDBRANCH   1  13
TORSDOF 2
ENDMDL
MODEL 2
REMARK VINA RESULT: -4.866317855      2.247      4.557
REMARK  2 active torsions:
REMARK  status: ('A' for Active; 'I' for Inactive)
REMARK    1  A    between atoms: C2_2  and  C3_3 
REMARK       I    between atoms: N2_5  and  C4_7 
REMARK    2  A    between atoms: C4_7  and  C5_9 
ROOT
HETATM    1  C3  UNL     1       1.450 -11.807  11.371  1.00  0.00     0.117 C 
HETATM    2  N1  UNL     1       1.648 -12.708  10.246  1.00  0.00    -0.083 NA
HETATM    3  N2  UNL     1       1.873 -12.239  12.465  1.00  0.00    -0.315 N 
ATOM      4  H2  UNL     1       2.291 -13.166  12.375  1.00  0.00     0.170 HD
HETATM    5  C4  UNL     1       1.916 -11.778  13.762  1.00  0.00     0.236 C 
HETATM    6  O1  UNL     1       2.860 -11.047  14.153  1.00  0.00    -0.272 OA
ENDROOT
BRANCH   5   7
HETATM    7  C5  UNL     1       0.847 -12.139  14.726  1.00  0.00     0.068 A 
HETATM    8  C6  UNL     1      -0.531 -11.583  14.410  1.00  0.00     0.031 C 
HETATM    9  C7  UNL     1       0.917 -13.584  15.125  1.00  0.00    -0.066 A 
HETATM   10  C8  UNL     1       0.832 -14.853  14.748  1.00  0.00     0.016 C 
HETATM   11  C9  UNL     1       1.123 -12.513  16.094  1.00  0.00     0.033 A 
HETATM   12  C10 UNL     1       2.469 -12.331  16.758  1.00  0.00     0.016 C 
ENDBRANCH   5   7
BRANCH   1  13
HETATM   13  C2  UNL     1       0.803 -10.550  11.104  1.00  0.00     0.035 C 
HETATM   14  C1  UNL     1       1.342  -9.374  10.967  1.00  0.00     0.015 C 
ENDBRANCH   1  13
TORSDOF 2
ENDMDL
MODEL 3
REMARK VINA RESULT: -4.856454754      0.923      1.041
REMARK  2 active torsions:
REMARK  status: ('A' for Active; 'I' for Inactive)
REMARK    1  A    between atoms: C2_2  and  C3_3 
REMARK       I    between atoms: N2_5  and  C4_7 
REMARK    2  A    between atoms: C4_7  and  C5_9 
ROOT
HETATM    1  C3  UNL     1       1.722 -14.641  16.218  1.00  0.00     0.117 C 
HETATM    2  N1  UNL     1       1.640 -15.957  15.602  1.00  0.00    -0.083 NA
HETATM    3  N2  UNL     1       1.283 -13.708  15.512  1.00  0.00    -0.315 N 
ATOM      4  H2  UNL     1       0.938 -14.039  14.610  1.00  0.00     0.170 HD
HETATM    5  C4  UNL     1       1.148 -12.344  15.645  1.00  0.00     0.236 C 
HETATM    6  O1  UNL     1       0.136 -11.849  16.204  1.00  0.00    -0.272 OA
ENDROOT
BRANCH   5   7
HETATM    7  C5  UNL     1       2.196 -11.429  15.130  1.00  0.00     0.068 A 
HETATM    8  C6  UNL     1       3.623 -11.793  15.507  1.00  0.00     0.031 C 
HETATM    9  C7  UNL     1       1.952 -11.046  13.700  1.00  0.00    -0.066 A 
HETATM   10  C8  UNL     1       1.855 -11.443  12.438  1.00  0.00     0.016 C 
HETATM   11  C9  UNL     1       1.926 -10.055  14.771  1.00  0.00     0.033 A 
HETATM   12  C10 UNL     1       0.642  -9.336  15.115  1.00  0.00     0.016 C 
ENDBRANCH   5   7
BRANCH   1  13
HETATM   13  C2  UNL     1       2.286 -14.565  17.539  1.00  0.00     0.035 C 
HETATM   14  C1  UNL     1       2.162 -15.406  18.524  1.00  0.00     0.015 C 
ENDBRANCH   1  13
TORSDOF 2
ENDMDL
MODEL 4
REMARK VINA RESULT: -4.773200119      0.678      2.066
REMARK  2 active torsions:
REMARK  status: ('A' for Active; 'I' for Inactive)
REMARK    1  A    between atoms: C2_2  and  C3_3 
REMARK       I    between atoms: N2_5  and  C4_7 
REMARK    2  A    between atoms: C4_7  and  C5_9 
ROOT
HETATM    1  C3  UNL     1       0.707 -14.462  14.946  1.00  0.00     0.117 C 
HETATM    2  N1  UNL     1      -0.028 -15.547  14.314  1.00  0.00    -0.083 NA
HETATM    3  N2  UNL     1       0.289 -13.317  14.666  1.00  0.00    -0.315 N 
ATOM      4  H2  UNL     1      -0.510 -13.346  14.032  1.00  0.00     0.170 HD
HETATM    5  C4  UNL     1       0.636 -12.028  15.000  1.00  0.00     0.236 C 
HETATM    6  O1  UNL     1       0.187 -11.489  16.043  1.00  0.00    -0.272 OA
ENDROOT
BRANCH   5   7
HETATM    7  C5  UNL     1       1.549 -11.244  14.131  1.00  0.00     0.068 A 
HETATM    8  C6  UNL     1       1.203 -11.245  12.651  1.00  0.00     0.031 C 
HETATM    9  C7  UNL     1       1.903  -9.920  14.741  1.00  0.00    -0.066 A 
HETATM   10  C8  UNL     1       1.482  -8.732  15.156  1.00  0.00     0.016 C 
HETATM   11  C9  UNL     1       2.914 -10.944  14.501  1.00  0.00     0.033 A 
HETATM   12  C10 UNL     1       3.631 -11.597  15.661  1.00  0.00     0.016 C 
ENDBRANCH   5   7
BRANCH   1  13
HETATM   13  C2  UNL     1       1.807 -14.820  15.801  1.00  0.00     0.035 C 
HETATM   14  C1  UNL     1       1.835 -14.891  17.100  1.00  0.00     0.015 C 
ENDBRANCH   1  13
TORSDOF 2
ENDMDL
MODEL 5
REMARK VINA RESULT: -4.759643882      1.985      2.698
REMARK  2 active torsions:
REMARK  status: ('A' for Active; 'I' for Inactive)
REMARK    1  A    between atoms: C2_2  and  C3_3 
REMARK       I    between atoms: N2_5  and  C4_7 
REMARK    2  A    between atoms: C4_7  and  C5_9 
ROOT
HETATM    1  C3  UNL     1       2.025 -14.274  16.908  1.00  0.00     0.117 C 
HETATM    2  N1  UNL     1       1.825 -14.798  18.252  1.00  0.00    -0.083 NA
HETATM    3  N2  UNL     1       2.458 -13.102  16.865  1.00  0.00    -0.315 N 
ATOM      4  H2  UNL     1       2.598 -12.711  17.797  1.00  0.00     0.170 HD
HETATM    5  C4  UNL     1       2.793 -12.207  15.874  1.00  0.00     0.236 C 
HETATM    6  O1  UNL     1       3.941 -12.213  15.363  1.00  0.00    -0.272 OA
ENDROOT
BRANCH   5   7
HETATM    7  C5  UNL     1       1.803 -11.213  15.391  1.00  0.00     0.068 A 
HETATM    8  C6  UNL     1       0.846 -10.680  16.443  1.00  0.00     0.031 C 
HETATM    9  C7  UNL     1       2.427 -10.203  14.472  1.00  0.00    -0.066 A 
HETATM   10  C8  UNL     1       3.303  -9.217  14.324  1.00  0.00     0.016 C 
HETATM   11  C9  UNL     1       1.397 -11.125  14.007  1.00  0.00     0.033 A 
HETATM   12  C10 UNL     1       1.723 -12.175  12.969  1.00  0.00     0.016 C 
ENDBRANCH   5   7
BRANCH   1  13
HETATM   13  C2  UNL     1       1.708 -15.145  15.808  1.00  0.00     0.035 C 
HETATM   14  C1  UNL     1       0.666 -15.121  15.030  1.00  0.00     0.015 C 
ENDBRANCH   1  13
TORSDOF 2
ENDMDL
