MODEL 1
REMARK VINA RESULT: -4.618039057      0.000      0.000
REMARK  2 active torsions:
REMARK  status: ('A' for Active; 'I' for Inactive)
REMARK    1  A    between atoms: C2_2  and  N1_4 
REMARK       I    between atoms: N1_4  and  C5_6 
REMARK       I    between atoms: C5_6  and  N3_10 
REMARK    2  A    between atoms: C6_12  and  N4_13 
ROOT
HETATM    1  N1  UNL     1      -0.511 -10.806  14.457  1.00  0.00    -0.218 N 
HETATM    2  C4  UNL     1       0.387 -10.088  15.350  1.00  0.00     0.169 C 
HETATM    3  C5  UNL     1      -0.004 -11.976  13.831  1.00  0.00     0.674 C 
HETATM    4  N2  UNL     1       0.280 -11.941  12.578  1.00  0.00    -0.235 N 
ATOM      5  H21 UNL     1       0.644 -12.781  12.129  1.00  0.00     0.174 HD
ATOM      6  H22 UNL     1       0.135 -11.075  12.058  1.00  0.00     0.174 HD
HETATM    7  N3  UNL     1       0.200 -13.190  14.561  1.00  0.00    -0.188 N 
ATOM      8  H3  UNL     1      -0.415 -13.986  14.390  1.00  0.00     0.185 HD
HETATM    9  C6  UNL     1       1.144 -13.295  15.425  1.00  0.00     0.195 C 
ENDROOT
BRANCH   1  10
HETATM   10  C2  UNL     1      -1.878 -10.338  14.216  1.00  0.00     0.093 C 
HETATM   11  C1  UNL     1      -2.282  -9.412  15.348  1.00  0.00     0.032 C 
HETATM   12  C3  UNL     1      -1.987  -9.561  12.938  1.00  0.00     0.032 C 
ENDBRANCH   1  10
BRANCH   9  13
HETATM   13  N4  UNL     1       1.375 -14.476  16.164  1.00  0.00    -0.385 N 
HETATM   14  C7  UNL     1       2.294 -14.515  17.279  1.00  0.00     0.149 C 
HETATM   15  C8  UNL     1       0.679 -15.687  15.807  1.00  0.00     0.149 C 
ENDBRANCH   9  13
TORSDOF 2
ENDMDL
MODEL 2
REMARK VINA RESULT: -4.603753302      0.041      1.013
REMARK  2 active torsions:
REMARK  status: ('A' for Active; 'I' for Inactive)
REMARK    1  A    between atoms: C2_2  and  N1_4 
REMARK       I    between atoms: N1_4  and  C5_6 
REMARK       I    between atoms: C5_6  and  N3_10 
REMARK    2  A    between atoms: C6_12  and  N4_13 
ROOT
HETATM    1  N1  UNL     1      -0.524 -10.788  14.445  1.00  0.00    -0.218 N 
HETATM    2  C4  UNL     1       0.382 -10.082  15.339  1.00  0.00     0.169 C 
HETATM    3  C5  UNL     1      -0.028 -11.960  13.812  1.00  0.00     0.674 C 
HETATM    4  N2  UNL     1       0.252 -11.921  12.558  1.00  0.00    -0.235 N 
ATOM      5  H21 UNL     1       0.608 -12.762  12.105  1.00  0.00     0.174 HD
ATOM      6  H22 UNL     1       0.113 -11.051  12.043  1.00  0.00     0.174 HD
HETATM    7  N3  UNL     1       0.168 -13.179  14.535  1.00  0.00    -0.188 N 
ATOM      8  H3  UNL     1      -0.455 -13.969  14.363  1.00  0.00     0.185 HD
HETATM    9  C6  UNL     1       1.113 -13.295  15.397  1.00  0.00     0.195 C 
ENDROOT
BRANCH   1  10
HETATM   10  C2  UNL     1      -1.888 -10.308  14.210  1.00  0.00     0.093 C 
HETATM   11  C1  UNL     1      -2.283  -9.389  15.351  1.00  0.00     0.032 C 
HETATM   12  C3  UNL     1      -1.993  -9.520  12.939  1.00  0.00     0.032 C 
ENDBRANCH   1  10
BRANCH   9  13
HETATM   13  N4  UNL     1       1.337 -14.482  16.130  1.00  0.00    -0.385 N 
HETATM   14  C7  UNL     1       0.649 -15.714  15.822  1.00  0.00     0.149 C 
HETATM   15  C8  UNL     1       2.279 -14.476  17.220  1.00  0.00     0.149 C 
ENDBRANCH   9  13
TORSDOF 2
ENDMDL
MODEL 3
REMARK VINA RESULT: -4.523135371      2.342      3.032
REMARK  2 active torsions:
REMARK  status: ('A' for Active; 'I' for Inactive)
REMARK    1  A    between atoms: C2_2  and  N1_4 
REMARK       I    between atoms: N1_4  and  C5_6 
REMARK       I    between atoms: C5_6  and  N3_10 
REMARK    2  A    between atoms: C6_12  and  N4_13 
ROOT
HETATM    1  N1  UNL     1       2.032 -10.949  14.881  1.00  0.00    -0.218 N 
HETATM    2  C4  UNL     1       1.013 -10.486  15.812  1.00  0.00     0.169 C 
HETATM    3  C5  UNL     1       3.024 -11.828  15.392  1.00  0.00     0.674 C 
HETATM    4  N2  UNL     1       4.217 -11.384  15.574  1.00  0.00    -0.235 N 
ATOM      5  H21 UNL     1       4.929 -12.014  15.941  1.00  0.00     0.174 HD
ATOM      6  H22 UNL     1       4.426 -10.411  15.349  1.00  0.00     0.174 HD
HETATM    7  N3  UNL     1       2.730 -13.192  15.708  1.00  0.00    -0.188 N 
ATOM      8  H3  UNL     1       3.105 -13.935  15.120  1.00  0.00     0.185 HD
HETATM    9  C6  UNL     1       2.000 -13.495  16.721  1.00  0.00     0.195 C 
ENDROOT
BRANCH   1  10
HETATM   10  C2  UNL     1       2.030 -10.525  13.479  1.00  0.00     0.093 C 
HETATM   11  C1  UNL     1       1.605 -11.697  12.616  1.00  0.00     0.032 C 
HETATM   12  C3  UNL     1       1.059  -9.408  13.234  1.00  0.00     0.032 C 
ENDBRANCH   1  10
BRANCH   9  13
HETATM   13  N4  UNL     1       1.688 -14.829  17.065  1.00  0.00    -0.385 N 
HETATM   14  C7  UNL     1       1.996 -15.378  18.366  1.00  0.00     0.149 C 
HETATM   15  C8  UNL     1       1.041 -15.680  16.097  1.00  0.00     0.149 C 
ENDBRANCH   9  13
TORSDOF 2
ENDMDL
MODEL 4
REMARK VINA RESULT: -4.480614963      2.336      3.177
REMARK  2 active torsions:
REMARK  status: ('A' for Active; 'I' for Inactive)
REMARK    1  A    between atoms: C2_2  and  N1_4 
REMARK       I    between atoms: N1_4  and  C5_6 
REMARK       I    between atoms: C5_6  and  N3_10 
REMARK    2  A    between atoms: C6_12  and  N4_13 
ROOT
HETATM    1  N1  UNL     1       2.040 -10.935  14.812  1.00  0.00    -0.218 N 
HETATM    2  C4  UNL     1       0.993 -10.474  15.713  1.00  0.00     0.169 C 
HETATM    3  C5  UNL     1       3.016 -11.816  15.350  1.00  0.00     0.674 C 
HETATM    4  N2  UNL     1       4.202 -11.373  15.571  1.00  0.00    -0.235 N 
ATOM      5  H21 UNL     1       4.902 -12.006  15.956  1.00  0.00     0.174 HD
ATOM      6  H22 UNL     1       4.419 -10.400  15.355  1.00  0.00     0.174 HD
HETATM    7  N3  UNL     1       2.711 -13.181  15.653  1.00  0.00    -0.188 N 
ATOM      8  H3  UNL     1       3.104 -13.922  15.073  1.00  0.00     0.185 HD
HETATM    9  C6  UNL     1       1.950 -13.487  16.642  1.00  0.00     0.195 C 
ENDROOT
BRANCH   1  10
HETATM   10  C2  UNL     1       2.081 -10.505  13.412  1.00  0.00     0.093 C 
HETATM   11  C1  UNL     1       1.630 -11.658  12.536  1.00  0.00     0.032 C 
HETATM   12  C3  UNL     1       1.157  -9.353  13.153  1.00  0.00     0.032 C 
ENDBRANCH   1  10
BRANCH   9  13
HETATM   13  N4  UNL     1       1.626 -14.822  16.971  1.00  0.00    -0.385 N 
HETATM   14  C7  UNL     1       0.918 -15.687  16.056  1.00  0.00     0.149 C 
HETATM   15  C8  UNL     1       2.009 -15.350  18.256  1.00  0.00     0.149 C 
ENDBRANCH   9  13
TORSDOF 2
ENDMDL
MODEL 5
REMARK VINA RESULT: -4.409768081      2.019      2.541
REMARK  2 active torsions:
REMARK  status: ('A' for Active; 'I' for Inactive)
REMARK    1  A    between atoms: C2_2  and  N1_4 
REMARK       I    between atoms: N1_4  and  C5_6 
REMARK       I    between atoms: C5_6  and  N3_10 
REMARK    2  A    between atoms: C6_12  and  N4_13 
ROOT
HETATM    1  N1  UNL     1       2.097 -11.605  14.978  1.00  0.00    -0.218 N 
HETATM    2  C4  UNL     1       3.409 -11.670  15.607  1.00  0.00     0.169 C 
HETATM    3  C5  UNL     1       1.547 -12.825  14.500  1.00  0.00     0.674 C 
HETATM    4  N2  UNL     1       1.504 -13.035  13.233  1.00  0.00    -0.235 N 
ATOM      5  H21 UNL     1       1.109 -13.910  12.890  1.00  0.00     0.174 HD
ATOM      6  H22 UNL     1       1.864 -12.324  12.597  1.00  0.00     0.174 HD
HETATM    7  N3  UNL     1       1.042 -13.823  15.393  1.00  0.00    -0.188 N 
ATOM      8  H3  UNL     1       0.036 -13.984  15.446  1.00  0.00     0.185 HD
HETATM    9  C6  UNL     1       1.834 -14.517  16.128  1.00  0.00     0.195 C 
ENDROOT
BRANCH   1  10
HETATM   10  C2  UNL     1       1.379 -10.335  14.847  1.00  0.00     0.093 C 
HETATM   11  C1  UNL     1       0.182 -10.354  15.778  1.00  0.00     0.032 C 
HETATM   12  C3  UNL     1       2.235  -9.166  15.235  1.00  0.00     0.032 C 
ENDBRANCH   1  10
BRANCH   9  13
HETATM   13  N4  UNL     1       1.372 -15.510  17.021  1.00  0.00    -0.385 N 
HETATM   14  C7  UNL     1       1.908 -15.649  18.355  1.00  0.00     0.149 C 
HETATM   15  C8  UNL     1       0.335 -16.419  16.600  1.00  0.00     0.149 C 
ENDBRANCH   9  13
TORSDOF 2
ENDMDL
