MODEL 1
REMARK VINA RESULT: -5.107460290      0.000      0.000
REMARK  5 active torsions:
REMARK  status: ('A' for Active; 'I' for Inactive)
REMARK    1  A    between atoms: C2_2  and  C3_3 
REMARK    2  A    between atoms: C2_2  and  C9_9 
REMARK    3  A    between atoms: C4_4  and  C5_5 
REMARK    4  A    between atoms: C6_6  and  C7_7 
REMARK    5  A    between atoms: C9_9  and  C11_11 
ROOT
HETATM    1  C1  UNL     1       2.571 -12.084  14.760  1.00  0.00     0.029 C 
HETATM    2  C2  UNL     1       1.366 -12.517  15.061  1.00  0.00    -0.001 C 
ENDROOT
BRANCH   2   3
HETATM    3  C3  UNL     1       0.214 -11.795  14.564  1.00  0.00    -0.057 C 
HETATM    4  C4  UNL     1      -0.737 -11.179  14.140  1.00  0.00    -0.010 C 
BRANCH   4   5
HETATM    5  C5  UNL     1      -1.844 -10.431  13.646  1.00  0.00    -0.015 C 
HETATM    6  C6  UNL     1      -2.773  -9.784  13.222  1.00  0.00    -0.093 C 
BRANCH   6   7
HETATM    7  C7  UNL     1      -3.895  -8.979  12.696  1.00  0.00     0.090 C 
HETATM    8  C8  UNL     1      -4.124  -7.771  13.610  1.00  0.00     0.018 C 
ENDBRANCH   6   7
ENDBRANCH   4   5
ENDBRANCH   2   3
BRANCH   2   9
HETATM    9  C9  UNL     1       1.149 -13.721  15.895  1.00  0.00     0.112 C 
HETATM   10  C10 UNL     1       2.187 -13.789  16.995  1.00  0.00     0.025 C 
BRANCH   9  11
HETATM   11  C11 UNL     1       1.305 -14.972  15.090  1.00  0.00     0.239 C 
HETATM   12  N1  UNL     1       1.758 -16.123  15.823  1.00  0.00    -0.062 NA
HETATM   13  O1  UNL     1       1.061 -15.030  13.864  1.00  0.00    -0.276 OA
ENDBRANCH   9  11
ENDBRANCH   2   9
TORSDOF 5
ENDMDL
MODEL 2
REMARK VINA RESULT: -4.866038455      1.424      1.699
REMARK  5 active torsions:
REMARK  status: ('A' for Active; 'I' for Inactive)
REMARK    1  A    between atoms: C2_2  and  C3_3 
REMARK    2  A    between atoms: C2_2  and  C9_9 
REMARK    3  A    between atoms: C4_4  and  C5_5 
REMARK    4  A    between atoms: C6_6  and  C7_7 
REMARK    5  A    between atoms: C9_9  and  C11_11 
ROOT
HETATM    1  C1  UNL     1       2.978 -12.353  15.407  1.00  0.00     0.029 C 
HETATM    2  C2  UNL     1       1.852 -13.006  15.223  1.00  0.00    -0.001 C 
ENDROOT
BRANCH   2   3
HETATM    3  C3  UNL     1       0.681 -12.277  14.783  1.00  0.00    -0.057 C 
HETATM    4  C4  UNL     1      -0.288 -11.659  14.403  1.00  0.00    -0.010 C 
BRANCH   4   5
HETATM    5  C5  UNL     1      -1.413 -10.912  13.951  1.00  0.00    -0.015 C 
HETATM    6  C6  UNL     1      -2.358 -10.269  13.555  1.00  0.00    -0.093 C 
BRANCH   6   7
HETATM    7  C7  UNL     1      -3.501  -9.478  13.056  1.00  0.00     0.090 C 
HETATM    8  C8  UNL     1      -3.537  -8.127  13.779  1.00  0.00     0.018 C 
ENDBRANCH   6   7
ENDBRANCH   4   5
ENDBRANCH   2   3
BRANCH   2   9
HETATM    9  C9  UNL     1       1.741 -14.464  15.452  1.00  0.00     0.112 C 
HETATM   10  C10 UNL     1       0.461 -14.994  14.843  1.00  0.00     0.025 C 
BRANCH   9  11
HETATM   11  C11 UNL     1       1.674 -14.778  16.913  1.00  0.00     0.239 C 
HETATM   12  N1  UNL     1       1.323 -16.135  17.235  1.00  0.00    -0.062 NA
HETATM   13  O1  UNL     1       1.906 -13.932  17.805  1.00  0.00    -0.276 OA
ENDBRANCH   9  11
ENDBRANCH   2   9
TORSDOF 5
ENDMDL
MODEL 3
REMARK VINA RESULT: -4.817303560      2.115      2.276
REMARK  5 active torsions:
REMARK  status: ('A' for Active; 'I' for Inactive)
REMARK    1  A    between atoms: C2_2  and  C3_3 
REMARK    2  A    between atoms: C2_2  and  C9_9 
REMARK    3  A    between atoms: C4_4  and  C5_5 
REMARK    4  A    between atoms: C6_6  and  C7_7 
REMARK    5  A    between atoms: C9_9  and  C11_11 
ROOT
HETATM    1  C1  UNL     1       2.225 -12.268  14.464  1.00  0.00     0.029 C 
HETATM    2  C2  UNL     1       1.350 -12.484  15.421  1.00  0.00    -0.001 C 
ENDROOT
BRANCH   2   3
HETATM    3  C3  UNL     1       0.368 -11.463  15.720  1.00  0.00    -0.057 C 
HETATM    4  C4  UNL     1      -0.460 -10.620  15.984  1.00  0.00    -0.010 C 
BRANCH   4   5
HETATM    5  C5  UNL     1      -1.450  -9.647  16.300  1.00  0.00    -0.015 C 
HETATM    6  C6  UNL     1      -2.299  -8.832  16.580  1.00  0.00    -0.093 C 
BRANCH   6   7
HETATM    7  C7  UNL     1      -3.340  -7.847  16.938  1.00  0.00     0.090 C 
HETATM    8  C8  UNL     1      -4.223  -8.425  18.049  1.00  0.00     0.018 C 
ENDBRANCH   6   7
ENDBRANCH   4   5
ENDBRANCH   2   3
BRANCH   2   9
HETATM    9  C9  UNL     1       1.336 -13.739  16.206  1.00  0.00     0.112 C 
HETATM   10  C10 UNL     1       2.703 -13.998  16.802  1.00  0.00     0.025 C 
BRANCH   9  11
HETATM   11  C11 UNL     1       1.025 -14.916  15.337  1.00  0.00     0.239 C 
HETATM   12  N1  UNL     1       1.774 -16.109  15.625  1.00  0.00    -0.062 NA
HETATM   13  O1  UNL     1       0.174 -14.883  14.420  1.00  0.00    -0.276 OA
ENDBRANCH   9  11
ENDBRANCH   2   9
TORSDOF 5
ENDMDL
MODEL 4
REMARK VINA RESULT: -4.736119527      3.012      3.300
REMARK  5 active torsions:
REMARK  status: ('A' for Active; 'I' for Inactive)
REMARK    1  A    between atoms: C2_2  and  C3_3 
REMARK    2  A    between atoms: C2_2  and  C9_9 
REMARK    3  A    between atoms: C4_4  and  C5_5 
REMARK    4  A    between atoms: C6_6  and  C7_7 
REMARK    5  A    between atoms: C9_9  and  C11_11 
ROOT
HETATM    1  C1  UNL     1       3.434 -12.298  15.945  1.00  0.00     0.029 C 
HETATM    2  C2  UNL     1       2.306 -12.747  15.440  1.00  0.00    -0.001 C 
ENDROOT
BRANCH   2   3
HETATM    3  C3  UNL     1       1.882 -12.276  14.138  1.00  0.00    -0.057 C 
HETATM    4  C4  UNL     1       1.530 -11.864  13.056  1.00  0.00    -0.010 C 
BRANCH   4   5
HETATM    5  C5  UNL     1       1.104 -11.359  11.795  1.00  0.00    -0.015 C 
HETATM    6  C6  UNL     1       0.757 -10.938  10.715  1.00  0.00    -0.093 C 
BRANCH   6   7
HETATM    7  C7  UNL     1       0.346 -10.434   9.388  1.00  0.00     0.090 C 
HETATM    8  C8  UNL     1       0.396 -11.582   8.374  1.00  0.00     0.018 C 
ENDBRANCH   6   7
ENDBRANCH   4   5
ENDBRANCH   2   3
BRANCH   2   9
HETATM    9  C9  UNL     1       1.453 -13.719  16.160  1.00  0.00     0.112 C 
HETATM   10  C10 UNL     1       2.203 -14.299  17.340  1.00  0.00     0.025 C 
BRANCH   9  11
HETATM   11  C11 UNL     1       1.089 -14.874  15.281  1.00  0.00     0.239 C 
HETATM   12  N1  UNL     1       1.843 -16.078  15.506  1.00  0.00    -0.062 NA
HETATM   13  O1  UNL     1       0.195 -14.814  14.409  1.00  0.00    -0.276 OA
ENDBRANCH   9  11
ENDBRANCH   2   9
TORSDOF 5
ENDMDL
MODEL 5
REMARK VINA RESULT: -4.730133181      2.443      2.716
REMARK  5 active torsions:
REMARK  status: ('A' for Active; 'I' for Inactive)
REMARK    1  A    between atoms: C2_2  and  C3_3 
REMARK    2  A    between atoms: C2_2  and  C9_9 
REMARK    3  A    between atoms: C4_4  and  C5_5 
REMARK    4  A    between atoms: C6_6  and  C7_7 
REMARK    5  A    between atoms: C9_9  and  C11_11 
ROOT
HETATM    1  C1  UNL     1       3.366 -11.959  15.597  1.00  0.00     0.029 C 
HETATM    2  C2  UNL     1       2.149 -12.457  15.596  1.00  0.00    -0.001 C 
ENDROOT
BRANCH   2   3
HETATM    3  C3  UNL     1       1.025 -11.568  15.803  1.00  0.00    -0.057 C 
HETATM    4  C4  UNL     1       0.096 -10.815  15.988  1.00  0.00    -0.010 C 
BRANCH   4   5
HETATM    5  C5  UNL     1      -0.991  -9.928  16.231  1.00  0.00    -0.015 C 
HETATM    6  C6  UNL     1      -1.915  -9.180  16.453  1.00  0.00    -0.093 C 
BRANCH   6   7
HETATM    7  C7  UNL     1      -3.043  -8.271  16.745  1.00  0.00     0.090 C 
HETATM    8  C8  UNL     1      -3.744  -8.729  18.029  1.00  0.00     0.018 C 
ENDBRANCH   6   7
ENDBRANCH   4   5
ENDBRANCH   2   3
BRANCH   2   9
HETATM    9  C9  UNL     1       1.890 -13.900  15.393  1.00  0.00     0.112 C 
HETATM   10  C10 UNL     1       0.562 -14.099  14.692  1.00  0.00     0.025 C 
BRANCH   9  11
HETATM   11  C11 UNL     1       1.789 -14.621  16.700  1.00  0.00     0.239 C 
HETATM   12  N1  UNL     1       1.538 -16.033  16.605  1.00  0.00    -0.062 NA
HETATM   13  O1  UNL     1       1.915 -14.050  17.806  1.00  0.00    -0.276 OA
ENDBRANCH   9  11
ENDBRANCH   2   9
TORSDOF 5
ENDMDL
