MODEL 1
REMARK VINA RESULT: -8.066033469      0.000      0.000
REMARK  10 active torsions:
REMARK  status: ('A' for Active; 'I' for Inactive)
REMARK    1  A    between atoms: S1_2  and  C1_4 
REMARK    2  A    between atoms: S1_2  and  N2_21 
REMARK    3  A    between atoms: C1_4  and  C2_5 
REMARK    4  A    between atoms: C2_5  and  C3_6 
REMARK    5  A    between atoms: C10_17  and  C11_18 
REMARK    6  A    between atoms: C11_18  and  O4_19 
REMARK    7  A    between atoms: N2_21  and  C12_23 
REMARK    8  A    between atoms: C12_23  and  C13_24 
REMARK    9  A    between atoms: C13_24  and  O5_25 
REMARK   10  A    between atoms: C13_24  and  C14_27 
ROOT
HETATM    1  O1  UNL     1      22.665  17.068   6.684  1.00  0.00    -0.206 OA
HETATM    2  S1  UNL     1      22.172  17.439   8.040  1.00  0.00     0.230 S 
HETATM    3  O2  UNL     1      23.395  18.363   8.573  1.00  0.00    -0.206 OA
ENDROOT
BRANCH   2   4
HETATM    4  C1  UNL     1      22.124  16.143   9.136  1.00  0.00     0.164 C 
BRANCH   4   5
HETATM    5  C2  UNL     1      21.723  16.763  10.486  1.00  0.00     0.027 C 
BRANCH   5   6
HETATM    6  C3  UNL     1      21.112  15.764  11.463  1.00  0.00    -0.028 C 
HETATM    7  C4  UNL     1      20.997  16.367  12.824  1.00  0.00     0.036 C 
HETATM    8  C5  UNL     1      19.824  15.791  13.546  1.00  0.00     0.169 C 
HETATM    9  O3  UNL     1      19.971  14.434  13.628  1.00  0.00    -0.382 OA
HETATM   10  C6  UNL     1      19.620  13.694  12.562  1.00  0.00     0.183 C 
HETATM   11  C7  UNL     1      19.034  14.361  11.382  1.00  0.00     0.218 C 
HETATM   12  C9  UNL     1      20.715  13.315  11.614  1.00  0.00     0.224 C 
HETATM   13  C8  UNL     1      19.660  15.646  10.961  1.00  0.00     0.046 C 
HETATM   14  N1  UNL     1      19.686  13.327  10.571  1.00  0.00    -0.061 N 
ATOM     15  H12 UNL     1      19.198  12.479  10.285  1.00  0.00     0.278 HD
ATOM     16  H11 UNL     1      19.917  13.478   9.588  1.00  0.00     0.278 HD
HETATM   17  C10 UNL     1      21.744  14.450  11.343  1.00  0.00     0.051 C 
BRANCH  17  18
HETATM   18  C11 UNL     1      22.936  14.195  12.213  1.00  0.00     0.171 C 
BRANCH  18  19
HETATM   19  O4  UNL     1      24.168  14.446  11.652  1.00  0.00    -0.400 OA
ATOM     20  H4  UNL     1      24.640  15.198  11.988  1.00  0.00     0.209 HD
ENDBRANCH  18  19
ENDBRANCH  17  18
ENDBRANCH   5   6
ENDBRANCH   4   5
ENDBRANCH   2   4
BRANCH   2  21
HETATM   21  N2  UNL     1      20.911  18.594   7.855  1.00  0.00    -0.293 N 
ATOM     22  H2  UNL     1      21.042  19.602   7.776  1.00  0.00     0.177 HD
BRANCH  21  23
HETATM   23  C12 UNL     1      19.705  17.950   7.830  1.00  0.00     0.132 C 
BRANCH  23  24
HETATM   24  C13 UNL     1      18.605  18.957   7.573  1.00  0.00     0.064 C 
BRANCH  24  25
HETATM   25  O5  UNL     1      18.884  19.675   6.454  1.00  0.00    -0.363 OA
ATOM     26  H5  UNL     1      19.442  20.413   6.672  1.00  0.00     0.217 HD
ENDBRANCH  24  25
BRANCH  24  27
HETATM   27  C14 UNL     1      17.816  19.570   8.584  1.00  0.00     0.050 C 
HETATM   28  C15 UNL     1      17.901  18.593   9.804  1.00  0.00     0.014 C 
HETATM   29  C16 UNL     1      17.222  19.153  11.001  1.00  0.00     0.033 C 
HETATM   30  C17 UNL     1      15.742  19.257  10.714  1.00  0.00     0.121 C 
HETATM   31  C18 UNL     1      15.362  20.652  10.322  1.00  0.00     0.032 C 
HETATM   32  O6  UNL     1      15.341  18.284   9.833  1.00  0.00    -0.385 OA
HETATM   33  C19 UNL     1      15.881  20.977   8.954  1.00  0.00     0.010 C 
HETATM   34  C20 UNL     1      16.399  19.752   8.231  1.00  0.00     0.020 C 
HETATM   35  C21 UNL     1      15.546  18.559   8.507  1.00  0.00     0.173 C 
ENDBRANCH  24  27
ENDBRANCH  23  24
ENDBRANCH  21  23
ENDBRANCH   2  21
TORSDOF 10
ENDMDL
MODEL 2
REMARK VINA RESULT: -7.994285213      0.981      1.005
REMARK  10 active torsions:
REMARK  status: ('A' for Active; 'I' for Inactive)
REMARK    1  A    between atoms: S1_2  and  C1_4 
REMARK    2  A    between atoms: S1_2  and  N2_21 
REMARK    3  A    between atoms: C1_4  and  C2_5 
REMARK    4  A    between atoms: C2_5  and  C3_6 
REMARK    5  A    between atoms: C10_17  and  C11_18 
REMARK    6  A    between atoms: C11_18  and  O4_19 
REMARK    7  A    between atoms: N2_21  and  C12_23 
REMARK    8  A    between atoms: C12_23  and  C13_24 
REMARK    9  A    between atoms: C13_24  and  O5_25 
REMARK   10  A    between atoms: C13_24  and  C14_27 
ROOT
HETATM    1  O1  UNL     1      23.319  16.337   7.384  1.00  0.00    -0.206 OA
HETATM    2  S1  UNL     1      22.454  17.225   8.210  1.00  0.00     0.230 S 
HETATM    3  O2  UNL     1      23.392  18.544   8.334  1.00  0.00    -0.206 OA
ENDROOT
BRANCH   2   4
HETATM    4  C1  UNL     1      22.260  16.702   9.814  1.00  0.00     0.164 C 
BRANCH   4   5
HETATM    5  C2  UNL     1      21.099  15.694   9.778  1.00  0.00     0.027 C 
BRANCH   5   6
HETATM    6  C3  UNL     1      20.615  15.265  11.160  1.00  0.00    -0.028 C 
HETATM    7  C4  UNL     1      20.771  16.381  12.139  1.00  0.00     0.036 C 
HETATM    8  C5  UNL     1      19.714  16.299  13.189  1.00  0.00     0.169 C 
HETATM    9  O3  UNL     1      19.800  15.088  13.817  1.00  0.00    -0.382 OA
HETATM   10  C6  UNL     1      19.229  14.025  13.223  1.00  0.00     0.183 C 
HETATM   11  C7  UNL     1      18.482  14.217  11.963  1.00  0.00     0.218 C 
HETATM   12  C9  UNL     1      20.119  13.161  12.386  1.00  0.00     0.224 C 
HETATM   13  C8  UNL     1      19.093  15.130  10.957  1.00  0.00     0.046 C 
HETATM   14  N1  UNL     1      18.926  12.871  11.586  1.00  0.00    -0.061 N 
ATOM     15  H12 UNL     1      18.351  12.046  11.756  1.00  0.00     0.278 HD
ATOM     16  H11 UNL     1      18.989  12.577  10.611  1.00  0.00     0.278 HD
HETATM   17  C10 UNL     1      21.144  13.951  11.522  1.00  0.00     0.051 C 
BRANCH  17  18
HETATM   18  C11 UNL     1      22.454  13.930  12.248  1.00  0.00     0.171 C 
BRANCH  18  19
HETATM   19  O4  UNL     1      22.654  12.884  13.121  1.00  0.00    -0.400 OA
ATOM     20  H4  UNL     1      23.239  12.195  12.827  1.00  0.00     0.209 HD
ENDBRANCH  18  19
ENDBRANCH  17  18
ENDBRANCH   5   6
ENDBRANCH   4   5
ENDBRANCH   2   4
BRANCH   2  21
HETATM   21  N2  UNL     1      21.170  17.796   7.219  1.00  0.00    -0.293 N 
ATOM     22  H2  UNL     1      20.750  17.282   6.445  1.00  0.00     0.177 HD
BRANCH  21  23
HETATM   23  C12 UNL     1      20.798  19.046   7.631  1.00  0.00     0.132 C 
BRANCH  23  24
HETATM   24  C13 UNL     1      19.294  19.181   7.526  1.00  0.00     0.064 C 
BRANCH  24  25
HETATM   25  O5  UNL     1      18.948  19.565   6.270  1.00  0.00    -0.363 OA
ATOM     26  H5  UNL     1      18.638  18.815   5.775  1.00  0.00     0.217 HD
ENDBRANCH  24  25
BRANCH  24  27
HETATM   27  C14 UNL     1      18.438  19.547   8.599  1.00  0.00     0.050 C 
HETATM   28  C15 UNL     1      18.785  18.542   9.749  1.00  0.00     0.014 C 
HETATM   29  C16 UNL     1      18.055  18.870  11.001  1.00  0.00     0.033 C 
HETATM   30  C17 UNL     1      16.576  18.665  10.767  1.00  0.00     0.121 C 
HETATM   31  C18 UNL     1      15.888  19.965  10.480  1.00  0.00     0.032 C 
HETATM   32  O6  UNL     1      16.355  17.682   9.834  1.00  0.00    -0.385 OA
HETATM   33  C19 UNL     1      16.264  20.475   9.122  1.00  0.00     0.010 C 
HETATM   34  C20 UNL     1      17.001  19.436   8.303  1.00  0.00     0.020 C 
HETATM   35  C21 UNL     1      16.437  18.073   8.524  1.00  0.00     0.173 C 
ENDBRANCH  24  27
ENDBRANCH  23  24
ENDBRANCH  21  23
ENDBRANCH   2  21
TORSDOF 10
ENDMDL
MODEL 3
REMARK VINA RESULT: -7.822350970      1.552      2.230
REMARK  10 active torsions:
REMARK  status: ('A' for Active; 'I' for Inactive)
REMARK    1  A    between atoms: S1_2  and  C1_4 
REMARK    2  A    between atoms: S1_2  and  N2_21 
REMARK    3  A    between atoms: C1_4  and  C2_5 
REMARK    4  A    between atoms: C2_5  and  C3_6 
REMARK    5  A    between atoms: C10_17  and  C11_18 
REMARK    6  A    between atoms: C11_18  and  O4_19 
REMARK    7  A    between atoms: N2_21  and  C12_23 
REMARK    8  A    between atoms: C12_23  and  C13_24 
REMARK    9  A    between atoms: C13_24  and  O5_25 
REMARK   10  A    between atoms: C13_24  and  C14_27 
ROOT
HETATM    1  O1  UNL     1      24.181  15.514   8.084  1.00  0.00    -0.206 OA
HETATM    2  S1  UNL     1      23.332  16.229   9.079  1.00  0.00     0.230 S 
HETATM    3  O2  UNL     1      24.202  17.578   9.316  1.00  0.00    -0.206 OA
ENDROOT
BRANCH   2   4
HETATM    4  C1  UNL     1      23.289  15.489  10.607  1.00  0.00     0.164 C 
BRANCH   4   5
HETATM    5  C2  UNL     1      22.239  14.371  10.491  1.00  0.00     0.027 C 
BRANCH   5   6
HETATM    6  C3  UNL     1      21.237  14.348  11.641  1.00  0.00    -0.028 C 
HETATM    7  C4  UNL     1      21.334  15.601  12.445  1.00  0.00     0.036 C 
HETATM    8  C5  UNL     1      20.005  15.944  13.031  1.00  0.00     0.169 C 
HETATM    9  O3  UNL     1      19.576  14.903  13.806  1.00  0.00    -0.382 OA
HETATM   10  C6  UNL     1      18.987  13.860  13.196  1.00  0.00     0.183 C 
HETATM   11  C7  UNL     1      18.769  13.908  11.735  1.00  0.00     0.218 C 
HETATM   12  C9  UNL     1      19.859  12.686  12.874  1.00  0.00     0.224 C 
HETATM   13  C8  UNL     1      19.884  14.453  10.911  1.00  0.00     0.046 C 
HETATM   14  N1  UNL     1      18.963  12.454  11.738  1.00  0.00    -0.061 N 
ATOM     15  H12 UNL     1      18.179  11.805  11.794  1.00  0.00     0.278 HD
ATOM     16  H11 UNL     1      19.268  11.949  10.905  1.00  0.00     0.278 HD
HETATM   17  C10 UNL     1      21.273  13.069  12.350  1.00  0.00     0.051 C 
BRANCH  17  18
HETATM   18  C11 UNL     1      22.223  12.967  13.504  1.00  0.00     0.171 C 
BRANCH  18  19
HETATM   19  O4  UNL     1      22.220  11.777  14.196  1.00  0.00    -0.400 OA
ATOM     20  H4  UNL     1      22.704  11.060  13.805  1.00  0.00     0.209 HD
ENDBRANCH  18  19
ENDBRANCH  17  18
ENDBRANCH   5   6
ENDBRANCH   4   5
ENDBRANCH   2   4
BRANCH   2  21
HETATM   21  N2  UNL     1      21.947  16.839   8.262  1.00  0.00    -0.293 N 
ATOM     22  H2  UNL     1      21.751  16.724   7.268  1.00  0.00     0.177 HD
BRANCH  21  23
HETATM   23  C12 UNL     1      21.150  17.502   9.153  1.00  0.00     0.132 C 
BRANCH  23  24
HETATM   24  C13 UNL     1      19.990  18.133   8.413  1.00  0.00     0.064 C 
BRANCH  24  25
HETATM   25  O5  UNL     1      20.363  19.336   7.903  1.00  0.00    -0.363 OA
ATOM     26  H5  UNL     1      21.200  19.256   7.460  1.00  0.00     0.217 HD
ENDBRANCH  24  25
BRANCH  24  27
HETATM   27  C14 UNL     1      18.621  17.938   8.737  1.00  0.00     0.050 C 
HETATM   28  C15 UNL     1      17.922  19.285   8.348  1.00  0.00     0.014 C 
HETATM   29  C16 UNL     1      16.448  19.203   8.512  1.00  0.00     0.033 C 
HETATM   30  C17 UNL     1      16.132  19.036   9.980  1.00  0.00     0.121 C 
HETATM   31  C18 UNL     1      15.863  17.601  10.317  1.00  0.00     0.032 C 
HETATM   32  O6  UNL     1      17.087  19.638  10.762  1.00  0.00    -0.385 OA
HETATM   33  C19 UNL     1      17.127  16.798  10.264  1.00  0.00     0.010 C 
HETATM   34  C20 UNL     1      18.359  17.673  10.161  1.00  0.00     0.020 C 
HETATM   35  C21 UNL     1      18.220  18.904  10.993  1.00  0.00     0.173 C 
ENDBRANCH  24  27
ENDBRANCH  23  24
ENDBRANCH  21  23
ENDBRANCH   2  21
TORSDOF 10
ENDMDL
MODEL 4
REMARK VINA RESULT: -7.818391581      1.373      2.237
REMARK  10 active torsions:
REMARK  status: ('A' for Active; 'I' for Inactive)
REMARK    1  A    between atoms: S1_2  and  C1_4 
REMARK    2  A    between atoms: S1_2  and  N2_21 
REMARK    3  A    between atoms: C1_4  and  C2_5 
REMARK    4  A    between atoms: C2_5  and  C3_6 
REMARK    5  A    between atoms: C10_17  and  C11_18 
REMARK    6  A    between atoms: C11_18  and  O4_19 
REMARK    7  A    between atoms: N2_21  and  C12_23 
REMARK    8  A    between atoms: C12_23  and  C13_24 
REMARK    9  A    between atoms: C13_24  and  O5_25 
REMARK   10  A    between atoms: C13_24  and  C14_27 
ROOT
HETATM    1  O1  UNL     1      23.333  16.646   6.974  1.00  0.00    -0.206 OA
HETATM    2  S1  UNL     1      22.465  17.073   8.107  1.00  0.00     0.230 S 
HETATM    3  O2  UNL     1      23.107  18.522   8.461  1.00  0.00    -0.206 OA
ENDROOT
BRANCH   2   4
HETATM    4  C1  UNL     1      22.685  16.165   9.525  1.00  0.00     0.164 C 
BRANCH   4   5
HETATM    5  C2  UNL     1      21.594  16.650  10.496  1.00  0.00     0.027 C 
BRANCH   5   6
HETATM    6  C3  UNL     1      20.921  15.526  11.275  1.00  0.00    -0.028 C 
HETATM    7  C4  UNL     1      21.541  14.211  10.937  1.00  0.00     0.036 C 
HETATM    8  C5  UNL     1      21.471  13.289  12.110  1.00  0.00     0.169 C 
HETATM    9  O3  UNL     1      20.163  13.129  12.475  1.00  0.00    -0.382 OA
HETATM   10  C6  UNL     1      19.600  14.078  13.244  1.00  0.00     0.183 C 
HETATM   11  C7  UNL     1      20.425  15.210  13.714  1.00  0.00     0.218 C 
HETATM   12  C9  UNL     1      18.816  15.140  12.538  1.00  0.00     0.224 C 
HETATM   13  C8  UNL     1      21.363  15.808  12.724  1.00  0.00     0.046 C 
HETATM   14  N1  UNL     1      19.208  16.026  13.638  1.00  0.00    -0.061 N 
ATOM     15  H12 UNL     1      18.608  16.177  14.448  1.00  0.00     0.278 HD
ATOM     16  H11 UNL     1      19.244  17.039  13.527  1.00  0.00     0.278 HD
HETATM   17  C10 UNL     1      19.464  15.636  11.214  1.00  0.00     0.051 C 
BRANCH  17  18
HETATM   18  C11 UNL     1      18.783  14.926  10.085  1.00  0.00     0.171 C 
BRANCH  18  19
HETATM   19  O4  UNL     1      17.419  15.091   9.993  1.00  0.00    -0.400 OA
ATOM     20  H4  UNL     1      16.886  14.507  10.519  1.00  0.00     0.209 HD
ENDBRANCH  18  19
ENDBRANCH  17  18
ENDBRANCH   5   6
ENDBRANCH   4   5
ENDBRANCH   2   4
BRANCH   2  21
HETATM   21  N2  UNL     1      20.929  17.512   7.471  1.00  0.00    -0.293 N 
ATOM     22  H2  UNL     1      20.281  16.877   7.005  1.00  0.00     0.177 HD
BRANCH  21  23
HETATM   23  C12 UNL     1      20.712  18.845   7.686  1.00  0.00     0.132 C 
BRANCH  23  24
HETATM   24  C13 UNL     1      19.239  19.147   7.508  1.00  0.00     0.064 C 
BRANCH  24  25
HETATM   25  O5  UNL     1      19.009  19.613   6.253  1.00  0.00    -0.363 OA
ATOM     26  H5  UNL     1      19.789  20.039   5.916  1.00  0.00     0.217 HD
ENDBRANCH  24  25
BRANCH  24  27
HETATM   27  C14 UNL     1      18.367  19.565   8.549  1.00  0.00     0.050 C 
HETATM   28  C15 UNL     1      18.666  18.589   9.737  1.00  0.00     0.014 C 
HETATM   29  C16 UNL     1      17.915  18.971  10.960  1.00  0.00     0.033 C 
HETATM   30  C17 UNL     1      16.438  18.790  10.698  1.00  0.00     0.121 C 
HETATM   31  C18 UNL     1      15.784  20.093  10.355  1.00  0.00     0.032 C 
HETATM   32  O6  UNL     1      16.218  17.782   9.792  1.00  0.00    -0.385 OA
HETATM   33  C19 UNL     1      16.201  20.552   8.991  1.00  0.00     0.010 C 
HETATM   34  C20 UNL     1      16.935  19.473   8.222  1.00  0.00     0.020 C 
HETATM   35  C21 UNL     1      16.338  18.129   8.473  1.00  0.00     0.173 C 
ENDBRANCH  24  27
ENDBRANCH  23  24
ENDBRANCH  21  23
ENDBRANCH   2  21
TORSDOF 10
ENDMDL
MODEL 5
REMARK VINA RESULT: -7.624750897      1.256      1.756
REMARK  10 active torsions:
REMARK  status: ('A' for Active; 'I' for Inactive)
REMARK    1  A    between atoms: S1_2  and  C1_4 
REMARK    2  A    between atoms: S1_2  and  N2_21 
REMARK    3  A    between atoms: C1_4  and  C2_5 
REMARK    4  A    between atoms: C2_5  and  C3_6 
REMARK    5  A    between atoms: C10_17  and  C11_18 
REMARK    6  A    between atoms: C11_18  and  O4_19 
REMARK    7  A    between atoms: N2_21  and  C12_23 
REMARK    8  A    between atoms: C12_23  and  C13_24 
REMARK    9  A    between atoms: C13_24  and  O5_25 
REMARK   10  A    between atoms: C13_24  and  C14_27 
ROOT
HETATM    1  O1  UNL     1      22.507  17.084   6.848  1.00  0.00    -0.206 OA
HETATM    2  S1  UNL     1      22.158  17.495   8.237  1.00  0.00     0.230 S 
HETATM    3  O2  UNL     1      23.417  18.454   8.602  1.00  0.00    -0.206 OA
ENDROOT
BRANCH   2   4
HETATM    4  C1  UNL     1      22.252  16.237   9.373  1.00  0.00     0.164 C 
BRANCH   4   5
HETATM    5  C2  UNL     1      21.526  16.762  10.625  1.00  0.00     0.027 C 
BRANCH   5   6
HETATM    6  C3  UNL     1      20.759  15.686  11.385  1.00  0.00    -0.028 C 
HETATM    7  C4  UNL     1      19.310  15.724  11.028  1.00  0.00     0.036 C 
HETATM    8  C5  UNL     1      18.717  14.357  11.122  1.00  0.00     0.169 C 
HETATM    9  O3  UNL     1      18.891  13.882  12.392  1.00  0.00    -0.382 OA
HETATM   10  C6  UNL     1      20.079  13.339  12.708  1.00  0.00     0.183 C 
HETATM   11  C7  UNL     1      21.118  13.218  11.665  1.00  0.00     0.218 C 
HETATM   12  C9  UNL     1      21.073  14.236  13.380  1.00  0.00     0.224 C 
HETATM   13  C8  UNL     1      21.286  14.384  10.752  1.00  0.00     0.046 C 
HETATM   14  N1  UNL     1      22.104  13.418  12.734  1.00  0.00    -0.061 N 
ATOM     15  H12 UNL     1      22.547  12.634  13.211  1.00  0.00     0.278 HD
ATOM     16  H11 UNL     1      23.038  13.780  12.545  1.00  0.00     0.278 HD
HETATM   17  C10 UNL     1      21.118  15.680  12.803  1.00  0.00     0.051 C 
BRANCH  17  18
HETATM   18  C11 UNL     1      20.302  16.551  13.707  1.00  0.00     0.171 C 
BRANCH  18  19
HETATM   19  O4  UNL     1      20.305  16.220  15.044  1.00  0.00    -0.400 OA
ATOM     20  H4  UNL     1      19.784  16.769  15.617  1.00  0.00     0.209 HD
ENDBRANCH  18  19
ENDBRANCH  17  18
ENDBRANCH   5   6
ENDBRANCH   4   5
ENDBRANCH   2   4
BRANCH   2  21
HETATM   21  N2  UNL     1      20.865  18.626   8.152  1.00  0.00    -0.293 N 
ATOM     22  H2  UNL     1      20.958  19.636   8.258  1.00  0.00     0.177 HD
BRANCH  21  23
HETATM   23  C12 UNL     1      19.693  17.960   7.923  1.00  0.00     0.132 C 
BRANCH  23  24
HETATM   24  C13 UNL     1      18.597  18.963   7.631  1.00  0.00     0.064 C 
BRANCH  24  25
HETATM   25  O5  UNL     1      18.903  19.675   6.516  1.00  0.00    -0.363 OA
ATOM     26  H5  UNL     1      19.025  20.591   6.738  1.00  0.00     0.217 HD
ENDBRANCH  24  25
BRANCH  24  27
HETATM   27  C14 UNL     1      17.781  19.579   8.617  1.00  0.00     0.050 C 
HETATM   28  C15 UNL     1      17.815  18.596   9.835  1.00  0.00     0.014 C 
HETATM   29  C16 UNL     1      17.100  19.157  11.011  1.00  0.00     0.033 C 
HETATM   30  C17 UNL     1      15.632  19.276  10.674  1.00  0.00     0.121 C 
HETATM   31  C18 UNL     1      15.278  20.676  10.275  1.00  0.00     0.032 C 
HETATM   32  O6  UNL     1      15.253  18.310   9.775  1.00  0.00    -0.385 OA
HETATM   33  C19 UNL     1      15.846  21.001   8.928  1.00  0.00     0.010 C 
HETATM   34  C20 UNL     1      16.378  19.774   8.217  1.00  0.00     0.020 C 
HETATM   35  C21 UNL     1      15.505  18.589   8.458  1.00  0.00     0.173 C 
ENDBRANCH  24  27
ENDBRANCH  23  24
ENDBRANCH  21  23
ENDBRANCH   2  21
TORSDOF 10
ENDMDL
