MODEL 1
REMARK VINA RESULT: -5.435906363      0.000      0.000
REMARK  6 active torsions:
REMARK  status: ('A' for Active; 'I' for Inactive)
REMARK    1  A    between atoms: O1_2  and  C2_3 
REMARK    2  A    between atoms: C2_3  and  C3_4 
REMARK    3  A    between atoms: C3_4  and  C4_5 
REMARK    4  A    between atoms: C4_5  and  C5_6 
REMARK    5  A    between atoms: C5_6  and  N1_7 
REMARK    6  A    between atoms: C7_14  and  N5_15 
ROOT
HETATM    1  N1  UNL     1     -11.713   9.317  40.321  1.00  0.00    -0.122 N 
HETATM    2  N2  UNL     1     -11.845  10.625  40.340  1.00  0.00    -0.257 N 
ATOM      3  H2  UNL     1     -11.647  11.241  39.551  1.00  0.00     0.190 HD
HETATM    4  C6  UNL     1     -12.282  11.040  41.561  1.00  0.00     0.222 A 
HETATM    5  N3  UNL     1     -12.546  12.363  41.983  1.00  0.00    -0.061 NA
HETATM    6  N4  UNL     1     -12.414   9.939  42.296  1.00  0.00    -0.161 N 
ATOM      7  H4  UNL     1     -12.727   9.906  43.266  1.00  0.00     0.187 HD
HETATM    8  C7  UNL     1     -12.067   8.873  41.543  1.00  0.00     0.695 A 
ENDROOT
BRANCH   1   9
HETATM    9  C5  UNL     1     -11.271   8.494  39.207  1.00  0.00     0.168 C 
BRANCH   9  10
HETATM   10  C4  UNL     1     -11.777   9.131  37.946  1.00  0.00     0.024 C 
BRANCH  10  11
HETATM   11  C3  UNL     1     -10.760   9.123  36.835  1.00  0.00     0.028 C 
BRANCH  11  12
HETATM   12  C2  UNL     1      -9.959  10.374  36.750  1.00  0.00     0.167 C 
BRANCH  12  13
HETATM   13  O1  UNL     1      -9.560  10.688  35.450  1.00  0.00    -0.396 OA
HETATM   14  C1  UNL     1      -8.836  11.883  35.425  1.00  0.00     0.201 C 
ENDBRANCH  12  13
ENDBRANCH  11  12
ENDBRANCH  10  11
ENDBRANCH   9  10
ENDBRANCH   1   9
BRANCH   8  15
HETATM   15  N5  UNL     1     -12.074   7.640  41.932  1.00  0.00    -0.233 N 
ATOM     16  H52 UNL     1     -12.207   6.827  41.331  1.00  0.00     0.174 HD
ATOM     17  H51 UNL     1     -11.950   7.312  42.890  1.00  0.00     0.174 HD
ENDBRANCH   8  15
TORSDOF 6
ENDMDL
MODEL 2
REMARK VINA RESULT: -5.146543831      3.070      5.242
REMARK  6 active torsions:
REMARK  status: ('A' for Active; 'I' for Inactive)
REMARK    1  A    between atoms: O1_2  and  C2_3 
REMARK    2  A    between atoms: C2_3  and  C3_4 
REMARK    3  A    between atoms: C3_4  and  C4_5 
REMARK    4  A    between atoms: C4_5  and  C5_6 
REMARK    5  A    between atoms: C5_6  and  N1_7 
REMARK    6  A    between atoms: C7_14  and  N5_15 
ROOT
HETATM    1  N1  UNL     1     -11.555   9.383  38.212  1.00  0.00    -0.122 N 
HETATM    2  N2  UNL     1     -10.784   9.135  37.176  1.00  0.00    -0.257 N 
ATOM      3  H2  UNL     1     -10.687   8.224  36.727  1.00  0.00     0.190 HD
HETATM    4  C6  UNL     1     -10.132  10.266  36.788  1.00  0.00     0.222 A 
HETATM    5  N3  UNL     1      -9.217  10.416  35.722  1.00  0.00    -0.061 NA
HETATM    6  N4  UNL     1     -10.530  11.222  37.623  1.00  0.00    -0.161 N 
ATOM      7  H4  UNL     1     -10.225  12.195  37.602  1.00  0.00     0.187 HD
HETATM    8  C7  UNL     1     -11.406  10.690  38.503  1.00  0.00     0.695 A 
ENDROOT
BRANCH   1   9
HETATM    9  C5  UNL     1     -12.409   8.442  38.917  1.00  0.00     0.168 C 
BRANCH   9  10
HETATM   10  C4  UNL     1     -11.604   7.851  40.037  1.00  0.00     0.024 C 
BRANCH  10  11
HETATM   11  C3  UNL     1     -12.270   7.997  41.380  1.00  0.00     0.028 C 
BRANCH  11  12
HETATM   12  C2  UNL     1     -12.005   9.304  42.039  1.00  0.00     0.167 C 
BRANCH  12  13
HETATM   13  O1  UNL     1     -13.154  10.077  42.216  1.00  0.00    -0.396 OA
HETATM   14  C1  UNL     1     -12.873  11.225  42.961  1.00  0.00     0.201 C 
ENDBRANCH  12  13
ENDBRANCH  11  12
ENDBRANCH  10  11
ENDBRANCH   9  10
ENDBRANCH   1   9
BRANCH   8  15
HETATM   15  N5  UNL     1     -11.996  11.329  39.460  1.00  0.00    -0.233 N 
ATOM     16  H52 UNL     1     -11.558  12.012  40.078  1.00  0.00     0.174 HD
ATOM     17  H51 UNL     1     -12.977  11.239  39.727  1.00  0.00     0.174 HD
ENDBRANCH   8  15
TORSDOF 6
ENDMDL
MODEL 3
REMARK VINA RESULT: -5.137345829      1.098      1.893
REMARK  6 active torsions:
REMARK  status: ('A' for Active; 'I' for Inactive)
REMARK    1  A    between atoms: O1_2  and  C2_3 
REMARK    2  A    between atoms: C2_3  and  C3_4 
REMARK    3  A    between atoms: C3_4  and  C4_5 
REMARK    4  A    between atoms: C4_5  and  C5_6 
REMARK    5  A    between atoms: C5_6  and  N1_7 
REMARK    6  A    between atoms: C7_14  and  N5_15 
ROOT
HETATM    1  N1  UNL     1     -11.058   9.846  40.247  1.00  0.00    -0.122 N 
HETATM    2  N2  UNL     1     -11.143   9.521  41.519  1.00  0.00    -0.257 N 
ATOM      3  H2  UNL     1     -10.583   8.802  41.975  1.00  0.00     0.190 HD
HETATM    4  C6  UNL     1     -12.087  10.282  42.139  1.00  0.00     0.222 A 
HETATM    5  N3  UNL     1     -12.479  10.240  43.497  1.00  0.00    -0.061 NA
HETATM    6  N4  UNL     1     -12.581  11.087  41.203  1.00  0.00    -0.161 N 
ATOM      7  H4  UNL     1     -13.311  11.786  41.344  1.00  0.00     0.187 HD
HETATM    8  C7  UNL     1     -11.955  10.828  40.035  1.00  0.00     0.695 A 
ENDROOT
BRANCH   1   9
HETATM    9  C5  UNL     1     -10.172   9.267  39.251  1.00  0.00     0.168 C 
BRANCH   9  10
HETATM   10  C4  UNL     1     -11.026   8.544  38.251  1.00  0.00     0.024 C 
BRANCH  10  11
HETATM   11  C3  UNL     1     -10.795   9.007  36.836  1.00  0.00     0.028 C 
BRANCH  11  12
HETATM   12  C2  UNL     1      -9.917  10.203  36.736  1.00  0.00     0.167 C 
BRANCH  12  13
HETATM   13  O1  UNL     1      -9.517  10.488  35.430  1.00  0.00    -0.396 OA
HETATM   14  C1  UNL     1      -8.892  11.736  35.359  1.00  0.00     0.201 C 
ENDBRANCH  12  13
ENDBRANCH  11  12
ENDBRANCH  10  11
ENDBRANCH   9  10
ENDBRANCH   1   9
BRANCH   8  15
HETATM   15  N5  UNL     1     -12.181  11.422  38.909  1.00  0.00    -0.233 N 
ATOM     16  H52 UNL     1     -12.112  10.995  37.986  1.00  0.00     0.174 HD
ATOM     17  H51 UNL     1     -12.458  12.397  38.790  1.00  0.00     0.174 HD
ENDBRANCH   8  15
TORSDOF 6
ENDMDL
MODEL 4
REMARK VINA RESULT: -5.107263341      1.226      1.565
REMARK  6 active torsions:
REMARK  status: ('A' for Active; 'I' for Inactive)
REMARK    1  A    between atoms: O1_2  and  C2_3 
REMARK    2  A    between atoms: C2_3  and  C3_4 
REMARK    3  A    between atoms: C3_4  and  C4_5 
REMARK    4  A    between atoms: C4_5  and  C5_6 
REMARK    5  A    between atoms: C5_6  and  N1_7 
REMARK    6  A    between atoms: C7_14  and  N5_15 
ROOT
HETATM    1  N1  UNL     1     -10.882   9.262  40.138  1.00  0.00    -0.122 N 
HETATM    2  N2  UNL     1     -11.181  10.064  41.137  1.00  0.00    -0.257 N 
ATOM      3  H2  UNL     1     -10.695  10.935  41.348  1.00  0.00     0.190 HD
HETATM    4  C6  UNL     1     -12.230   9.565  41.848  1.00  0.00     0.222 A 
HETATM    5  N3  UNL     1     -12.848  10.126  42.989  1.00  0.00    -0.061 NA
HETATM    6  N4  UNL     1     -12.568   8.426  41.251  1.00  0.00    -0.161 N 
ATOM      7  H4  UNL     1     -13.323   7.804  41.541  1.00  0.00     0.187 HD
HETATM    8  C7  UNL     1     -11.745   8.229  40.198  1.00  0.00     0.695 A 
ENDROOT
BRANCH   1   9
HETATM    9  C5  UNL     1      -9.830   9.441  39.152  1.00  0.00     0.168 C 
BRANCH   9  10
HETATM   10  C4  UNL     1     -10.367  10.335  38.074  1.00  0.00     0.024 C 
BRANCH  10  11
HETATM   11  C3  UNL     1     -10.386   9.676  36.719  1.00  0.00     0.028 C 
BRANCH  11  12
HETATM   12  C2  UNL     1      -9.243  10.066  35.850  1.00  0.00     0.167 C 
BRANCH  12  13
HETATM   13  O1  UNL     1      -9.508  11.183  35.056  1.00  0.00    -0.396 OA
HETATM   14  C1  UNL     1      -8.615  12.220  35.341  1.00  0.00     0.201 C 
ENDBRANCH  12  13
ENDBRANCH  11  12
ENDBRANCH  10  11
ENDBRANCH   9  10
ENDBRANCH   1   9
BRANCH   8  15
HETATM   15  N5  UNL     1     -11.784   7.221  39.389  1.00  0.00    -0.233 N 
ATOM     16  H52 UNL     1     -11.966   6.253  39.652  1.00  0.00     0.174 HD
ATOM     17  H51 UNL     1     -11.637   7.255  38.379  1.00  0.00     0.174 HD
ENDBRANCH   8  15
TORSDOF 6
ENDMDL
MODEL 5
REMARK VINA RESULT: -4.796806497      1.176      1.459
REMARK  6 active torsions:
REMARK  status: ('A' for Active; 'I' for Inactive)
REMARK    1  A    between atoms: O1_2  and  C2_3 
REMARK    2  A    between atoms: C2_3  and  C3_4 
REMARK    3  A    between atoms: C3_4  and  C4_5 
REMARK    4  A    between atoms: C4_5  and  C5_6 
REMARK    5  A    between atoms: C5_6  and  N1_7 
REMARK    6  A    between atoms: C7_14  and  N5_15 
ROOT
HETATM    1  N1  UNL     1     -11.872  10.635  40.089  1.00  0.00    -0.122 N 
HETATM    2  N2  UNL     1     -12.737  11.130  40.947  1.00  0.00    -0.257 N 
ATOM      3  H2  UNL     1     -13.463  11.809  40.716  1.00  0.00     0.190 HD
HETATM    4  C6  UNL     1     -12.526  10.608  42.187  1.00  0.00     0.222 A 
HETATM    5  N3  UNL     1     -13.239  10.884  43.376  1.00  0.00    -0.061 NA
HETATM    6  N4  UNL     1     -11.499   9.773  42.062  1.00  0.00    -0.161 N 
ATOM      7  H4  UNL     1     -11.089   9.218  42.814  1.00  0.00     0.187 HD
HETATM    8  C7  UNL     1     -11.089   9.781  40.775  1.00  0.00     0.695 A 
ENDROOT
BRANCH   1   9
HETATM    9  C5  UNL     1     -11.769  10.939  38.672  1.00  0.00     0.168 C 
BRANCH   9  10
HETATM   10  C4  UNL     1     -12.148   9.700  37.914  1.00  0.00     0.024 C 
BRANCH  10  11
HETATM   11  C3  UNL     1     -11.063   9.228  36.981  1.00  0.00     0.028 C 
BRANCH  11  12
HETATM   12  C2  UNL     1      -9.928  10.181  36.854  1.00  0.00     0.167 C 
BRANCH  12  13
HETATM   13  O1  UNL     1      -9.592  10.467  35.531  1.00  0.00    -0.396 OA
HETATM   14  C1  UNL     1      -8.947  11.704  35.435  1.00  0.00     0.201 C 
ENDBRANCH  12  13
ENDBRANCH  11  12
ENDBRANCH  10  11
ENDBRANCH   9  10
ENDBRANCH   1   9
BRANCH   8  15
HETATM   15  N5  UNL     1     -10.111   9.088  40.291  1.00  0.00    -0.233 N 
ATOM     16  H52 UNL     1     -10.171   8.446  39.501  1.00  0.00     0.174 HD
ATOM     17  H51 UNL     1      -9.149   9.087  40.630  1.00  0.00     0.174 HD
ENDBRANCH   8  15
TORSDOF 6
ENDMDL
