MODEL 1
REMARK VINA RESULT: -4.887981533      0.000      0.000
REMARK  7 active torsions:
REMARK  status: ('A' for Active; 'I' for Inactive)
REMARK    1  A    between atoms: O1_2  and  C2_3 
REMARK    2  A    between atoms: C2_3  and  C3_4 
REMARK    3  A    between atoms: C3_4  and  O2_5 
REMARK    4  A    between atoms: O2_5  and  N1_6 
REMARK    5  A    between atoms: N1_6  and  N2_8 
REMARK    6  A    between atoms: N2_8  and  C4_10 
REMARK    7  A    between atoms: C7_15  and  N4_16 
ROOT
HETATM    1  C4  UNL     1     -13.143  11.782  43.420  1.00  0.00     0.138 A 
HETATM    2  C5  UNL     1     -14.373  12.455  43.432  1.00  0.00     0.068 A 
HETATM    3  C6  UNL     1     -15.141  12.529  44.566  1.00  0.00     0.110 A 
HETATM    4  N3  UNL     1     -14.697  11.940  45.687  1.00  0.00    -0.202 N 
ATOM      5  H3  UNL     1     -15.262  11.990  46.535  1.00  0.00     0.183 HD
HETATM    6  C7  UNL     1     -13.511  11.280  45.716  1.00  0.00     0.677 A 
HETATM    7  N5  UNL     1     -12.778  11.225  44.583  1.00  0.00    -0.176 N 
ATOM      8  H5  UNL     1     -11.889  10.727  44.614  1.00  0.00     0.186 HD
ENDROOT
BRANCH   1   9
HETATM    9  N2  UNL     1     -12.448  11.734  42.337  1.00  0.00    -0.265 N 
ATOM     10  H2  UNL     1     -11.964  12.567  42.000  1.00  0.00     0.190 HD
BRANCH   9  11
HETATM   11  N1  UNL     1     -12.361  10.539  41.629  1.00  0.00    -0.206 N 
ATOM     12  H1  UNL     1     -11.826  10.539  40.761  1.00  0.00     0.216 HD
BRANCH  11  13
HETATM   13  O2  UNL     1     -12.935   9.385  42.011  1.00  0.00    -0.263 OA
BRANCH  13  14
HETATM   14  C3  UNL     1     -12.331   8.264  41.468  1.00  0.00     0.229 C 
BRANCH  14  15
HETATM   15  C2  UNL     1     -11.744   8.688  40.132  1.00  0.00     0.195 C 
BRANCH  15  16
HETATM   16  O1  UNL     1     -12.715   8.616  39.166  1.00  0.00    -0.394 OA
HETATM   17  C1  UNL     1     -12.303   9.364  38.044  1.00  0.00     0.201 C 
ENDBRANCH  15  16
ENDBRANCH  14  15
ENDBRANCH  13  14
ENDBRANCH  11  13
ENDBRANCH   9  11
ENDBRANCH   1   9
BRANCH   6  18
HETATM   18  N4  UNL     1     -13.128  10.732  46.816  1.00  0.00    -0.234 N 
ATOM     19  H42 UNL     1     -13.776  10.274  47.456  1.00  0.00     0.174 HD
ATOM     20  H41 UNL     1     -12.139  10.754  47.062  1.00  0.00     0.174 HD
ENDBRANCH   6  18
TORSDOF 7
ENDMDL
MODEL 2
REMARK VINA RESULT: -4.855877191      2.804      4.454
REMARK  7 active torsions:
REMARK  status: ('A' for Active; 'I' for Inactive)
REMARK    1  A    between atoms: O1_2  and  C2_3 
REMARK    2  A    between atoms: C2_3  and  C3_4 
REMARK    3  A    between atoms: C3_4  and  O2_5 
REMARK    4  A    between atoms: O2_5  and  N1_6 
REMARK    5  A    between atoms: N1_6  and  N2_8 
REMARK    6  A    between atoms: N2_8  and  C4_10 
REMARK    7  A    between atoms: C7_15  and  N4_16 
ROOT
HETATM    1  C4  UNL     1     -11.931  10.501  40.032  1.00  0.00     0.138 A 
HETATM    2  C5  UNL     1     -11.709   9.220  40.554  1.00  0.00     0.068 A 
HETATM    3  C6  UNL     1     -11.802   8.967  41.899  1.00  0.00     0.110 A 
HETATM    4  N3  UNL     1     -12.113   9.975  42.727  1.00  0.00    -0.202 N 
ATOM      5  H3  UNL     1     -12.183   9.795  43.729  1.00  0.00     0.183 HD
HETATM    6  C7  UNL     1     -12.336  11.231  42.259  1.00  0.00     0.677 A 
HETATM    7  N5  UNL     1     -12.236  11.447  40.930  1.00  0.00    -0.176 N 
ATOM      8  H5  UNL     1     -12.405  12.393  40.587  1.00  0.00     0.186 HD
ENDROOT
BRANCH   1   9
HETATM    9  N2  UNL     1     -11.836  10.702  38.763  1.00  0.00    -0.265 N 
ATOM     10  H2  UNL     1     -11.238  11.448  38.404  1.00  0.00     0.190 HD
BRANCH   9  11
HETATM   11  N1  UNL     1     -12.553   9.897  37.883  1.00  0.00    -0.206 N 
ATOM     12  H1  UNL     1     -13.537   9.726  38.091  1.00  0.00     0.216 HD
BRANCH  11  13
HETATM   13  O2  UNL     1     -12.039   9.328  36.780  1.00  0.00    -0.263 OA
BRANCH  13  14
HETATM   14  C3  UNL     1     -10.769   8.810  36.967  1.00  0.00     0.229 C 
BRANCH  14  15
HETATM   15  C2  UNL     1      -9.837   9.599  36.062  1.00  0.00     0.195 C 
BRANCH  15  16
HETATM   16  O1  UNL     1      -9.885  10.925  36.408  1.00  0.00    -0.394 OA
HETATM   17  C1  UNL     1      -9.068  11.660  35.524  1.00  0.00     0.201 C 
ENDBRANCH  15  16
ENDBRANCH  14  15
ENDBRANCH  13  14
ENDBRANCH  11  13
ENDBRANCH   9  11
ENDBRANCH   1   9
BRANCH   6  18
HETATM   18  N4  UNL     1     -12.631  12.164  43.093  1.00  0.00    -0.234 N 
ATOM     19  H42 UNL     1     -11.957  12.539  43.761  1.00  0.00     0.174 HD
ATOM     20  H41 UNL     1     -13.575  12.549  43.092  1.00  0.00     0.174 HD
ENDBRANCH   6  18
TORSDOF 7
ENDMDL
MODEL 3
REMARK VINA RESULT: -4.782216847      3.103      6.628
REMARK  7 active torsions:
REMARK  status: ('A' for Active; 'I' for Inactive)
REMARK    1  A    between atoms: O1_2  and  C2_3 
REMARK    2  A    between atoms: C2_3  and  C3_4 
REMARK    3  A    between atoms: C3_4  and  O2_5 
REMARK    4  A    between atoms: O2_5  and  N1_6 
REMARK    5  A    between atoms: N1_6  and  N2_8 
REMARK    6  A    between atoms: N2_8  and  C4_10 
REMARK    7  A    between atoms: C7_15  and  N4_16 
ROOT
HETATM    1  C4  UNL     1     -11.680  10.609  38.360  1.00  0.00     0.138 A 
HETATM    2  C5  UNL     1     -11.878   9.276  37.979  1.00  0.00     0.068 A 
HETATM    3  C6  UNL     1     -11.126   8.691  36.992  1.00  0.00     0.110 A 
HETATM    4  N3  UNL     1     -10.179   9.420  36.383  1.00  0.00    -0.202 N 
ATOM      5  H3  UNL     1      -9.614   8.993  35.648  1.00  0.00     0.183 HD
HETATM    6  C7  UNL     1      -9.955  10.716  36.725  1.00  0.00     0.677 A 
HETATM    7  N5  UNL     1     -10.714  11.262  37.700  1.00  0.00    -0.176 N 
ATOM      8  H5  UNL     1     -10.539  12.235  37.951  1.00  0.00     0.186 HD
ENDROOT
BRANCH   1   9
HETATM    9  N2  UNL     1     -12.405  11.125  39.291  1.00  0.00    -0.265 N 
ATOM     10  H2  UNL     1     -13.374  11.384  39.104  1.00  0.00     0.190 HD
BRANCH   9  11
HETATM   11  N1  UNL     1     -11.859  11.327  40.555  1.00  0.00    -0.206 N 
ATOM     12  H1  UNL     1     -10.991  10.842  40.781  1.00  0.00     0.216 HD
BRANCH  11  13
HETATM   13  O2  UNL     1     -12.397  12.120  41.499  1.00  0.00    -0.263 OA
BRANCH  13  14
HETATM   14  C3  UNL     1     -12.886  11.423  42.590  1.00  0.00     0.229 C 
BRANCH  14  15
HETATM   15  C2  UNL     1     -12.210  10.062  42.578  1.00  0.00     0.195 C 
BRANCH  15  16
HETATM   16  O1  UNL     1     -13.008   9.165  41.916  1.00  0.00    -0.394 OA
HETATM   17  C1  UNL     1     -12.229   8.055  41.528  1.00  0.00     0.201 C 
ENDBRANCH  15  16
ENDBRANCH  14  15
ENDBRANCH  13  14
ENDBRANCH  11  13
ENDBRANCH   9  11
ENDBRANCH   1   9
BRANCH   6  18
HETATM   18  N4  UNL     1      -9.035  11.374  36.112  1.00  0.00    -0.234 N 
ATOM     19  H42 UNL     1      -8.682  12.269  36.450  1.00  0.00     0.174 HD
ATOM     20  H41 UNL     1      -8.641  10.990  35.254  1.00  0.00     0.174 HD
ENDBRANCH   6  18
TORSDOF 7
ENDMDL
MODEL 4
REMARK VINA RESULT: -4.748563269      2.396      5.865
REMARK  7 active torsions:
REMARK  status: ('A' for Active; 'I' for Inactive)
REMARK    1  A    between atoms: O1_2  and  C2_3 
REMARK    2  A    between atoms: C2_3  and  C3_4 
REMARK    3  A    between atoms: C3_4  and  O2_5 
REMARK    4  A    between atoms: O2_5  and  N1_6 
REMARK    5  A    between atoms: N1_6  and  N2_8 
REMARK    6  A    between atoms: N2_8  and  C4_10 
REMARK    7  A    between atoms: C7_15  and  N4_16 
ROOT
HETATM    1  C4  UNL     1     -12.079   9.950  41.710  1.00  0.00     0.138 A 
HETATM    2  C5  UNL     1     -12.181   8.580  41.433  1.00  0.00     0.068 A 
HETATM    3  C6  UNL     1     -12.032   8.091  40.160  1.00  0.00     0.110 A 
HETATM    4  N3  UNL     1     -11.782   8.953  39.162  1.00  0.00    -0.202 N 
ATOM      5  H3  UNL     1     -11.670   8.597  38.212  1.00  0.00     0.183 HD
HETATM    6  C7  UNL     1     -11.676  10.287  39.390  1.00  0.00     0.677 A 
HETATM    7  N5  UNL     1     -11.828  10.736  40.654  1.00  0.00    -0.176 N 
ATOM      8  H5  UNL     1     -11.746  11.740  40.817  1.00  0.00     0.186 HD
ENDROOT
BRANCH   1   9
HETATM    9  N2  UNL     1     -12.224  10.373  42.918  1.00  0.00    -0.265 N 
ATOM     10  H2  UNL     1     -12.377   9.711  43.679  1.00  0.00     0.190 HD
BRANCH   9  11
HETATM   11  N1  UNL     1     -12.171  11.739  43.179  1.00  0.00    -0.206 N 
ATOM     12  H1  UNL     1     -11.356  12.096  43.678  1.00  0.00     0.216 HD
BRANCH  11  13
HETATM   13  O2  UNL     1     -13.119  12.620  42.818  1.00  0.00    -0.263 OA
BRANCH  13  14
HETATM   14  C3  UNL     1     -14.391  12.260  43.228  1.00  0.00     0.229 C 
BRANCH  14  15
HETATM   15  C2  UNL     1     -14.395  12.323  44.746  1.00  0.00     0.195 C 
BRANCH  15  16
HETATM   16  O1  UNL     1     -13.964  11.122  45.251  1.00  0.00    -0.394 OA
HETATM   17  C1  UNL     1     -13.817  11.238  46.649  1.00  0.00     0.201 C 
ENDBRANCH  15  16
ENDBRANCH  14  15
ENDBRANCH  13  14
ENDBRANCH  11  13
ENDBRANCH   9  11
ENDBRANCH   1   9
BRANCH   6  18
HETATM   18  N4  UNL     1     -11.435  11.072  38.400  1.00  0.00    -0.234 N 
ATOM     19  H42 UNL     1     -10.505  11.176  37.994  1.00  0.00     0.174 HD
ATOM     20  H41 UNL     1     -12.201  11.615  38.001  1.00  0.00     0.174 HD
ENDBRANCH   6  18
TORSDOF 7
ENDMDL
MODEL 5
REMARK VINA RESULT: -4.669776952      2.473      6.301
REMARK  7 active torsions:
REMARK  status: ('A' for Active; 'I' for Inactive)
REMARK    1  A    between atoms: O1_2  and  C2_3 
REMARK    2  A    between atoms: C2_3  and  C3_4 
REMARK    3  A    between atoms: C3_4  and  O2_5 
REMARK    4  A    between atoms: O2_5  and  N1_6 
REMARK    5  A    between atoms: N1_6  and  N2_8 
REMARK    6  A    between atoms: N2_8  and  C4_10 
REMARK    7  A    between atoms: C7_15  and  N4_16 
ROOT
HETATM    1  C4  UNL     1     -11.778   8.785  40.175  1.00  0.00     0.138 A 
HETATM    2  C5  UNL     1     -11.568   7.731  39.276  1.00  0.00     0.068 A 
HETATM    3  C6  UNL     1     -11.043   7.946  38.027  1.00  0.00     0.110 A 
HETATM    4  N3  UNL     1     -10.727   9.199  37.666  1.00  0.00    -0.202 N 
ATOM      5  H3  UNL     1     -10.336   9.368  36.738  1.00  0.00     0.183 HD
HETATM    6  C7  UNL     1     -10.915  10.247  38.509  1.00  0.00     0.677 A 
HETATM    7  N5  UNL     1     -11.433  10.001  39.732  1.00  0.00    -0.176 N 
ATOM      8  H5  UNL     1     -11.572  10.794  40.359  1.00  0.00     0.186 HD
ENDROOT
BRANCH   1   9
HETATM    9  N2  UNL     1     -12.272   8.545  41.341  1.00  0.00    -0.265 N 
ATOM     10  H2  UNL     1     -12.506   7.590  41.613  1.00  0.00     0.190 HD
BRANCH   9  11
HETATM   11  N1  UNL     1     -12.485   9.598  42.227  1.00  0.00    -0.206 N 
ATOM     12  H1  UNL     1     -11.820   9.717  42.991  1.00  0.00     0.216 HD
BRANCH  11  13
HETATM   13  O2  UNL     1     -13.506  10.468  42.144  1.00  0.00    -0.263 OA
BRANCH  13  14
HETATM   14  C3  UNL     1     -13.318  11.611  42.901  1.00  0.00     0.229 C 
BRANCH  14  15
HETATM   15  C2  UNL     1     -12.199  11.307  43.882  1.00  0.00     0.195 C 
BRANCH  15  16
HETATM   16  O1  UNL     1     -12.713  10.635  44.962  1.00  0.00    -0.394 OA
HETATM   17  C1  UNL     1     -13.714  11.426  45.561  1.00  0.00     0.201 C 
ENDBRANCH  15  16
ENDBRANCH  14  15
ENDBRANCH  13  14
ENDBRANCH  11  13
ENDBRANCH   9  11
ENDBRANCH   1   9
BRANCH   6  18
HETATM   18  N4  UNL     1     -10.595  11.429  38.116  1.00  0.00    -0.234 N 
ATOM     19  H42 UNL     1     -11.039  11.882  37.317  1.00  0.00     0.174 HD
ATOM     20  H41 UNL     1      -9.870  11.939  38.620  1.00  0.00     0.174 HD
ENDBRANCH   6  18
TORSDOF 7
ENDMDL
