MODEL 1
REMARK VINA RESULT: -4.877565386      0.000      0.000
REMARK  5 active torsions:
REMARK  status: ('A' for Active; 'I' for Inactive)
REMARK    1  A    between atoms: C2_2  and  N1_3 
REMARK    2  A    between atoms: N1_3  and  C3_5 
REMARK    3  A    between atoms: C3_5  and  C4_6 
REMARK    4  A    between atoms: C4_6  and  N2_7 
REMARK    5  A    between atoms: N2_7  and  C5_10 
ROOT
HETATM    1  C5  UNL     1     -11.596   9.572  39.780  1.00  0.00     0.291 C 
HETATM    2  C6  UNL     1     -12.185   8.354  40.446  1.00  0.00     0.099 C 
HETATM    3  C7  UNL     1     -12.107   8.449  41.916  1.00  0.00     0.067 C 
HETATM    4  N3  UNL     1     -12.109   9.550  42.550  1.00  0.00    -0.342 N 
ATOM      5  H3  UNL     1     -12.056   9.562  43.569  1.00  0.00     0.167 HD
HETATM    6  C8  UNL     1     -12.187  10.772  41.811  1.00  0.00     0.174 C 
HETATM    7  N4  UNL     1     -12.204  11.939  42.371  1.00  0.00    -0.371 N 
ATOM      8  H41 UNL     1     -12.259  12.810  41.843  1.00  0.00     0.159 HD
ATOM      9  H42 UNL     1     -12.153  11.968  43.388  1.00  0.00     0.159 HD
HETATM   10  N5  UNL     1     -12.258  10.731  40.387  1.00  0.00    -0.334 N 
ATOM     11  H5  UNL     1     -12.730  11.449  39.837  1.00  0.00     0.164 HD
ENDROOT
BRANCH   1  12
HETATM   12  N2  UNL     1     -10.166   9.647  39.913  1.00  0.00    -0.052 N 
ATOM     13  H22 UNL     1      -9.816   9.036  40.652  1.00  0.00     0.279 HD
ATOM     14  H21 UNL     1      -9.864  10.540  40.303  1.00  0.00     0.279 HD
BRANCH  12  15
HETATM   15  C4  UNL     1      -9.548   9.375  38.654  1.00  0.00     0.253 C 
BRANCH  15  16
HETATM   16  C3  UNL     1     -10.458   9.738  37.461  1.00  0.00     0.141 C 
BRANCH  16  17
HETATM   17  N1  UNL     1      -9.892  10.828  36.805  1.00  0.00    -0.420 N 
ATOM     18  H1  UNL     1     -10.075  11.765  37.164  1.00  0.00     0.153 HD
BRANCH  17  19
HETATM   19  C2  UNL     1      -9.087  10.689  35.682  1.00  0.00     0.109 C 
HETATM   20  C1  UNL     1      -8.902  12.063  35.013  1.00  0.00     0.026 C 
ENDBRANCH  17  19
ENDBRANCH  16  17
ENDBRANCH  15  16
ENDBRANCH  12  15
ENDBRANCH   1  12
TORSDOF 5
ENDMDL
MODEL 2
REMARK VINA RESULT: -4.627409830      1.826      5.684
REMARK  5 active torsions:
REMARK  status: ('A' for Active; 'I' for Inactive)
REMARK    1  A    between atoms: C2_2  and  N1_3 
REMARK    2  A    between atoms: N1_3  and  C3_5 
REMARK    3  A    between atoms: C3_5  and  C4_6 
REMARK    4  A    between atoms: C4_6  and  N2_7 
REMARK    5  A    between atoms: N2_7  and  C5_10 
ROOT
HETATM    1  C5  UNL     1     -11.047   9.361  40.594  1.00  0.00     0.291 C 
HETATM    2  C6  UNL     1     -11.883   8.200  40.121  1.00  0.00     0.099 C 
HETATM    3  C7  UNL     1     -12.492   8.470  38.804  1.00  0.00     0.067 C 
HETATM    4  N3  UNL     1     -11.976   9.241  37.936  1.00  0.00    -0.342 N 
ATOM      5  H3  UNL     1     -12.435   9.393  37.039  1.00  0.00     0.167 HD
HETATM    6  C8  UNL     1     -10.738   9.891  38.240  1.00  0.00     0.174 C 
HETATM    7  N4  UNL     1     -10.135  10.685  37.416  1.00  0.00    -0.371 N 
ATOM      8  H41 UNL     1      -9.253  11.150  37.633  1.00  0.00     0.159 HD
ATOM      9  H42 UNL     1     -10.581  10.847  36.514  1.00  0.00     0.159 HD
HETATM   10  N5  UNL     1     -10.115   9.665  39.503  1.00  0.00    -0.334 N 
ATOM     11  H5  UNL     1      -9.104   9.712  39.635  1.00  0.00     0.164 HD
ENDROOT
BRANCH   1  12
HETATM   12  N2  UNL     1     -11.834  10.509  40.955  1.00  0.00    -0.052 N 
ATOM     13  H22 UNL     1     -12.491  10.771  40.220  1.00  0.00     0.279 HD
ATOM     14  H21 UNL     1     -11.279  11.365  40.970  1.00  0.00     0.279 HD
BRANCH  12  15
HETATM   15  C4  UNL     1     -12.490  10.272  42.202  1.00  0.00     0.253 C 
BRANCH  15  16
HETATM   16  C3  UNL     1     -12.067  11.282  43.291  1.00  0.00     0.141 C 
BRANCH  16  17
HETATM   17  N1  UNL     1     -12.828  12.436  43.125  1.00  0.00    -0.420 N 
ATOM     18  H1  UNL     1     -12.383  13.263  42.728  1.00  0.00     0.153 HD
BRANCH  17  19
HETATM   19  C2  UNL     1     -14.168  12.504  43.481  1.00  0.00     0.109 C 
HETATM   20  C1  UNL     1     -14.328  12.087  44.954  1.00  0.00     0.026 C 
ENDBRANCH  17  19
ENDBRANCH  16  17
ENDBRANCH  15  16
ENDBRANCH  12  15
ENDBRANCH   1  12
TORSDOF 5
ENDMDL
MODEL 3
REMARK VINA RESULT: -4.409148359      2.411      5.541
REMARK  5 active torsions:
REMARK  status: ('A' for Active; 'I' for Inactive)
REMARK    1  A    between atoms: C2_2  and  N1_3 
REMARK    2  A    between atoms: N1_3  and  C3_5 
REMARK    3  A    between atoms: C3_5  and  C4_6 
REMARK    4  A    between atoms: C4_6  and  N2_7 
REMARK    5  A    between atoms: N2_7  and  C5_10 
ROOT
HETATM    1  C5  UNL     1     -11.066  10.166  40.341  1.00  0.00     0.291 C 
HETATM    2  C6  UNL     1      -9.899   9.436  39.727  1.00  0.00     0.099 C 
HETATM    3  C7  UNL     1     -10.345   8.426  38.748  1.00  0.00     0.067 C 
HETATM    4  N3  UNL     1     -11.421   8.523  38.080  1.00  0.00    -0.342 N 
ATOM      5  H3  UNL     1     -11.685   7.797  37.413  1.00  0.00     0.167 HD
HETATM    6  C8  UNL     1     -12.257   9.666  38.280  1.00  0.00     0.174 C 
HETATM    7  N4  UNL     1     -13.366   9.853  37.640  1.00  0.00    -0.371 N 
ATOM      8  H41 UNL     1     -13.963  10.668  37.784  1.00  0.00     0.159 HD
ATOM      9  H42 UNL     1     -13.642   9.138  36.968  1.00  0.00     0.159 HD
HETATM   10  N5  UNL     1     -11.871  10.666  39.221  1.00  0.00    -0.334 N 
ATOM     11  H5  UNL     1     -12.133  11.647  39.122  1.00  0.00     0.164 HD
ENDROOT
BRANCH   1  12
HETATM   12  N2  UNL     1     -11.841   9.341  41.226  1.00  0.00    -0.052 N 
ATOM     13  H22 UNL     1     -11.257   8.703  41.767  1.00  0.00     0.279 HD
ATOM     14  H21 UNL     1     -12.390   8.646  40.719  1.00  0.00     0.279 HD
BRANCH  12  15
HETATM   15  C4  UNL     1     -12.656  10.162  42.063  1.00  0.00     0.253 C 
BRANCH  15  16
HETATM   16  C3  UNL     1     -11.826  11.170  42.887  1.00  0.00     0.141 C 
BRANCH  16  17
HETATM   17  N1  UNL     1     -12.547  12.359  42.965  1.00  0.00    -0.420 N 
ATOM     18  H1  UNL     1     -12.067  13.237  42.769  1.00  0.00     0.153 HD
BRANCH  17  19
HETATM   19  C2  UNL     1     -13.894  12.395  43.299  1.00  0.00     0.109 C 
HETATM   20  C1  UNL     1     -14.064  12.000  44.778  1.00  0.00     0.026 C 
ENDBRANCH  17  19
ENDBRANCH  16  17
ENDBRANCH  15  16
ENDBRANCH  12  15
ENDBRANCH   1  12
TORSDOF 5
ENDMDL
MODEL 4
REMARK VINA RESULT: -4.338399673      2.271      6.117
REMARK  5 active torsions:
REMARK  status: ('A' for Active; 'I' for Inactive)
REMARK    1  A    between atoms: C2_2  and  N1_3 
REMARK    2  A    between atoms: N1_3  and  C3_5 
REMARK    3  A    between atoms: C3_5  and  C4_6 
REMARK    4  A    between atoms: C4_6  and  N2_7 
REMARK    5  A    between atoms: N2_7  and  C5_10 
ROOT
HETATM    1  C5  UNL     1     -11.419   9.347  41.377  1.00  0.00     0.291 C 
HETATM    2  C6  UNL     1     -12.022   8.039  40.932  1.00  0.00     0.099 C 
HETATM    3  C7  UNL     1     -12.418   8.079  39.512  1.00  0.00     0.067 C 
HETATM    4  N3  UNL     1     -11.850   8.813  38.645  1.00  0.00    -0.342 N 
ATOM      5  H3  UNL     1     -12.160   8.803  37.673  1.00  0.00     0.167 HD
HETATM    6  C8  UNL     1     -10.767   9.653  39.054  1.00  0.00     0.174 C 
HETATM    7  N4  UNL     1     -10.124  10.427  38.241  1.00  0.00    -0.371 N 
ATOM      8  H41 UNL     1      -9.352  11.027  38.533  1.00  0.00     0.159 HD
ATOM      9  H42 UNL     1     -10.421  10.427  37.266  1.00  0.00     0.159 HD
HETATM   10  N5  UNL     1     -10.352   9.653  40.418  1.00  0.00    -0.334 N 
ATOM     11  H5  UNL     1      -9.392   9.849  40.703  1.00  0.00     0.164 HD
ENDROOT
BRANCH   1  12
HETATM   12  N2  UNL     1     -12.383  10.411  41.456  1.00  0.00    -0.052 N 
ATOM     13  H22 UNL     1     -13.335  10.059  41.564  1.00  0.00     0.279 HD
ATOM     14  H21 UNL     1     -12.502  10.887  40.562  1.00  0.00     0.279 HD
BRANCH  12  15
HETATM   15  C4  UNL     1     -12.023  11.314  42.502  1.00  0.00     0.253 C 
BRANCH  15  16
HETATM   16  C3  UNL     1     -13.205  11.625  43.445  1.00  0.00     0.141 C 
BRANCH  16  17
HETATM   17  N1  UNL     1     -12.808  11.324  44.746  1.00  0.00    -0.420 N 
ATOM     18  H1  UNL     1     -11.828  11.103  44.920  1.00  0.00     0.153 HD
BRANCH  17  19
HETATM   19  C2  UNL     1     -13.696  11.313  45.814  1.00  0.00     0.109 C 
HETATM   20  C1  UNL     1     -14.753  12.414  45.611  1.00  0.00     0.026 C 
ENDBRANCH  17  19
ENDBRANCH  16  17
ENDBRANCH  15  16
ENDBRANCH  12  15
ENDBRANCH   1  12
TORSDOF 5
ENDMDL
MODEL 5
REMARK VINA RESULT: -4.274427186      2.265      5.704
REMARK  5 active torsions:
REMARK  status: ('A' for Active; 'I' for Inactive)
REMARK    1  A    between atoms: C2_2  and  N1_3 
REMARK    2  A    between atoms: N1_3  and  C3_5 
REMARK    3  A    between atoms: C3_5  and  C4_6 
REMARK    4  A    between atoms: C4_6  and  N2_7 
REMARK    5  A    between atoms: N2_7  and  C5_10 
ROOT
HETATM    1  C5  UNL     1     -11.294   9.519  41.166  1.00  0.00     0.291 C 
HETATM    2  C6  UNL     1     -11.989   8.211  40.890  1.00  0.00     0.099 C 
HETATM    3  C7  UNL     1     -12.407   8.106  39.480  1.00  0.00     0.067 C 
HETATM    4  N3  UNL     1     -11.807   8.689  38.524  1.00  0.00    -0.342 N 
ATOM      5  H3  UNL     1     -12.135   8.583  37.564  1.00  0.00     0.167 HD
HETATM    6  C8  UNL     1     -10.664   9.497  38.817  1.00  0.00     0.174 C 
HETATM    7  N4  UNL     1      -9.986  10.121  37.909  1.00  0.00    -0.371 N 
ATOM      8  H41 UNL     1      -9.171  10.698  38.119  1.00  0.00     0.159 HD
ATOM      9  H42 UNL     1     -10.299  10.023  36.944  1.00  0.00     0.159 HD
HETATM   10  N5  UNL     1     -10.225   9.633  40.167  1.00  0.00    -0.334 N 
ATOM     11  H5  UNL     1      -9.250   9.797  40.417  1.00  0.00     0.164 HD
ENDROOT
BRANCH   1  12
HETATM   12  N2  UNL     1     -12.183  10.647  41.125  1.00  0.00    -0.052 N 
ATOM     13  H22 UNL     1     -13.121  10.386  40.818  1.00  0.00     0.279 HD
ATOM     14  H21 UNL     1     -11.953  11.289  40.366  1.00  0.00     0.279 HD
BRANCH  12  15
HETATM   15  C4  UNL     1     -12.197  11.300  42.395  1.00  0.00     0.253 C 
BRANCH  15  16
HETATM   16  C3  UNL     1     -13.615  11.739  42.817  1.00  0.00     0.141 C 
BRANCH  16  17
HETATM   17  N1  UNL     1     -13.510  12.966  43.466  1.00  0.00    -0.420 N 
ATOM     18  H1  UNL     1     -12.592  13.275  43.785  1.00  0.00     0.153 HD
BRANCH  17  19
HETATM   19  C2  UNL     1     -14.607  13.786  43.696  1.00  0.00     0.109 C 
HETATM   20  C1  UNL     1     -14.186  15.259  43.538  1.00  0.00     0.026 C 
ENDBRANCH  17  19
ENDBRANCH  16  17
ENDBRANCH  15  16
ENDBRANCH  12  15
ENDBRANCH   1  12
TORSDOF 5
ENDMDL
