MODEL 1
REMARK VINA RESULT: -7.076547824      0.000      0.000
REMARK  6 active torsions:
REMARK  status: ('A' for Active; 'I' for Inactive)
REMARK    1  A    between atoms: N1_2  and  N2_3 
REMARK    2  A    between atoms: C2_5  and  O1_6 
REMARK    3  A    between atoms: C2_5  and  C3_8 
REMARK    4  A    between atoms: C3_8  and  N3_9 
REMARK    5  A    between atoms: C3_8  and  C10_27 
REMARK       I    between atoms: N3_9  and  C4_11 
REMARK    6  A    between atoms: C4_11  and  C5_13 
ROOT
HETATM    1  N3  UNL     1     -47.819  73.448 -14.268  1.00  0.00    -0.335 N 
ATOM      2  H3  UNL     1     -47.116  74.005 -13.781  1.00  0.00     0.164 HD
HETATM    3  C4  UNL     1     -49.222  73.810 -14.339  1.00  0.00     0.269 C 
HETATM    4  O2  UNL     1     -49.998  73.094 -15.009  1.00  0.00    -0.266 OA
ENDROOT
BRANCH   3   5
HETATM    5  C5  UNL     1     -49.702  74.978 -13.641  1.00  0.00     0.108 C 
HETATM    6  C6  UNL     1     -49.950  76.115 -14.401  1.00  0.00     0.094 C 
HETATM    7  C7  UNL     1     -49.921  77.430 -13.910  1.00  0.00     0.217 C 
HETATM    8  O3  UNL     1     -49.917  78.257 -14.863  1.00  0.00    -0.284 OA
HETATM    9  C8  UNL     1     -49.903  77.927 -12.635  1.00  0.00     0.154 C 
HETATM   10  N4  UNL     1     -50.050  79.184 -12.418  1.00  0.00    -0.382 N 
HETATM   11  N5  UNL     1     -49.779  77.165 -11.499  1.00  0.00    -0.292 N 
ATOM     12  H42 UNL     1     -50.142  79.749 -13.261  1.00  0.00     0.157 HD
ATOM     13  H41 UNL     1     -50.036  79.554 -11.468  1.00  0.00     0.157 HD
HETATM   14  C9  UNL     1     -49.796  75.827 -11.369  1.00  0.00     0.326 C 
ATOM     15  H5  UNL     1     -49.656  77.688 -10.632  1.00  0.00     0.172 HD
HETATM   16  O4  UNL     1     -49.673  75.375 -10.180  1.00  0.00    -0.247 OA
HETATM   17  N6  UNL     1     -49.907  74.858 -12.288  1.00  0.00    -0.304 N 
ATOM     18  H6  UNL     1     -50.172  73.934 -11.947  1.00  0.00     0.171 HD
ENDBRANCH   3   5
BRANCH   1  19
HETATM   19  C3  UNL     1     -47.525  72.219 -14.960  1.00  0.00     0.262 C 
BRANCH  19  20
HETATM   20  C2  UNL     1     -47.574  71.026 -14.158  1.00  0.00     0.161 C 
HETATM   21  N2  UNL     1     -48.624  70.188 -13.980  1.00  0.00    -0.286 N 
ATOM     22  H2  UNL     1     -49.511  70.399 -14.437  1.00  0.00     0.184 HD
BRANCH  21  23
HETATM   23  N1  UNL     1     -48.521  69.027 -13.175  1.00  0.00    -0.144 NA
HETATM   24  C1  UNL     1     -49.843  68.715 -12.647  1.00  0.00     0.159 C 
ENDBRANCH  21  23
BRANCH  20  25
HETATM   25  O1  UNL     1     -46.425  70.694 -13.549  1.00  0.00    -0.347 OA
ATOM     26  H1  UNL     1     -46.383  70.832 -12.610  1.00  0.00     0.219 HD
ENDBRANCH  20  25
ENDBRANCH  19  20
BRANCH  19  27
HETATM   27  C10 UNL     1     -46.046  72.359 -15.430  1.00  0.00     0.205 C 
HETATM   28  O5  UNL     1     -45.423  73.309 -14.924  1.00  0.00    -0.646 OA
HETATM   29  O6  UNL     1     -45.517  71.474 -16.347  1.00  0.00    -0.646 OA
ENDBRANCH  19  27
ENDBRANCH   1  19
TORSDOF 6
ENDMDL
MODEL 2
REMARK VINA RESULT: -6.924597111      3.449      5.965
REMARK  6 active torsions:
REMARK  status: ('A' for Active; 'I' for Inactive)
REMARK    1  A    between atoms: N1_2  and  N2_3 
REMARK    2  A    between atoms: C2_5  and  O1_6 
REMARK    3  A    between atoms: C2_5  and  C3_8 
REMARK    4  A    between atoms: C3_8  and  N3_9 
REMARK    5  A    between atoms: C3_8  and  C10_27 
REMARK       I    between atoms: N3_9  and  C4_11 
REMARK    6  A    between atoms: C4_11  and  C5_13 
ROOT
HETATM    1  N3  UNL     1     -45.365  72.207 -15.766  1.00  0.00    -0.335 N 
ATOM      2  H3  UNL     1     -44.885  71.398 -15.373  1.00  0.00     0.164 HD
HETATM    3  C4  UNL     1     -46.648  72.689 -15.292  1.00  0.00     0.269 C 
HETATM    4  O2  UNL     1     -47.131  73.725 -15.800  1.00  0.00    -0.266 OA
ENDROOT
BRANCH   3   5
HETATM    5  C5  UNL     1     -47.348  71.975 -14.252  1.00  0.00     0.108 C 
HETATM    6  C6  UNL     1     -47.121  70.606 -14.159  1.00  0.00     0.094 C 
HETATM    7  C7  UNL     1     -48.021  69.679 -13.608  1.00  0.00     0.217 C 
HETATM    8  O3  UNL     1     -47.674  68.502 -13.897  1.00  0.00    -0.284 OA
HETATM    9  C8  UNL     1     -49.146  69.844 -12.847  1.00  0.00     0.154 C 
HETATM   10  N4  UNL     1     -49.726  68.833 -12.306  1.00  0.00    -0.382 N 
HETATM   11  N5  UNL     1     -49.724  71.054 -12.553  1.00  0.00    -0.292 N 
ATOM     12  H42 UNL     1     -49.297  67.934 -12.524  1.00  0.00     0.157 HD
ATOM     13  H41 UNL     1     -50.565  68.955 -11.739  1.00  0.00     0.157 HD
HETATM   14  C9  UNL     1     -49.266  72.294 -12.800  1.00  0.00     0.326 C 
ATOM     15  H5  UNL     1     -50.627  71.006 -12.080  1.00  0.00     0.172 HD
HETATM   16  O4  UNL     1     -50.007  73.258 -12.402  1.00  0.00    -0.247 OA
HETATM   17  N6  UNL     1     -48.153  72.712 -13.418  1.00  0.00    -0.304 N 
ATOM     18  H6  UNL     1     -47.874  73.678 -13.252  1.00  0.00     0.171 HD
ENDBRANCH   3   5
BRANCH   1  19
HETATM   19  C3  UNL     1     -44.842  72.994 -16.853  1.00  0.00     0.262 C 
BRANCH  19  20
HETATM   20  C2  UNL     1     -44.075  72.273 -17.832  1.00  0.00     0.161 C 
HETATM   21  N2  UNL     1     -44.224  70.983 -18.219  1.00  0.00    -0.286 N 
ATOM     22  H2  UNL     1     -44.945  70.412 -17.778  1.00  0.00     0.184 HD
BRANCH  21  23
HETATM   23  N1  UNL     1     -43.406  70.407 -19.221  1.00  0.00    -0.144 NA
HETATM   24  C1  UNL     1     -43.796  69.013 -19.389  1.00  0.00     0.159 C 
ENDBRANCH  21  23
BRANCH  20  25
HETATM   25  O1  UNL     1     -43.123  72.985 -18.456  1.00  0.00    -0.347 OA
ATOM     26  H1  UNL     1     -42.841  73.787 -18.032  1.00  0.00     0.219 HD
ENDBRANCH  20  25
ENDBRANCH  19  20
BRANCH  19  27
HETATM   27  C10 UNL     1     -43.854  74.000 -16.190  1.00  0.00     0.205 C 
HETATM   28  O5  UNL     1     -44.067  75.196 -16.453  1.00  0.00    -0.646 OA
HETATM   29  O6  UNL     1     -42.829  73.545 -15.384  1.00  0.00    -0.646 OA
ENDBRANCH  19  27
ENDBRANCH   1  19
TORSDOF 6
ENDMDL
MODEL 3
REMARK VINA RESULT: -6.872078123      3.012      6.820
REMARK  6 active torsions:
REMARK  status: ('A' for Active; 'I' for Inactive)
REMARK    1  A    between atoms: N1_2  and  N2_3 
REMARK    2  A    between atoms: C2_5  and  O1_6 
REMARK    3  A    between atoms: C2_5  and  C3_8 
REMARK    4  A    between atoms: C3_8  and  N3_9 
REMARK    5  A    between atoms: C3_8  and  C10_27 
REMARK       I    between atoms: N3_9  and  C4_11 
REMARK    6  A    between atoms: C4_11  and  C5_13 
ROOT
HETATM    1  N3  UNL     1     -47.485  71.435 -14.409  1.00  0.00    -0.335 N 
ATOM      2  H3  UNL     1     -46.624  71.213 -13.908  1.00  0.00     0.164 HD
HETATM    3  C4  UNL     1     -47.521  71.875 -15.790  1.00  0.00     0.269 C 
HETATM    4  O2  UNL     1     -48.630  72.067 -16.336  1.00  0.00    -0.266 OA
ENDROOT
BRANCH   3   5
HETATM    5  C5  UNL     1     -46.290  72.088 -16.512  1.00  0.00     0.108 C 
HETATM    6  C6  UNL     1     -46.292  71.799 -17.871  1.00  0.00     0.094 C 
HETATM    7  C7  UNL     1     -45.156  71.451 -18.620  1.00  0.00     0.217 C 
HETATM    8  O3  UNL     1     -45.492  70.989 -19.744  1.00  0.00    -0.284 OA
HETATM    9  C8  UNL     1     -43.819  71.535 -18.339  1.00  0.00     0.154 C 
HETATM   10  N4  UNL     1     -42.942  71.313 -19.251  1.00  0.00    -0.382 N 
HETATM   11  N5  UNL     1     -43.295  71.895 -17.122  1.00  0.00    -0.292 N 
ATOM     12  H42 UNL     1     -43.332  71.046 -20.154  1.00  0.00     0.157 HD
ATOM     13  H41 UNL     1     -41.946  71.375 -19.042  1.00  0.00     0.157 HD
HETATM   14  C9  UNL     1     -43.927  72.365 -16.032  1.00  0.00     0.326 C 
ATOM     15  H5  UNL     1     -42.284  71.790 -17.032  1.00  0.00     0.172 HD
HETATM   16  O4  UNL     1     -43.186  72.638 -15.026  1.00  0.00    -0.247 OA
HETATM   17  N6  UNL     1     -45.227  72.591 -15.802  1.00  0.00    -0.304 N 
ATOM     18  H6  UNL     1     -45.451  73.201 -15.016  1.00  0.00     0.171 HD
ENDBRANCH   3   5
BRANCH   1  19
HETATM   19  C3  UNL     1     -48.796  71.343 -13.819  1.00  0.00     0.262 C 
BRANCH  19  20
HETATM   20  C2  UNL     1     -49.259  72.524 -13.142  1.00  0.00     0.161 C 
HETATM   21  N2  UNL     1     -49.897  73.593 -13.678  1.00  0.00    -0.286 N 
ATOM     22  H2  UNL     1     -50.078  73.612 -14.681  1.00  0.00     0.184 HD
BRANCH  21  23
HETATM   23  N1  UNL     1     -50.321  74.683 -12.880  1.00  0.00    -0.144 NA
HETATM   24  C1  UNL     1     -49.638  75.885 -13.343  1.00  0.00     0.159 C 
ENDBRANCH  21  23
BRANCH  20  25
HETATM   25  O1  UNL     1     -49.061  72.541 -11.814  1.00  0.00    -0.347 OA
ATOM     26  H1  UNL     1     -48.708  73.341 -11.444  1.00  0.00     0.219 HD
ENDBRANCH  20  25
ENDBRANCH  19  20
BRANCH  19  27
HETATM   27  C10 UNL     1     -48.675  70.241 -12.725  1.00  0.00     0.205 C 
HETATM   28  O5  UNL     1     -49.706  69.572 -12.538  1.00  0.00    -0.646 OA
HETATM   29  O6  UNL     1     -47.491  70.065 -12.037  1.00  0.00    -0.646 OA
ENDBRANCH  19  27
ENDBRANCH   1  19
TORSDOF 6
ENDMDL
MODEL 4
REMARK VINA RESULT: -6.819682686      4.528      6.926
REMARK  6 active torsions:
REMARK  status: ('A' for Active; 'I' for Inactive)
REMARK    1  A    between atoms: N1_2  and  N2_3 
REMARK    2  A    between atoms: C2_5  and  O1_6 
REMARK    3  A    between atoms: C2_5  and  C3_8 
REMARK    4  A    between atoms: C3_8  and  N3_9 
REMARK    5  A    between atoms: C3_8  and  C10_27 
REMARK       I    between atoms: N3_9  and  C4_11 
REMARK    6  A    between atoms: C4_11  and  C5_13 
ROOT
HETATM    1  N3  UNL     1     -45.285  71.867 -16.708  1.00  0.00    -0.335 N 
ATOM      2  H3  UNL     1     -45.658  71.085 -17.247  1.00  0.00     0.164 HD
HETATM    3  C4  UNL     1     -45.830  72.297 -15.435  1.00  0.00     0.269 C 
HETATM    4  O2  UNL     1     -45.268  73.230 -14.820  1.00  0.00    -0.266 OA
ENDROOT
BRANCH   3   5
HETATM    5  C5  UNL     1     -47.005  71.653 -14.898  1.00  0.00     0.108 C 
HETATM    6  C6  UNL     1     -47.007  71.368 -13.538  1.00  0.00     0.094 C 
HETATM    7  C7  UNL     1     -47.759  70.349 -12.933  1.00  0.00     0.217 C 
HETATM    8  O3  UNL     1     -47.365  70.150 -11.751  1.00  0.00    -0.284 OA
HETATM    9  C8  UNL     1     -48.796  69.584 -13.395  1.00  0.00     0.154 C 
HETATM   10  N4  UNL     1     -49.452  68.818 -12.600  1.00  0.00    -0.382 N 
HETATM   11  N5  UNL     1     -49.257  69.589 -14.689  1.00  0.00    -0.292 N 
ATOM     12  H42 UNL     1     -49.109  68.814 -11.640  1.00  0.00     0.157 HD
ATOM     13  H41 UNL     1     -50.224  68.248 -12.944  1.00  0.00     0.157 HD
HETATM   14  C9  UNL     1     -48.921  70.402 -15.706  1.00  0.00     0.326 C 
ATOM     15  H5  UNL     1     -49.952  68.876 -14.909  1.00  0.00     0.172 HD
HETATM   16  O4  UNL     1     -49.522  70.194 -16.815  1.00  0.00    -0.247 OA
HETATM   17  N6  UNL     1     -48.037  71.407 -15.770  1.00  0.00    -0.304 N 
ATOM     18  H6  UNL     1     -48.142  72.058 -16.548  1.00  0.00     0.171 HD
ENDBRANCH   3   5
BRANCH   1  19
HETATM   19  C3  UNL     1     -44.160  72.661 -17.130  1.00  0.00     0.262 C 
BRANCH  19  20
HETATM   20  C2  UNL     1     -44.482  73.928 -17.729  1.00  0.00     0.161 C 
HETATM   21  N2  UNL     1     -44.390  75.159 -17.169  1.00  0.00    -0.286 N 
ATOM     22  H2  UNL     1     -44.074  75.243 -16.203  1.00  0.00     0.184 HD
BRANCH  21  23
HETATM   23  N1  UNL     1     -44.720  76.332 -17.891  1.00  0.00    -0.144 NA
HETATM   24  C1  UNL     1     -43.920  77.433 -17.371  1.00  0.00     0.159 C 
ENDBRANCH  21  23
BRANCH  20  25
HETATM   25  O1  UNL     1     -44.886  73.875 -19.008  1.00  0.00    -0.347 OA
ATOM     26  H1  UNL     1     -44.527  73.176 -19.541  1.00  0.00     0.219 HD
ENDBRANCH  20  25
ENDBRANCH  19  20
BRANCH  19  27
HETATM   27  C10 UNL     1     -43.465  71.824 -18.245  1.00  0.00     0.205 C 
HETATM   28  O5  UNL     1     -44.012  70.739 -18.504  1.00  0.00    -0.646 OA
HETATM   29  O6  UNL     1     -42.323  72.294 -18.862  1.00  0.00    -0.646 OA
ENDBRANCH  19  27
ENDBRANCH   1  19
TORSDOF 6
ENDMDL
MODEL 5
REMARK VINA RESULT: -6.813766212      2.138      7.131
REMARK  6 active torsions:
REMARK  status: ('A' for Active; 'I' for Inactive)
REMARK    1  A    between atoms: N1_2  and  N2_3 
REMARK    2  A    between atoms: C2_5  and  O1_6 
REMARK    3  A    between atoms: C2_5  and  C3_8 
REMARK    4  A    between atoms: C3_8  and  N3_9 
REMARK    5  A    between atoms: C3_8  and  C10_27 
REMARK       I    between atoms: N3_9  and  C4_11 
REMARK    6  A    between atoms: C4_11  and  C5_13 
ROOT
HETATM    1  N3  UNL     1     -50.463  74.672 -13.415  1.00  0.00    -0.335 N 
ATOM      2  H3  UNL     1     -51.084  74.101 -12.841  1.00  0.00     0.164 HD
HETATM    3  C4  UNL     1     -49.506  74.120 -14.355  1.00  0.00     0.269 C 
HETATM    4  O2  UNL     1     -48.827  74.901 -15.057  1.00  0.00    -0.266 OA
ENDROOT
BRANCH   3   5
HETATM    5  C5  UNL     1     -49.348  72.690 -14.468  1.00  0.00     0.108 C 
HETATM    6  C6  UNL     1     -48.957  72.002 -13.325  1.00  0.00     0.094 C 
HETATM    7  C7  UNL     1     -48.279  70.773 -13.320  1.00  0.00     0.217 C 
HETATM    8  O3  UNL     1     -47.824  70.524 -12.171  1.00  0.00    -0.284 OA
HETATM    9  C8  UNL     1     -48.052  69.854 -14.308  1.00  0.00     0.154 C 
HETATM   10  N4  UNL     1     -47.546  68.706 -14.033  1.00  0.00    -0.382 N 
HETATM   11  N5  UNL     1     -48.370  70.032 -15.632  1.00  0.00    -0.292 N 
ATOM     12  H42 UNL     1     -47.310  68.574 -13.050  1.00  0.00     0.157 HD
ATOM     13  H41 UNL     1     -47.376  68.020 -14.769  1.00  0.00     0.157 HD
HETATM   14  C9  UNL     1     -49.071  71.023 -16.210  1.00  0.00     0.326 C 
ATOM     15  H5  UNL     1     -48.027  69.310 -16.266  1.00  0.00     0.172 HD
HETATM   16  O4  UNL     1     -49.234  70.934 -17.476  1.00  0.00    -0.247 OA
HETATM   17  N6  UNL     1     -49.629  72.123 -15.687  1.00  0.00    -0.304 N 
ATOM     18  H6  UNL     1     -50.339  72.588 -16.253  1.00  0.00     0.171 HD
ENDBRANCH   3   5
BRANCH   1  19
HETATM   19  C3  UNL     1     -50.440  76.111 -13.378  1.00  0.00     0.262 C 
BRANCH  19  20
HETATM   20  C2  UNL     1     -50.063  76.697 -12.120  1.00  0.00     0.161 C 
HETATM   21  N2  UNL     1     -50.847  77.387 -11.257  1.00  0.00    -0.286 N 
ATOM     22  H2  UNL     1     -51.826  77.548 -11.494  1.00  0.00     0.184 HD
BRANCH  21  23
HETATM   23  N1  UNL     1     -50.343  77.889 -10.032  1.00  0.00    -0.144 NA
HETATM   24  C1  UNL     1     -50.992  77.176  -8.940  1.00  0.00     0.159 C 
ENDBRANCH  21  23
BRANCH  20  25
HETATM   25  O1  UNL     1     -48.788  76.498 -11.752  1.00  0.00    -0.347 OA
ATOM     26  H1  UNL     1     -48.619  76.413 -10.821  1.00  0.00     0.219 HD
ENDBRANCH  20  25
ENDBRANCH  19  20
BRANCH  19  27
HETATM   27  C10 UNL     1     -51.914  76.548 -13.630  1.00  0.00     0.205 C 
HETATM   28  O5  UNL     1     -52.755  75.639 -13.529  1.00  0.00    -0.646 OA
HETATM   29  O6  UNL     1     -52.211  77.859 -13.946  1.00  0.00    -0.646 OA
ENDBRANCH  19  27
ENDBRANCH   1  19
TORSDOF 6
ENDMDL
