MODEL 1
REMARK VINA RESULT: -7.138169350      0.000      0.000
REMARK  6 active torsions:
REMARK  status: ('A' for Active; 'I' for Inactive)
REMARK       I    between atoms: C2_2  and  N1_4 
REMARK    1  A    between atoms: N1_4  and  C3_6 
REMARK    2  A    between atoms: C3_6  and  C4_7 
REMARK    3  A    between atoms: C3_6  and  C8_23 
REMARK    4  A    between atoms: C4_7  and  N2_8 
REMARK    5  A    between atoms: C7_17  and  N5_18 
REMARK    6  A    between atoms: N5_18  and  N6_20 
REMARK       I    between atoms: C8_23  and  N7_25 
ROOT
HETATM    1  N2  UNL     1     -46.258  72.468 -15.353  1.00  0.00    -0.265 N 
HETATM    2  N3  UNL     1     -46.644  71.973 -16.499  1.00  0.00    -0.247 N 
ATOM      3  H3  UNL     1     -47.632  71.779 -16.664  1.00  0.00     0.192 HD
HETATM    4  C5  UNL     1     -45.731  71.719 -17.466  1.00  0.00     0.342 A 
HETATM    5  O2  UNL     1     -46.155  71.244 -18.546  1.00  0.00    -0.245 OA
HETATM    6  N4  UNL     1     -44.443  71.978 -17.235  1.00  0.00    -0.271 N 
ATOM      7  H4  UNL     1     -43.764  71.783 -17.970  1.00  0.00     0.174 HD
HETATM    8  C6  UNL     1     -44.002  72.493 -16.055  1.00  0.00     0.296 A 
HETATM    9  O3  UNL     1     -42.761  72.700 -15.945  1.00  0.00    -0.264 OA
HETATM   10  C7  UNL     1     -44.928  72.749 -15.079  1.00  0.00     0.206 A 
ENDROOT
BRANCH   1  11
HETATM   11  C4  UNL     1     -47.206  72.774 -14.343  1.00  0.00     0.186 C 
BRANCH  11  12
HETATM   12  C3  UNL     1     -48.647  72.585 -14.634  1.00  0.00     0.197 C 
BRANCH  12  13
HETATM   13  N1  UNL     1     -49.118  71.526 -13.690  1.00  0.00    -0.346 N 
HETATM   14  C2  UNL     1     -49.022  70.168 -14.040  1.00  0.00     0.214 C 
HETATM   15  C1  UNL     1     -49.503  69.139 -13.095  1.00  0.00     0.117 C 
HETATM   16  O1  UNL     1     -48.536  69.846 -15.143  1.00  0.00    -0.274 OA
ATOM     17  H1  UNL     1     -49.512  71.790 -12.787  1.00  0.00     0.163 HD
ENDBRANCH  12  13
BRANCH  12  18
HETATM   18  C8  UNL     1     -49.548  73.722 -14.421  1.00  0.00     0.248 C 
HETATM   19  O4  UNL     1     -50.521  73.917 -15.174  1.00  0.00    -0.271 OA
HETATM   20  N7  UNL     1     -49.303  74.614 -13.349  1.00  0.00    -0.302 N 
HETATM   21  C9  UNL     1     -49.574  75.849 -13.305  1.00  0.00     0.203 C 
ATOM     22  H7  UNL     1     -48.860  74.217 -12.520  1.00  0.00     0.171 HD
HETATM   23  N8  UNL     1     -49.257  76.605 -12.139  1.00  0.00    -0.066 NA
HETATM   24  N9  UNL     1     -50.191  76.493 -14.411  1.00  0.00    -0.066 NA
ENDBRANCH  12  18
ENDBRANCH  11  12
ENDBRANCH   1  11
BRANCH  10  25
HETATM   25  N5  UNL     1     -44.609  73.183 -13.949  1.00  0.00    -0.286 N 
ATOM     26  H5  UNL     1     -44.967  72.622 -13.176  1.00  0.00     0.188 HD
BRANCH  25  27
HETATM   27  N6  UNL     1     -43.889  74.242 -13.560  1.00  0.00    -0.343 N 
ATOM     28  H62 UNL     1     -43.186  74.001 -12.862  1.00  0.00     0.176 HD
ATOM     29  H61 UNL     1     -43.912  75.226 -13.827  1.00  0.00     0.176 HD
ENDBRANCH  25  27
ENDBRANCH  10  25
TORSDOF 6
ENDMDL
MODEL 2
REMARK VINA RESULT: -7.032950161      3.065      4.021
REMARK  6 active torsions:
REMARK  status: ('A' for Active; 'I' for Inactive)
REMARK       I    between atoms: C2_2  and  N1_4 
REMARK    1  A    between atoms: N1_4  and  C3_6 
REMARK    2  A    between atoms: C3_6  and  C4_7 
REMARK    3  A    between atoms: C3_6  and  C8_23 
REMARK    4  A    between atoms: C4_7  and  N2_8 
REMARK    5  A    between atoms: C7_17  and  N5_18 
REMARK    6  A    between atoms: N5_18  and  N6_20 
REMARK       I    between atoms: C8_23  and  N7_25 
ROOT
HETATM    1  N2  UNL     1     -48.627  72.359 -14.758  1.00  0.00    -0.265 N 
HETATM    2  N3  UNL     1     -49.165  72.118 -15.924  1.00  0.00    -0.247 N 
ATOM      3  H3  UNL     1     -49.503  72.889 -16.500  1.00  0.00     0.192 HD
HETATM    4  C5  UNL     1     -49.275  70.843 -16.365  1.00  0.00     0.342 A 
HETATM    5  O2  UNL     1     -49.799  70.667 -17.490  1.00  0.00    -0.245 OA
HETATM    6  N4  UNL     1     -48.829  69.845 -15.600  1.00  0.00    -0.271 N 
ATOM      7  H4  UNL     1     -48.916  68.888 -15.941  1.00  0.00     0.174 HD
HETATM    8  C6  UNL     1     -48.264  70.056 -14.381  1.00  0.00     0.296 A 
HETATM    9  O3  UNL     1     -47.876  69.038 -13.741  1.00  0.00    -0.264 OA
HETATM   10  C7  UNL     1     -48.155  71.347 -13.937  1.00  0.00     0.206 A 
ENDROOT
BRANCH   1  11
HETATM   11  C4  UNL     1     -48.472  73.692 -14.297  1.00  0.00     0.186 C 
BRANCH  11  12
HETATM   12  C3  UNL     1     -49.674  74.552 -14.178  1.00  0.00     0.197 C 
BRANCH  12  13
HETATM   13  N1  UNL     1     -49.588  75.187 -12.827  1.00  0.00    -0.346 N 
HETATM   14  C2  UNL     1     -49.920  74.456 -11.675  1.00  0.00     0.214 C 
HETATM   15  C1  UNL     1     -49.836  75.108 -10.351  1.00  0.00     0.117 C 
HETATM   16  O1  UNL     1     -50.283  73.266 -11.780  1.00  0.00    -0.274 OA
ATOM     17  H1  UNL     1     -49.287  76.158 -12.742  1.00  0.00     0.163 HD
ENDBRANCH  12  13
BRANCH  12  18
HETATM   18  C8  UNL     1     -49.822  75.664 -15.121  1.00  0.00     0.248 C 
HETATM   19  O4  UNL     1     -49.738  75.477 -16.350  1.00  0.00    -0.271 OA
HETATM   20  N7  UNL     1     -50.057  76.971 -14.627  1.00  0.00    -0.302 N 
HETATM   21  C9  UNL     1     -49.694  78.063 -15.152  1.00  0.00     0.203 C 
ATOM     22  H7  UNL     1     -50.575  77.039 -13.751  1.00  0.00     0.171 HD
HETATM   23  N8  UNL     1     -50.015  79.298 -14.518  1.00  0.00    -0.066 NA
HETATM   24  N9  UNL     1     -48.966  78.071 -16.373  1.00  0.00    -0.066 NA
ENDBRANCH  12  18
ENDBRANCH  11  12
ENDBRANCH   1  11
BRANCH  10  25
HETATM   25  N5  UNL     1     -47.686  71.633 -12.812  1.00  0.00    -0.286 N 
ATOM     26  H5  UNL     1     -47.492  72.627 -12.687  1.00  0.00     0.188 HD
BRANCH  25  27
HETATM   27  N6  UNL     1     -47.389  70.886 -11.742  1.00  0.00    -0.343 N 
ATOM     28  H62 UNL     1     -47.614  71.354 -10.865  1.00  0.00     0.176 HD
ATOM     29  H61 UNL     1     -46.987  69.954 -11.644  1.00  0.00     0.176 HD
ENDBRANCH  25  27
ENDBRANCH  10  25
TORSDOF 6
ENDMDL
MODEL 3
REMARK VINA RESULT: -7.013736059      2.089      5.631
REMARK  6 active torsions:
REMARK  status: ('A' for Active; 'I' for Inactive)
REMARK       I    between atoms: C2_2  and  N1_4 
REMARK    1  A    between atoms: N1_4  and  C3_6 
REMARK    2  A    between atoms: C3_6  and  C4_7 
REMARK    3  A    between atoms: C3_6  and  C8_23 
REMARK    4  A    between atoms: C4_7  and  N2_8 
REMARK    5  A    between atoms: C7_17  and  N5_18 
REMARK    6  A    between atoms: N5_18  and  N6_20 
REMARK       I    between atoms: C8_23  and  N7_25 
ROOT
HETATM    1  N2  UNL     1     -48.748  71.122 -14.988  1.00  0.00    -0.265 N 
HETATM    2  N3  UNL     1     -48.665  69.885 -14.576  1.00  0.00    -0.247 N 
ATOM      3  H3  UNL     1     -48.377  69.150 -15.223  1.00  0.00     0.192 HD
HETATM    4  C5  UNL     1     -48.961  69.580 -13.291  1.00  0.00     0.342 A 
HETATM    5  O2  UNL     1     -48.866  68.378 -12.949  1.00  0.00    -0.245 OA
HETATM    6  N4  UNL     1     -49.337  70.552 -12.457  1.00  0.00    -0.271 N 
ATOM      7  H4  UNL     1     -49.558  70.311 -11.492  1.00  0.00     0.174 HD
HETATM    8  C6  UNL     1     -49.435  71.851 -12.848  1.00  0.00     0.296 A 
HETATM    9  O3  UNL     1     -49.799  72.689 -11.976  1.00  0.00    -0.264 OA
HETATM   10  C7  UNL     1     -49.135  72.156 -14.150  1.00  0.00     0.206 A 
ENDROOT
BRANCH   1  11
HETATM   11  C4  UNL     1     -48.406  71.464 -16.321  1.00  0.00     0.186 C 
BRANCH  11  12
HETATM   12  C3  UNL     1     -46.974  71.610 -16.678  1.00  0.00     0.197 C 
BRANCH  12  13
HETATM   13  N1  UNL     1     -46.933  71.691 -18.170  1.00  0.00    -0.346 N 
HETATM   14  C2  UNL     1     -45.789  71.277 -18.873  1.00  0.00     0.214 C 
HETATM   15  C1  UNL     1     -45.767  71.375 -20.347  1.00  0.00     0.117 C 
HETATM   16  O1  UNL     1     -44.805  70.832 -18.247  1.00  0.00    -0.274 OA
ATOM     17  H1  UNL     1     -47.739  72.050 -18.681  1.00  0.00     0.163 HD
ENDBRANCH  12  13
BRANCH  12  18
HETATM   18  C8  UNL     1     -46.265  72.802 -16.205  1.00  0.00     0.248 C 
HETATM   19  O4  UNL     1     -46.809  73.923 -16.231  1.00  0.00    -0.271 OA
HETATM   20  N7  UNL     1     -44.941  72.679 -15.720  1.00  0.00    -0.302 N 
HETATM   21  C9  UNL     1     -44.021  73.545 -15.780  1.00  0.00     0.203 C 
ATOM     22  H7  UNL     1     -44.702  71.794 -15.272  1.00  0.00     0.171 HD
HETATM   23  N8  UNL     1     -42.735  73.255 -15.238  1.00  0.00    -0.066 NA
HETATM   24  N9  UNL     1     -44.256  74.809 -16.386  1.00  0.00    -0.066 NA
ENDBRANCH  12  18
ENDBRANCH  11  12
ENDBRANCH   1  11
BRANCH  10  25
HETATM   25  N5  UNL     1     -49.237  73.317 -14.607  1.00  0.00    -0.286 N 
ATOM     26  H5  UNL     1     -49.583  73.352 -15.566  1.00  0.00     0.188 HD
BRANCH  25  27
HETATM   27  N6  UNL     1     -48.982  74.520 -14.080  1.00  0.00    -0.343 N 
ATOM     28  H62 UNL     1     -48.000  74.635 -13.827  1.00  0.00     0.176 HD
ATOM     29  H61 UNL     1     -49.575  75.327 -13.888  1.00  0.00     0.176 HD
ENDBRANCH  25  27
ENDBRANCH  10  25
TORSDOF 6
ENDMDL
MODEL 4
REMARK VINA RESULT: -6.945303163      1.532      1.599
REMARK  6 active torsions:
REMARK  status: ('A' for Active; 'I' for Inactive)
REMARK       I    between atoms: C2_2  and  N1_4 
REMARK    1  A    between atoms: N1_4  and  C3_6 
REMARK    2  A    between atoms: C3_6  and  C4_7 
REMARK    3  A    between atoms: C3_6  and  C8_23 
REMARK    4  A    between atoms: C4_7  and  N2_8 
REMARK    5  A    between atoms: C7_17  and  N5_18 
REMARK    6  A    between atoms: N5_18  and  N6_20 
REMARK       I    between atoms: C8_23  and  N7_25 
ROOT
HETATM    1  N2  UNL     1     -46.016  72.139 -15.843  1.00  0.00    -0.265 N 
HETATM    2  N3  UNL     1     -46.037  71.485 -16.974  1.00  0.00    -0.247 N 
ATOM      3  H3  UNL     1     -46.921  71.139 -17.347  1.00  0.00     0.192 HD
HETATM    4  C5  UNL     1     -44.884  71.268 -17.650  1.00  0.00     0.342 A 
HETATM    5  O2  UNL     1     -44.961  70.635 -18.729  1.00  0.00    -0.245 OA
HETATM    6  N4  UNL     1     -43.736  71.727 -17.149  1.00  0.00    -0.271 N 
ATOM      7  H4  UNL     1     -42.873  71.559 -17.666  1.00  0.00     0.174 HD
HETATM    8  C6  UNL     1     -43.673  72.412 -15.975  1.00  0.00     0.296 A 
HETATM    9  O3  UNL     1     -42.533  72.801 -15.595  1.00  0.00    -0.264 OA
HETATM   10  C7  UNL     1     -44.842  72.629 -15.294  1.00  0.00     0.206 A 
ENDROOT
BRANCH   1  11
HETATM   11  C4  UNL     1     -47.220  72.405 -15.141  1.00  0.00     0.186 C 
BRANCH  11  12
HETATM   12  C3  UNL     1     -48.483  71.806 -15.634  1.00  0.00     0.197 C 
BRANCH  12  13
HETATM   13  N1  UNL     1     -49.135  71.190 -14.438  1.00  0.00    -0.346 N 
HETATM   14  C2  UNL     1     -48.765  69.905 -14.008  1.00  0.00     0.214 C 
HETATM   15  C1  UNL     1     -49.430  69.313 -12.829  1.00  0.00     0.117 C 
HETATM   16  O1  UNL     1     -47.881  69.276 -14.627  1.00  0.00    -0.274 OA
ATOM     17  H1  UNL     1     -49.854  71.707 -13.930  1.00  0.00     0.163 HD
ENDBRANCH  12  13
BRANCH  12  18
HETATM   18  C8  UNL     1     -49.492  72.700 -16.208  1.00  0.00     0.248 C 
HETATM   19  O4  UNL     1     -49.645  72.784 -17.442  1.00  0.00    -0.271 OA
HETATM   20  N7  UNL     1     -50.299  73.485 -15.349  1.00  0.00    -0.302 N 
HETATM   21  C9  UNL     1     -50.793  74.624 -15.592  1.00  0.00     0.203 C 
ATOM     22  H7  UNL     1     -50.505  73.088 -14.432  1.00  0.00     0.171 HD
HETATM   23  N8  UNL     1     -51.587  75.280 -14.608  1.00  0.00    -0.066 NA
HETATM   24  N9  UNL     1     -50.561  75.260 -16.842  1.00  0.00    -0.066 NA
ENDBRANCH  12  18
ENDBRANCH  11  12
ENDBRANCH   1  11
BRANCH  10  25
HETATM   25  N5  UNL     1     -44.874  73.212 -14.187  1.00  0.00    -0.286 N 
ATOM     26  H5  UNL     1     -45.701  72.995 -13.631  1.00  0.00     0.188 HD
BRANCH  25  27
HETATM   27  N6  UNL     1     -44.032  74.066 -13.592  1.00  0.00    -0.343 N 
ATOM     28  H62 UNL     1     -44.246  74.200 -12.604  1.00  0.00     0.176 HD
ATOM     29  H61 UNL     1     -43.234  74.597 -13.937  1.00  0.00     0.176 HD
ENDBRANCH  25  27
ENDBRANCH  10  25
TORSDOF 6
ENDMDL
MODEL 5
REMARK VINA RESULT: -6.932405990      2.245      6.141
REMARK  6 active torsions:
REMARK  status: ('A' for Active; 'I' for Inactive)
REMARK       I    between atoms: C2_2  and  N1_4 
REMARK    1  A    between atoms: N1_4  and  C3_6 
REMARK    2  A    between atoms: C3_6  and  C4_7 
REMARK    3  A    between atoms: C3_6  and  C8_23 
REMARK    4  A    between atoms: C4_7  and  N2_8 
REMARK    5  A    between atoms: C7_17  and  N5_18 
REMARK    6  A    between atoms: N5_18  and  N6_20 
REMARK       I    between atoms: C8_23  and  N7_25 
ROOT
HETATM    1  N2  UNL     1     -49.684  74.589 -12.730  1.00  0.00    -0.265 N 
HETATM    2  N3  UNL     1     -49.653  74.078 -11.528  1.00  0.00    -0.247 N 
ATOM      3  H3  UNL     1     -49.492  73.078 -11.403  1.00  0.00     0.192 HD
HETATM    4  C5  UNL     1     -49.836  74.876 -10.450  1.00  0.00     0.342 A 
HETATM    5  O2  UNL     1     -49.798  74.334  -9.320  1.00  0.00    -0.245 OA
HETATM    6  N4  UNL     1     -50.047  76.181 -10.630  1.00  0.00    -0.271 N 
ATOM      7  H4  UNL     1     -50.184  76.774  -9.811  1.00  0.00     0.174 HD
HETATM    8  C6  UNL     1     -50.087  76.751 -11.865  1.00  0.00     0.296 A 
HETATM    9  O3  UNL     1     -50.293  77.996 -11.919  1.00  0.00    -0.264 OA
HETATM   10  C7  UNL     1     -49.902  75.940 -12.954  1.00  0.00     0.206 A 
ENDROOT
BRANCH   1  11
HETATM   11  C4  UNL     1     -49.458  73.773 -13.867  1.00  0.00     0.186 C 
BRANCH  11  12
HETATM   12  C3  UNL     1     -48.373  72.764 -13.820  1.00  0.00     0.197 C 
BRANCH  12  13
HETATM   13  N1  UNL     1     -49.051  71.433 -13.865  1.00  0.00    -0.346 N 
HETATM   14  C2  UNL     1     -48.781  70.464 -12.885  1.00  0.00     0.214 C 
HETATM   15  C1  UNL     1     -49.456  69.151 -12.954  1.00  0.00     0.117 C 
HETATM   16  O1  UNL     1     -47.973  70.719 -11.968  1.00  0.00    -0.274 OA
ATOM     17  H1  UNL     1     -49.714  71.227 -14.613  1.00  0.00     0.163 HD
ENDBRANCH  12  13
BRANCH  12  18
HETATM   18  C8  UNL     1     -47.404  72.743 -14.920  1.00  0.00     0.248 C 
HETATM   19  O4  UNL     1     -47.774  72.551 -16.095  1.00  0.00    -0.271 OA
HETATM   20  N7  UNL     1     -46.029  72.935 -14.643  1.00  0.00    -0.302 N 
HETATM   21  C9  UNL     1     -45.046  72.450 -15.274  1.00  0.00     0.203 C 
ATOM     22  H7  UNL     1     -45.806  73.531 -13.846  1.00  0.00     0.171 HD
HETATM   23  N8  UNL     1     -43.716  72.747 -14.857  1.00  0.00    -0.066 NA
HETATM   24  N9  UNL     1     -45.255  71.606 -16.399  1.00  0.00    -0.066 NA
ENDBRANCH  12  18
ENDBRANCH  11  12
ENDBRANCH   1  11
BRANCH  10  25
HETATM   25  N5  UNL     1     -49.962  76.370 -14.127  1.00  0.00    -0.286 N 
ATOM     26  H5  UNL     1     -50.167  75.649 -14.820  1.00  0.00     0.188 HD
BRANCH  25  27
HETATM   27  N6  UNL     1     -49.810  77.593 -14.650  1.00  0.00    -0.343 N 
ATOM     28  H62 UNL     1     -49.378  77.571 -15.574  1.00  0.00     0.176 HD
ATOM     29  H61 UNL     1     -50.042  78.523 -14.302  1.00  0.00     0.176 HD
ENDBRANCH  25  27
ENDBRANCH  10  25
TORSDOF 6
ENDMDL
