MODEL 1
REMARK VINA RESULT: -7.278150976      0.000      0.000
REMARK  6 active torsions:
REMARK  status: ('A' for Active; 'I' for Inactive)
REMARK    1  A    between atoms: C3_3  and  N1_4 
REMARK    2  A    between atoms: C3_3  and  C5_11 
REMARK    3  A    between atoms: N1_4  and  N2_6 
REMARK    4  A    between atoms: N7_18  and  C8_19 
REMARK    5  A    between atoms: C8_19  and  C9_20 
REMARK       I    between atoms: C9_20  and  N8_22 
REMARK    6  A    between atoms: N8_22  and  N9_24 
ROOT
HETATM    1  C1  UNL     1     -49.538  69.281 -12.758  1.00  0.00     0.014 C 
HETATM    2  C2  UNL     1     -49.052  70.309 -13.156  1.00  0.00    -0.085 C 
HETATM    3  C3  UNL     1     -48.442  71.522 -13.609  1.00  0.00     0.219 C 
ENDROOT
BRANCH   3   4
HETATM    4  N1  UNL     1     -47.010  71.286 -13.883  1.00  0.00    -0.313 N 
ATOM      5  H1  UNL     1     -46.639  70.345 -14.012  1.00  0.00     0.182 HD
BRANCH   4   6
HETATM    6  N2  UNL     1     -46.190  72.413 -13.956  1.00  0.00    -0.279 N 
HETATM    7  C4  UNL     1     -45.463  72.689 -14.969  1.00  0.00     0.215 C 
HETATM    8  N3  UNL     1     -45.461  71.838 -16.090  1.00  0.00    -0.065 NA
HETATM    9  N4  UNL     1     -44.660  73.845 -14.973  1.00  0.00    -0.065 NA
ATOM     10  H2  UNL     1     -46.170  73.049 -13.159  1.00  0.00     0.189 HD
ENDBRANCH   4   6
ENDBRANCH   3   4
BRANCH   3  11
HETATM   11  C5  UNL     1     -49.103  72.280 -14.640  1.00  0.00     0.087 A 
HETATM   12  C6  UNL     1     -49.196  71.752 -15.921  1.00  0.00     0.135 A 
HETATM   13  N5  UNL     1     -48.605  70.490 -16.168  1.00  0.00    -0.082 NA
HETATM   14  N6  UNL     1     -49.816  72.423 -16.907  1.00  0.00    -0.296 N 
HETATM   15  C7  UNL     1     -50.369  73.633 -16.679  1.00  0.00     0.331 A 
ATOM     16  H6  UNL     1     -49.870  72.012 -17.839  1.00  0.00     0.171 HD
HETATM   17  O1  UNL     1     -50.940  74.225 -17.634  1.00  0.00    -0.246 OA
HETATM   18  N7  UNL     1     -50.301  74.178 -15.453  1.00  0.00    -0.257 N 
HETATM   19  C10 UNL     1     -49.669  73.498 -14.446  1.00  0.00     0.264 A 
HETATM   20  O3  UNL     1     -49.643  74.061 -13.340  1.00  0.00    -0.267 OA
BRANCH  18  21
HETATM   21  C8  UNL     1     -50.896  75.467 -15.238  1.00  0.00     0.241 C 
BRANCH  21  22
HETATM   22  C9  UNL     1     -52.256  75.391 -14.676  1.00  0.00     0.254 C 
HETATM   23  O2  UNL     1     -52.481  75.841 -13.537  1.00  0.00    -0.270 OA
HETATM   24  N8  UNL     1     -53.293  74.808 -15.434  1.00  0.00    -0.275 N 
ATOM     25  H8  UNL     1     -53.082  74.447 -16.364  1.00  0.00     0.189 HD
BRANCH  24  26
HETATM   26  N9  UNL     1     -54.606  74.709 -14.950  1.00  0.00    -0.343 N 
ATOM     27  H92 UNL     1     -55.340  75.206 -15.455  1.00  0.00     0.176 HD
ATOM     28  H91 UNL     1     -54.839  74.163 -14.120  1.00  0.00     0.176 HD
ENDBRANCH  24  26
ENDBRANCH  21  22
ENDBRANCH  18  21
ENDBRANCH   3  11
TORSDOF 6
ENDMDL
MODEL 2
REMARK VINA RESULT: -7.140101937      3.017      5.602
REMARK  6 active torsions:
REMARK  status: ('A' for Active; 'I' for Inactive)
REMARK    1  A    between atoms: C3_3  and  N1_4 
REMARK    2  A    between atoms: C3_3  and  C5_11 
REMARK    3  A    between atoms: N1_4  and  N2_6 
REMARK    4  A    between atoms: N7_18  and  C8_19 
REMARK    5  A    between atoms: C8_19  and  C9_20 
REMARK       I    between atoms: C9_20  and  N8_22 
REMARK    6  A    between atoms: N8_22  and  N9_24 
ROOT
HETATM    1  C1  UNL     1     -49.498  69.482 -12.725  1.00  0.00     0.014 C 
HETATM    2  C2  UNL     1     -49.440  70.648 -13.025  1.00  0.00    -0.085 C 
HETATM    3  C3  UNL     1     -49.387  72.041 -13.349  1.00  0.00     0.219 C 
ENDROOT
BRANCH   3   4
HETATM    4  N1  UNL     1     -49.109  72.824 -12.128  1.00  0.00    -0.313 N 
ATOM      5  H1  UNL     1     -48.675  72.399 -11.308  1.00  0.00     0.182 HD
BRANCH   4   6
HETATM    6  N2  UNL     1     -49.469  74.173 -12.150  1.00  0.00    -0.279 N 
HETATM    7  C4  UNL     1     -49.808  74.827 -11.108  1.00  0.00     0.215 C 
HETATM    8  N3  UNL     1     -49.833  74.193  -9.851  1.00  0.00    -0.065 NA
HETATM    9  N4  UNL     1     -50.158  76.187 -11.206  1.00  0.00    -0.065 NA
ATOM     10  H2  UNL     1     -49.461  74.660 -13.046  1.00  0.00     0.189 HD
ENDBRANCH   4   6
ENDBRANCH   3   4
BRANCH   3  11
HETATM   11  C5  UNL     1     -48.602  72.453 -14.483  1.00  0.00     0.087 A 
HETATM   12  C6  UNL     1     -49.143  73.347 -15.398  1.00  0.00     0.135 A 
HETATM   13  N5  UNL     1     -50.468  73.798 -15.189  1.00  0.00    -0.082 NA
HETATM   14  N6  UNL     1     -48.437  73.765 -16.463  1.00  0.00    -0.296 N 
HETATM   15  C7  UNL     1     -47.179  73.328 -16.674  1.00  0.00     0.331 A 
ATOM     16  H6  UNL     1     -48.858  74.423 -17.119  1.00  0.00     0.171 HD
HETATM   17  O1  UNL     1     -46.555  73.747 -17.686  1.00  0.00    -0.246 OA
HETATM   18  N7  UNL     1     -46.619  72.462 -15.813  1.00  0.00    -0.257 N 
HETATM   19  C10 UNL     1     -47.335  72.033 -14.726  1.00  0.00     0.264 A 
HETATM   20  O3  UNL     1     -46.756  71.234 -13.973  1.00  0.00    -0.267 OA
BRANCH  18  21
HETATM   21  C8  UNL     1     -45.279  72.011 -16.061  1.00  0.00     0.241 C 
BRANCH  21  22
HETATM   22  C9  UNL     1     -44.268  72.728 -15.263  1.00  0.00     0.254 C 
HETATM   23  O2  UNL     1     -43.070  72.683 -15.598  1.00  0.00    -0.270 OA
HETATM   24  N8  UNL     1     -44.668  73.459 -14.125  1.00  0.00    -0.275 N 
ATOM     25  H8  UNL     1     -45.655  73.478 -13.872  1.00  0.00     0.189 HD
BRANCH  24  26
HETATM   26  N9  UNL     1     -43.750  74.160 -13.328  1.00  0.00    -0.343 N 
ATOM     27  H92 UNL     1     -43.329  75.005 -13.716  1.00  0.00     0.176 HD
ATOM     28  H91 UNL     1     -43.499  73.851 -12.389  1.00  0.00     0.176 HD
ENDBRANCH  24  26
ENDBRANCH  21  22
ENDBRANCH  18  21
ENDBRANCH   3  11
TORSDOF 6
ENDMDL
MODEL 3
REMARK VINA RESULT: -7.019929860      2.173      3.601
REMARK  6 active torsions:
REMARK  status: ('A' for Active; 'I' for Inactive)
REMARK    1  A    between atoms: C3_3  and  N1_4 
REMARK    2  A    between atoms: C3_3  and  C5_11 
REMARK    3  A    between atoms: N1_4  and  N2_6 
REMARK    4  A    between atoms: N7_18  and  C8_19 
REMARK    5  A    between atoms: C8_19  and  C9_20 
REMARK       I    between atoms: C9_20  and  N8_22 
REMARK    6  A    between atoms: N8_22  and  N9_24 
ROOT
HETATM    1  C1  UNL     1     -45.459  71.667 -17.277  1.00  0.00     0.014 C 
HETATM    2  C2  UNL     1     -46.540  71.514 -16.766  1.00  0.00    -0.085 C 
HETATM    3  C3  UNL     1     -47.810  71.302 -16.140  1.00  0.00     0.219 C 
ENDROOT
BRANCH   3   4
HETATM    4  N1  UNL     1     -47.608  70.828 -14.756  1.00  0.00    -0.313 N 
ATOM      5  H1  UNL     1     -46.808  71.129 -14.199  1.00  0.00     0.182 HD
BRANCH   4   6
HETATM    6  N2  UNL     1     -48.565  69.948 -14.247  1.00  0.00    -0.279 N 
HETATM    7  C4  UNL     1     -48.599  69.575 -13.027  1.00  0.00     0.215 C 
HETATM    8  N3  UNL     1     -47.640  70.053 -12.115  1.00  0.00    -0.065 NA
HETATM    9  N4  UNL     1     -49.596  68.684 -12.584  1.00  0.00    -0.065 NA
ATOM     10  H2  UNL     1     -49.274  69.584 -14.884  1.00  0.00     0.189 HD
ENDBRANCH   4   6
ENDBRANCH   3   4
BRANCH   3  11
HETATM   11  C5  UNL     1     -48.811  72.331 -16.251  1.00  0.00     0.087 A 
HETATM   12  C6  UNL     1     -49.866  72.163 -17.138  1.00  0.00     0.135 A 
HETATM   13  N5  UNL     1     -49.898  70.986 -17.923  1.00  0.00    -0.082 NA
HETATM   14  N6  UNL     1     -50.827  73.095 -17.261  1.00  0.00    -0.296 N 
HETATM   15  C7  UNL     1     -50.793  74.225 -16.525  1.00  0.00     0.331 A 
ATOM     16  H6  UNL     1     -51.591  72.946 -17.920  1.00  0.00     0.171 HD
HETATM   17  O1  UNL     1     -51.715  75.071 -16.674  1.00  0.00    -0.246 OA
HETATM   18  N7  UNL     1     -49.789  74.426 -15.656  1.00  0.00    -0.257 N 
HETATM   19  C10 UNL     1     -48.807  73.479 -15.527  1.00  0.00     0.264 A 
HETATM   20  O3  UNL     1     -47.911  73.730 -14.707  1.00  0.00    -0.267 OA
BRANCH  18  21
HETATM   21  C8  UNL     1     -49.776  75.637 -14.885  1.00  0.00     0.241 C 
BRANCH  21  22
HETATM   22  C9  UNL     1     -50.162  75.433 -13.477  1.00  0.00     0.254 C 
HETATM   23  O2  UNL     1     -51.336  75.129 -13.196  1.00  0.00    -0.270 OA
HETATM   24  N8  UNL     1     -49.198  75.585 -12.460  1.00  0.00    -0.275 N 
ATOM     25  H8  UNL     1     -48.243  75.835 -12.717  1.00  0.00     0.189 HD
BRANCH  24  26
HETATM   26  N9  UNL     1     -49.509  75.403 -11.104  1.00  0.00    -0.343 N 
ATOM     27  H92 UNL     1     -49.085  74.612 -10.619  1.00  0.00     0.176 HD
ATOM     28  H91 UNL     1     -50.136  76.032 -10.602  1.00  0.00     0.176 HD
ENDBRANCH  24  26
ENDBRANCH  21  22
ENDBRANCH  18  21
ENDBRANCH   3  11
TORSDOF 6
ENDMDL
MODEL 4
REMARK VINA RESULT: -6.909167004      2.027      3.945
REMARK  6 active torsions:
REMARK  status: ('A' for Active; 'I' for Inactive)
REMARK    1  A    between atoms: C3_3  and  N1_4 
REMARK    2  A    between atoms: C3_3  and  C5_11 
REMARK    3  A    between atoms: N1_4  and  N2_6 
REMARK    4  A    between atoms: N7_18  and  C8_19 
REMARK    5  A    between atoms: C8_19  and  C9_20 
REMARK       I    between atoms: C9_20  and  N8_22 
REMARK    6  A    between atoms: N8_22  and  N9_24 
ROOT
HETATM    1  C1  UNL     1     -49.526  69.031 -12.749  1.00  0.00     0.014 C 
HETATM    2  C2  UNL     1     -49.061  70.070 -13.144  1.00  0.00    -0.085 C 
HETATM    3  C3  UNL     1     -48.476  71.298 -13.592  1.00  0.00     0.219 C 
ENDROOT
BRANCH   3   4
HETATM    4  N1  UNL     1     -47.031  71.103 -13.824  1.00  0.00    -0.313 N 
ATOM      5  H1  UNL     1     -46.620  70.171 -13.884  1.00  0.00     0.182 HD
BRANCH   4   6
HETATM    6  N2  UNL     1     -46.254  72.256 -13.955  1.00  0.00    -0.279 N 
HETATM    7  C4  UNL     1     -45.600  72.546 -15.012  1.00  0.00     0.215 C 
HETATM    8  N3  UNL     1     -45.637  71.685 -16.125  1.00  0.00    -0.065 NA
HETATM    9  N4  UNL     1     -44.838  73.728 -15.073  1.00  0.00    -0.065 NA
ATOM     10  H2  UNL     1     -46.207  72.899 -13.165  1.00  0.00     0.189 HD
ENDBRANCH   4   6
ENDBRANCH   3   4
BRANCH   3  11
HETATM   11  C5  UNL     1     -49.131  72.024 -14.648  1.00  0.00     0.087 A 
HETATM   12  C6  UNL     1     -49.723  73.249 -14.368  1.00  0.00     0.135 A 
HETATM   13  N5  UNL     1     -49.680  73.723 -13.035  1.00  0.00    -0.082 NA
HETATM   14  N6  UNL     1     -50.333  73.964 -15.329  1.00  0.00    -0.296 N 
HETATM   15  C7  UNL     1     -50.389  73.510 -16.599  1.00  0.00     0.331 A 
ATOM     16  H6  UNL     1     -50.759  74.861 -15.096  1.00  0.00     0.171 HD
HETATM   17  O1  UNL     1     -50.971  74.214 -17.466  1.00  0.00    -0.246 OA
HETATM   18  N7  UNL     1     -49.829  72.329 -16.911  1.00  0.00    -0.257 N 
HETATM   19  C10 UNL     1     -49.206  71.598 -15.934  1.00  0.00     0.264 A 
HETATM   20  O3  UNL     1     -48.712  70.518 -16.294  1.00  0.00    -0.267 OA
BRANCH  18  21
HETATM   21  C8  UNL     1     -49.903  71.869 -18.269  1.00  0.00     0.241 C 
BRANCH  21  22
HETATM   22  C9  UNL     1     -48.742  72.273 -19.083  1.00  0.00     0.254 C 
HETATM   23  O2  UNL     1     -48.921  72.834 -20.180  1.00  0.00    -0.270 OA
HETATM   24  N8  UNL     1     -47.437  72.020 -18.611  1.00  0.00    -0.275 N 
ATOM     25  H8  UNL     1     -47.319  71.558 -17.709  1.00  0.00     0.189 HD
BRANCH  24  26
HETATM   26  N9  UNL     1     -46.296  72.382 -19.342  1.00  0.00    -0.343 N 
ATOM     27  H92 UNL     1     -46.218  73.350 -19.656  1.00  0.00     0.176 HD
ATOM     28  H91 UNL     1     -45.559  71.713 -19.563  1.00  0.00     0.176 HD
ENDBRANCH  24  26
ENDBRANCH  21  22
ENDBRANCH  18  21
ENDBRANCH   3  11
TORSDOF 6
ENDMDL
MODEL 5
REMARK VINA RESULT: -6.739427092      2.013      2.388
REMARK  6 active torsions:
REMARK  status: ('A' for Active; 'I' for Inactive)
REMARK    1  A    between atoms: C3_3  and  N1_4 
REMARK    2  A    between atoms: C3_3  and  C5_11 
REMARK    3  A    between atoms: N1_4  and  N2_6 
REMARK    4  A    between atoms: N7_18  and  C8_19 
REMARK    5  A    between atoms: C8_19  and  C9_20 
REMARK       I    between atoms: C9_20  and  N8_22 
REMARK    6  A    between atoms: N8_22  and  N9_24 
ROOT
HETATM    1  C1  UNL     1     -49.536  69.223 -13.084  1.00  0.00     0.014 C 
HETATM    2  C2  UNL     1     -49.012  70.304 -13.186  1.00  0.00    -0.085 C 
HETATM    3  C3  UNL     1     -48.358  71.572 -13.299  1.00  0.00     0.219 C 
ENDROOT
BRANCH   3   4
HETATM    4  N1  UNL     1     -47.021  71.388 -13.900  1.00  0.00    -0.313 N 
ATOM      5  H1  UNL     1     -46.724  70.488 -14.278  1.00  0.00     0.182 HD
BRANCH   4   6
HETATM    6  N2  UNL     1     -46.184  72.505 -13.927  1.00  0.00    -0.279 N 
HETATM    7  C4  UNL     1     -45.393  72.769 -14.893  1.00  0.00     0.215 C 
HETATM    8  N3  UNL     1     -45.331  71.913 -16.009  1.00  0.00    -0.065 NA
HETATM    9  N4  UNL     1     -44.578  73.915 -14.851  1.00  0.00    -0.065 NA
ATOM     10  H2  UNL     1     -46.207  73.145 -13.132  1.00  0.00     0.189 HD
ENDBRANCH   4   6
ENDBRANCH   3   4
BRANCH   3  11
HETATM   11  C5  UNL     1     -49.091  72.676 -13.862  1.00  0.00     0.087 A 
HETATM   12  C6  UNL     1     -49.279  72.739 -15.236  1.00  0.00     0.135 A 
HETATM   13  N5  UNL     1     -48.712  71.719 -16.036  1.00  0.00    -0.082 NA
HETATM   14  N6  UNL     1     -49.968  73.747 -15.798  1.00  0.00    -0.296 N 
HETATM   15  C7  UNL     1     -50.499  74.730 -15.041  1.00  0.00     0.331 A 
ATOM     16  H6  UNL     1     -50.092  73.769 -16.811  1.00  0.00     0.171 HD
HETATM   17  O1  UNL     1     -51.137  75.654 -15.612  1.00  0.00    -0.246 OA
HETATM   18  N7  UNL     1     -50.339  74.705 -13.707  1.00  0.00    -0.257 N 
HETATM   19  C10 UNL     1     -49.637  73.680 -13.130  1.00  0.00     0.264 A 
HETATM   20  O3  UNL     1     -49.528  73.721 -11.895  1.00  0.00    -0.267 OA
BRANCH  18  21
HETATM   21  C8  UNL     1     -50.913  75.763 -12.924  1.00  0.00     0.241 C 
BRANCH  21  22
HETATM   22  C9  UNL     1     -50.058  76.961 -12.853  1.00  0.00     0.254 C 
HETATM   23  O2  UNL     1     -49.126  77.008 -12.029  1.00  0.00    -0.270 OA
HETATM   24  N8  UNL     1     -50.304  78.046 -13.720  1.00  0.00    -0.275 N 
ATOM     25  H8  UNL     1     -51.074  77.982 -14.385  1.00  0.00     0.189 HD
BRANCH  24  26
HETATM   26  N9  UNL     1     -49.523  79.212 -13.696  1.00  0.00    -0.343 N 
ATOM     27  H92 UNL     1     -48.561  79.136 -13.362  1.00  0.00     0.176 HD
ATOM     28  H91 UNL     1     -49.887  80.115 -14.000  1.00  0.00     0.176 HD
ENDBRANCH  24  26
ENDBRANCH  21  22
ENDBRANCH  18  21
ENDBRANCH   3  11
TORSDOF 6
ENDMDL
