MODEL 1
REMARK VINA RESULT: -7.025876822      0.000      0.000
REMARK  9 active torsions:
REMARK  status: ('A' for Active; 'I' for Inactive)
REMARK    1  A    between atoms: C2_2  and  N1_3 
REMARK    2  A    between atoms: C2_2  and  C6_16 
REMARK    3  A    between atoms: N1_3  and  C3_5 
REMARK    4  A    between atoms: C6_16  and  O4_18 
REMARK    5  A    between atoms: O4_18  and  C7_19 
REMARK    6  A    between atoms: C7_19  and  N5_20 
REMARK    7  A    between atoms: C7_19  and  C8_24 
REMARK    8  A    between atoms: C8_24  and  N6_26 
REMARK    9  A    between atoms: C8_24  and  C10_30 
ROOT
HETATM    1  C6  UNL     1     -47.598  70.356 -14.438  1.00  0.00     0.283 C 
HETATM    2  O3  UNL     1     -47.247  69.163 -14.558  1.00  0.00    -0.263 OA
ENDROOT
BRANCH   1   3
HETATM    3  C2  UNL     1     -48.526  70.784 -13.373  1.00  0.00     0.179 C 
HETATM    4  C1  UNL     1     -49.422  69.602 -13.053  1.00  0.00     0.043 C 
BRANCH   3   5
HETATM    5  N1  UNL     1     -49.268  71.924 -13.819  1.00  0.00    -0.357 N 
ATOM      6  H1  UNL     1     -49.736  71.861 -14.723  1.00  0.00     0.162 HD
BRANCH   5   7
HETATM    7  C3  UNL     1     -49.388  73.025 -13.155  1.00  0.00     0.186 A 
HETATM    8  N2  UNL     1     -49.755  73.060 -11.865  1.00  0.00    -0.277 N 
HETATM    9  N3  UNL     1     -49.866  74.200 -11.227  1.00  0.00    -0.250 N 
ATOM     10  H2  UNL     1     -49.952  72.188 -11.374  1.00  0.00     0.189 HD
HETATM   11  C4  UNL     1     -49.604  75.340 -11.891  1.00  0.00     0.341 A 
ATOM     12  H3  UNL     1     -50.145  74.222 -10.246  1.00  0.00     0.192 HD
HETATM   13  O1  UNL     1     -49.712  76.439 -11.272  1.00  0.00    -0.245 OA
HETATM   14  N4  UNL     1     -49.235  75.373 -13.174  1.00  0.00    -0.271 N 
HETATM   15  C5  UNL     1     -49.125  74.201 -13.817  1.00  0.00     0.294 A 
ATOM     16  H4  UNL     1     -49.043  76.257 -13.647  1.00  0.00     0.174 HD
HETATM   17  O2  UNL     1     -48.779  74.156 -15.038  1.00  0.00    -0.264 OA
ENDBRANCH   5   7
ENDBRANCH   3   5
ENDBRANCH   1   3
BRANCH   1  18
HETATM   18  O4  UNL     1     -47.101  71.288 -15.327  1.00  0.00    -0.283 OA
BRANCH  18  19
HETATM   19  C7  UNL     1     -45.782  71.837 -15.191  1.00  0.00     0.372 C 
BRANCH  19  20
HETATM   20  N5  UNL     1     -45.871  72.898 -14.238  1.00  0.00    -0.049 N 
ATOM     21  H53 UNL     1     -46.010  73.812 -14.667  1.00  0.00     0.277 HD
ATOM     22  H52 UNL     1     -46.734  72.878 -13.694  1.00  0.00     0.277 HD
ATOM     23  H51 UNL     1     -45.032  72.848 -13.660  1.00  0.00     0.277 HD
ENDBRANCH  19  20
BRANCH  19  24
HETATM   24  C8  UNL     1     -45.383  72.310 -16.569  1.00  0.00     0.248 C 
HETATM   25  C9  UNL     1     -45.369  71.141 -17.531  1.00  0.00     0.061 C 
BRANCH  24  26
HETATM   26  N6  UNL     1     -46.396  73.240 -17.027  1.00  0.00    -0.058 N 
ATOM     27  H63 UNL     1     -46.439  74.089 -16.463  1.00  0.00     0.276 HD
ATOM     28  H62 UNL     1     -46.155  73.681 -17.915  1.00  0.00     0.276 HD
ATOM     29  H61 UNL     1     -47.285  72.742 -17.061  1.00  0.00     0.276 HD
ENDBRANCH  24  26
BRANCH  24  30
HETATM   30  C10 UNL     1     -44.062  72.957 -16.590  1.00  0.00     0.271 C 
HETATM   31  N7  UNL     1     -43.064  72.531 -15.706  1.00  0.00    -0.060 NA
HETATM   32  O5  UNL     1     -43.822  73.885 -17.389  1.00  0.00    -0.274 OA
ENDBRANCH  24  30
ENDBRANCH  19  24
ENDBRANCH  18  19
ENDBRANCH   1  18
TORSDOF 9
ENDMDL
MODEL 2
REMARK VINA RESULT: -6.878626204      1.172      1.174
REMARK  9 active torsions:
REMARK  status: ('A' for Active; 'I' for Inactive)
REMARK    1  A    between atoms: C2_2  and  N1_3 
REMARK    2  A    between atoms: C2_2  and  C6_16 
REMARK    3  A    between atoms: N1_3  and  C3_5 
REMARK    4  A    between atoms: C6_16  and  O4_18 
REMARK    5  A    between atoms: O4_18  and  C7_19 
REMARK    6  A    between atoms: C7_19  and  N5_20 
REMARK    7  A    between atoms: C7_19  and  C8_24 
REMARK    8  A    between atoms: C8_24  and  N6_26 
REMARK    9  A    between atoms: C8_24  and  C10_30 
ROOT
HETATM    1  C6  UNL     1     -47.545  70.489 -13.477  1.00  0.00     0.283 C 
HETATM    2  O3  UNL     1     -46.637  69.807 -12.956  1.00  0.00    -0.263 OA
ENDROOT
BRANCH   1   3
HETATM    3  C2  UNL     1     -48.803  70.774 -12.762  1.00  0.00     0.179 C 
HETATM    4  C1  UNL     1     -49.639  69.507 -12.795  1.00  0.00     0.043 C 
BRANCH   3   5
HETATM    5  N1  UNL     1     -49.467  71.878 -13.386  1.00  0.00    -0.357 N 
ATOM      6  H1  UNL     1     -49.938  71.708 -14.274  1.00  0.00     0.162 HD
BRANCH   5   7
HETATM    7  C3  UNL     1     -49.509  73.075 -12.903  1.00  0.00     0.186 A 
HETATM    8  N2  UNL     1     -49.716  73.327 -11.602  1.00  0.00    -0.277 N 
HETATM    9  N3  UNL     1     -49.752  74.558 -11.151  1.00  0.00    -0.250 N 
ATOM     10  H2  UNL     1     -49.847  72.550 -10.954  1.00  0.00     0.189 HD
HETATM   11  C4  UNL     1     -49.578  75.570 -12.021  1.00  0.00     0.341 A 
ATOM     12  H3  UNL     1     -49.910  74.745 -10.161  1.00  0.00     0.192 HD
HETATM   13  O1  UNL     1     -49.614  76.757 -11.583  1.00  0.00    -0.245 OA
HETATM   14  N4  UNL     1     -49.368  75.386 -13.327  1.00  0.00    -0.271 N 
HETATM   15  C5  UNL     1     -49.333  74.123 -13.777  1.00  0.00     0.294 A 
ATOM     16  H4  UNL     1     -49.240  76.176 -13.959  1.00  0.00     0.174 HD
HETATM   17  O2  UNL     1     -49.139  73.872 -15.007  1.00  0.00    -0.264 OA
ENDBRANCH   5   7
ENDBRANCH   3   5
ENDBRANCH   1   3
BRANCH   1  18
HETATM   18  O4  UNL     1     -47.356  70.983 -14.752  1.00  0.00    -0.283 OA
BRANCH  18  19
HETATM   19  C7  UNL     1     -46.174  71.711 -15.116  1.00  0.00     0.372 C 
BRANCH  19  20
HETATM   20  N5  UNL     1     -46.091  72.834 -14.237  1.00  0.00    -0.049 N 
ATOM     21  H53 UNL     1     -45.360  73.495 -14.498  1.00  0.00     0.277 HD
ATOM     22  H52 UNL     1     -46.881  73.473 -14.327  1.00  0.00     0.277 HD
ATOM     23  H51 UNL     1     -45.980  72.464 -13.293  1.00  0.00     0.277 HD
ENDBRANCH  19  20
BRANCH  19  24
HETATM   24  C8  UNL     1     -46.355  72.103 -16.563  1.00  0.00     0.248 C 
HETATM   25  C9  UNL     1     -45.518  71.205 -17.450  1.00  0.00     0.061 C 
BRANCH  24  26
HETATM   26  N6  UNL     1     -47.746  71.885 -16.910  1.00  0.00    -0.058 N 
ATOM     27  H63 UNL     1     -48.344  71.766 -16.092  1.00  0.00     0.276 HD
ATOM     28  H62 UNL     1     -48.195  72.719 -17.286  1.00  0.00     0.276 HD
ATOM     29  H61 UNL     1     -47.786  71.090 -17.549  1.00  0.00     0.276 HD
ENDBRANCH  24  26
BRANCH  24  30
HETATM   30  C10 UNL     1     -45.988  73.504 -16.826  1.00  0.00     0.271 C 
HETATM   31  N7  UNL     1     -44.660  73.917 -16.665  1.00  0.00    -0.060 NA
HETATM   32  O5  UNL     1     -46.849  74.329 -17.190  1.00  0.00    -0.274 OA
ENDBRANCH  24  30
ENDBRANCH  19  24
ENDBRANCH  18  19
ENDBRANCH   1  18
TORSDOF 9
ENDMDL
MODEL 3
REMARK VINA RESULT: -6.818173909      2.432      4.183
REMARK  9 active torsions:
REMARK  status: ('A' for Active; 'I' for Inactive)
REMARK    1  A    between atoms: C2_2  and  N1_3 
REMARK    2  A    between atoms: C2_2  and  C6_16 
REMARK    3  A    between atoms: N1_3  and  C3_5 
REMARK    4  A    between atoms: C6_16  and  O4_18 
REMARK    5  A    between atoms: O4_18  and  C7_19 
REMARK    6  A    between atoms: C7_19  and  N5_20 
REMARK    7  A    between atoms: C7_19  and  C8_24 
REMARK    8  A    between atoms: C8_24  and  N6_26 
REMARK    9  A    between atoms: C8_24  and  C10_30 
ROOT
HETATM    1  C6  UNL     1     -48.534  73.104 -15.746  1.00  0.00     0.283 C 
HETATM    2  O3  UNL     1     -47.633  73.722 -16.352  1.00  0.00    -0.263 OA
ENDROOT
BRANCH   1   3
HETATM    3  C2  UNL     1     -49.908  73.633 -15.661  1.00  0.00     0.179 C 
HETATM    4  C1  UNL     1     -50.415  73.805 -17.081  1.00  0.00     0.043 C 
BRANCH   3   5
HETATM    5  N1  UNL     1     -49.900  74.866 -14.934  1.00  0.00    -0.357 N 
ATOM      6  H1  UNL     1     -49.905  75.733 -15.471  1.00  0.00     0.162 HD
BRANCH   5   7
HETATM    7  C3  UNL     1     -49.886  74.956 -13.646  1.00  0.00     0.186 A 
HETATM    8  N2  UNL     1     -50.206  73.931 -12.842  1.00  0.00    -0.277 N 
HETATM    9  N3  UNL     1     -50.180  74.064 -11.537  1.00  0.00    -0.250 N 
ATOM     10  H2  UNL     1     -50.473  73.035 -13.250  1.00  0.00     0.189 HD
HETATM   11  C4  UNL     1     -49.825  75.253 -11.016  1.00  0.00     0.341 A 
ATOM     12  H3  UNL     1     -50.423  73.282 -10.930  1.00  0.00     0.192 HD
HETATM   13  O1  UNL     1     -49.801  75.378  -9.757  1.00  0.00    -0.245 OA
HETATM   14  N4  UNL     1     -49.496  76.311 -11.761  1.00  0.00    -0.271 N 
HETATM   15  C5  UNL     1     -49.527  76.164 -13.094  1.00  0.00     0.294 A 
ATOM     16  H4  UNL     1     -49.232  77.199 -11.333  1.00  0.00     0.174 HD
HETATM   17  O2  UNL     1     -49.227  77.128 -13.865  1.00  0.00    -0.264 OA
ENDBRANCH   5   7
ENDBRANCH   3   5
ENDBRANCH   1   3
BRANCH   1  18
HETATM   18  O4  UNL     1     -48.227  71.898 -15.147  1.00  0.00    -0.283 OA
BRANCH  18  19
HETATM   19  C7  UNL     1     -47.648  71.829 -13.836  1.00  0.00     0.372 C 
BRANCH  19  20
HETATM   20  N5  UNL     1     -46.264  72.152 -13.975  1.00  0.00    -0.049 N 
ATOM     21  H53 UNL     1     -45.744  72.078 -13.101  1.00  0.00     0.277 HD
ATOM     22  H52 UNL     1     -45.739  71.449 -14.496  1.00  0.00     0.277 HD
ATOM     23  H51 UNL     1     -46.217  73.080 -14.394  1.00  0.00     0.277 HD
ENDBRANCH  19  20
BRANCH  19  24
HETATM   24  C8  UNL     1     -47.883  70.418 -13.352  1.00  0.00     0.248 C 
HETATM   25  C9  UNL     1     -47.611  69.436 -14.472  1.00  0.00     0.061 C 
BRANCH  24  26
HETATM   26  N6  UNL     1     -46.929  70.148 -12.293  1.00  0.00    -0.058 N 
ATOM     27  H63 UNL     1     -46.617  70.995 -11.816  1.00  0.00     0.276 HD
ATOM     28  H62 UNL     1     -47.351  69.687 -11.488  1.00  0.00     0.276 HD
ATOM     29  H61 UNL     1     -46.159  69.615 -12.697  1.00  0.00     0.276 HD
ENDBRANCH  24  26
BRANCH  24  30
HETATM   30  C10 UNL     1     -49.252  70.204 -12.856  1.00  0.00     0.271 C 
HETATM   31  N7  UNL     1     -49.791  68.913 -12.837  1.00  0.00    -0.060 NA
HETATM   32  O5  UNL     1     -49.940  71.164 -12.454  1.00  0.00    -0.274 OA
ENDBRANCH  24  30
ENDBRANCH  19  24
ENDBRANCH  18  19
ENDBRANCH   1  18
TORSDOF 9
ENDMDL
MODEL 4
REMARK VINA RESULT: -6.747665060      2.714      4.180
REMARK  9 active torsions:
REMARK  status: ('A' for Active; 'I' for Inactive)
REMARK    1  A    between atoms: C2_2  and  N1_3 
REMARK    2  A    between atoms: C2_2  and  C6_16 
REMARK    3  A    between atoms: N1_3  and  C3_5 
REMARK    4  A    between atoms: C6_16  and  O4_18 
REMARK    5  A    between atoms: O4_18  and  C7_19 
REMARK    6  A    between atoms: C7_19  and  N5_20 
REMARK    7  A    between atoms: C7_19  and  C8_24 
REMARK    8  A    between atoms: C8_24  and  N6_26 
REMARK    9  A    between atoms: C8_24  and  C10_30 
ROOT
HETATM    1  C6  UNL     1     -49.099  72.765 -16.104  1.00  0.00     0.283 C 
HETATM    2  O3  UNL     1     -48.967  72.458 -17.308  1.00  0.00    -0.263 OA
ENDROOT
BRANCH   1   3
HETATM    3  C2  UNL     1     -50.167  73.676 -15.653  1.00  0.00     0.179 C 
HETATM    4  C1  UNL     1     -50.907  74.153 -16.889  1.00  0.00     0.043 C 
BRANCH   3   5
HETATM    5  N1  UNL     1     -49.589  74.758 -14.915  1.00  0.00    -0.357 N 
ATOM      6  H1  UNL     1     -49.105  75.486 -15.441  1.00  0.00     0.162 HD
BRANCH   5   7
HETATM    7  C3  UNL     1     -49.637  74.877 -13.630  1.00  0.00     0.186 A 
HETATM    8  N2  UNL     1     -49.789  73.826 -12.809  1.00  0.00    -0.277 N 
HETATM    9  N3  UNL     1     -49.834  73.989 -11.508  1.00  0.00    -0.250 N 
ATOM     10  H2  UNL     1     -49.871  72.889 -13.201  1.00  0.00     0.189 HD
HETATM   11  C4  UNL     1     -49.724  75.233 -11.008  1.00  0.00     0.341 A 
ATOM     12  H3  UNL     1     -49.949  73.188 -10.887  1.00  0.00     0.192 HD
HETATM   13  O1  UNL     1     -49.768  75.387  -9.753  1.00  0.00    -0.245 OA
HETATM   14  N4  UNL     1     -49.571  76.319 -11.771  1.00  0.00    -0.271 N 
HETATM   15  C5  UNL     1     -49.527  76.141 -13.100  1.00  0.00     0.294 A 
ATOM     16  H4  UNL     1     -49.491  77.249 -11.359  1.00  0.00     0.174 HD
HETATM   17  O2  UNL     1     -49.384  77.128 -13.887  1.00  0.00    -0.264 OA
ENDBRANCH   5   7
ENDBRANCH   3   5
ENDBRANCH   1   3
BRANCH   1  18
HETATM   18  O4  UNL     1     -48.220  72.232 -15.183  1.00  0.00    -0.283 OA
BRANCH  18  19
HETATM   19  C7  UNL     1     -47.977  70.820 -15.094  1.00  0.00     0.372 C 
BRANCH  19  20
HETATM   20  N5  UNL     1     -49.121  70.167 -15.647  1.00  0.00    -0.049 N 
ATOM     21  H53 UNL     1     -49.365  69.305 -15.161  1.00  0.00     0.277 HD
ATOM     22  H52 UNL     1     -49.993  70.666 -15.469  1.00  0.00     0.277 HD
ATOM     23  H51 UNL     1     -48.933  70.030 -16.639  1.00  0.00     0.277 HD
ENDBRANCH  19  20
BRANCH  19  24
HETATM   24  C8  UNL     1     -47.776  70.524 -13.627  1.00  0.00     0.248 C 
HETATM   25  C9  UNL     1     -46.780  69.396 -13.460  1.00  0.00     0.061 C 
BRANCH  24  26
HETATM   26  N6  UNL     1     -47.205  71.705 -13.011  1.00  0.00    -0.058 N 
ATOM     27  H63 UNL     1     -46.216  71.828 -13.231  1.00  0.00     0.276 HD
ATOM     28  H62 UNL     1     -47.545  72.572 -13.427  1.00  0.00     0.276 HD
ATOM     29  H61 UNL     1     -47.383  71.651 -12.008  1.00  0.00     0.276 HD
ENDBRANCH  24  26
BRANCH  24  30
HETATM   30  C10 UNL     1     -49.026  70.157 -12.942  1.00  0.00     0.271 C 
HETATM   31  N7  UNL     1     -49.313  68.810 -12.692  1.00  0.00    -0.060 NA
HETATM   32  O5  UNL     1     -49.835  71.036 -12.581  1.00  0.00    -0.274 OA
ENDBRANCH  24  30
ENDBRANCH  19  24
ENDBRANCH  18  19
ENDBRANCH   1  18
TORSDOF 9
ENDMDL
MODEL 5
REMARK VINA RESULT: -6.665017348      2.005      5.518
REMARK  9 active torsions:
REMARK  status: ('A' for Active; 'I' for Inactive)
REMARK    1  A    between atoms: C2_2  and  N1_3 
REMARK    2  A    between atoms: C2_2  and  C6_16 
REMARK    3  A    between atoms: N1_3  and  C3_5 
REMARK    4  A    between atoms: C6_16  and  O4_18 
REMARK    5  A    between atoms: O4_18  and  C7_19 
REMARK    6  A    between atoms: C7_19  and  N5_20 
REMARK    7  A    between atoms: C7_19  and  C8_24 
REMARK    8  A    between atoms: C8_24  and  N6_26 
REMARK    9  A    between atoms: C8_24  and  C10_30 
ROOT
HETATM    1  C6  UNL     1     -49.495  73.499 -14.641  1.00  0.00     0.283 C 
HETATM    2  O3  UNL     1     -50.217  74.294 -14.003  1.00  0.00    -0.263 OA
ENDROOT
BRANCH   1   3
HETATM    3  C2  UNL     1     -48.465  73.978 -15.582  1.00  0.00     0.179 C 
HETATM    4  C1  UNL     1     -49.186  74.641 -16.742  1.00  0.00     0.043 C 
BRANCH   3   5
HETATM    5  N1  UNL     1     -47.656  72.874 -16.005  1.00  0.00    -0.357 N 
ATOM      6  H1  UNL     1     -48.124  72.091 -16.460  1.00  0.00     0.162 HD
BRANCH   5   7
HETATM    7  C3  UNL     1     -46.377  72.802 -15.849  1.00  0.00     0.186 A 
HETATM    8  N2  UNL     1     -45.787  72.858 -14.645  1.00  0.00    -0.277 N 
HETATM    9  N3  UNL     1     -44.483  72.782 -14.529  1.00  0.00    -0.250 N 
ATOM     10  H2  UNL     1     -46.361  72.962 -13.808  1.00  0.00     0.189 HD
HETATM   11  C4  UNL     1     -43.742  72.647 -15.644  1.00  0.00     0.341 A 
ATOM     12  H3  UNL     1     -44.039  72.825 -13.612  1.00  0.00     0.192 HD
HETATM   13  O1  UNL     1     -42.484  72.574 -15.529  1.00  0.00    -0.245 OA
HETATM   14  N4  UNL     1     -44.268  72.585 -16.871  1.00  0.00    -0.271 N 
HETATM   15  C5  UNL     1     -45.603  72.664 -16.977  1.00  0.00     0.294 A 
ATOM     16  H4  UNL     1     -43.676  72.482 -17.695  1.00  0.00     0.174 HD
HETATM   17  O2  UNL     1     -46.172  72.613 -18.111  1.00  0.00    -0.264 OA
ENDBRANCH   5   7
ENDBRANCH   3   5
ENDBRANCH   1   3
BRANCH   1  18
HETATM   18  O4  UNL     1     -49.671  72.143 -14.452  1.00  0.00    -0.283 OA
BRANCH  18  19
HETATM   19  C7  UNL     1     -49.514  71.530 -13.164  1.00  0.00     0.372 C 
BRANCH  19  20
HETATM   20  N5  UNL     1     -48.644  72.373 -12.406  1.00  0.00    -0.049 N 
ATOM     21  H53 UNL     1     -47.809  72.653 -12.921  1.00  0.00     0.277 HD
ATOM     22  H52 UNL     1     -49.023  73.308 -12.256  1.00  0.00     0.277 HD
ATOM     23  H51 UNL     1     -48.436  71.880 -11.539  1.00  0.00     0.277 HD
ENDBRANCH  19  20
BRANCH  19  24
HETATM   24  C8  UNL     1     -48.935  70.159 -13.423  1.00  0.00     0.248 C 
HETATM   25  C9  UNL     1     -49.721  69.114 -12.660  1.00  0.00     0.061 C 
BRANCH  24  26
HETATM   26  N6  UNL     1     -49.088  69.874 -14.836  1.00  0.00    -0.058 N 
ATOM     27  H63 UNL     1     -49.858  69.234 -15.031  1.00  0.00     0.276 HD
ATOM     28  H62 UNL     1     -49.439  70.673 -15.365  1.00  0.00     0.276 HD
ATOM     29  H61 UNL     1     -48.191  69.532 -15.183  1.00  0.00     0.276 HD
ENDBRANCH  24  26
BRANCH  24  30
HETATM   30  C10 UNL     1     -47.517  70.058 -13.042  1.00  0.00     0.271 C 
HETATM   31  N7  UNL     1     -46.527  70.098 -14.031  1.00  0.00    -0.060 NA
HETATM   32  O5  UNL     1     -47.187  69.935 -11.845  1.00  0.00    -0.274 OA
ENDBRANCH  24  30
ENDBRANCH  19  24
ENDBRANCH  18  19
ENDBRANCH   1  18
TORSDOF 9
ENDMDL
