MODEL 1
REMARK VINA RESULT: -6.609240387      0.000      0.000
REMARK  8 active torsions:
REMARK  status: ('A' for Active; 'I' for Inactive)
REMARK    1  A    between atoms: C1_4  and  C2_5 
REMARK    2  A    between atoms: C1_4  and  N10_34 
REMARK    3  A    between atoms: C2_5  and  N2_6 
REMARK    4  A    between atoms: N6_19  and  N7_21 
REMARK    5  A    between atoms: C7_23  and  C8_24 
REMARK    6  A    between atoms: C8_24  and  O2_25 
REMARK    7  A    between atoms: C8_24  and  O3_27 
REMARK    8  A    between atoms: N10_34  and  N11_36 
ROOT
HETATM    1  N2  UNL     1     -48.030  70.653 -12.302  1.00  0.00    -0.218 N 
ATOM      2  H2  UNL     1     -48.579  70.330 -11.506  1.00  0.00     0.178 HD
HETATM    3  C3  UNL     1     -48.347  71.738 -12.919  1.00  0.00     0.694 A 
HETATM    4  N3  UNL     1     -47.576  72.176 -14.024  1.00  0.00    -0.132 N 
ATOM      5  H3  UNL     1     -46.768  71.636 -14.336  1.00  0.00     0.205 HD
HETATM    6  N4  UNL     1     -47.933  73.353 -14.681  1.00  0.00    -0.278 N 
ATOM      7  H4  UNL     1     -47.372  73.661 -15.474  1.00  0.00     0.188 HD
HETATM    8  C4  UNL     1     -48.946  74.070 -14.326  1.00  0.00     0.162 A 
HETATM    9  C5  UNL     1     -49.223  75.296 -15.101  1.00  0.00     0.291 A 
HETATM   10  O1  UNL     1     -48.508  75.641 -16.073  1.00  0.00    -0.265 OA
HETATM   11  N5  UNL     1     -50.344  76.064 -14.687  1.00  0.00    -0.153 N 
ATOM     12  H5  UNL     1     -50.596  76.924 -15.175  1.00  0.00     0.187 HD
HETATM   13  C6  UNL     1     -51.106  75.608 -13.576  1.00  0.00     0.701 A 
HETATM   14  N6  UNL     1     -52.130  76.355 -13.235  1.00  0.00    -0.132 N 
ATOM     15  H6  UNL     1     -52.705  76.065 -12.444  1.00  0.00     0.205 HD
HETATM   16  N8  UNL     1     -50.807  74.421 -12.854  1.00  0.00    -0.172 N 
ATOM     17  H8  UNL     1     -51.391  74.145 -12.064  1.00  0.00     0.186 HD
HETATM   18  C9  UNL     1     -49.785  73.682 -13.199  1.00  0.00     0.170 A 
HETATM   19  N9  UNL     1     -49.483  72.490 -12.478  1.00  0.00    -0.172 N 
ATOM     20  H9  UNL     1     -50.050  72.187 -11.685  1.00  0.00     0.186 HD
ENDROOT
BRANCH   1  21
HETATM   21  C2  UNL     1     -46.884  69.901 -12.754  1.00  0.00     0.215 C 
BRANCH  21  22
HETATM   22  C1  UNL     1     -47.388  68.735 -13.538  1.00  0.00     0.107 C 
HETATM   23  N1  UNL     1     -47.002  68.517 -14.756  1.00  0.00    -0.387 N 
ATOM     24  H12 UNL     1     -46.339  69.135 -15.224  1.00  0.00     0.157 HD
ATOM     25  H11 UNL     1     -47.347  67.720 -15.291  1.00  0.00     0.157 HD
BRANCH  22  26
HETATM   26  N10 UNL     1     -48.303  67.882 -12.891  1.00  0.00    -0.295 N 
ATOM     27  H10 UNL     1     -47.998  67.291 -12.117  1.00  0.00     0.187 HD
BRANCH  26  28
HETATM   28  N11 UNL     1     -49.620  67.852 -13.314  1.00  0.00    -0.344 N 
ATOM     29 2H11 UNL     1     -49.979  68.618 -13.883  1.00  0.00     0.176 HD
ATOM     30 1H11 UNL     1     -50.214  67.065 -13.050  1.00  0.00     0.176 HD
ENDBRANCH  26  28
ENDBRANCH  22  26
ENDBRANCH  21  22
ENDBRANCH   1  21
BRANCH  14  31
HETATM   31  N7  UNL     1     -52.463  77.521 -13.906  1.00  0.00    -0.297 N 
HETATM   32  C7  UNL     1     -53.589  77.724 -14.499  1.00  0.00     0.140 C 
ATOM     33  H7  UNL     1     -51.770  78.269 -13.932  1.00  0.00     0.186 HD
BRANCH  32  34
HETATM   34  C8  UNL     1     -54.676  76.703 -14.525  1.00  0.00     0.295 C 
BRANCH  34  35
HETATM   35  O2  UNL     1     -54.966  76.365 -13.214  1.00  0.00    -0.367 OA
ATOM     36  H2  UNL     1     -55.607  76.987 -12.891  1.00  0.00     0.213 HD
ENDBRANCH  34  35
BRANCH  34  37
HETATM   37  O3  UNL     1     -54.345  75.618 -15.312  1.00  0.00    -0.367 OA
ATOM     38  H3  UNL     1     -54.998  74.930 -15.259  1.00  0.00     0.213 HD
ENDBRANCH  34  37
ENDBRANCH  32  34
ENDBRANCH  14  31
TORSDOF 8
ENDMDL
MODEL 2
REMARK VINA RESULT: -6.579377212      5.603      6.854
REMARK  8 active torsions:
REMARK  status: ('A' for Active; 'I' for Inactive)
REMARK    1  A    between atoms: C1_4  and  C2_5 
REMARK    2  A    between atoms: C1_4  and  N10_34 
REMARK    3  A    between atoms: C2_5  and  N2_6 
REMARK    4  A    between atoms: N6_19  and  N7_21 
REMARK    5  A    between atoms: C7_23  and  C8_24 
REMARK    6  A    between atoms: C8_24  and  O2_25 
REMARK    7  A    between atoms: C8_24  and  O3_27 
REMARK    8  A    between atoms: N10_34  and  N11_36 
ROOT
HETATM    1  N2  UNL     1     -47.607  69.520 -15.048  1.00  0.00    -0.218 N 
ATOM      2  H2  UNL     1     -48.364  69.348 -15.709  1.00  0.00     0.178 HD
HETATM    3  C3  UNL     1     -46.682  70.374 -15.320  1.00  0.00     0.694 A 
HETATM    4  N3  UNL     1     -45.635  70.603 -14.393  1.00  0.00    -0.132 N 
ATOM      5  H3  UNL     1     -45.608  70.095 -13.509  1.00  0.00     0.205 HD
HETATM    6  N4  UNL     1     -44.642  71.532 -14.704  1.00  0.00    -0.278 N 
ATOM      7  H4  UNL     1     -43.893  71.691 -14.030  1.00  0.00     0.188 HD
HETATM    8  C4  UNL     1     -44.631  72.199 -15.808  1.00  0.00     0.162 A 
HETATM    9  C5  UNL     1     -43.525  73.154 -16.022  1.00  0.00     0.291 A 
HETATM   10  O1  UNL     1     -42.621  73.321 -15.168  1.00  0.00    -0.265 OA
HETATM   11  N5  UNL     1     -43.539  73.873 -17.246  1.00  0.00    -0.153 N 
ATOM     12  H5  UNL     1     -42.807  74.550 -17.463  1.00  0.00     0.187 HD
HETATM   13  C6  UNL     1     -44.598  73.628 -18.164  1.00  0.00     0.701 A 
HETATM   14  N6  UNL     1     -44.564  74.319 -19.280  1.00  0.00    -0.132 N 
ATOM     15  H6  UNL     1     -45.305  74.175 -19.966  1.00  0.00     0.205 HD
HETATM   16  N8  UNL     1     -45.647  72.700 -17.923  1.00  0.00    -0.172 N 
ATOM     17  H8  UNL     1     -46.381  72.568 -18.619  1.00  0.00     0.186 HD
HETATM   18  C9  UNL     1     -45.675  72.015 -16.809  1.00  0.00     0.170 A 
HETATM   19  N9  UNL     1     -46.724  71.083 -16.564  1.00  0.00    -0.172 N 
ATOM     20  H9  UNL     1     -47.470  70.927 -17.242  1.00  0.00     0.186 HD
ENDROOT
BRANCH   1  21
HETATM   21  C2  UNL     1     -47.555  68.810 -13.792  1.00  0.00     0.215 C 
BRANCH  21  22
HETATM   22  C1  UNL     1     -48.787  69.158 -13.024  1.00  0.00     0.107 C 
HETATM   23  N1  UNL     1     -49.646  68.253 -12.672  1.00  0.00    -0.387 N 
ATOM     24  H12 UNL     1     -49.511  67.269 -12.907  1.00  0.00     0.157 HD
ATOM     25  H11 UNL     1     -50.488  68.491 -12.147  1.00  0.00     0.157 HD
BRANCH  22  26
HETATM   26  N10 UNL     1     -48.973  70.516 -12.701  1.00  0.00    -0.295 N 
ATOM     27  H10 UNL     1     -49.820  71.003 -12.994  1.00  0.00     0.187 HD
BRANCH  26  28
HETATM   28  N11 UNL     1     -47.998  71.184 -11.983  1.00  0.00    -0.344 N 
ATOM     29 2H11 UNL     1     -47.139  70.694 -11.732  1.00  0.00     0.176 HD
ATOM     30 1H11 UNL     1     -48.150  72.156 -11.715  1.00  0.00     0.176 HD
ENDBRANCH  26  28
ENDBRANCH  22  26
ENDBRANCH  21  22
ENDBRANCH   1  21
BRANCH  14  31
HETATM   31  N7  UNL     1     -43.565  75.236 -19.563  1.00  0.00    -0.297 N 
HETATM   32  C7  UNL     1     -43.674  76.508 -19.388  1.00  0.00     0.140 C 
ATOM     33  H7  UNL     1     -42.684  74.881 -19.934  1.00  0.00     0.186 HD
BRANCH  32  34
HETATM   34  C8  UNL     1     -44.913  77.140 -18.851  1.00  0.00     0.295 C 
BRANCH  34  35
HETATM   35  O2  UNL     1     -44.972  76.861 -17.495  1.00  0.00    -0.367 OA
ATOM     36  H2  UNL     1     -45.253  75.959 -17.399  1.00  0.00     0.213 HD
ENDBRANCH  34  35
BRANCH  34  37
HETATM   37  O3  UNL     1     -46.038  76.739 -19.543  1.00  0.00    -0.367 OA
ATOM     38  H3  UNL     1     -46.376  77.430 -20.101  1.00  0.00     0.213 HD
ENDBRANCH  34  37
ENDBRANCH  32  34
ENDBRANCH  14  31
TORSDOF 8
ENDMDL
MODEL 3
REMARK VINA RESULT: -6.556250879      5.429      9.042
REMARK  8 active torsions:
REMARK  status: ('A' for Active; 'I' for Inactive)
REMARK    1  A    between atoms: C1_4  and  C2_5 
REMARK    2  A    between atoms: C1_4  and  N10_34 
REMARK    3  A    between atoms: C2_5  and  N2_6 
REMARK    4  A    between atoms: N6_19  and  N7_21 
REMARK    5  A    between atoms: C7_23  and  C8_24 
REMARK    6  A    between atoms: C8_24  and  O2_25 
REMARK    7  A    between atoms: C8_24  and  O3_27 
REMARK    8  A    between atoms: N10_34  and  N11_36 
ROOT
HETATM    1  N2  UNL     1     -48.270  71.058 -13.833  1.00  0.00    -0.218 N 
ATOM      2  H2  UNL     1     -49.043  70.602 -14.316  1.00  0.00     0.178 HD
HETATM    3  C3  UNL     1     -47.130  71.205 -14.414  1.00  0.00     0.694 A 
HETATM    4  N3  UNL     1     -46.063  71.841 -13.731  1.00  0.00    -0.132 N 
ATOM      5  H3  UNL     1     -46.192  72.184 -12.779  1.00  0.00     0.205 HD
HETATM    6  N4  UNL     1     -44.836  71.992 -14.376  1.00  0.00    -0.278 N 
ATOM      7  H4  UNL     1     -44.075  72.451 -13.876  1.00  0.00     0.188 HD
HETATM    8  C4  UNL     1     -44.623  71.574 -15.578  1.00  0.00     0.162 A 
HETATM    9  C5  UNL     1     -43.280  71.791 -16.151  1.00  0.00     0.291 A 
HETATM   10  O1  UNL     1     -42.368  72.361 -15.504  1.00  0.00    -0.265 OA
HETATM   11  N5  UNL     1     -43.075  71.321 -17.476  1.00  0.00    -0.153 N 
ATOM     12  H5  UNL     1     -42.173  71.437 -17.937  1.00  0.00     0.187 HD
HETATM   13  C6  UNL     1     -44.158  70.685 -18.144  1.00  0.00     0.701 A 
HETATM   14  N6  UNL     1     -43.915  70.269 -19.366  1.00  0.00    -0.132 N 
ATOM     15  H6  UNL     1     -44.664  69.807 -19.882  1.00  0.00     0.205 HD
HETATM   16  N8  UNL     1     -45.438  70.494 -17.559  1.00  0.00    -0.172 N 
ATOM     17  H8  UNL     1     -46.176  70.030 -18.089  1.00  0.00     0.186 HD
HETATM   18  C9  UNL     1     -45.673  70.910 -16.341  1.00  0.00     0.170 A 
HETATM   19  N9  UNL     1     -46.955  70.719 -15.750  1.00  0.00    -0.172 N 
ATOM     20  H9  UNL     1     -47.713  70.258 -16.254  1.00  0.00     0.186 HD
ENDROOT
BRANCH   1  21
HETATM   21  C2  UNL     1     -48.437  71.551 -12.486  1.00  0.00     0.215 C 
BRANCH  21  22
HETATM   22  C1  UNL     1     -49.321  72.751 -12.549  1.00  0.00     0.107 C 
HETATM   23  N1  UNL     1     -49.770  73.206 -13.677  1.00  0.00    -0.387 N 
ATOM     24  H12 UNL     1     -49.535  72.759 -14.564  1.00  0.00     0.157 HD
ATOM     25  H11 UNL     1     -50.374  74.027 -13.720  1.00  0.00     0.157 HD
BRANCH  22  26
HETATM   26  N10 UNL     1     -49.645  73.368 -11.325  1.00  0.00    -0.295 N 
ATOM     27  H10 UNL     1     -50.071  72.826 -10.573  1.00  0.00     0.187 HD
BRANCH  26  28
HETATM   28  N11 UNL     1     -49.380  74.714 -11.150  1.00  0.00    -0.344 N 
ATOM     29 2H11 UNL     1     -50.150  75.383 -11.187  1.00  0.00     0.176 HD
ATOM     30 1H11 UNL     1     -48.421  75.020 -10.988  1.00  0.00     0.176 HD
ENDBRANCH  26  28
ENDBRANCH  22  26
ENDBRANCH  21  22
ENDBRANCH   1  21
BRANCH  14  31
HETATM   31  N7  UNL     1     -42.685  70.432 -19.982  1.00  0.00    -0.297 N 
HETATM   32  C7  UNL     1     -42.098  69.527 -20.686  1.00  0.00     0.140 C 
ATOM     33  H7  UNL     1     -42.213  71.330 -19.871  1.00  0.00     0.186 HD
BRANCH  32  34
HETATM   34  C8  UNL     1     -42.694  68.180 -20.918  1.00  0.00     0.295 C 
BRANCH  34  35
HETATM   35  O2  UNL     1     -43.845  68.353 -21.668  1.00  0.00    -0.367 OA
ATOM     36  H2  UNL     1     -44.517  68.694 -21.090  1.00  0.00     0.213 HD
ENDBRANCH  34  35
BRANCH  34  37
HETATM   37  O3  UNL     1     -42.908  67.501 -19.734  1.00  0.00    -0.367 OA
ATOM     38  H3  UNL     1     -43.466  66.742 -19.857  1.00  0.00     0.213 HD
ENDBRANCH  34  37
ENDBRANCH  32  34
ENDBRANCH  14  31
TORSDOF 8
ENDMDL
MODEL 4
REMARK VINA RESULT: -6.537904332      5.935      9.170
REMARK  8 active torsions:
REMARK  status: ('A' for Active; 'I' for Inactive)
REMARK    1  A    between atoms: C1_4  and  C2_5 
REMARK    2  A    between atoms: C1_4  and  N10_34 
REMARK    3  A    between atoms: C2_5  and  N2_6 
REMARK    4  A    between atoms: N6_19  and  N7_21 
REMARK    5  A    between atoms: C7_23  and  C8_24 
REMARK    6  A    between atoms: C8_24  and  O2_25 
REMARK    7  A    between atoms: C8_24  and  O3_27 
REMARK    8  A    between atoms: N10_34  and  N11_36 
ROOT
HETATM    1  N2  UNL     1     -48.268  70.807 -14.997  1.00  0.00    -0.218 N 
ATOM      2  H2  UNL     1     -48.997  70.459 -15.620  1.00  0.00     0.178 HD
HETATM    3  C3  UNL     1     -47.070  70.993 -15.433  1.00  0.00     0.694 A 
HETATM    4  N3  UNL     1     -46.066  71.476 -14.557  1.00  0.00    -0.132 N 
ATOM      5  H3  UNL     1     -46.285  71.677 -13.581  1.00  0.00     0.205 HD
HETATM    6  N4  UNL     1     -44.774  71.672 -15.045  1.00  0.00    -0.278 N 
ATOM      7  H4  UNL     1     -44.058  72.021 -14.408  1.00  0.00     0.188 HD
HETATM    8  C4  UNL     1     -44.447  71.431 -16.270  1.00  0.00     0.162 A 
HETATM    9  C5  UNL     1     -43.045  71.678 -16.666  1.00  0.00     0.291 A 
HETATM   10  O1  UNL     1     -42.193  72.108 -15.851  1.00  0.00    -0.265 OA
HETATM   11  N5  UNL     1     -42.715  71.404 -18.020  1.00  0.00    -0.153 N 
ATOM     12  H5  UNL     1     -41.766  71.551 -18.365  1.00  0.00     0.187 HD
HETATM   13  C6  UNL     1     -43.737  70.919 -18.883  1.00  0.00     0.701 A 
HETATM   14  N6  UNL     1     -43.378  70.682 -20.123  1.00  0.00    -0.132 N 
ATOM     15  H6  UNL     1     -44.079  70.334 -20.776  1.00  0.00     0.205 HD
HETATM   16  N8  UNL     1     -45.076  70.694 -18.464  1.00  0.00    -0.172 N 
ATOM     17  H8  UNL     1     -45.766  70.346 -19.130  1.00  0.00     0.186 HD
HETATM   18  C9  UNL     1     -45.426  70.932 -17.227  1.00  0.00     0.170 A 
HETATM   19  N9  UNL     1     -46.768  70.706 -16.803  1.00  0.00    -0.172 N 
ATOM     20  H9  UNL     1     -47.479  70.357 -17.445  1.00  0.00     0.186 HD
ENDROOT
BRANCH   1  21
HETATM   21  C2  UNL     1     -48.563  71.098 -13.615  1.00  0.00     0.215 C 
BRANCH  21  22
HETATM   22  C1  UNL     1     -48.378  69.837 -12.838  1.00  0.00     0.107 C 
HETATM   23  N1  UNL     1     -47.322  69.632 -12.115  1.00  0.00    -0.387 N 
ATOM     24  H12 UNL     1     -46.578  70.326 -12.050  1.00  0.00     0.157 HD
ATOM     25  H11 UNL     1     -47.197  68.770 -11.584  1.00  0.00     0.157 HD
BRANCH  22  26
HETATM   26  N10 UNL     1     -49.406  68.878 -12.927  1.00  0.00    -0.295 N 
ATOM     27  H10 UNL     1     -50.379  69.174 -13.011  1.00  0.00     0.187 HD
BRANCH  26  28
HETATM   28  N11 UNL     1     -49.087  67.533 -12.901  1.00  0.00    -0.344 N 
ATOM     29 2H11 UNL     1     -48.170  67.245 -12.559  1.00  0.00     0.176 HD
ATOM     30 1H11 UNL     1     -49.771  66.848 -13.223  1.00  0.00     0.176 HD
ENDBRANCH  26  28
ENDBRANCH  22  26
ENDBRANCH  21  22
ENDBRANCH   1  21
BRANCH  14  31
HETATM   31  N7  UNL     1     -42.086  70.887 -20.581  1.00  0.00    -0.297 N 
HETATM   32  C7  UNL     1     -41.309  69.952 -21.009  1.00  0.00     0.140 C 
ATOM     33  H7  UNL     1     -41.726  71.841 -20.580  1.00  0.00     0.186 HD
BRANCH  32  34
HETATM   34  C8  UNL     1     -41.728  68.522 -21.058  1.00  0.00     0.295 C 
BRANCH  34  35
HETATM   35  O2  UNL     1     -42.807  68.429 -21.921  1.00  0.00    -0.367 OA
ATOM     36  H2  UNL     1     -43.139  67.541 -21.872  1.00  0.00     0.213 HD
ENDBRANCH  34  35
BRANCH  34  37
HETATM   37  O3  UNL     1     -41.988  68.018 -19.799  1.00  0.00    -0.367 OA
ATOM     38  H3  UNL     1     -41.536  67.196 -19.646  1.00  0.00     0.213 HD
ENDBRANCH  34  37
ENDBRANCH  32  34
ENDBRANCH  14  31
TORSDOF 8
ENDMDL
MODEL 5
REMARK VINA RESULT: -6.498689565      1.818      2.546
REMARK  8 active torsions:
REMARK  status: ('A' for Active; 'I' for Inactive)
REMARK    1  A    between atoms: C1_4  and  C2_5 
REMARK    2  A    between atoms: C1_4  and  N10_34 
REMARK    3  A    between atoms: C2_5  and  N2_6 
REMARK    4  A    between atoms: N6_19  and  N7_21 
REMARK    5  A    between atoms: C7_23  and  C8_24 
REMARK    6  A    between atoms: C8_24  and  O2_25 
REMARK    7  A    between atoms: C8_24  and  O3_27 
REMARK    8  A    between atoms: N10_34  and  N11_36 
ROOT
HETATM    1  N2  UNL     1     -48.703  71.117 -13.683  1.00  0.00    -0.218 N 
ATOM      2  H2  UNL     1     -48.692  70.927 -14.685  1.00  0.00     0.178 HD
HETATM    3  C3  UNL     1     -49.097  72.261 -13.239  1.00  0.00     0.694 A 
HETATM    4  N3  UNL     1     -49.107  72.514 -11.844  1.00  0.00    -0.132 N 
ATOM      5  H3  UNL     1     -48.802  71.795 -11.188  1.00  0.00     0.205 HD
HETATM    6  N4  UNL     1     -49.537  73.756 -11.381  1.00  0.00    -0.278 N 
ATOM      7  H4  UNL     1     -49.542  73.929 -10.376  1.00  0.00     0.188 HD
HETATM    8  C4  UNL     1     -49.930  74.698 -12.171  1.00  0.00     0.162 A 
HETATM    9  C5  UNL     1     -50.362  75.971 -11.559  1.00  0.00     0.291 A 
HETATM   10  O1  UNL     1     -50.353  76.144 -10.317  1.00  0.00    -0.265 OA
HETATM   11  N5  UNL     1     -50.790  76.988 -12.453  1.00  0.00    -0.153 N 
ATOM     12  H5  UNL     1     -51.102  77.894 -12.103  1.00  0.00     0.187 HD
HETATM   13  C6  UNL     1     -50.771  76.715 -13.849  1.00  0.00     0.701 A 
HETATM   14  N6  UNL     1     -51.176  77.689 -14.631  1.00  0.00    -0.132 N 
ATOM     15  H6  UNL     1     -51.180  77.536 -15.640  1.00  0.00     0.205 HD
HETATM   16  N8  UNL     1     -50.349  75.476 -14.401  1.00  0.00    -0.172 N 
ATOM     17  H8  UNL     1     -50.359  75.339 -15.412  1.00  0.00     0.186 HD
HETATM   18  C9  UNL     1     -49.947  74.510 -13.617  1.00  0.00     0.170 A 
HETATM   19  N9  UNL     1     -49.521  73.266 -14.166  1.00  0.00    -0.172 N 
ATOM     20  H9  UNL     1     -49.518  73.100 -15.173  1.00  0.00     0.186 HD
ENDROOT
BRANCH   1  21
HETATM   21  C2  UNL     1     -48.277  70.111 -12.741  1.00  0.00     0.215 C 
BRANCH  21  22
HETATM   22  C1  UNL     1     -48.396  68.783 -13.412  1.00  0.00     0.107 C 
HETATM   23  N1  UNL     1     -48.924  67.763 -12.810  1.00  0.00    -0.387 N 
ATOM     24  H12 UNL     1     -49.277  67.831 -11.856  1.00  0.00     0.157 HD
ATOM     25  H11 UNL     1     -49.005  66.856 -13.269  1.00  0.00     0.157 HD
BRANCH  22  26
HETATM   26  N10 UNL     1     -47.907  68.690 -14.729  1.00  0.00    -0.295 N 
ATOM     27  H10 UNL     1     -48.469  69.029 -15.511  1.00  0.00     0.187 HD
BRANCH  26  28
HETATM   28  N11 UNL     1     -46.661  68.135 -14.955  1.00  0.00    -0.344 N 
ATOM     29 2H11 UNL     1     -46.518  67.548 -15.778  1.00  0.00     0.176 HD
ATOM     30 1H11 UNL     1     -45.903  68.319 -14.298  1.00  0.00     0.176 HD
ENDBRANCH  26  28
ENDBRANCH  22  26
ENDBRANCH  21  22
ENDBRANCH   1  21
BRANCH  14  31
HETATM   31  N7  UNL     1     -51.599  78.915 -14.143  1.00  0.00    -0.297 N 
HETATM   32  C7  UNL     1     -52.810  79.349 -14.217  1.00  0.00     0.140 C 
ATOM     33  H7  UNL     1     -50.905  79.514 -13.696  1.00  0.00     0.186 HD
BRANCH  32  34
HETATM   34  C8  UNL     1     -53.907  78.560 -14.847  1.00  0.00     0.295 C 
BRANCH  34  35
HETATM   35  O2  UNL     1     -54.160  77.468 -14.034  1.00  0.00    -0.367 OA
ATOM     36  H2  UNL     1     -53.830  77.671 -13.167  1.00  0.00     0.213 HD
ENDBRANCH  34  35
BRANCH  34  37
HETATM   37  O3  UNL     1     -53.611  78.217 -16.152  1.00  0.00    -0.367 OA
ATOM     38  H3  UNL     1     -53.959  78.847 -16.772  1.00  0.00     0.213 HD
ENDBRANCH  34  37
ENDBRANCH  32  34
ENDBRANCH  14  31
TORSDOF 8
ENDMDL
