MODEL 1
REMARK VINA RESULT: -6.566197000      0.000      0.000
REMARK  9 active torsions:
REMARK  status: ('A' for Active; 'I' for Inactive)
REMARK    1  A    between atoms: C3_4  and  C4_5 
REMARK       I    between atoms: C4_5  and  N2_7 
REMARK    2  A    between atoms: N2_7  and  C5_9 
REMARK    3  A    between atoms: C5_9  and  C6_10 
REMARK    4  A    between atoms: C5_9  and  C7_13 
REMARK    5  A    between atoms: C7_13  and  N4_14 
REMARK    6  A    between atoms: C7_13  and  C8_18 
REMARK    7  A    between atoms: C9_23  and  N7_24 
REMARK    8  A    between atoms: N7_24  and  N8_26 
REMARK    9  A    between atoms: C10_31  and  N10_32 
ROOT
HETATM    1  N1  UNL     1     -48.434  74.442 -14.909  1.00  0.00    -0.191 NA
HETATM    2  C1  UNL     1     -48.350  73.306 -14.695  1.00  0.00     0.106 C 
HETATM    3  C2  UNL     1     -48.262  71.905 -14.407  1.00  0.00     0.121 A 
HETATM    4  C3  UNL     1     -47.626  71.008 -15.237  1.00  0.00     0.141 A 
HETATM    5  N6  UNL     1     -47.632  69.728 -14.821  1.00  0.00    -0.183 N 
ATOM      6  H6  UNL     1     -47.173  69.029 -15.405  1.00  0.00     0.184 HD
HETATM    7  C9  UNL     1     -48.216  69.317 -13.667  1.00  0.00     0.698 A 
HETATM    8  N9  UNL     1     -48.826  70.212 -12.882  1.00  0.00    -0.174 N 
ATOM      9  H9  UNL     1     -49.266  69.905 -12.015  1.00  0.00     0.186 HD
HETATM   10  C10 UNL     1     -48.866  71.495 -13.218  1.00  0.00     0.138 A 
ENDROOT
BRANCH   4  11
HETATM   11  C4  UNL     1     -46.998  71.435 -16.472  1.00  0.00     0.271 C 
HETATM   12  O1  UNL     1     -47.729  71.638 -17.473  1.00  0.00    -0.266 OA
HETATM   13  N2  UNL     1     -45.593  71.634 -16.599  1.00  0.00    -0.340 N 
ATOM     14  H2  UNL     1     -44.999  71.469 -15.787  1.00  0.00     0.163 HD
BRANCH  13  15
HETATM   15  C5  UNL     1     -44.987  72.055 -17.820  1.00  0.00     0.213 C 
BRANCH  15  16
HETATM   16  C6  UNL     1     -44.664  70.940 -18.734  1.00  0.00     0.256 C 
HETATM   17  N3  UNL     1     -45.327  70.754 -19.958  1.00  0.00    -0.060 NA
HETATM   18  O2  UNL     1     -43.769  70.136 -18.400  1.00  0.00    -0.274 OA
ENDBRANCH  15  16
BRANCH  15  19
HETATM   19  C7  UNL     1     -43.774  72.948 -17.601  1.00  0.00     0.303 C 
BRANCH  19  20
HETATM   20  N4  UNL     1     -44.079  74.328 -17.895  1.00  0.00    -0.064 N 
ATOM     21  H43 UNL     1     -45.085  74.487 -17.946  1.00  0.00     0.275 HD
ATOM     22  H42 UNL     1     -43.865  74.936 -17.104  1.00  0.00     0.275 HD
ATOM     23  H41 UNL     1     -43.608  74.639 -18.744  1.00  0.00     0.275 HD
ENDBRANCH  19  20
BRANCH  19  24
HETATM   24  C8  UNL     1     -43.308  72.885 -16.191  1.00  0.00     0.264 C 
HETATM   25  N5  UNL     1     -42.402  71.913 -15.712  1.00  0.00    -0.060 NA
HETATM   26  O3  UNL     1     -43.770  73.764 -15.413  1.00  0.00    -0.274 OA
ENDBRANCH  19  24
ENDBRANCH  15  19
ENDBRANCH  13  15
ENDBRANCH   4  11
BRANCH  10  27
HETATM   27  N10 UNL     1     -49.467  72.319 -12.427  1.00  0.00    -0.384 N 
ATOM     28 2H10 UNL     1     -49.041  72.522 -11.523  1.00  0.00     0.157 HD
ATOM     29 1H10 UNL     1     -50.346  72.772 -12.676  1.00  0.00     0.157 HD
ENDBRANCH  10  27
BRANCH   7  30
HETATM   30  N7  UNL     1     -48.199  68.080 -13.305  1.00  0.00    -0.138 N 
ATOM     31  H7  UNL     1     -47.327  67.552 -13.336  1.00  0.00     0.205 HD
BRANCH  30  32
HETATM   32  N8  UNL     1     -49.372  67.464 -12.872  1.00  0.00    -0.331 N 
ATOM     33  H82 UNL     1     -50.131  68.042 -12.511  1.00  0.00     0.177 HD
ATOM     34  H81 UNL     1     -49.463  66.449 -12.920  1.00  0.00     0.177 HD
ENDBRANCH  30  32
ENDBRANCH   7  30
TORSDOF 9
ENDMDL
MODEL 2
REMARK VINA RESULT: -6.518468533      3.083      5.679
REMARK  9 active torsions:
REMARK  status: ('A' for Active; 'I' for Inactive)
REMARK    1  A    between atoms: C3_4  and  C4_5 
REMARK       I    between atoms: C4_5  and  N2_7 
REMARK    2  A    between atoms: N2_7  and  C5_9 
REMARK    3  A    between atoms: C5_9  and  C6_10 
REMARK    4  A    between atoms: C5_9  and  C7_13 
REMARK    5  A    between atoms: C7_13  and  N4_14 
REMARK    6  A    between atoms: C7_13  and  C8_18 
REMARK    7  A    between atoms: C9_23  and  N7_24 
REMARK    8  A    between atoms: N7_24  and  N8_26 
REMARK    9  A    between atoms: C10_31  and  N10_32 
ROOT
HETATM    1  N1  UNL     1     -48.670  75.705 -16.238  1.00  0.00    -0.191 NA
HETATM    2  C1  UNL     1     -48.913  75.655 -15.107  1.00  0.00     0.106 C 
HETATM    3  C2  UNL     1     -49.217  75.621 -13.707  1.00  0.00     0.121 A 
HETATM    4  C3  UNL     1     -49.301  74.449 -12.987  1.00  0.00     0.141 A 
HETATM    5  N6  UNL     1     -49.595  74.591 -11.680  1.00  0.00    -0.183 N 
ATOM      6  H6  UNL     1     -49.669  73.749 -11.109  1.00  0.00     0.184 HD
HETATM    7  C9  UNL     1     -49.798  75.792 -11.084  1.00  0.00     0.698 A 
HETATM    8  N9  UNL     1     -49.709  76.913 -11.810  1.00  0.00    -0.174 N 
ATOM      9  H9  UNL     1     -49.862  77.816 -11.363  1.00  0.00     0.186 HD
HETATM   10  C10 UNL     1     -49.423  76.861 -13.104  1.00  0.00     0.138 A 
ENDROOT
BRANCH   4  11
HETATM   11  C4  UNL     1     -49.086  73.159 -13.613  1.00  0.00     0.271 C 
HETATM   12  O1  UNL     1     -49.893  72.785 -14.499  1.00  0.00    -0.266 OA
HETATM   13  N2  UNL     1     -48.003  72.302 -13.268  1.00  0.00    -0.340 N 
ATOM     14  H2  UNL     1     -47.347  72.605 -12.549  1.00  0.00     0.163 HD
BRANCH  13  15
HETATM   15  C5  UNL     1     -47.801  71.034 -13.892  1.00  0.00     0.213 C 
BRANCH  15  16
HETATM   16  C6  UNL     1     -48.062  69.888 -12.999  1.00  0.00     0.256 C 
HETATM   17  N3  UNL     1     -49.336  69.313 -12.864  1.00  0.00    -0.060 NA
HETATM   18  O2  UNL     1     -47.111  69.417 -12.340  1.00  0.00    -0.274 OA
ENDBRANCH  15  16
BRANCH  15  19
HETATM   19  C7  UNL     1     -46.434  70.911 -14.551  1.00  0.00     0.303 C 
BRANCH  19  20
HETATM   20  N4  UNL     1     -46.467  69.984 -15.658  1.00  0.00    -0.064 N 
ATOM     21  H43 UNL     1     -47.384  69.964 -16.102  1.00  0.00     0.275 HD
ATOM     22  H42 UNL     1     -45.917  70.323 -16.447  1.00  0.00     0.275 HD
ATOM     23  H41 UNL     1     -46.172  69.052 -15.369  1.00  0.00     0.275 HD
ENDBRANCH  19  20
BRANCH  19  24
HETATM   24  C8  UNL     1     -45.972  72.221 -15.081  1.00  0.00     0.264 C 
HETATM   25  N5  UNL     1     -46.564  72.865 -16.191  1.00  0.00    -0.060 NA
HETATM   26  O3  UNL     1     -44.999  72.752 -14.481  1.00  0.00    -0.274 OA
ENDBRANCH  19  24
ENDBRANCH  15  19
ENDBRANCH  13  15
ENDBRANCH   4  11
BRANCH  10  27
HETATM   27  N10 UNL     1     -49.348  77.970 -13.761  1.00  0.00    -0.384 N 
ATOM     28 2H10 UNL     1     -48.464  78.477 -13.759  1.00  0.00     0.157 HD
ATOM     29 1H10 UNL     1     -50.139  78.353 -14.280  1.00  0.00     0.157 HD
ENDBRANCH  10  27
BRANCH   7  30
HETATM   30  N7  UNL     1     -50.078  75.884  -9.828  1.00  0.00    -0.138 N 
ATOM     31  H7  UNL     1     -50.103  75.045  -9.250  1.00  0.00     0.205 HD
BRANCH  30  32
HETATM   32  N8  UNL     1     -50.346  77.130  -9.263  1.00  0.00    -0.331 N 
ATOM     33  H82 UNL     1     -49.635  77.860  -9.315  1.00  0.00     0.177 HD
ATOM     34  H81 UNL     1     -51.242  77.300  -8.807  1.00  0.00     0.177 HD
ENDBRANCH  30  32
ENDBRANCH   7  30
TORSDOF 9
ENDMDL
MODEL 3
REMARK VINA RESULT: -6.513405478      3.024      5.803
REMARK  9 active torsions:
REMARK  status: ('A' for Active; 'I' for Inactive)
REMARK    1  A    between atoms: C3_4  and  C4_5 
REMARK       I    between atoms: C4_5  and  N2_7 
REMARK    2  A    between atoms: N2_7  and  C5_9 
REMARK    3  A    between atoms: C5_9  and  C6_10 
REMARK    4  A    between atoms: C5_9  and  C7_13 
REMARK    5  A    between atoms: C7_13  and  N4_14 
REMARK    6  A    between atoms: C7_13  and  C8_18 
REMARK    7  A    between atoms: C9_23  and  N7_24 
REMARK    8  A    between atoms: N7_24  and  N8_26 
REMARK    9  A    between atoms: C10_31  and  N10_32 
ROOT
HETATM    1  N1  UNL     1     -46.632  73.806 -17.186  1.00  0.00    -0.191 NA
HETATM    2  C1  UNL     1     -46.945  72.892 -16.547  1.00  0.00     0.106 C 
HETATM    3  C2  UNL     1     -47.311  71.746 -15.769  1.00  0.00     0.121 A 
HETATM    4  C3  UNL     1     -48.357  71.753 -14.871  1.00  0.00     0.141 A 
HETATM    5  N6  UNL     1     -48.570  70.594 -14.219  1.00  0.00    -0.183 N 
ATOM      6  H6  UNL     1     -49.334  70.554 -13.545  1.00  0.00     0.184 HD
HETATM    7  C9  UNL     1     -47.824  69.478 -14.412  1.00  0.00     0.698 A 
HETATM    8  N9  UNL     1     -46.815  69.502 -15.291  1.00  0.00    -0.174 N 
ATOM      9  H9  UNL     1     -46.253  68.664 -15.436  1.00  0.00     0.186 HD
HETATM   10  C10 UNL     1     -46.538  70.604 -15.975  1.00  0.00     0.138 A 
ENDROOT
BRANCH   4  11
HETATM   11  C4  UNL     1     -49.162  72.940 -14.657  1.00  0.00     0.271 C 
HETATM   12  O1  UNL     1     -50.296  72.996 -15.193  1.00  0.00    -0.266 OA
HETATM   13  N2  UNL     1     -48.723  74.041 -13.867  1.00  0.00    -0.340 N 
ATOM     14  H2  UNL     1     -47.802  73.997 -13.432  1.00  0.00     0.163 HD
BRANCH  13  15
HETATM   15  C5  UNL     1     -49.525  75.204 -13.663  1.00  0.00     0.213 C 
BRANCH  15  16
HETATM   16  C6  UNL     1     -49.659  76.048 -14.867  1.00  0.00     0.256 C 
HETATM   17  N3  UNL     1     -48.549  76.489 -15.606  1.00  0.00    -0.060 NA
HETATM   18  O2  UNL     1     -50.804  76.380 -15.237  1.00  0.00    -0.274 OA
ENDBRANCH  15  16
BRANCH  15  19
HETATM   19  C7  UNL     1     -49.073  76.030 -12.467  1.00  0.00     0.303 C 
BRANCH  19  20
HETATM   20  N4  UNL     1     -49.430  77.420 -12.624  1.00  0.00    -0.064 N 
ATOM     21  H43 UNL     1     -48.799  77.898 -13.267  1.00  0.00     0.275 HD
ATOM     22  H42 UNL     1     -50.298  77.526 -13.150  1.00  0.00     0.275 HD
ATOM     23  H41 UNL     1     -49.477  77.896 -11.724  1.00  0.00     0.275 HD
ENDBRANCH  19  20
BRANCH  19  24
HETATM   24  C8  UNL     1     -49.706  75.548 -11.211  1.00  0.00     0.264 C 
HETATM   25  N5  UNL     1     -50.199  76.409 -10.205  1.00  0.00    -0.060 NA
HETATM   26  O3  UNL     1     -49.787  74.297 -11.074  1.00  0.00    -0.274 OA
ENDBRANCH  19  24
ENDBRANCH  15  19
ENDBRANCH  13  15
ENDBRANCH   4  11
BRANCH  10  27
HETATM   27  N10 UNL     1     -45.554  70.577 -16.811  1.00  0.00    -0.384 N 
ATOM     28 2H10 UNL     1     -45.752  70.735 -17.799  1.00  0.00     0.157 HD
ATOM     29 1H10 UNL     1     -44.593  70.405 -16.518  1.00  0.00     0.157 HD
ENDBRANCH  10  27
BRANCH   7  30
HETATM   30  N7  UNL     1     -48.062  68.387 -13.767  1.00  0.00    -0.138 N 
ATOM     31  H7  UNL     1     -47.304  67.730 -13.580  1.00  0.00     0.205 HD
BRANCH  30  32
HETATM   32  N8  UNL     1     -49.353  68.107 -13.323  1.00  0.00    -0.331 N 
ATOM     33  H82 UNL     1     -49.540  68.089 -12.320  1.00  0.00     0.177 HD
ATOM     34  H81 UNL     1     -50.096  67.923 -13.999  1.00  0.00     0.177 HD
ENDBRANCH  30  32
ENDBRANCH   7  30
TORSDOF 9
ENDMDL
MODEL 4
REMARK VINA RESULT: -6.510169660      3.365      5.647
REMARK  9 active torsions:
REMARK  status: ('A' for Active; 'I' for Inactive)
REMARK    1  A    between atoms: C3_4  and  C4_5 
REMARK       I    between atoms: C4_5  and  N2_7 
REMARK    2  A    between atoms: N2_7  and  C5_9 
REMARK    3  A    between atoms: C5_9  and  C6_10 
REMARK    4  A    between atoms: C5_9  and  C7_13 
REMARK    5  A    between atoms: C7_13  and  N4_14 
REMARK    6  A    between atoms: C7_13  and  C8_18 
REMARK    7  A    between atoms: C9_23  and  N7_24 
REMARK    8  A    between atoms: N7_24  and  N8_26 
REMARK    9  A    between atoms: C10_31  and  N10_32 
ROOT
HETATM    1  N1  UNL     1     -51.166  74.196 -16.751  1.00  0.00    -0.191 NA
HETATM    2  C1  UNL     1     -50.852  74.387 -15.653  1.00  0.00     0.106 C 
HETATM    3  C2  UNL     1     -50.484  74.642 -14.292  1.00  0.00     0.121 A 
HETATM    4  C3  UNL     1     -49.437  74.000 -13.666  1.00  0.00     0.141 A 
HETATM    5  N6  UNL     1     -49.222  74.354 -12.385  1.00  0.00    -0.183 N 
ATOM      6  H6  UNL     1     -48.458  73.904 -11.881  1.00  0.00     0.184 HD
HETATM    7  C9  UNL     1     -49.967  75.278 -11.728  1.00  0.00     0.698 A 
HETATM    8  N9  UNL     1     -50.977  75.885 -12.362  1.00  0.00    -0.174 N 
ATOM      9  H9  UNL     1     -51.538  76.579 -11.869  1.00  0.00     0.186 HD
HETATM   10  C10 UNL     1     -51.256  75.593 -13.626  1.00  0.00     0.138 A 
ENDROOT
BRANCH   4  11
HETATM   11  C4  UNL     1     -48.634  73.011 -14.358  1.00  0.00     0.271 C 
HETATM   12  O1  UNL     1     -47.532  73.370 -14.839  1.00  0.00    -0.266 OA
HETATM   13  N2  UNL     1     -49.040  71.655 -14.515  1.00  0.00    -0.340 N 
ATOM     14  H2  UNL     1     -49.935  71.362 -14.124  1.00  0.00     0.163 HD
BRANCH  13  15
HETATM   15  C5  UNL     1     -48.240  70.691 -15.197  1.00  0.00     0.213 C 
BRANCH  15  16
HETATM   16  C6  UNL     1     -48.508  70.622 -16.648  1.00  0.00     0.256 C 
HETATM   17  N3  UNL     1     -47.807  71.404 -17.581  1.00  0.00    -0.060 NA
HETATM   18  O2  UNL     1     -49.391  69.839 -17.055  1.00  0.00    -0.274 OA
ENDBRANCH  15  16
BRANCH  15  19
HETATM   19  C7  UNL     1     -48.312  69.308 -14.564  1.00  0.00     0.303 C 
BRANCH  19  20
HETATM   20  N4  UNL     1     -47.139  68.526 -14.877  1.00  0.00    -0.064 N 
ATOM     21  H43 UNL     1     -47.359  67.533 -14.946  1.00  0.00     0.275 HD
ATOM     22  H42 UNL     1     -46.828  68.685 -15.835  1.00  0.00     0.275 HD
ATOM     23  H41 UNL     1     -46.391  68.697 -14.206  1.00  0.00     0.275 HD
ENDBRANCH  19  20
BRANCH  19  24
HETATM   24  C8  UNL     1     -48.406  69.399 -13.084  1.00  0.00     0.264 C 
HETATM   25  N5  UNL     1     -47.316  69.746 -12.254  1.00  0.00    -0.060 NA
HETATM   26  O3  UNL     1     -49.534  69.146 -12.581  1.00  0.00    -0.274 OA
ENDBRANCH  19  24
ENDBRANCH  15  19
ENDBRANCH  13  15
ENDBRANCH   4  11
BRANCH  10  27
HETATM   27  N10 UNL     1     -52.240  76.206 -14.195  1.00  0.00    -0.384 N 
ATOM     28 2H10 UNL     1     -53.129  75.714 -14.288  1.00  0.00     0.157 HD
ATOM     29 1H10 UNL     1     -52.158  77.158 -14.551  1.00  0.00     0.157 HD
ENDBRANCH  10  27
BRANCH   7  30
HETATM   30  N7  UNL     1     -49.728  75.589 -10.499  1.00  0.00    -0.138 N 
ATOM     31  H7  UNL     1     -49.197  74.951  -9.907  1.00  0.00     0.205 HD
BRANCH  30  32
HETATM   32  N8  UNL     1     -50.195  76.796  -9.981  1.00  0.00    -0.331 N 
ATOM     33  H82 UNL     1     -50.825  76.780  -9.178  1.00  0.00     0.177 HD
ATOM     34  H81 UNL     1     -49.906  77.678 -10.404  1.00  0.00     0.177 HD
ENDBRANCH  30  32
ENDBRANCH   7  30
TORSDOF 9
ENDMDL
MODEL 5
REMARK VINA RESULT: -6.477365402      3.879      6.642
REMARK  9 active torsions:
REMARK  status: ('A' for Active; 'I' for Inactive)
REMARK    1  A    between atoms: C3_4  and  C4_5 
REMARK       I    between atoms: C4_5  and  N2_7 
REMARK    2  A    between atoms: N2_7  and  C5_9 
REMARK    3  A    between atoms: C5_9  and  C6_10 
REMARK    4  A    between atoms: C5_9  and  C7_13 
REMARK    5  A    between atoms: C7_13  and  N4_14 
REMARK    6  A    between atoms: C7_13  and  C8_18 
REMARK    7  A    between atoms: C9_23  and  N7_24 
REMARK    8  A    between atoms: N7_24  and  N8_26 
REMARK    9  A    between atoms: C10_31  and  N10_32 
ROOT
HETATM    1  N1  UNL     1     -49.528  73.161 -17.488  1.00  0.00    -0.191 NA
HETATM    2  C1  UNL     1     -49.314  72.475 -16.579  1.00  0.00     0.106 C 
HETATM    3  C2  UNL     1     -49.048  71.604 -15.473  1.00  0.00     0.121 A 
HETATM    4  C3  UNL     1     -48.922  72.056 -14.177  1.00  0.00     0.141 A 
HETATM    5  N6  UNL     1     -48.673  71.109 -13.253  1.00  0.00    -0.183 N 
ATOM      6  H6  UNL     1     -48.571  71.398 -12.281  1.00  0.00     0.184 HD
HETATM    7  C9  UNL     1     -48.549  69.790 -13.547  1.00  0.00     0.698 A 
HETATM    8  N9  UNL     1     -48.676  69.382 -14.815  1.00  0.00    -0.174 N 
ATOM      9  H9  UNL     1     -48.582  68.391 -15.037  1.00  0.00     0.186 HD
HETATM   10  C10 UNL     1     -48.922  70.251 -15.786  1.00  0.00     0.138 A 
ENDROOT
BRANCH   4  11
HETATM   11  C4  UNL     1     -49.053  73.463 -13.851  1.00  0.00     0.271 C 
HETATM   12  O1  UNL     1     -48.196  74.261 -14.302  1.00  0.00    -0.266 OA
HETATM   13  N2  UNL     1     -50.108  73.976 -13.043  1.00  0.00    -0.340 N 
ATOM     14  H2  UNL     1     -50.805  73.329 -12.676  1.00  0.00     0.163 HD
BRANCH  13  15
HETATM   15  C5  UNL     1     -50.227  75.363 -12.730  1.00  0.00     0.213 C 
BRANCH  15  16
HETATM   16  C6  UNL     1     -49.917  75.678 -11.320  1.00  0.00     0.256 C 
HETATM   17  N3  UNL     1     -49.935  76.991 -10.821  1.00  0.00    -0.060 NA
HETATM   18  O2  UNL     1     -49.629  74.740 -10.549  1.00  0.00    -0.274 OA
ENDBRANCH  15  16
BRANCH  15  19
HETATM   19  C7  UNL     1     -51.572  75.948 -13.136  1.00  0.00     0.303 C 
BRANCH  19  20
HETATM   20  N4  UNL     1     -51.456  77.348 -13.470  1.00  0.00    -0.064 N 
ATOM     21  H43 UNL     1     -51.218  77.910 -12.653  1.00  0.00     0.275 HD
ATOM     22  H42 UNL     1     -50.625  77.531 -14.033  1.00  0.00     0.275 HD
ATOM     23  H41 UNL     1     -52.300  77.692 -13.927  1.00  0.00     0.275 HD
ENDBRANCH  19  20
BRANCH  19  24
HETATM   24  C8  UNL     1     -52.124  75.250 -14.327  1.00  0.00     0.264 C 
HETATM   25  N5  UNL     1     -51.582  75.377 -15.625  1.00  0.00    -0.060 NA
HETATM   26  O3  UNL     1     -53.130  74.517 -14.124  1.00  0.00    -0.274 OA
ENDBRANCH  19  24
ENDBRANCH  15  19
ENDBRANCH  13  15
ENDBRANCH   4  11
BRANCH  10  27
HETATM   27  N10 UNL     1     -49.036  69.808 -16.994  1.00  0.00    -0.384 N 
ATOM     28 2H10 UNL     1     -48.591  70.331 -17.747  1.00  0.00     0.157 HD
ATOM     29 1H10 UNL     1     -49.553  68.957 -17.216  1.00  0.00     0.157 HD
ENDBRANCH  10  27
BRANCH   7  30
HETATM   30  N7  UNL     1     -48.309  68.914 -12.632  1.00  0.00    -0.138 N 
ATOM     31  H7  UNL     1     -47.841  69.194 -11.769  1.00  0.00     0.205 HD
BRANCH  30  32
HETATM   32  N8  UNL     1     -48.689  67.586 -12.820  1.00  0.00    -0.331 N 
ATOM     33  H82 UNL     1     -49.425  67.373 -13.494  1.00  0.00     0.177 HD
ATOM     34  H81 UNL     1     -48.232  66.845 -12.289  1.00  0.00     0.177 HD
ENDBRANCH  30  32
ENDBRANCH   7  30
TORSDOF 9
ENDMDL
