MODEL 1
REMARK VINA RESULT: -6.626867184      0.000      0.000
REMARK  8 active torsions:
REMARK  status: ('A' for Active; 'I' for Inactive)
REMARK    1  A    between atoms: N1_1  and  N2_4 
REMARK    2  A    between atoms: C1_6  and  N3_7 
REMARK    3  A    between atoms: C1_6  and  C2_12 
REMARK    4  A    between atoms: N3_7  and  N4_9 
REMARK    5  A    between atoms: C2_12  and  N5_13 
REMARK    6  A    between atoms: C2_12  and  C3_17 
REMARK    7  A    between atoms: C3_17  and  C4_18 
REMARK    8  A    between atoms: C3_17  and  N7_21 
ROOT
HETATM    1  C3  UNL     1     -48.559  71.149 -15.356  1.00  0.00     0.211 C 
ENDROOT
BRANCH   1   2
HETATM    2  C2  UNL     1     -47.379  70.419 -14.694  1.00  0.00     0.284 C 
BRANCH   2   3
HETATM    3  C1  UNL     1     -47.758  69.437 -13.698  1.00  0.00     0.143 C 
HETATM    4  N2  UNL     1     -48.739  68.642 -13.903  1.00  0.00    -0.293 N 
ATOM      5  H2  UNL     1     -49.243  68.716 -14.787  1.00  0.00     0.187 HD
BRANCH   4   6
HETATM    6  N1  UNL     1     -49.159  67.676 -12.980  1.00  0.00    -0.344 N 
ATOM      7  H12 UNL     1     -48.455  67.022 -12.637  1.00  0.00     0.176 HD
ATOM      8  H11 UNL     1     -50.118  67.598 -12.643  1.00  0.00     0.176 HD
ENDBRANCH   4   6
BRANCH   3   9
HETATM    9  N3  UNL     1     -47.048  69.350 -12.485  1.00  0.00    -0.293 N 
ATOM     10  H3  UNL     1     -46.793  68.446 -12.087  1.00  0.00     0.187 HD
BRANCH   9  11
HETATM   11  N4  UNL     1     -46.701  70.553 -11.842  1.00  0.00    -0.344 N 
ATOM     12  H42 UNL     1     -46.089  71.225 -12.305  1.00  0.00     0.176 HD
ATOM     13  H41 UNL     1     -47.082  70.721 -10.910  1.00  0.00     0.176 HD
ENDBRANCH   9  11
ENDBRANCH   3   9
ENDBRANCH   2   3
BRANCH   2  14
HETATM   14  N5  UNL     1     -46.483  69.882 -15.707  1.00  0.00    -0.066 N 
ATOM     15  H53 UNL     1     -47.009  69.437 -16.459  1.00  0.00     0.275 HD
ATOM     16  H52 UNL     1     -46.038  70.632 -16.236  1.00  0.00     0.275 HD
ATOM     17  H51 UNL     1     -45.786  69.244 -15.323  1.00  0.00     0.275 HD
ENDBRANCH   2  14
ENDBRANCH   1   2
BRANCH   1  18
HETATM   18  C4  UNL     1     -48.635  70.731 -16.730  1.00  0.00     0.256 C 
HETATM   19  N6  UNL     1     -48.017  71.268 -17.883  1.00  0.00    -0.060 NA
HETATM   20  O1  UNL     1     -49.365  69.715 -17.018  1.00  0.00    -0.274 OA
ENDBRANCH   1  18
BRANCH   1  21
HETATM   21  N7  UNL     1     -48.566  72.434 -14.932  1.00  0.00    -0.369 N 
HETATM   22  C5  UNL     1     -48.958  72.899 -13.701  1.00  0.00     0.104 C 
HETATM   23  C6  UNL     1     -49.196  72.471 -12.376  1.00  0.00     0.104 C 
HETATM   24  N8  UNL     1     -50.155  73.332 -11.700  1.00  0.00    -0.373 N 
HETATM   25  C7  UNL     1     -49.976  74.736 -11.696  1.00  0.00     0.104 C 
ATOM     26  H8  UNL     1     -50.959  72.922 -11.227  1.00  0.00     0.164 HD
HETATM   27  C8  UNL     1     -50.563  75.429 -12.817  1.00  0.00     0.100 C 
HETATM   28  N9  UNL     1     -51.009  76.736 -12.959  1.00  0.00    -0.393 N 
HETATM   29  C9  UNL     1     -51.450  76.817 -14.371  1.00  0.00     0.163 C 
ATOM     30  H9  UNL     1     -51.029  77.472 -12.253  1.00  0.00     0.159 HD
HETATM   31  C10 UNL     1     -50.579  76.199 -15.413  1.00  0.00     0.079 C 
HETATM   32  N10 UNL     1     -50.817  74.882 -15.767  1.00  0.00    -0.379 N 
HETATM   33  C11 UNL     1     -50.008  73.942 -16.298  1.00  0.00     0.080 C 
ATOM     34  H10 UNL     1     -51.771  74.567 -15.597  1.00  0.00     0.164 HD
HETATM   35  C12 UNL     1     -48.655  73.578 -15.822  1.00  0.00     0.167 C 
ENDBRANCH   1  21
TORSDOF 8
ENDMDL
MODEL 2
REMARK VINA RESULT: -6.357559872      2.384      5.178
REMARK  8 active torsions:
REMARK  status: ('A' for Active; 'I' for Inactive)
REMARK    1  A    between atoms: N1_1  and  N2_4 
REMARK    2  A    between atoms: C1_6  and  N3_7 
REMARK    3  A    between atoms: C1_6  and  C2_12 
REMARK    4  A    between atoms: N3_7  and  N4_9 
REMARK    5  A    between atoms: C2_12  and  N5_13 
REMARK    6  A    between atoms: C2_12  and  C3_17 
REMARK    7  A    between atoms: C3_17  and  C4_18 
REMARK    8  A    between atoms: C3_17  and  N7_21 
ROOT
HETATM    1  C3  UNL     1     -48.615  70.206 -14.177  1.00  0.00     0.211 C 
ENDROOT
BRANCH   1   2
HETATM    2  C2  UNL     1     -48.198  71.398 -13.300  1.00  0.00     0.284 C 
BRANCH   2   3
HETATM    3  C1  UNL     1     -49.211  72.426 -13.157  1.00  0.00     0.143 C 
HETATM    4  N2  UNL     1     -49.485  73.213 -14.128  1.00  0.00    -0.293 N 
ATOM      5  H2  UNL     1     -48.976  73.095 -15.004  1.00  0.00     0.187 HD
BRANCH   4   6
HETATM    6  N1  UNL     1     -50.447  74.228 -14.052  1.00  0.00    -0.344 N 
ATOM      7  H12 UNL     1     -50.156  75.167 -14.325  1.00  0.00     0.176 HD
ATOM      8  H11 UNL     1     -51.407  74.073 -13.744  1.00  0.00     0.176 HD
ENDBRANCH   4   6
BRANCH   3   9
HETATM    9  N3  UNL     1     -49.903  72.571 -11.940  1.00  0.00    -0.293 N 
ATOM     10  H3  UNL     1     -50.656  71.932 -11.682  1.00  0.00     0.187 HD
BRANCH   9  11
HETATM   11  N4  UNL     1     -49.522  73.628 -11.091  1.00  0.00    -0.344 N 
ATOM     12  H42 UNL     1     -48.750  73.506 -10.435  1.00  0.00     0.176 HD
ATOM     13  H41 UNL     1     -50.041  74.503 -11.159  1.00  0.00     0.176 HD
ENDBRANCH   9  11
ENDBRANCH   3   9
ENDBRANCH   2   3
BRANCH   2  14
HETATM   14  N5  UNL     1     -47.681  70.931 -12.022  1.00  0.00    -0.066 N 
ATOM     15  H53 UNL     1     -47.769  71.653 -11.308  1.00  0.00     0.275 HD
ATOM     16  H52 UNL     1     -48.294  70.222 -11.618  1.00  0.00     0.275 HD
ATOM     17  H51 UNL     1     -46.721  70.592 -12.082  1.00  0.00     0.275 HD
ENDBRANCH   2  14
ENDBRANCH   1   2
BRANCH   1  18
HETATM   18  C4  UNL     1     -48.621  69.024 -13.358  1.00  0.00     0.256 C 
HETATM   19  N6  UNL     1     -49.664  68.447 -12.596  1.00  0.00    -0.060 NA
HETATM   20  O1  UNL     1     -47.538  68.342 -13.265  1.00  0.00    -0.274 OA
ENDBRANCH   1  18
BRANCH   1  21
HETATM   21  N7  UNL     1     -48.005  70.318 -15.379  1.00  0.00    -0.369 N 
HETATM   22  C5  UNL     1     -46.791  70.903 -15.642  1.00  0.00     0.104 C 
HETATM   23  C6  UNL     1     -45.599  71.320 -15.009  1.00  0.00     0.104 C 
HETATM   24  N8  UNL     1     -44.952  72.396 -15.745  1.00  0.00    -0.373 N 
HETATM   25  C7  UNL     1     -44.706  72.267 -17.132  1.00  0.00     0.104 C 
ATOM     26  H8  UNL     1     -44.674  73.248 -15.258  1.00  0.00     0.164 HD
HETATM   27  C8  UNL     1     -45.782  72.703 -17.987  1.00  0.00     0.100 C 
HETATM   28  N9  UNL     1     -45.788  73.167 -19.296  1.00  0.00    -0.393 N 
HETATM   29  C9  UNL     1     -47.221  73.396 -19.593  1.00  0.00     0.163 C 
ATOM     30  H9  UNL     1     -44.989  73.315 -19.912  1.00  0.00     0.159 HD
HETATM   31  C10 UNL     1     -48.202  72.360 -19.154  1.00  0.00     0.079 C 
HETATM   32  N10 UNL     1     -48.786  72.499 -17.906  1.00  0.00    -0.379 N 
HETATM   33  C11 UNL     1     -49.325  71.590 -17.069  1.00  0.00     0.080 C 
ATOM     34  H10 UNL     1     -48.812  73.458 -17.559  1.00  0.00     0.164 HD
HETATM   35  C12 UNL     1     -48.712  70.311 -16.648  1.00  0.00     0.167 C 
ENDBRANCH   1  21
TORSDOF 8
ENDMDL
MODEL 3
REMARK VINA RESULT: -6.277586358      2.413      5.398
REMARK  8 active torsions:
REMARK  status: ('A' for Active; 'I' for Inactive)
REMARK    1  A    between atoms: N1_1  and  N2_4 
REMARK    2  A    between atoms: C1_6  and  N3_7 
REMARK    3  A    between atoms: C1_6  and  C2_12 
REMARK    4  A    between atoms: N3_7  and  N4_9 
REMARK    5  A    between atoms: C2_12  and  N5_13 
REMARK    6  A    between atoms: C2_12  and  C3_17 
REMARK    7  A    between atoms: C3_17  and  C4_18 
REMARK    8  A    between atoms: C3_17  and  N7_21 
ROOT
HETATM    1  C3  UNL     1     -48.515  72.836 -14.248  1.00  0.00     0.211 C 
ENDROOT
BRANCH   1   2
HETATM    2  C2  UNL     1     -49.204  72.030 -13.134  1.00  0.00     0.284 C 
BRANCH   2   3
HETATM    3  C1  UNL     1     -48.478  70.849 -12.706  1.00  0.00     0.143 C 
HETATM    4  N2  UNL     1     -47.309  70.949 -12.196  1.00  0.00    -0.293 N 
ATOM      5  H2  UNL     1     -46.904  71.880 -12.097  1.00  0.00     0.187 HD
BRANCH   4   6
HETATM    6  N1  UNL     1     -46.555  69.849 -11.768  1.00  0.00    -0.344 N 
ATOM      7  H12 UNL     1     -45.548  69.885 -11.925  1.00  0.00     0.176 HD
ATOM      8  H11 UNL     1     -46.961  69.030 -11.315  1.00  0.00     0.176 HD
ENDBRANCH   4   6
BRANCH   3   9
HETATM    9  N3  UNL     1     -49.057  69.574 -12.850  1.00  0.00    -0.293 N 
ATOM     10  H3  UNL     1     -49.599  69.152 -12.096  1.00  0.00     0.187 HD
BRANCH   9  11
HETATM   11  N4  UNL     1     -48.862  68.900 -14.071  1.00  0.00    -0.344 N 
ATOM     12  H42 UNL     1     -48.573  67.922 -14.077  1.00  0.00     0.176 HD
ATOM     13  H41 UNL     1     -49.019  69.423 -14.932  1.00  0.00     0.176 HD
ENDBRANCH   9  11
ENDBRANCH   3   9
ENDBRANCH   2   3
BRANCH   2  14
HETATM   14  N5  UNL     1     -49.569  72.902 -12.029  1.00  0.00    -0.066 N 
ATOM     15  H53 UNL     1     -49.729  72.364 -11.177  1.00  0.00     0.275 HD
ATOM     16  H52 UNL     1     -48.771  73.460 -11.725  1.00  0.00     0.275 HD
ATOM     17  H51 UNL     1     -50.370  73.497 -12.240  1.00  0.00     0.275 HD
ENDBRANCH   2  14
ENDBRANCH   1   2
BRANCH   1  18
HETATM   18  C4  UNL     1     -49.225  74.075 -14.413  1.00  0.00     0.256 C 
HETATM   19  N6  UNL     1     -50.603  74.315 -14.626  1.00  0.00    -0.060 NA
HETATM   20  O1  UNL     1     -48.558  75.170 -14.371  1.00  0.00    -0.274 OA
ENDBRANCH   1  18
BRANCH   1  21
HETATM   21  N7  UNL     1     -48.178  71.991 -15.249  1.00  0.00    -0.369 N 
HETATM   22  C5  UNL     1     -46.914  71.668 -15.673  1.00  0.00     0.104 C 
HETATM   23  C6  UNL     1     -45.562  71.703 -15.264  1.00  0.00     0.104 C 
HETATM   24  N8  UNL     1     -44.659  71.757 -16.404  1.00  0.00    -0.373 N 
HETATM   25  C7  UNL     1     -44.787  70.825 -17.461  1.00  0.00     0.104 C 
ATOM     26  H8  UNL     1     -43.931  72.469 -16.442  1.00  0.00     0.164 HD
HETATM   27  C8  UNL     1     -45.693  71.215 -18.513  1.00  0.00     0.100 C 
HETATM   28  N9  UNL     1     -45.753  70.862 -19.855  1.00  0.00    -0.393 N 
HETATM   29  C9  UNL     1     -46.949  71.571 -20.364  1.00  0.00     0.163 C 
ATOM     30  H9  UNL     1     -45.117  70.253 -20.371  1.00  0.00     0.159 HD
HETATM   31  C10 UNL     1     -48.183  71.556 -19.523  1.00  0.00     0.079 C 
HETATM   32  N10 UNL     1     -48.371  72.587 -18.620  1.00  0.00    -0.379 N 
HETATM   33  C11 UNL     1     -49.084  72.651 -17.477  1.00  0.00     0.080 C 
ATOM     34  H10 UNL     1     -47.886  73.451 -18.861  1.00  0.00     0.164 HD
HETATM   35  C12 UNL     1     -49.052  71.674 -16.366  1.00  0.00     0.167 C 
ENDBRANCH   1  21
TORSDOF 8
ENDMDL
MODEL 4
REMARK VINA RESULT: -6.241178274      3.096      5.400
REMARK  8 active torsions:
REMARK  status: ('A' for Active; 'I' for Inactive)
REMARK    1  A    between atoms: N1_1  and  N2_4 
REMARK    2  A    between atoms: C1_6  and  N3_7 
REMARK    3  A    between atoms: C1_6  and  C2_12 
REMARK    4  A    between atoms: N3_7  and  N4_9 
REMARK    5  A    between atoms: C2_12  and  N5_13 
REMARK    6  A    between atoms: C2_12  and  C3_17 
REMARK    7  A    between atoms: C3_17  and  C4_18 
REMARK    8  A    between atoms: C3_17  and  N7_21 
ROOT
HETATM    1  C3  UNL     1     -47.543  71.193 -15.696  1.00  0.00     0.211 C 
ENDROOT
BRANCH   1   2
HETATM    2  C2  UNL     1     -48.616  70.681 -14.721  1.00  0.00     0.284 C 
BRANCH   2   3
HETATM    3  C1  UNL     1     -48.200  69.561 -13.898  1.00  0.00     0.143 C 
HETATM    4  N2  UNL     1     -48.987  68.574 -13.691  1.00  0.00    -0.293 N 
ATOM      5  H2  UNL     1     -49.911  68.594 -14.122  1.00  0.00     0.187 HD
BRANCH   4   6
HETATM    6  N1  UNL     1     -48.648  67.467 -12.904  1.00  0.00    -0.344 N 
ATOM      7  H12 UNL     1     -47.808  67.543 -12.329  1.00  0.00     0.176 HD
ATOM      8  H11 UNL     1     -49.192  66.604 -12.880  1.00  0.00     0.176 HD
ENDBRANCH   4   6
BRANCH   3   9
HETATM    9  N3  UNL     1     -46.920  69.552 -13.314  1.00  0.00    -0.293 N 
ATOM     10  H3  UNL     1     -46.169  68.974 -13.695  1.00  0.00     0.187 HD
BRANCH   9  11
HETATM   11  N4  UNL     1     -46.708  70.367 -12.185  1.00  0.00    -0.344 N 
ATOM     12  H42 UNL     1     -47.495  70.840 -11.740  1.00  0.00     0.176 HD
ATOM     13  H41 UNL     1     -45.753  70.461 -11.839  1.00  0.00     0.176 HD
ENDBRANCH   9  11
ENDBRANCH   3   9
ENDBRANCH   2   3
BRANCH   2  14
HETATM   14  N5  UNL     1     -49.161  71.783 -13.943  1.00  0.00    -0.066 N 
ATOM     15  H53 UNL     1     -49.071  71.603 -12.943  1.00  0.00     0.275 HD
ATOM     16  H52 UNL     1     -48.569  72.610 -14.018  1.00  0.00     0.275 HD
ATOM     17  H51 UNL     1     -50.127  72.003 -14.188  1.00  0.00     0.275 HD
ENDBRANCH   2  14
ENDBRANCH   1   2
BRANCH   1  18
HETATM   18  C4  UNL     1     -47.115  72.492 -15.254  1.00  0.00     0.256 C 
HETATM   19  N6  UNL     1     -47.591  73.777 -15.607  1.00  0.00    -0.060 NA
HETATM   20  O1  UNL     1     -46.154  72.563 -14.407  1.00  0.00    -0.274 OA
ENDBRANCH   1  18
BRANCH   1  21
HETATM   21  N7  UNL     1     -47.923  70.884 -16.958  1.00  0.00    -0.369 N 
HETATM   22  C5  UNL     1     -47.205  71.080 -18.111  1.00  0.00     0.104 C 
HETATM   23  C6  UNL     1     -45.893  71.321 -18.576  1.00  0.00     0.104 C 
HETATM   24  N8  UNL     1     -45.898  72.017 -19.855  1.00  0.00    -0.373 N 
HETATM   25  C7  UNL     1     -46.676  71.528 -20.931  1.00  0.00     0.104 C 
ATOM     26  H8  UNL     1     -45.338  72.860 -19.976  1.00  0.00     0.164 HD
HETATM   27  C8  UNL     1     -48.033  72.016 -20.974  1.00  0.00     0.100 C 
HETATM   28  N9  UNL     1     -48.924  72.166 -22.030  1.00  0.00    -0.393 N 
HETATM   29  C9  UNL     1     -50.161  72.668 -21.390  1.00  0.00     0.163 C 
ATOM     30  H9  UNL     1     -48.762  71.974 -23.018  1.00  0.00     0.159 HD
HETATM   31  C10 UNL     1     -50.601  72.028 -20.116  1.00  0.00     0.079 C 
HETATM   32  N10 UNL     1     -50.164  72.577 -18.923  1.00  0.00    -0.379 N 
HETATM   33  C11 UNL     1     -50.007  72.036 -17.698  1.00  0.00     0.080 C 
ATOM     34  H10 UNL     1     -49.918  73.565 -18.980  1.00  0.00     0.164 HD
HETATM   35  C12 UNL     1     -49.308  70.771 -17.380  1.00  0.00     0.167 C 
ENDBRANCH   1  21
TORSDOF 8
ENDMDL
MODEL 5
REMARK VINA RESULT: -6.205813632      1.951      2.647
REMARK  8 active torsions:
REMARK  status: ('A' for Active; 'I' for Inactive)
REMARK    1  A    between atoms: N1_1  and  N2_4 
REMARK    2  A    between atoms: C1_6  and  N3_7 
REMARK    3  A    between atoms: C1_6  and  C2_12 
REMARK    4  A    between atoms: N3_7  and  N4_9 
REMARK    5  A    between atoms: C2_12  and  N5_13 
REMARK    6  A    between atoms: C2_12  and  C3_17 
REMARK    7  A    between atoms: C3_17  and  C4_18 
REMARK    8  A    between atoms: C3_17  and  N7_21 
ROOT
HETATM    1  C3  UNL     1     -47.516  71.889 -14.895  1.00  0.00     0.211 C 
ENDROOT
BRANCH   1   2
HETATM    2  C2  UNL     1     -48.177  71.228 -13.675  1.00  0.00     0.284 C 
BRANCH   2   3
HETATM    3  C1  UNL     1     -48.564  69.844 -13.873  1.00  0.00     0.143 C 
HETATM    4  N2  UNL     1     -49.229  69.217 -12.978  1.00  0.00    -0.293 N 
ATOM      5  H2  UNL     1     -49.483  69.717 -12.126  1.00  0.00     0.187 HD
BRANCH   4   6
HETATM    6  N1  UNL     1     -49.629  67.881 -13.107  1.00  0.00    -0.344 N 
ATOM      7  H12 UNL     1     -50.530  67.705 -13.550  1.00  0.00     0.176 HD
ATOM      8  H11 UNL     1     -49.069  67.092 -12.782  1.00  0.00     0.176 HD
ENDBRANCH   4   6
BRANCH   3   9
HETATM    9  N3  UNL     1     -48.205  69.174 -15.057  1.00  0.00    -0.293 N 
ATOM     10  H3  UNL     1     -48.777  69.249 -15.900  1.00  0.00     0.187 HD
BRANCH   9  11
HETATM   11  N4  UNL     1     -47.032  68.396 -15.041  1.00  0.00    -0.344 N 
ATOM     12  H42 UNL     1     -46.431  68.392 -14.217  1.00  0.00     0.176 HD
ATOM     13  H41 UNL     1     -46.813  67.848 -15.873  1.00  0.00     0.176 HD
ENDBRANCH   9  11
ENDBRANCH   3   9
ENDBRANCH   2   3
BRANCH   2  14
HETATM   14  N5  UNL     1     -47.358  71.423 -12.488  1.00  0.00    -0.066 N 
ATOM     15  H53 UNL     1     -47.482  72.362 -12.110  1.00  0.00     0.275 HD
ATOM     16  H52 UNL     1     -47.718  70.879 -11.703  1.00  0.00     0.275 HD
ATOM     17  H51 UNL     1     -46.371  71.222 -12.648  1.00  0.00     0.275 HD
ENDBRANCH   2  14
ENDBRANCH   1   2
BRANCH   1  18
HETATM   18  C4  UNL     1     -46.091  71.871 -14.702  1.00  0.00     0.256 C 
HETATM   19  N6  UNL     1     -45.196  72.929 -14.419  1.00  0.00    -0.060 NA
HETATM   20  O1  UNL     1     -45.478  70.747 -14.788  1.00  0.00    -0.274 OA
ENDBRANCH   1  18
BRANCH   1  21
HETATM   21  N7  UNL     1     -48.241  72.977 -15.244  1.00  0.00    -0.369 N 
HETATM   22  C5  UNL     1     -49.063  73.720 -14.435  1.00  0.00     0.104 C 
HETATM   23  C6  UNL     1     -49.340  73.985 -13.074  1.00  0.00     0.104 C 
HETATM   24  N8  UNL     1     -50.717  74.416 -12.883  1.00  0.00    -0.373 N 
HETATM   25  C7  UNL     1     -51.252  75.466 -13.665  1.00  0.00     0.104 C 
ATOM     26  H8  UNL     1     -51.298  73.959 -12.181  1.00  0.00     0.164 HD
HETATM   27  C8  UNL     1     -51.846  75.055 -14.914  1.00  0.00     0.100 C 
HETATM   28  N9  UNL     1     -52.833  75.638 -15.700  1.00  0.00    -0.393 N 
HETATM   29  C9  UNL     1     -52.942  74.737 -16.870  1.00  0.00     0.163 C 
ATOM     30  H9  UNL     1     -53.360  76.491 -15.513  1.00  0.00     0.159 HD
HETATM   31  C10 UNL     1     -51.679  74.237 -17.490  1.00  0.00     0.079 C 
HETATM   32  N10 UNL     1     -51.161  73.036 -17.039  1.00  0.00    -0.379 N 
HETATM   33  C11 UNL     1     -49.904  72.547 -17.052  1.00  0.00     0.080 C 
ATOM     34  H10 UNL     1     -51.851  72.409 -16.625  1.00  0.00     0.164 HD
HETATM   35  C12 UNL     1     -48.684  73.252 -16.600  1.00  0.00     0.167 C 
ENDBRANCH   1  21
TORSDOF 8
ENDMDL
