MODEL 1
REMARK VINA RESULT: -4.997364963      0.000      0.000
REMARK  6 active torsions:
REMARK  status: ('A' for Active; 'I' for Inactive)
REMARK    1  A    between atoms: O1_3  and  C3_4 
REMARK    2  A    between atoms: N1_5  and  C4_7 
REMARK    3  A    between atoms: C7_10  and  O2_11 
REMARK    4  A    between atoms: C8_13  and  O3_14 
REMARK    5  A    between atoms: C9_16  and  O4_17 
REMARK    6  A    between atoms: C10_19  and  O5_20 
ROOT
HETATM    1  C1  UNL     1       1.858   1.203   8.030  1.00  0.00     0.045 C 
HETATM    2  C2  UNL     1       1.099   0.512   8.663  1.00  0.00     0.049 C 
HETATM    3  O1  UNL     1       0.242  -0.296   9.383  1.00  0.00    -0.257 OA
ENDROOT
BRANCH   3   4
HETATM    4  C3  UNL     1       0.123  -0.123  10.778  1.00  0.00     0.242 C 
HETATM    5  N1  UNL     1       1.098   0.474  11.375  1.00  0.00    -0.372 N 
ATOM      6  H1  UNL     1       1.916   0.805  10.864  1.00  0.00     0.161 HD
BRANCH   5   7
HETATM    7  C4  UNL     1       0.975   0.653  12.812  1.00  0.00     0.120 C 
HETATM    8  C5  UNL     1       2.093  -0.053  13.513  1.00  0.00     0.038 C 
HETATM    9  C6  UNL     1       1.849  -1.554  13.354  1.00  0.00     0.015 C 
HETATM   10  C7  UNL     1       1.976   0.220  15.000  1.00  0.00     0.155 C 
HETATM   11  C8  UNL     1       2.038   1.664  15.327  1.00  0.00     0.178 C 
HETATM   12  C9  UNL     1       1.710   2.597  14.234  1.00  0.00     0.180 C 
HETATM   13  C10 UNL     1       0.830   2.090  13.158  1.00  0.00     0.172 C 
BRANCH  10  14
HETATM   14  O2  UNL     1       0.757  -0.297  15.435  1.00  0.00    -0.392 OA
ATOM     15  H2  UNL     1       0.936  -1.092  15.923  1.00  0.00     0.210 HD
ENDBRANCH  10  14
BRANCH  11  16
HETATM   16  O3  UNL     1       1.209   1.887  16.448  1.00  0.00    -0.390 OA
ATOM     17  H3  UNL     1       1.741   1.773  17.228  1.00  0.00     0.210 HD
ENDBRANCH  11  16
BRANCH  12  18
HETATM   18  O4  UNL     1       2.898   3.121  13.673  1.00  0.00    -0.390 OA
ATOM     19  H4  UNL     1       2.788   3.245  12.737  1.00  0.00     0.210 HD
ENDBRANCH  12  18
BRANCH  13  20
HETATM   20  O5  UNL     1       1.098   2.856  12.008  1.00  0.00    -0.391 OA
ATOM     21  H5  UNL     1       1.972   3.222  12.087  1.00  0.00     0.210 HD
ENDBRANCH  13  20
ENDBRANCH   5   7
ENDBRANCH   3   4
TORSDOF 6
ENDMDL
MODEL 2
REMARK VINA RESULT: -4.732554475      2.224      3.134
REMARK  6 active torsions:
REMARK  status: ('A' for Active; 'I' for Inactive)
REMARK    1  A    between atoms: O1_3  and  C3_4 
REMARK    2  A    between atoms: N1_5  and  C4_7 
REMARK    3  A    between atoms: C7_10  and  O2_11 
REMARK    4  A    between atoms: C8_13  and  O3_14 
REMARK    5  A    between atoms: C9_16  and  O4_17 
REMARK    6  A    between atoms: C10_19  and  O5_20 
ROOT
HETATM    1  C1  UNL     1       2.784  -3.719  13.154  1.00  0.00     0.045 C 
HETATM    2  C2  UNL     1       2.186  -3.014  12.378  1.00  0.00     0.049 C 
HETATM    3  O1  UNL     1       1.487  -2.224  11.487  1.00  0.00    -0.257 OA
ENDROOT
BRANCH   3   4
HETATM    4  C3  UNL     1       0.782  -1.097  11.956  1.00  0.00     0.242 C 
HETATM    5  N1  UNL     1       1.475  -0.178  12.540  1.00  0.00    -0.372 N 
ATOM      6  H1  UNL     1       2.484  -0.263  12.657  1.00  0.00     0.161 HD
BRANCH   5   7
HETATM    7  C4  UNL     1       0.748   0.983  13.023  1.00  0.00     0.120 C 
HETATM    8  C5  UNL     1       1.233   1.359  14.388  1.00  0.00     0.038 C 
HETATM    9  C6  UNL     1       0.766   0.266  15.350  1.00  0.00     0.015 C 
HETATM   10  C7  UNL     1       0.509   2.618  14.825  1.00  0.00     0.155 C 
HETATM   11  C8  UNL     1       0.729   3.758  13.904  1.00  0.00     0.178 C 
HETATM   12  C9  UNL     1       1.153   3.420  12.535  1.00  0.00     0.180 C 
HETATM   13  C10 UNL     1       0.779   2.083  12.024  1.00  0.00     0.172 C 
BRANCH  10  14
HETATM   14  O2  UNL     1      -0.853   2.330  14.881  1.00  0.00    -0.392 OA
ATOM     15  H2  UNL     1      -1.292   2.873  14.237  1.00  0.00     0.210 HD
ENDBRANCH  10  14
BRANCH  11  16
HETATM   16  O3  UNL     1      -0.451   4.534  13.892  1.00  0.00    -0.390 OA
ATOM     17  H3  UNL     1      -0.252   5.355  13.456  1.00  0.00     0.210 HD
ENDBRANCH  11  16
BRANCH  12  18
HETATM   18  O4  UNL     1       2.548   3.610  12.400  1.00  0.00    -0.390 OA
ATOM     19  H4  UNL     1       3.015   2.910  12.841  1.00  0.00     0.210 HD
ENDBRANCH  12  18
BRANCH  13  20
HETATM   20  O5  UNL     1       1.707   1.748  11.020  1.00  0.00    -0.391 OA
ATOM     21  H5  UNL     1       2.205   2.526  10.799  1.00  0.00     0.210 HD
ENDBRANCH  13  20
ENDBRANCH   5   7
ENDBRANCH   3   4
TORSDOF 6
ENDMDL
MODEL 3
REMARK VINA RESULT: -4.617006156      3.157      4.619
REMARK  6 active torsions:
REMARK  status: ('A' for Active; 'I' for Inactive)
REMARK    1  A    between atoms: O1_3  and  C3_4 
REMARK    2  A    between atoms: N1_5  and  C4_7 
REMARK    3  A    between atoms: C7_10  and  O2_11 
REMARK    4  A    between atoms: C8_13  and  O3_14 
REMARK    5  A    between atoms: C9_16  and  O4_17 
REMARK    6  A    between atoms: C10_19  and  O5_20 
ROOT
HETATM    1  C1  UNL     1       1.911  -2.127  12.756  1.00  0.00     0.045 C 
HETATM    2  C2  UNL     1       1.432  -1.020  12.788  1.00  0.00     0.049 C 
HETATM    3  O1  UNL     1       0.866   0.239  12.817  1.00  0.00    -0.257 OA
ENDROOT
BRANCH   3   4
HETATM    4  C3  UNL     1       0.545   0.834  14.054  1.00  0.00     0.242 C 
HETATM    5  N1  UNL     1       0.630   0.084  15.100  1.00  0.00    -0.372 N 
ATOM      6  H1  UNL     1       0.915  -0.893  15.036  1.00  0.00     0.161 HD
BRANCH   5   7
HETATM    7  C4  UNL     1       0.299   0.698  16.374  1.00  0.00     0.120 C 
HETATM    8  C5  UNL     1      -0.814  -0.055  17.032  1.00  0.00     0.038 C 
HETATM    9  C6  UNL     1      -2.079   0.205  16.213  1.00  0.00     0.015 C 
HETATM   10  C7  UNL     1      -1.078   0.566  18.390  1.00  0.00     0.155 C 
HETATM   11  C8  UNL     1       0.110   0.539  19.276  1.00  0.00     0.178 C 
HETATM   12  C9  UNL     1       1.418   0.402  18.611  1.00  0.00     0.180 C 
HETATM   13  C10 UNL     1       1.515   0.872  17.212  1.00  0.00     0.172 C 
BRANCH  10  14
HETATM   14  O2  UNL     1      -1.469   1.887  18.188  1.00  0.00    -0.392 OA
ATOM     15  H2  UNL     1      -0.806   2.449  18.573  1.00  0.00     0.210 HD
ENDBRANCH  10  14
BRANCH  11  16
HETATM   16  O3  UNL     1       0.070   1.696  20.083  1.00  0.00    -0.390 OA
ATOM     17  H3  UNL     1      -0.651   2.236  19.779  1.00  0.00     0.210 HD
ENDBRANCH  11  16
BRANCH  12  18
HETATM   18  O4  UNL     1       1.868  -0.936  18.699  1.00  0.00    -0.390 OA
ATOM     19  H4  UNL     1       2.396  -1.151  17.939  1.00  0.00     0.210 HD
ENDBRANCH  12  18
BRANCH  13  20
HETATM   20  O5  UNL     1       2.575   0.168  16.611  1.00  0.00    -0.391 OA
ATOM     21  H5  UNL     1       2.968   0.724  15.948  1.00  0.00     0.210 HD
ENDBRANCH  13  20
ENDBRANCH   5   7
ENDBRANCH   3   4
TORSDOF 6
ENDMDL
MODEL 4
REMARK VINA RESULT: -4.531821476      2.155      4.080
REMARK  6 active torsions:
REMARK  status: ('A' for Active; 'I' for Inactive)
REMARK    1  A    between atoms: O1_3  and  C3_4 
REMARK    2  A    between atoms: N1_5  and  C4_7 
REMARK    3  A    between atoms: C7_10  and  O2_11 
REMARK    4  A    between atoms: C8_13  and  O3_14 
REMARK    5  A    between atoms: C9_16  and  O4_17 
REMARK    6  A    between atoms: C10_19  and  O5_20 
ROOT
HETATM    1  C1  UNL     1       2.817  -4.256  12.449  1.00  0.00     0.045 C 
HETATM    2  C2  UNL     1       2.842  -3.592  13.456  1.00  0.00     0.049 C 
HETATM    3  O1  UNL     1       2.892  -2.830  14.606  1.00  0.00    -0.257 OA
ENDROOT
BRANCH   3   4
HETATM    4  C3  UNL     1       2.246  -1.577  14.643  1.00  0.00     0.242 C 
HETATM    5  N1  UNL     1       2.364  -0.830  13.598  1.00  0.00    -0.372 N 
ATOM      6  H1  UNL     1       2.897  -1.131  12.783  1.00  0.00     0.161 HD
BRANCH   5   7
HETATM    7  C4  UNL     1       1.698   0.461  13.638  1.00  0.00     0.120 C 
HETATM    8  C5  UNL     1       2.712   1.557  13.731  1.00  0.00     0.038 C 
HETATM    9  C6  UNL     1       3.337   1.476  15.123  1.00  0.00     0.015 C 
HETATM   10  C7  UNL     1       1.986   2.888  13.691  1.00  0.00     0.155 C 
HETATM   11  C8  UNL     1       1.189   3.072  12.455  1.00  0.00     0.178 C 
HETATM   12  C9  UNL     1       0.816   1.846  11.728  1.00  0.00     0.180 C 
HETATM   13  C10 UNL     1       0.733   0.596  12.515  1.00  0.00     0.172 C 
BRANCH  10  14
HETATM   14  O2  UNL     1       1.139   2.946  14.795  1.00  0.00    -0.392 OA
ATOM     15  H2  UNL     1       0.684   2.114  14.857  1.00  0.00     0.210 HD
ENDBRANCH  10  14
BRANCH  11  16
HETATM   16  O3  UNL     1       0.046   3.831  12.790  1.00  0.00    -0.390 OA
ATOM     17  H3  UNL     1      -0.349   3.434  13.558  1.00  0.00     0.210 HD
ENDBRANCH  11  16
BRANCH  12  18
HETATM   18  O4  UNL     1       1.677   1.658  10.622  1.00  0.00    -0.390 OA
ATOM     19  H4  UNL     1       1.590   2.386  10.016  1.00  0.00     0.210 HD
ENDBRANCH  12  18
BRANCH  13  20
HETATM   20  O5  UNL     1       0.937  -0.471  11.621  1.00  0.00    -0.391 OA
ATOM     21  H5  UNL     1       0.512  -0.260  10.798  1.00  0.00     0.210 HD
ENDBRANCH  13  20
ENDBRANCH   5   7
ENDBRANCH   3   4
TORSDOF 6
ENDMDL
MODEL 5
REMARK VINA RESULT: -4.527117827      3.218      4.765
REMARK  6 active torsions:
REMARK  status: ('A' for Active; 'I' for Inactive)
REMARK    1  A    between atoms: O1_3  and  C3_4 
REMARK    2  A    between atoms: N1_5  and  C4_7 
REMARK    3  A    between atoms: C7_10  and  O2_11 
REMARK    4  A    between atoms: C8_13  and  O3_14 
REMARK    5  A    between atoms: C9_16  and  O4_17 
REMARK    6  A    between atoms: C10_19  and  O5_20 
ROOT
HETATM    1  C1  UNL     1       2.775  -4.285  12.710  1.00  0.00     0.045 C 
HETATM    2  C2  UNL     1       2.993  -3.375  13.472  1.00  0.00     0.049 C 
HETATM    3  O1  UNL     1       3.256  -2.325  14.328  1.00  0.00    -0.257 OA
ENDROOT
BRANCH   3   4
HETATM    4  C3  UNL     1       2.237  -1.401  14.636  1.00  0.00     0.242 C 
HETATM    5  N1  UNL     1       2.546  -0.439  15.437  1.00  0.00    -0.372 N 
ATOM      6  H1  UNL     1       3.483  -0.350  15.829  1.00  0.00     0.161 HD
BRANCH   5   7
HETATM    7  C4  UNL     1       1.495   0.513  15.754  1.00  0.00     0.120 C 
HETATM    8  C5  UNL     1       0.388   0.404  14.753  1.00  0.00     0.038 C 
HETATM    9  C6  UNL     1       0.923   0.948  13.428  1.00  0.00     0.015 C 
HETATM   10  C7  UNL     1      -0.723   1.354  15.160  1.00  0.00     0.155 C 
HETATM   11  C8  UNL     1      -1.263   1.063  16.509  1.00  0.00     0.178 C 
HETATM   12  C9  UNL     1      -0.388   0.296  17.413  1.00  0.00     0.180 C 
HETATM   13  C10 UNL     1       1.070   0.382  17.172  1.00  0.00     0.172 C 
BRANCH  10  14
HETATM   14  O2  UNL     1      -0.207   2.647  15.141  1.00  0.00    -0.392 OA
ATOM     15  H2  UNL     1      -0.481   3.058  14.329  1.00  0.00     0.210 HD
ENDBRANCH  10  14
BRANCH  11  16
HETATM   16  O3  UNL     1      -1.643   2.291  17.093  1.00  0.00    -0.390 OA
ATOM     17  H3  UNL     1      -2.378   2.121  17.671  1.00  0.00     0.210 HD
ENDBRANCH  11  16
BRANCH  12  18
HETATM   18  O4  UNL     1      -0.789  -1.060  17.440  1.00  0.00    -0.390 OA
ATOM     19  H4  UNL     1      -0.423  -1.522  16.695  1.00  0.00     0.210 HD
ENDBRANCH  12  18
BRANCH  13  20
HETATM   20  O5  UNL     1       1.647  -0.786  17.705  1.00  0.00    -0.391 OA
ATOM     21  H5  UNL     1       1.379  -1.525  17.172  1.00  0.00     0.210 HD
ENDBRANCH  13  20
ENDBRANCH   5   7
ENDBRANCH   3   4
TORSDOF 6
ENDMDL
