MODEL 1
REMARK VINA RESULT: -4.395909266      0.000      0.000
REMARK  8 active torsions:
REMARK  status: ('A' for Active; 'I' for Inactive)
REMARK    1  A    between atoms: C2_2  and  O1_3 
REMARK    2  A    between atoms: C2_2  and  C3_5 
REMARK    3  A    between atoms: C5_8  and  N1_9 
REMARK    4  A    between atoms: N1_9  and  N2_11 
REMARK    5  A    between atoms: N2_11  and  N3_12 
REMARK    6  A    between atoms: C6_15  and  O3_16 
REMARK    7  A    between atoms: C7_18  and  O4_19 
REMARK    8  A    between atoms: C8_21  and  O5_22 
ROOT
HETATM    1  C3  UNL     1       1.181   0.437  12.508  1.00  0.00     0.181 C 
HETATM    2  O2  UNL     1       0.269   0.194  13.507  1.00  0.00    -0.378 OA
HETATM    3  C4  UNL     1       0.972   0.291  14.730  1.00  0.00     0.198 C 
HETATM    4  C5  UNL     1       0.903   1.748  15.130  1.00  0.00     0.169 C 
HETATM    5  C6  UNL     1       1.726   2.635  14.230  1.00  0.00     0.176 C 
HETATM    6  C7  UNL     1       1.081   2.916  12.915  1.00  0.00     0.180 C 
HETATM    7  C8  UNL     1       1.108   1.806  11.937  1.00  0.00     0.180 C 
ENDROOT
BRANCH   4   8
HETATM    8  N1  UNL     1       1.451   1.855  16.469  1.00  0.00    -0.243 N 
ATOM      9  H1  UNL     1       0.969   2.427  17.162  1.00  0.00     0.197 HD
BRANCH   8  10
HETATM   10  N2  UNL     1       2.493   1.267  16.787  1.00  0.00    -0.248 NA
BRANCH  10  11
HETATM   11  N3  UNL     1       3.664   0.884  16.967  1.00  0.00    -0.261 N 
ATOM     12  H32 UNL     1       3.856   1.678  17.578  1.00  0.00     0.193 HD
ATOM     13  H31 UNL     1       4.561   0.400  16.976  1.00  0.00     0.193 HD
ENDBRANCH  10  11
ENDBRANCH   8  10
ENDBRANCH   4   8
BRANCH   5  14
HETATM   14  O3  UNL     1       3.010   2.147  14.142  1.00  0.00    -0.391 OA
ATOM     15  H3  UNL     1       3.542   2.515  14.837  1.00  0.00     0.210 HD
ENDBRANCH   5  14
BRANCH   6  16
HETATM   16  O4  UNL     1       1.794   3.998  12.343  1.00  0.00    -0.390 OA
ATOM     17  H4  UNL     1       1.973   3.754  11.442  1.00  0.00     0.210 HD
ENDBRANCH   6  16
BRANCH   1  18
HETATM   18  C2  UNL     1       0.876  -0.552  11.379  1.00  0.00     0.145 C 
HETATM   19  C1  UNL     1       1.316  -1.937  11.765  1.00  0.00     0.042 C 
BRANCH  18  20
HETATM   20  O1  UNL     1      -0.476  -0.556  11.074  1.00  0.00    -0.393 OA
ATOM     21  H1  UNL     1      -0.883   0.236  11.403  1.00  0.00     0.210 HD
ENDBRANCH  18  20
ENDBRANCH   1  18
BRANCH   7  22
HETATM   22  O5  UNL     1       2.137   1.952  10.997  1.00  0.00    -0.390 OA
ATOM     23  H5  UNL     1       2.149   2.855  10.700  1.00  0.00     0.210 HD
ENDBRANCH   7  22
TORSDOF 8
ENDMDL
MODEL 2
REMARK VINA RESULT: -4.281299036      3.210      4.441
REMARK  8 active torsions:
REMARK  status: ('A' for Active; 'I' for Inactive)
REMARK    1  A    between atoms: C2_2  and  O1_3 
REMARK    2  A    between atoms: C2_2  and  C3_5 
REMARK    3  A    between atoms: C5_8  and  N1_9 
REMARK    4  A    between atoms: N1_9  and  N2_11 
REMARK    5  A    between atoms: N2_11  and  N3_12 
REMARK    6  A    between atoms: C6_15  and  O3_16 
REMARK    7  A    between atoms: C7_18  and  O4_19 
REMARK    8  A    between atoms: C8_21  and  O5_22 
ROOT
HETATM    1  C3  UNL     1       0.687   0.436  14.830  1.00  0.00     0.181 C 
HETATM    2  O2  UNL     1      -0.299   1.390  14.915  1.00  0.00    -0.378 OA
HETATM    3  C4  UNL     1      -1.395   0.782  15.570  1.00  0.00     0.198 C 
HETATM    4  C5  UNL     1      -1.165   1.002  17.049  1.00  0.00     0.169 C 
HETATM    5  C6  UNL     1      -0.004   0.199  17.579  1.00  0.00     0.176 C 
HETATM    6  C7  UNL     1       1.329   0.774  17.236  1.00  0.00     0.180 C 
HETATM    7  C8  UNL     1       1.769   0.587  15.836  1.00  0.00     0.180 C 
ENDROOT
BRANCH   4   8
HETATM    8  N1  UNL     1      -2.358   0.557  17.743  1.00  0.00    -0.243 N 
ATOM      9  H1  UNL     1      -2.695   1.087  18.547  1.00  0.00     0.197 HD
BRANCH   8  10
HETATM   10  N2  UNL     1      -2.975  -0.453  17.380  1.00  0.00    -0.248 NA
BRANCH  10  11
HETATM   11  N3  UNL     1      -3.361  -1.601  17.090  1.00  0.00    -0.261 N 
ATOM     12  H32 UNL     1      -2.538  -2.015  17.528  1.00  0.00     0.193 HD
ATOM     13  H31 UNL     1      -3.853  -2.430  16.759  1.00  0.00     0.193 HD
ENDBRANCH  10  11
ENDBRANCH   8  10
ENDBRANCH   4   8
BRANCH   5  14
HETATM   14  O3  UNL     1      -0.157  -1.125  17.234  1.00  0.00    -0.391 OA
ATOM     15  H3  UNL     1      -1.045  -1.405  17.424  1.00  0.00     0.210 HD
ENDBRANCH   5  14
BRANCH   6  16
HETATM   16  O4  UNL     1       2.272   0.119  18.064  1.00  0.00    -0.390 OA
ATOM     17  H4  UNL     1       1.891   0.089  18.934  1.00  0.00     0.210 HD
ENDBRANCH   6  16
BRANCH   1  18
HETATM   18  C2  UNL     1       1.323   0.579  13.443  1.00  0.00     0.145 C 
HETATM   19  C1  UNL     1       1.132  -0.684  12.649  1.00  0.00     0.042 C 
BRANCH  18  20
HETATM   20  O1  UNL     1       0.779   1.652  12.755  1.00  0.00    -0.393 OA
ATOM     21  H1  UNL     1      -0.169   1.612  12.793  1.00  0.00     0.210 HD
ENDBRANCH  18  20
ENDBRANCH   1  18
BRANCH   7  22
HETATM   22  O5  UNL     1       2.658  -0.487  15.699  1.00  0.00    -0.390 OA
ATOM     23  H5  UNL     1       2.204  -1.287  15.937  1.00  0.00     0.210 HD
ENDBRANCH   7  22
TORSDOF 8
ENDMDL
MODEL 3
REMARK VINA RESULT: -4.229508448      4.890      6.347
REMARK  8 active torsions:
REMARK  status: ('A' for Active; 'I' for Inactive)
REMARK    1  A    between atoms: C2_2  and  O1_3 
REMARK    2  A    between atoms: C2_2  and  C3_5 
REMARK    3  A    between atoms: C5_8  and  N1_9 
REMARK    4  A    between atoms: N1_9  and  N2_11 
REMARK    5  A    between atoms: N2_11  and  N3_12 
REMARK    6  A    between atoms: C6_15  and  O3_16 
REMARK    7  A    between atoms: C7_18  and  O4_19 
REMARK    8  A    between atoms: C8_21  and  O5_22 
ROOT
HETATM    1  C3  UNL     1       4.945   4.738  10.920  1.00  0.00     0.181 C 
HETATM    2  O2  UNL     1       5.585   5.735  11.617  1.00  0.00    -0.378 OA
HETATM    3  C4  UNL     1       4.606   6.709  11.922  1.00  0.00     0.198 C 
HETATM    4  C5  UNL     1       3.999   6.284  13.241  1.00  0.00     0.169 C 
HETATM    5  C6  UNL     1       3.164   5.034  13.118  1.00  0.00     0.176 C 
HETATM    6  C7  UNL     1       3.970   3.783  13.031  1.00  0.00     0.180 C 
HETATM    7  C8  UNL     1       4.631   3.534  11.731  1.00  0.00     0.180 C 
ENDROOT
BRANCH   4   8
HETATM    8  N1  UNL     1       3.124   7.354  13.678  1.00  0.00    -0.243 N 
ATOM      9  H1  UNL     1       3.178   7.683  14.643  1.00  0.00     0.197 HD
BRANCH   8  10
HETATM   10  N2  UNL     1       2.310   7.877  12.905  1.00  0.00    -0.248 NA
BRANCH  10  11
HETATM   11  N3  UNL     1       1.372   8.150  12.133  1.00  0.00    -0.261 N 
ATOM     12  H32 UNL     1       0.684   7.958  12.860  1.00  0.00     0.193 HD
ATOM     13  H31 UNL     1       0.772   8.412  11.351  1.00  0.00     0.193 HD
ENDBRANCH  10  11
ENDBRANCH   8  10
ENDBRANCH   4   8
BRANCH   5  14
HETATM   14  O3  UNL     1       2.241   5.189  12.110  1.00  0.00    -0.391 OA
ATOM     15  H3  UNL     1       2.050   4.345  11.717  1.00  0.00     0.210 HD
ENDBRANCH   5  14
BRANCH   6  16
HETATM   16  O4  UNL     1       3.071   2.712  13.257  1.00  0.00    -0.390 OA
ATOM     17  H4  UNL     1       3.588   2.000  13.615  1.00  0.00     0.210 HD
ENDBRANCH   6  16
BRANCH   1  18
HETATM   18  C2  UNL     1       5.893   4.305   9.797  1.00  0.00     0.145 C 
HETATM   19  C1  UNL     1       5.560   5.032   8.523  1.00  0.00     0.042 C 
BRANCH  18  20
HETATM   20  O1  UNL     1       7.214   4.543  10.142  1.00  0.00    -0.393 OA
ATOM     21  H1  UNL     1       7.327   5.457  10.374  1.00  0.00     0.210 HD
ENDBRANCH  18  20
ENDBRANCH   1  18
BRANCH   7  22
HETATM   22  O5  UNL     1       3.910   2.636  10.933  1.00  0.00    -0.390 OA
ATOM     23  H5  UNL     1       3.534   1.967  11.494  1.00  0.00     0.210 HD
ENDBRANCH   7  22
TORSDOF 8
ENDMDL
MODEL 4
REMARK VINA RESULT: -4.211762913      3.316      5.252
REMARK  8 active torsions:
REMARK  status: ('A' for Active; 'I' for Inactive)
REMARK    1  A    between atoms: C2_2  and  O1_3 
REMARK    2  A    between atoms: C2_2  and  C3_5 
REMARK    3  A    between atoms: C5_8  and  N1_9 
REMARK    4  A    between atoms: N1_9  and  N2_11 
REMARK    5  A    between atoms: N2_11  and  N3_12 
REMARK    6  A    between atoms: C6_15  and  O3_16 
REMARK    7  A    between atoms: C7_18  and  O4_19 
REMARK    8  A    between atoms: C8_21  and  O5_22 
ROOT
HETATM    1  C3  UNL     1       2.592   1.631  15.519  1.00  0.00     0.181 C 
HETATM    2  O2  UNL     1       1.731   1.980  14.506  1.00  0.00    -0.378 OA
HETATM    3  C4  UNL     1       2.037   1.143  13.408  1.00  0.00     0.198 C 
HETATM    4  C5  UNL     1       1.193  -0.099  13.590  1.00  0.00     0.169 C 
HETATM    5  C6  UNL     1       1.647  -0.942  14.756  1.00  0.00     0.176 C 
HETATM    6  C7  UNL     1       1.226  -0.403  16.082  1.00  0.00     0.180 C 
HETATM    7  C8  UNL     1       1.983   0.772  16.567  1.00  0.00     0.180 C 
ENDROOT
BRANCH   4   8
HETATM    8  N1  UNL     1       1.338  -0.900  12.389  1.00  0.00    -0.243 N 
ATOM      9  H1  UNL     1       1.116  -0.488  11.483  1.00  0.00     0.197 HD
BRANCH   8  10
HETATM   10  N2  UNL     1       1.726  -2.075  12.443  1.00  0.00    -0.248 NA
BRANCH  10  11
HETATM   11  N3  UNL     1       2.154  -3.223  12.221  1.00  0.00    -0.261 N 
ATOM     12  H32 UNL     1       1.214  -3.562  12.019  1.00  0.00     0.193 HD
ATOM     13  H31 UNL     1       2.707  -4.069  12.089  1.00  0.00     0.193 HD
ENDBRANCH  10  11
ENDBRANCH   8  10
ENDBRANCH   4   8
BRANCH   5  14
HETATM   14  O3  UNL     1       2.994  -1.200  14.647  1.00  0.00    -0.391 OA
ATOM     15  H3  UNL     1       3.285  -1.709  15.394  1.00  0.00     0.210 HD
ENDBRANCH   5  14
BRANCH   6  16
HETATM   16  O4  UNL     1       1.426  -1.447  17.018  1.00  0.00    -0.390 OA
ATOM     17  H4  UNL     1       0.792  -1.310  17.712  1.00  0.00     0.210 HD
ENDBRANCH   6  16
BRANCH   1  18
HETATM   18  C2  UNL     1       3.037   2.934  16.191  1.00  0.00     0.145 C 
HETATM   19  C1  UNL     1       3.016   4.066  15.201  1.00  0.00     0.042 C 
BRANCH  18  20
HETATM   20  O1  UNL     1       2.224   3.239  17.271  1.00  0.00    -0.393 OA
ATOM     21  H1  UNL     1       2.667   3.016  18.081  1.00  0.00     0.210 HD
ENDBRANCH  18  20
ENDBRANCH   1  18
BRANCH   7  22
HETATM   22  O5  UNL     1       2.978   0.419  17.488  1.00  0.00    -0.390 OA
ATOM     23  H5  UNL     1       2.734   0.760  18.341  1.00  0.00     0.210 HD
ENDBRANCH   7  22
TORSDOF 8
ENDMDL
MODEL 5
REMARK VINA RESULT: -4.181019393      3.064      3.670
REMARK  8 active torsions:
REMARK  status: ('A' for Active; 'I' for Inactive)
REMARK    1  A    between atoms: C2_2  and  O1_3 
REMARK    2  A    between atoms: C2_2  and  C3_5 
REMARK    3  A    between atoms: C5_8  and  N1_9 
REMARK    4  A    between atoms: N1_9  and  N2_11 
REMARK    5  A    between atoms: N2_11  and  N3_12 
REMARK    6  A    between atoms: C6_15  and  O3_16 
REMARK    7  A    between atoms: C7_18  and  O4_19 
REMARK    8  A    between atoms: C8_21  and  O5_22 
ROOT
HETATM    1  C3  UNL     1       2.292   0.380  13.812  1.00  0.00     0.181 C 
HETATM    2  O2  UNL     1       3.428   0.759  14.488  1.00  0.00    -0.378 OA
HETATM    3  C4  UNL     1       4.136   1.633  13.631  1.00  0.00     0.198 C 
HETATM    4  C5  UNL     1       3.598   3.018  13.919  1.00  0.00     0.169 C 
HETATM    5  C6  UNL     1       2.179   3.198  13.440  1.00  0.00     0.176 C 
HETATM    6  C7  UNL     1       1.163   2.566  14.329  1.00  0.00     0.180 C 
HETATM    7  C8  UNL     1       1.062   1.092  14.243  1.00  0.00     0.180 C 
ENDROOT
BRANCH   4   8
HETATM    8  N1  UNL     1       4.427   3.963  13.196  1.00  0.00    -0.243 N 
ATOM      9  H1  UNL     1       4.777   4.791  13.677  1.00  0.00     0.197 HD
BRANCH   8  10
HETATM   10  N2  UNL     1       4.719   3.784  12.006  1.00  0.00    -0.248 NA
BRANCH  10  11
HETATM   11  N3  UNL     1       4.755   3.703  10.764  1.00  0.00    -0.261 N 
ATOM     12  H32 UNL     1       4.345   4.631  10.666  1.00  0.00     0.193 HD
ATOM     13  H31 UNL     1       4.874   3.430   9.788  1.00  0.00     0.193 HD
ENDBRANCH  10  11
ENDBRANCH   8  10
ENDBRANCH   4   8
BRANCH   5  14
HETATM   14  O3  UNL     1       2.084   2.833  12.117  1.00  0.00    -0.391 OA
ATOM     15  H3  UNL     1       2.949   2.644  11.773  1.00  0.00     0.210 HD
ENDBRANCH   5  14
BRANCH   6  16
HETATM   16  O4  UNL     1      -0.092   3.096  13.943  1.00  0.00    -0.390 OA
ATOM     17  H4  UNL     1      -0.167   3.943  14.367  1.00  0.00     0.210 HD
ENDBRANCH   6  16
BRANCH   1  18
HETATM   18  C2  UNL     1       2.086  -1.111  14.094  1.00  0.00     0.145 C 
HETATM   19  C1  UNL     1       1.851  -1.858  12.811  1.00  0.00     0.042 C 
BRANCH  18  20
HETATM   20  O1  UNL     1       3.179  -1.648  14.757  1.00  0.00    -0.393 OA
ATOM     21  H1  UNL     1       3.942  -1.101  14.614  1.00  0.00     0.210 HD
ENDBRANCH  18  20
ENDBRANCH   1  18
BRANCH   7  22
HETATM   22  O5  UNL     1       0.000   0.681  13.426  1.00  0.00    -0.390 OA
ATOM     23  H5  UNL     1      -0.660   1.364  13.421  1.00  0.00     0.210 HD
ENDBRANCH   7  22
TORSDOF 8
ENDMDL
