MODEL 1
REMARK VINA RESULT: -4.854119766      0.000      0.000
REMARK  7 active torsions:
REMARK  status: ('A' for Active; 'I' for Inactive)
REMARK    1  A    between atoms: C2_2  and  O1_4 
REMARK    2  A    between atoms: O1_4  and  C4_5 
REMARK    3  A    between atoms: C5_7  and  O3_8 
REMARK    4  A    between atoms: C6_10  and  C7_11 
REMARK    5  A    between atoms: C7_11  and  O4_13 
REMARK    6  A    between atoms: C9_15  and  O5_16 
REMARK    7  A    between atoms: C10_18  and  O6_19 
ROOT
HETATM    1  C4  UNL     1       1.543   0.483  14.881  1.00  0.00     0.300 C 
HETATM    2  O2  UNL     1       0.393  -0.011  15.424  1.00  0.00    -0.328 OA
HETATM    3  C5  UNL     1       0.496  -0.447  16.725  1.00  0.00     0.269 C 
HETATM    4  C6  UNL     1       0.775   0.750  17.601  1.00  0.00     0.101 C 
HETATM    5  C9  UNL     1       1.943   1.562  17.119  1.00  0.00     0.163 C 
HETATM    6  C10 UNL     1       2.517   1.073  15.818  1.00  0.00     0.203 C 
ENDROOT
BRANCH   1   7
HETATM    7  O1  UNL     1       2.168  -0.533  14.082  1.00  0.00    -0.323 OA
BRANCH   7   8
HETATM    8  C2  UNL     1       1.582  -0.994  12.915  1.00  0.00     0.036 C 
HETATM    9  C1  UNL     1       1.819  -2.238  12.540  1.00  0.00     0.045 C 
HETATM   10  C3  UNL     1       0.714  -0.106  12.116  1.00  0.00     0.075 C 
ENDBRANCH   7   8
ENDBRANCH   1   7
BRANCH   6  11
HETATM   11  O6  UNL     1       3.561   0.172  16.052  1.00  0.00    -0.388 OA
ATOM     12  H6  UNL     1       3.294  -0.475  16.694  1.00  0.00     0.210 HD
ENDBRANCH   6  11
BRANCH   3  13
HETATM   13  O3  UNL     1       1.363  -1.492  16.919  1.00  0.00    -0.371 OA
ATOM     14  H3  UNL     1       2.137  -1.478  16.369  1.00  0.00     0.212 HD
ENDBRANCH   3  13
BRANCH   5  15
HETATM   15  O5  UNL     1       1.582   2.920  16.973  1.00  0.00    -0.392 OA
ATOM     16  H5  UNL     1       0.825   3.008  16.405  1.00  0.00     0.210 HD
ENDBRANCH   5  15
BRANCH   4  17
HETATM   17  C7  UNL     1       1.019   0.366  19.035  1.00  0.00     0.125 C 
HETATM   18  C8  UNL     1       0.889   1.514  19.985  1.00  0.00     0.040 C 
BRANCH  17  19
HETATM   19  O4  UNL     1       2.311  -0.188  19.090  1.00  0.00    -0.395 OA
ATOM     20  H4  UNL     1       2.405  -0.738  18.320  1.00  0.00     0.210 HD
ENDBRANCH  17  19
ENDBRANCH   4  17
TORSDOF 7
ENDMDL
MODEL 2
REMARK VINA RESULT: -4.795366952      1.181      1.529
REMARK  7 active torsions:
REMARK  status: ('A' for Active; 'I' for Inactive)
REMARK    1  A    between atoms: C2_2  and  O1_4 
REMARK    2  A    between atoms: O1_4  and  C4_5 
REMARK    3  A    between atoms: C5_7  and  O3_8 
REMARK    4  A    between atoms: C6_10  and  C7_11 
REMARK    5  A    between atoms: C7_11  and  O4_13 
REMARK    6  A    between atoms: C9_15  and  O5_16 
REMARK    7  A    between atoms: C10_18  and  O6_19 
ROOT
HETATM    1  C4  UNL     1       0.845   0.955  15.323  1.00  0.00     0.300 C 
HETATM    2  O2  UNL     1      -0.173   1.189  16.201  1.00  0.00    -0.328 OA
HETATM    3  C5  UNL     1      -0.096   0.501  17.389  1.00  0.00     0.269 C 
HETATM    4  C6  UNL     1       1.106   1.007  18.149  1.00  0.00     0.101 C 
HETATM    5  C9  UNL     1       2.363   0.982  17.328  1.00  0.00     0.163 C 
HETATM    6  C10 UNL     1       2.141   0.560  15.903  1.00  0.00     0.203 C 
ENDROOT
BRANCH   1   7
HETATM    7  O1  UNL     1       0.419  -0.006  14.345  1.00  0.00    -0.323 OA
BRANCH   7   8
HETATM    8  C2  UNL     1       0.821   0.084  13.023  1.00  0.00     0.036 C 
HETATM    9  C1  UNL     1       0.845   1.274  12.451  1.00  0.00     0.045 C 
HETATM   10  C3  UNL     1       1.212  -1.132  12.280  1.00  0.00     0.075 C 
ENDBRANCH   7   8
ENDBRANCH   1   7
BRANCH   6  11
HETATM   11  O6  UNL     1       2.324  -0.821  15.768  1.00  0.00    -0.388 OA
ATOM     12  H6  UNL     1       3.043  -1.108  16.318  1.00  0.00     0.210 HD
ENDBRANCH   6  11
BRANCH   3  13
HETATM   13  O3  UNL     1      -0.144  -0.865  17.272  1.00  0.00    -0.371 OA
ATOM     14  H3  UNL     1      -0.219  -1.336  18.093  1.00  0.00     0.212 HD
ENDBRANCH   3  13
BRANCH   5  15
HETATM   15  O5  UNL     1       2.990   2.249  17.333  1.00  0.00    -0.392 OA
ATOM     16  H5  UNL     1       3.783   2.230  17.855  1.00  0.00     0.210 HD
ENDBRANCH   5  15
BRANCH   4  17
HETATM   17  C7  UNL     1       1.348   0.236  19.418  1.00  0.00     0.125 C 
HETATM   18  C8  UNL     1       2.214   0.964  20.396  1.00  0.00     0.040 C 
BRANCH  17  19
HETATM   19  O4  UNL     1       1.931  -0.988  19.042  1.00  0.00    -0.395 OA
ATOM     20  H4  UNL     1       2.027  -1.500  19.837  1.00  0.00     0.210 HD
ENDBRANCH  17  19
ENDBRANCH   4  17
TORSDOF 7
ENDMDL
MODEL 3
REMARK VINA RESULT: -4.735012848      0.820      1.212
REMARK  7 active torsions:
REMARK  status: ('A' for Active; 'I' for Inactive)
REMARK    1  A    between atoms: C2_2  and  O1_4 
REMARK    2  A    between atoms: O1_4  and  C4_5 
REMARK    3  A    between atoms: C5_7  and  O3_8 
REMARK    4  A    between atoms: C6_10  and  C7_11 
REMARK    5  A    between atoms: C7_11  and  O4_13 
REMARK    6  A    between atoms: C9_15  and  O5_16 
REMARK    7  A    between atoms: C10_18  and  O6_19 
ROOT
HETATM    1  C4  UNL     1       1.488   0.598  15.068  1.00  0.00     0.300 C 
HETATM    2  O2  UNL     1       0.307   0.055  15.482  1.00  0.00    -0.328 OA
HETATM    3  C5  UNL     1       0.271  -0.345  16.798  1.00  0.00     0.269 C 
HETATM    4  C6  UNL     1       0.381   0.885  17.665  1.00  0.00     0.101 C 
HETATM    5  C9  UNL     1       1.557   1.747  17.305  1.00  0.00     0.163 C 
HETATM    6  C10 UNL     1       2.309   1.260  16.098  1.00  0.00     0.203 C 
ENDROOT
BRANCH   1   7
HETATM    7  O1  UNL     1       2.256  -0.401  14.380  1.00  0.00    -0.323 OA
BRANCH   7   8
HETATM    8  C2  UNL     1       1.790  -0.999  13.222  1.00  0.00     0.036 C 
HETATM    9  C1  UNL     1       1.082  -0.271  12.377  1.00  0.00     0.045 C 
HETATM   10  C3  UNL     1       2.083  -2.421  12.947  1.00  0.00     0.075 C 
ENDBRANCH   7   8
ENDBRANCH   1   7
BRANCH   6  11
HETATM   11  O6  UNL     1       3.361   0.422  16.483  1.00  0.00    -0.388 OA
ATOM     12  H6  UNL     1       3.669   0.664  17.348  1.00  0.00     0.210 HD
ENDBRANCH   6  11
BRANCH   3  13
HETATM   13  O3  UNL     1       1.160  -1.337  17.126  1.00  0.00    -0.371 OA
ATOM     14  H3  UNL     1       0.774  -2.197  17.245  1.00  0.00     0.212 HD
ENDBRANCH   3  13
BRANCH   5  15
HETATM   15  O5  UNL     1       1.148   3.081  17.077  1.00  0.00    -0.392 OA
ATOM     16  H5  UNL     1       0.713   3.160  16.236  1.00  0.00     0.210 HD
ENDBRANCH   5  15
BRANCH   4  17
HETATM   17  C7  UNL     1       0.467   0.548  19.129  1.00  0.00     0.125 C 
HETATM   18  C8  UNL     1       1.871   0.395  19.620  1.00  0.00     0.040 C 
BRANCH  17  19
HETATM   19  O4  UNL     1      -0.263  -0.641  19.313  1.00  0.00    -0.395 OA
ATOM     20  H4  UNL     1      -0.066  -0.949  20.190  1.00  0.00     0.210 HD
ENDBRANCH  17  19
ENDBRANCH   4  17
TORSDOF 7
ENDMDL
MODEL 4
REMARK VINA RESULT: -4.605334764      5.553      7.693
REMARK  7 active torsions:
REMARK  status: ('A' for Active; 'I' for Inactive)
REMARK    1  A    between atoms: C2_2  and  O1_4 
REMARK    2  A    between atoms: O1_4  and  C4_5 
REMARK    3  A    between atoms: C5_7  and  O3_8 
REMARK    4  A    between atoms: C6_10  and  C7_11 
REMARK    5  A    between atoms: C7_11  and  O4_13 
REMARK    6  A    between atoms: C9_15  and  O5_16 
REMARK    7  A    between atoms: C10_18  and  O6_19 
ROOT
HETATM    1  C4  UNL     1       4.455   3.058  12.944  1.00  0.00     0.300 C 
HETATM    2  O2  UNL     1       5.308   2.558  12.004  1.00  0.00    -0.328 OA
HETATM    3  C5  UNL     1       5.093   3.000  10.719  1.00  0.00     0.269 C 
HETATM    4  C6  UNL     1       5.396   4.477  10.674  1.00  0.00     0.101 C 
HETATM    5  C9  UNL     1       4.666   5.253  11.732  1.00  0.00     0.163 C 
HETATM    6  C10 UNL     1       3.875   4.386  12.672  1.00  0.00     0.203 C 
ENDROOT
BRANCH   1   7
HETATM    7  O1  UNL     1       3.417   2.101  13.204  1.00  0.00    -0.323 OA
BRANCH   7   8
HETATM    8  C2  UNL     1       3.341   1.430  14.412  1.00  0.00     0.036 C 
HETATM    9  C1  UNL     1       2.389   1.770  15.263  1.00  0.00     0.045 C 
HETATM   10  C3  UNL     1       4.307   0.359  14.732  1.00  0.00     0.075 C 
ENDBRANCH   7   8
ENDBRANCH   1   7
BRANCH   6  11
HETATM   11  O6  UNL     1       2.558   4.249  12.219  1.00  0.00    -0.388 OA
ATOM     12  H6  UNL     1       2.096   5.073  12.311  1.00  0.00     0.210 HD
ENDBRANCH   6  11
BRANCH   3  13
HETATM   13  O3  UNL     1       3.873   2.667  10.188  1.00  0.00    -0.371 OA
ATOM     14  H3  UNL     1       3.407   3.383   9.773  1.00  0.00     0.212 HD
ENDBRANCH   3  13
BRANCH   5  15
HETATM   15  O5  UNL     1       5.566   6.037  12.489  1.00  0.00    -0.392 OA
ATOM     16  H5  UNL     1       5.530   6.947  12.216  1.00  0.00     0.210 HD
ENDBRANCH   5  15
BRANCH   4  17
HETATM   17  C7  UNL     1       5.082   5.086   9.334  1.00  0.00     0.125 C 
HETATM   18  C8  UNL     1       6.177   4.907   8.331  1.00  0.00     0.040 C 
BRANCH  17  19
HETATM   19  O4  UNL     1       4.825   6.451   9.561  1.00  0.00    -0.395 OA
ATOM     20  H4  UNL     1       4.073   6.494  10.141  1.00  0.00     0.210 HD
ENDBRANCH  17  19
ENDBRANCH   4  17
TORSDOF 7
ENDMDL
MODEL 5
REMARK VINA RESULT: -4.522801696      1.157      2.626
REMARK  7 active torsions:
REMARK  status: ('A' for Active; 'I' for Inactive)
REMARK    1  A    between atoms: C2_2  and  O1_4 
REMARK    2  A    between atoms: O1_4  and  C4_5 
REMARK    3  A    between atoms: C5_7  and  O3_8 
REMARK    4  A    between atoms: C6_10  and  C7_11 
REMARK    5  A    between atoms: C7_11  and  O4_13 
REMARK    6  A    between atoms: C9_15  and  O5_16 
REMARK    7  A    between atoms: C10_18  and  O6_19 
ROOT
HETATM    1  C4  UNL     1       1.756  -0.268  15.772  1.00  0.00     0.300 C 
HETATM    2  O2  UNL     1       2.655   0.742  15.960  1.00  0.00    -0.328 OA
HETATM    3  C5  UNL     1       2.218   1.779  16.751  1.00  0.00     0.269 C 
HETATM    4  C6  UNL     1       2.028   1.254  18.153  1.00  0.00     0.101 C 
HETATM    5  C9  UNL     1       1.166   0.025  18.200  1.00  0.00     0.163 C 
HETATM    6  C10 UNL     1       0.764  -0.478  16.842  1.00  0.00     0.203 C 
ENDROOT
BRANCH   1   7
HETATM    7  O1  UNL     1       1.101  -0.093  14.507  1.00  0.00    -0.323 OA
BRANCH   7   8
HETATM    8  C2  UNL     1       1.459  -0.843  13.400  1.00  0.00     0.036 C 
HETATM    9  C1  UNL     1       1.028  -0.459  12.212  1.00  0.00     0.045 C 
HETATM   10  C3  UNL     1       2.304  -2.045  13.556  1.00  0.00     0.075 C 
ENDBRANCH   7   8
ENDBRANCH   1   7
BRANCH   6  11
HETATM   11  O6  UNL     1      -0.469   0.067  16.464  1.00  0.00    -0.388 OA
ATOM     12  H6  UNL     1      -1.045   0.118  17.217  1.00  0.00     0.210 HD
ENDBRANCH   6  11
BRANCH   3  13
HETATM   13  O3  UNL     1       1.134   2.464  16.262  1.00  0.00    -0.371 OA
ATOM     14  H3  UNL     1       1.331   3.091  15.577  1.00  0.00     0.212 HD
ENDBRANCH   3  13
BRANCH   5  15
HETATM   15  O5  UNL     1       1.819  -1.019  18.894  1.00  0.00    -0.392 OA
ATOM     16  H5  UNL     1       2.033  -1.732  18.304  1.00  0.00     0.210 HD
ENDBRANCH   5  15
BRANCH   4  17
HETATM   17  C7  UNL     1       1.440   2.285  19.077  1.00  0.00     0.125 C 
HETATM   18  C8  UNL     1       1.797   2.066  20.512  1.00  0.00     0.040 C 
BRANCH  17  19
HETATM   19  O4  UNL     1       0.046   2.244  18.893  1.00  0.00    -0.395 OA
ATOM     20  H4  UNL     1      -0.344   2.596  19.685  1.00  0.00     0.210 HD
ENDBRANCH  17  19
ENDBRANCH   4  17
TORSDOF 7
ENDMDL
