MODEL 1
REMARK VINA RESULT: -8.996419046      0.000      0.000
REMARK  6 active torsions:
REMARK  status: ('A' for Active; 'I' for Inactive)
REMARK    1  A    between atoms: C4_4  and  C5_5 
REMARK    2  A    between atoms: C5_5  and  C6_6 
REMARK    3  A    between atoms: C9_13  and  N4_14 
REMARK       I    between atoms: N4_14  and  C10_16 
REMARK       I    between atoms: C10_16  and  N5_17 
REMARK       I    between atoms: C10_16  and  N6_21 
REMARK    4  A    between atoms: N8_28  and  C12_29 
REMARK    5  A    between atoms: C12_29  and  O1_30 
REMARK    6  A    between atoms: O1_30  and  C13_31 
ROOT
HETATM    1  C13 UNL     1      12.542  19.787  31.330  1.00  0.00     0.444 C 
HETATM    2  O2  UNL     1      12.382  19.228  30.185  1.00  0.00    -0.221 OA
HETATM    3  N9  UNL     1      11.548  20.514  31.957  1.00  0.00    -0.370 NA
HETATM    4  C14 UNL     1      10.582  21.220  32.568  1.00  0.00     0.235 C 
ENDROOT
BRANCH   1   5
HETATM    5  O1  UNL     1      13.784  19.593  31.864  1.00  0.00    -0.243 OA
BRANCH   5   6
HETATM    6  C12 UNL     1      14.855  20.373  32.144  1.00  0.00     0.265 C 
BRANCH   6   7
HETATM    7  N8  UNL     1      15.819  19.863  33.107  1.00  0.00    -0.245 N 
HETATM    8  C3  UNL     1      17.162  19.710  33.052  1.00  0.00     0.065 A 
HETATM    9  C2  UNL     1      17.922  20.143  32.065  1.00  0.00     0.001 C 
HETATM   10  C4  UNL     1      17.552  19.084  34.216  1.00  0.00     0.010 A 
HETATM   11  C1  UNL     1      19.366  20.092  31.912  1.00  0.00     0.038 C 
HETATM   12  C11 UNL     1      16.371  18.883  34.957  1.00  0.00     0.121 A 
HETATM   13  N7  UNL     1      15.364  19.359  34.264  1.00  0.00    -0.303 N 
ATOM     14  H7  UNL     1      14.387  19.347  34.560  1.00  0.00     0.186 HD
BRANCH  10  15
HETATM   15  C5  UNL     1      18.741  18.718  34.658  1.00  0.00     0.034 C 
BRANCH  15  16
HETATM   16  C6  UNL     1      19.062  17.278  34.693  1.00  0.00     0.053 A 
HETATM   17  C7  UNL     1      19.493  16.685  35.899  1.00  0.00     0.146 A 
HETATM   18  N1  UNL     1      19.617  17.362  37.134  1.00  0.00    -0.080 NA
HETATM   19  N2  UNL     1      19.717  15.414  35.581  1.00  0.00    -0.281 N 
HETATM   20  C8  UNL     1      20.195  14.439  36.568  1.00  0.00     0.179 C 
HETATM   21  N3  UNL     1      19.466  15.179  34.322  1.00  0.00    -0.282 N 
HETATM   22  C9  UNL     1      19.035  16.361  33.699  1.00  0.00     0.132 A 
ATOM     23  H3  UNL     1      19.568  14.275  33.861  1.00  0.00     0.189 HD
BRANCH  22  24
HETATM   24  N4  UNL     1      18.704  16.381  32.486  1.00  0.00    -0.325 N 
HETATM   25  C10 UNL     1      19.317  15.975  31.308  1.00  0.00     0.481 C 
HETATM   26  N5  UNL     1      19.546  14.571  31.165  1.00  0.00    -0.033 N 
HETATM   27  N6  UNL     1      20.510  16.772  31.020  1.00  0.00    -0.033 N 
ATOM     28  H53 UNL     1      20.075  14.224  31.965  1.00  0.00     0.278 HD
ATOM     29  H52 UNL     1      18.669  14.065  31.290  1.00  0.00     0.278 HD
ATOM     30  H51 UNL     1      19.996  14.273  30.299  1.00  0.00     0.278 HD
ATOM     31  H63 UNL     1      20.298  17.770  31.005  1.00  0.00     0.278 HD
ATOM     32  H62 UNL     1      21.164  16.761  31.803  1.00  0.00     0.278 HD
ATOM     33  H61 UNL     1      20.960  16.474  30.154  1.00  0.00     0.278 HD
ATOM     34  H4  UNL     1      17.781  16.786  32.334  1.00  0.00     0.165 HD
ENDBRANCH  22  24
ENDBRANCH  15  16
ENDBRANCH  10  15
ENDBRANCH   6   7
ENDBRANCH   5   6
ENDBRANCH   1   5
TORSDOF 5
ENDMDL
MODEL 2
REMARK VINA RESULT: -8.897313874      3.938      6.170
REMARK  6 active torsions:
REMARK  status: ('A' for Active; 'I' for Inactive)
REMARK    1  A    between atoms: C4_4  and  C5_5 
REMARK    2  A    between atoms: C5_5  and  C6_6 
REMARK    3  A    between atoms: C9_13  and  N4_14 
REMARK       I    between atoms: N4_14  and  C10_16 
REMARK       I    between atoms: C10_16  and  N5_17 
REMARK       I    between atoms: C10_16  and  N6_21 
REMARK    4  A    between atoms: N8_28  and  C12_29 
REMARK    5  A    between atoms: C12_29  and  O1_30 
REMARK    6  A    between atoms: O1_30  and  C13_31 
ROOT
HETATM    1  C13 UNL     1      17.173  16.179  35.629  1.00  0.00     0.444 C 
HETATM    2  O2  UNL     1      16.073  16.135  36.290  1.00  0.00    -0.221 OA
HETATM    3  N9  UNL     1      18.402  15.903  36.197  1.00  0.00    -0.370 NA
HETATM    4  C14 UNL     1      19.598  15.635  36.748  1.00  0.00     0.235 C 
ENDROOT
BRANCH   1   5
HETATM    5  O1  UNL     1      17.009  16.521  34.317  1.00  0.00    -0.243 OA
BRANCH   5   6
HETATM    6  C12 UNL     1      17.538  16.125  33.135  1.00  0.00     0.265 C 
BRANCH   6   7
HETATM    7  N8  UNL     1      18.925  16.473  32.873  1.00  0.00    -0.245 N 
HETATM    8  C3  UNL     1      19.495  17.550  32.284  1.00  0.00     0.065 A 
HETATM    9  C2  UNL     1      18.837  18.629  31.909  1.00  0.00     0.001 C 
HETATM   10  C4  UNL     1      20.850  17.311  32.213  1.00  0.00     0.010 A 
HETATM   11  C1  UNL     1      19.331  19.864  31.322  1.00  0.00     0.038 C 
HETATM   12  C11 UNL     1      21.047  16.043  32.794  1.00  0.00     0.121 A 
HETATM   13  N7  UNL     1      19.880  15.579  33.173  1.00  0.00    -0.303 N 
ATOM     14  H7  UNL     1      19.723  14.678  33.626  1.00  0.00     0.186 HD
BRANCH  10  15
HETATM   15  C5  UNL     1      21.844  18.040  31.741  1.00  0.00     0.034 C 
BRANCH  15  16
HETATM   16  C6  UNL     1      22.750  18.696  32.704  1.00  0.00     0.053 A 
HETATM   17  C7  UNL     1      24.133  18.413  32.670  1.00  0.00     0.146 A 
HETATM   18  N1  UNL     1      24.760  17.553  31.740  1.00  0.00    -0.080 NA
HETATM   19  N2  UNL     1      24.641  19.134  33.666  1.00  0.00    -0.281 N 
HETATM   20  C8  UNL     1      26.074  19.117  33.983  1.00  0.00     0.179 C 
HETATM   21  N3  UNL     1      23.721  19.817  34.288  1.00  0.00    -0.282 N 
HETATM   22  C9  UNL     1      22.470  19.568  33.699  1.00  0.00     0.132 A 
ATOM     23  H3  UNL     1      23.884  20.437  35.081  1.00  0.00     0.189 HD
BRANCH  22  24
HETATM   24  N4  UNL     1      21.427  20.138  34.108  1.00  0.00    -0.325 N 
HETATM   25  C10 UNL     1      20.700  20.097  35.292  1.00  0.00     0.481 C 
HETATM   26  N5  UNL     1      21.362  20.594  36.458  1.00  0.00    -0.033 N 
HETATM   27  N6  UNL     1      20.094  18.782  35.505  1.00  0.00    -0.033 N 
ATOM     28  H53 UNL     1      22.252  20.109  36.582  1.00  0.00     0.278 HD
ATOM     29  H52 UNL     1      21.692  21.544  36.288  1.00  0.00     0.278 HD
ATOM     30  H51 UNL     1      20.829  20.563  37.327  1.00  0.00     0.278 HD
ATOM     31  H63 UNL     1      19.524  18.500  34.708  1.00  0.00     0.278 HD
ATOM     32  H62 UNL     1      20.793  18.040  35.471  1.00  0.00     0.278 HD
ATOM     33  H61 UNL     1      19.561  18.752  36.374  1.00  0.00     0.278 HD
ATOM     34  H4  UNL     1      21.024  20.771  33.418  1.00  0.00     0.165 HD
ENDBRANCH  22  24
ENDBRANCH  15  16
ENDBRANCH  10  15
ENDBRANCH   6   7
ENDBRANCH   5   6
ENDBRANCH   1   5
TORSDOF 5
ENDMDL
MODEL 3
REMARK VINA RESULT: -8.858379974      1.941      2.838
REMARK  6 active torsions:
REMARK  status: ('A' for Active; 'I' for Inactive)
REMARK    1  A    between atoms: C4_4  and  C5_5 
REMARK    2  A    between atoms: C5_5  and  C6_6 
REMARK    3  A    between atoms: C9_13  and  N4_14 
REMARK       I    between atoms: N4_14  and  C10_16 
REMARK       I    between atoms: C10_16  and  N5_17 
REMARK       I    between atoms: C10_16  and  N6_21 
REMARK    4  A    between atoms: N8_28  and  C12_29 
REMARK    5  A    between atoms: C12_29  and  O1_30 
REMARK    6  A    between atoms: O1_30  and  C13_31 
ROOT
HETATM    1  C13 UNL     1      12.955  19.792  31.245  1.00  0.00     0.444 C 
HETATM    2  O2  UNL     1      12.806  18.852  30.384  1.00  0.00    -0.221 OA
HETATM    3  N9  UNL     1      11.892  20.416  31.870  1.00  0.00    -0.370 NA
HETATM    4  C14 UNL     1      10.860  21.023  32.479  1.00  0.00     0.235 C 
ENDROOT
BRANCH   1   5
HETATM    5  O1  UNL     1      14.262  20.113  31.482  1.00  0.00    -0.243 OA
BRANCH   5   6
HETATM    6  C12 UNL     1      14.922  20.945  32.322  1.00  0.00     0.265 C 
BRANCH   6   7
HETATM    7  N8  UNL     1      16.198  20.487  32.849  1.00  0.00    -0.245 N 
HETATM    8  C3  UNL     1      16.513  19.637  33.853  1.00  0.00     0.065 A 
HETATM    9  C2  UNL     1      15.635  18.916  34.522  1.00  0.00     0.001 C 
HETATM   10  C4  UNL     1      17.884  19.645  33.984  1.00  0.00     0.010 A 
HETATM   11  C1  UNL     1      15.844  17.934  35.573  1.00  0.00     0.038 C 
HETATM   12  C11 UNL     1      18.358  20.539  33.004  1.00  0.00     0.121 A 
HETATM   13  N7  UNL     1      17.326  21.018  32.351  1.00  0.00    -0.303 N 
ATOM     14  H7  UNL     1      17.374  21.690  31.584  1.00  0.00     0.186 HD
BRANCH  10  15
HETATM   15  C5  UNL     1      18.691  18.991  34.801  1.00  0.00     0.034 C 
BRANCH  15  16
HETATM   16  C6  UNL     1      20.056  18.680  34.336  1.00  0.00     0.053 A 
HETATM   17  C7  UNL     1      21.149  19.433  34.819  1.00  0.00     0.146 A 
HETATM   18  N1  UNL     1      21.057  20.474  35.770  1.00  0.00    -0.080 NA
HETATM   19  N2  UNL     1      22.205  18.921  34.192  1.00  0.00    -0.281 N 
HETATM   20  C8  UNL     1      23.561  19.435  34.410  1.00  0.00     0.179 C 
HETATM   21  N3  UNL     1      21.867  17.947  33.392  1.00  0.00    -0.282 N 
HETATM   22  C9  UNL     1      20.478  17.749  33.450  1.00  0.00     0.132 A 
ATOM     23  H3  UNL     1      22.513  17.411  32.813  1.00  0.00     0.189 HD
BRANCH  22  24
HETATM   24  N4  UNL     1      19.915  16.842  32.786  1.00  0.00    -0.325 N 
HETATM   25  C10 UNL     1      19.480  15.555  33.077  1.00  0.00     0.481 C 
HETATM   26  N5  UNL     1      18.413  15.448  34.023  1.00  0.00    -0.033 N 
HETATM   27  N6  UNL     1      20.600  14.666  33.389  1.00  0.00    -0.033 N 
ATOM     28  H53 UNL     1      18.667  15.930  34.886  1.00  0.00     0.278 HD
ATOM     29  H52 UNL     1      17.624  16.018  33.718  1.00  0.00     0.278 HD
ATOM     30  H51 UNL     1      18.093  14.503  34.237  1.00  0.00     0.278 HD
ATOM     31  H63 UNL     1      21.294  14.665  32.641  1.00  0.00     0.278 HD
ATOM     32  H62 UNL     1      21.178  15.044  34.140  1.00  0.00     0.278 HD
ATOM     33  H61 UNL     1      20.280  13.722  33.603  1.00  0.00     0.278 HD
ATOM     34  H4  UNL     1      19.740  17.110  31.817  1.00  0.00     0.165 HD
ENDBRANCH  22  24
ENDBRANCH  15  16
ENDBRANCH  10  15
ENDBRANCH   6   7
ENDBRANCH   5   6
ENDBRANCH   1   5
TORSDOF 5
ENDMDL
MODEL 4
REMARK VINA RESULT: -8.734473093      2.256      3.979
REMARK  6 active torsions:
REMARK  status: ('A' for Active; 'I' for Inactive)
REMARK    1  A    between atoms: C4_4  and  C5_5 
REMARK    2  A    between atoms: C5_5  and  C6_6 
REMARK    3  A    between atoms: C9_13  and  N4_14 
REMARK       I    between atoms: N4_14  and  C10_16 
REMARK       I    between atoms: C10_16  and  N5_17 
REMARK       I    between atoms: C10_16  and  N6_21 
REMARK    4  A    between atoms: N8_28  and  C12_29 
REMARK    5  A    between atoms: C12_29  and  O1_30 
REMARK    6  A    between atoms: O1_30  and  C13_31 
ROOT
HETATM    1  C13 UNL     1      13.300  19.875  31.648  1.00  0.00     0.444 C 
HETATM    2  O2  UNL     1      13.390  18.961  30.751  1.00  0.00    -0.221 OA
HETATM    3  N9  UNL     1      12.099  20.454  32.012  1.00  0.00    -0.370 NA
HETATM    4  C14 UNL     1      10.933  21.018  32.368  1.00  0.00     0.235 C 
ENDROOT
BRANCH   1   5
HETATM    5  O1  UNL     1      14.500  20.215  32.204  1.00  0.00    -0.243 OA
BRANCH   5   6
HETATM    6  C12 UNL     1      15.262  19.760  33.228  1.00  0.00     0.265 C 
BRANCH   6   7
HETATM    7  N8  UNL     1      16.495  19.070  32.887  1.00  0.00    -0.245 N 
HETATM    8  C3  UNL     1      17.133  18.019  33.453  1.00  0.00     0.065 A 
HETATM    9  C2  UNL     1      16.644  17.294  34.440  1.00  0.00     0.001 C 
HETATM   10  C4  UNL     1      18.319  17.845  32.775  1.00  0.00     0.010 A 
HETATM   11  C1  UNL     1      17.196  16.119  35.093  1.00  0.00     0.038 C 
HETATM   12  C11 UNL     1      18.343  18.841  31.780  1.00  0.00     0.121 A 
HETATM   13  N7  UNL     1      17.242  19.548  31.880  1.00  0.00    -0.303 N 
ATOM     14  H7  UNL     1      16.993  20.339  31.285  1.00  0.00     0.186 HD
BRANCH  10  15
HETATM   15  C5  UNL     1      19.292  16.963  32.922  1.00  0.00     0.034 C 
BRANCH  15  16
HETATM   16  C6  UNL     1      20.660  17.463  33.160  1.00  0.00     0.053 A 
HETATM   17  C7  UNL     1      21.620  17.395  32.128  1.00  0.00     0.146 A 
HETATM   18  N1  UNL     1      21.374  16.907  30.824  1.00  0.00    -0.080 NA
HETATM   19  N2  UNL     1      22.726  17.893  32.673  1.00  0.00    -0.281 N 
HETATM   20  C8  UNL     1      23.983  17.995  31.922  1.00  0.00     0.179 C 
HETATM   21  N3  UNL     1      22.536  18.252  33.912  1.00  0.00    -0.282 N 
HETATM   22  C9  UNL     1      21.204  17.994  34.279  1.00  0.00     0.132 A 
ATOM     23  H3  UNL     1      23.245  18.658  34.522  1.00  0.00     0.189 HD
BRANCH  22  24
HETATM   24  N4  UNL     1      20.770  18.284  35.422  1.00  0.00    -0.325 N 
HETATM   25  C10 UNL     1      20.297  19.449  36.012  1.00  0.00     0.481 C 
HETATM   26  N5  UNL     1      19.083  19.981  35.477  1.00  0.00    -0.033 N 
HETATM   27  N6  UNL     1      21.351  20.458  36.131  1.00  0.00    -0.033 N 
ATOM     28  H53 UNL     1      19.181  20.120  34.471  1.00  0.00     0.278 HD
ATOM     29  H52 UNL     1      18.356  19.266  35.495  1.00  0.00     0.278 HD
ATOM     30  H51 UNL     1      18.736  20.837  35.911  1.00  0.00     0.278 HD
ATOM     31  H63 UNL     1      22.164  20.092  36.627  1.00  0.00     0.278 HD
ATOM     32  H62 UNL     1      21.787  20.647  35.228  1.00  0.00     0.278 HD
ATOM     33  H61 UNL     1      21.003  21.313  36.564  1.00  0.00     0.278 HD
ATOM     34  H4  UNL     1      20.764  17.486  36.058  1.00  0.00     0.165 HD
ENDBRANCH  22  24
ENDBRANCH  15  16
ENDBRANCH  10  15
ENDBRANCH   6   7
ENDBRANCH   5   6
ENDBRANCH   1   5
TORSDOF 5
ENDMDL
MODEL 5
REMARK VINA RESULT: -8.694276922      1.846      2.590
REMARK  6 active torsions:
REMARK  status: ('A' for Active; 'I' for Inactive)
REMARK    1  A    between atoms: C4_4  and  C5_5 
REMARK    2  A    between atoms: C5_5  and  C6_6 
REMARK    3  A    between atoms: C9_13  and  N4_14 
REMARK       I    between atoms: N4_14  and  C10_16 
REMARK       I    between atoms: C10_16  and  N5_17 
REMARK       I    between atoms: C10_16  and  N6_21 
REMARK    4  A    between atoms: N8_28  and  C12_29 
REMARK    5  A    between atoms: C12_29  and  O1_30 
REMARK    6  A    between atoms: O1_30  and  C13_31 
ROOT
HETATM    1  C13 UNL     1      13.283  19.551  31.402  1.00  0.00     0.444 C 
HETATM    2  O2  UNL     1      13.143  18.745  30.413  1.00  0.00    -0.221 OA
HETATM    3  N9  UNL     1      12.239  20.292  31.922  1.00  0.00    -0.370 NA
HETATM    4  C14 UNL     1      11.225  21.013  32.427  1.00  0.00     0.235 C 
ENDROOT
BRANCH   1   5
HETATM    5  O1  UNL     1      14.558  19.602  31.889  1.00  0.00    -0.243 OA
BRANCH   5   6
HETATM    6  C12 UNL     1      15.321  20.524  32.523  1.00  0.00     0.265 C 
BRANCH   6   7
HETATM    7  N8  UNL     1      16.571  20.067  33.109  1.00  0.00    -0.245 N 
HETATM    8  C3  UNL     1      16.842  19.348  34.223  1.00  0.00     0.065 A 
HETATM    9  C2  UNL     1      15.926  18.781  34.985  1.00  0.00     0.001 C 
HETATM   10  C4  UNL     1      18.212  19.290  34.353  1.00  0.00     0.010 A 
HETATM   11  C1  UNL     1      16.083  17.944  36.162  1.00  0.00     0.038 C 
HETATM   12  C11 UNL     1      18.731  20.008  33.258  1.00  0.00     0.121 A 
HETATM   13  N7  UNL     1      17.726  20.454  32.544  1.00  0.00    -0.303 N 
ATOM     14  H7  UNL     1      17.808  21.008  31.691  1.00  0.00     0.186 HD
BRANCH  10  15
HETATM   15  C5  UNL     1      18.983  18.708  35.253  1.00  0.00     0.034 C 
BRANCH  15  16
HETATM   16  C6  UNL     1      20.167  17.962  34.784  1.00  0.00     0.053 A 
HETATM   17  C7  UNL     1      21.437  18.579  34.806  1.00  0.00     0.146 A 
HETATM   18  N1  UNL     1      21.696  19.883  35.287  1.00  0.00    -0.080 NA
HETATM   19  N2  UNL     1      22.258  17.661  34.303  1.00  0.00    -0.281 N 
HETATM   20  C8  UNL     1      23.695  17.909  34.142  1.00  0.00     0.179 C 
HETATM   21  N3  UNL     1      21.623  16.565  33.987  1.00  0.00    -0.282 N 
HETATM   22  C9  UNL     1      20.257  16.710  34.282  1.00  0.00     0.132 A 
ATOM     23  H3  UNL     1      22.053  15.732  33.586  1.00  0.00     0.189 HD
BRANCH  22  24
HETATM   24  N4  UNL     1      19.442  15.772  34.091  1.00  0.00    -0.325 N 
HETATM   25  C10 UNL     1      18.751  15.299  32.982  1.00  0.00     0.481 C 
HETATM   26  N5  UNL     1      19.546  14.749  31.929  1.00  0.00    -0.033 N 
HETATM   27  N6  UNL     1      17.776  16.278  32.499  1.00  0.00    -0.033 N 
ATOM     28  H53 UNL     1      20.247  15.429  31.634  1.00  0.00     0.278 HD
ATOM     29  H52 UNL     1      20.147  14.013  32.301  1.00  0.00     0.278 HD
ATOM     30  H51 UNL     1      19.038  14.401  31.115  1.00  0.00     0.278 HD
ATOM     31  H63 UNL     1      17.138  16.567  33.241  1.00  0.00     0.278 HD
ATOM     32  H62 UNL     1      18.216  17.179  32.308  1.00  0.00     0.278 HD
ATOM     33  H61 UNL     1      17.269  15.931  31.685  1.00  0.00     0.278 HD
ATOM     34  H4  UNL     1      19.243  15.241  34.938  1.00  0.00     0.165 HD
ENDBRANCH  22  24
ENDBRANCH  15  16
ENDBRANCH  10  15
ENDBRANCH   6   7
ENDBRANCH   5   6
ENDBRANCH   1   5
TORSDOF 5
ENDMDL
