MODEL 1
REMARK VINA RESULT: -9.324203515      0.000      0.000
REMARK  5 active torsions:
REMARK  status: ('A' for Active; 'I' for Inactive)
REMARK    1  A    between atoms: N1_2  and  C2_4 
REMARK    2  A    between atoms: N3_7  and  C3_8 
REMARK    3  A    between atoms: C4_9  and  N4_10 
REMARK    4  A    between atoms: C9_24  and  C10_25 
REMARK       I    between atoms: C10_25  and  N8_27 
REMARK    5  A    between atoms: N8_27  and  C11_29 
ROOT
HETATM    1  C2  UNL     1      18.427  19.869  32.542  1.00  0.00     0.137 A 
HETATM    2  N2  UNL     1      19.256  18.797  32.842  1.00  0.00    -0.278 N 
ATOM      3  H2  UNL     1      20.261  18.889  32.994  1.00  0.00     0.189 HD
HETATM    4  N3  UNL     1      18.630  17.680  32.909  1.00  0.00    -0.259 N 
HETATM    5  C8  UNL     1      17.339  17.932  32.656  1.00  0.00     0.138 A 
HETATM    6  C9  UNL     1      17.178  19.307  32.421  1.00  0.00     0.095 A 
ENDROOT
BRANCH   4   7
HETATM    7  C3  UNL     1      19.153  16.363  33.183  1.00  0.00     0.129 A 
HETATM    8  C4  UNL     1      18.813  15.675  34.320  1.00  0.00     0.219 A 
HETATM    9  N5  UNL     1      19.352  14.428  34.488  1.00  0.00    -0.169 N 
HETATM   10  C5  UNL     1      20.184  13.881  33.590  1.00  0.00     0.677 A 
ATOM     11  H5  UNL     1      19.112  13.896  35.325  1.00  0.00     0.186 HD
HETATM   12  N6  UNL     1      20.672  12.696  33.790  1.00  0.00    -0.234 N 
HETATM   13  N7  UNL     1      20.490  14.594  32.487  1.00  0.00    -0.194 N 
ATOM     14  H62 UNL     1      20.440  12.157  34.625  1.00  0.00     0.174 HD
ATOM     15  H61 UNL     1      21.306  12.281  33.107  1.00  0.00     0.174 HD
HETATM   16  C6  UNL     1      20.006  15.812  32.253  1.00  0.00     0.055 A 
ATOM     17  H7  UNL     1      21.122  14.182  31.801  1.00  0.00     0.184 HD
HETATM   18  C7  UNL     1      20.347  16.574  31.052  1.00  0.00     0.071 C 
BRANCH   8  19
HETATM   19  N4  UNL     1      17.934  16.215  35.292  1.00  0.00    -0.095 N 
HETATM   20  O1  UNL     1      18.262  17.096  36.103  1.00  0.00    -0.530 OA
HETATM   21  O2  UNL     1      16.652  15.749  35.348  1.00  0.00    -0.530 OA
ENDBRANCH   8  19
ENDBRANCH   4   7
BRANCH   1  22
HETATM   22  N1  UNL     1      18.839  21.045  32.432  1.00  0.00    -0.360 N 
HETATM   23  C1  UNL     1      19.828  21.880  32.067  1.00  0.00     0.120 C 
ATOM     24  H1  UNL     1      18.085  21.640  32.775  1.00  0.00     0.165 HD
ENDBRANCH   1  22
BRANCH   6  25
HETATM   25  C10 UNL     1      15.921  19.941  32.113  1.00  0.00     0.275 C 
HETATM   26  O3  UNL     1      15.647  21.104  32.427  1.00  0.00    -0.267 OA
HETATM   27  N8  UNL     1      14.925  19.213  31.411  1.00  0.00    -0.152 N 
ATOM     28  H8  UNL     1      15.199  18.391  30.872  1.00  0.00     0.187 HD
BRANCH  27  29
HETATM   29  C11 UNL     1      13.694  19.557  31.433  1.00  0.00     0.716 A 
HETATM   30  N9  UNL     1      13.078  20.325  32.341  1.00  0.00    -0.115 N 
HETATM   31  N10 UNL     1      11.811  20.410  31.960  1.00  0.00    -0.213 N 
ATOM     32  H9  UNL     1      13.501  20.759  33.163  1.00  0.00     0.207 HD
HETATM   33  N11 UNL     1      11.652  19.718  30.855  1.00  0.00    -0.213 N 
ATOM     34  H10 UNL     1      11.079  20.928  32.446  1.00  0.00     0.210 HD
HETATM   35  N12 UNL     1      12.807  19.183  30.515  1.00  0.00    -0.115 N 
ATOM     36  H11 UNL     1      10.776  19.612  30.344  1.00  0.00     0.210 HD
ATOM     37  H12 UNL     1      12.987  18.594  29.702  1.00  0.00     0.207 HD
ENDBRANCH  27  29
ENDBRANCH   6  25
TORSDOF 5
ENDMDL
MODEL 2
REMARK VINA RESULT: -9.270065309      1.925      2.521
REMARK  5 active torsions:
REMARK  status: ('A' for Active; 'I' for Inactive)
REMARK    1  A    between atoms: N1_2  and  C2_4 
REMARK    2  A    between atoms: N3_7  and  C3_8 
REMARK    3  A    between atoms: C4_9  and  N4_10 
REMARK    4  A    between atoms: C9_24  and  C10_25 
REMARK       I    between atoms: C10_25  and  N8_27 
REMARK    5  A    between atoms: N8_27  and  C11_29 
ROOT
HETATM    1  C2  UNL     1      19.230  19.929  32.500  1.00  0.00     0.137 A 
HETATM    2  N2  UNL     1      20.008  18.810  32.768  1.00  0.00    -0.278 N 
ATOM      3  H2  UNL     1      21.028  18.825  32.779  1.00  0.00     0.189 HD
HETATM    4  N3  UNL     1      19.313  17.757  32.999  1.00  0.00    -0.259 N 
HETATM    5  C8  UNL     1      18.022  18.104  32.900  1.00  0.00     0.138 A 
HETATM    6  C9  UNL     1      17.937  19.470  32.586  1.00  0.00     0.095 A 
ENDROOT
BRANCH   4   7
HETATM    7  C3  UNL     1      19.766  16.420  33.299  1.00  0.00     0.129 A 
HETATM    8  C4  UNL     1      20.139  15.547  32.310  1.00  0.00     0.219 A 
HETATM    9  N5  UNL     1      20.563  14.303  32.693  1.00  0.00    -0.169 N 
HETATM   10  C5  UNL     1      20.617  13.930  33.980  1.00  0.00     0.677 A 
ATOM     11  H5  UNL     1      20.848  13.637  31.975  1.00  0.00     0.186 HD
HETATM   12  N6  UNL     1      21.025  12.741  34.298  1.00  0.00    -0.234 N 
HETATM   13  N7  UNL     1      20.240  14.822  34.919  1.00  0.00    -0.194 N 
ATOM     14  H62 UNL     1      21.311  12.067  33.587  1.00  0.00     0.174 HD
ATOM     15  H61 UNL     1      21.066  12.458  35.277  1.00  0.00     0.174 HD
HETATM   16  C6  UNL     1      19.817  16.050  34.624  1.00  0.00     0.055 A 
ATOM     17  H7  UNL     1      20.281  14.543  35.898  1.00  0.00     0.184 HD
HETATM   18  C7  UNL     1      19.410  17.006  35.653  1.00  0.00     0.071 C 
BRANCH   8  19
HETATM   19  N4  UNL     1      20.101  15.902  30.938  1.00  0.00    -0.095 N 
HETATM   20  O1  UNL     1      19.310  15.405  30.120  1.00  0.00    -0.530 OA
HETATM   21  O2  UNL     1      20.976  16.844  30.481  1.00  0.00    -0.530 OA
ENDBRANCH   8  19
ENDBRANCH   4   7
BRANCH   1  22
HETATM   22  N1  UNL     1      19.713  21.055  32.249  1.00  0.00    -0.360 N 
HETATM   23  C1  UNL     1      20.807  21.817  32.079  1.00  0.00     0.120 C 
ATOM     24  H1  UNL     1      18.916  21.677  32.112  1.00  0.00     0.165 HD
ENDBRANCH   1  22
BRANCH   6  25
HETATM   25  C10 UNL     1      16.703  20.188  32.400  1.00  0.00     0.275 C 
HETATM   26  O3  UNL     1      16.527  21.354  32.772  1.00  0.00    -0.267 OA
HETATM   27  N8  UNL     1      15.611  19.548  31.758  1.00  0.00    -0.152 N 
ATOM     28  H8  UNL     1      15.791  18.731  31.173  1.00  0.00     0.187 HD
BRANCH  27  29
HETATM   29  C11 UNL     1      14.409  19.964  31.889  1.00  0.00     0.716 A 
HETATM   30  N9  UNL     1      13.942  20.834  32.793  1.00  0.00    -0.115 N 
HETATM   31  N10 UNL     1      12.645  20.963  32.551  1.00  0.00    -0.213 N 
ATOM     32  H9  UNL     1      14.479  21.304  33.523  1.00  0.00     0.207 HD
HETATM   33  N11 UNL     1      12.325  20.199  31.532  1.00  0.00    -0.213 N 
ATOM     34  H10 UNL     1      12.001  21.559  33.071  1.00  0.00     0.210 HD
HETATM   35  N12 UNL     1      13.405  19.573  31.110  1.00  0.00    -0.115 N 
ATOM     36  H11 UNL     1      11.391  20.106  31.132  1.00  0.00     0.210 HD
ATOM     37  H12 UNL     1      13.459  18.914  30.334  1.00  0.00     0.207 HD
ENDBRANCH  27  29
ENDBRANCH   6  25
TORSDOF 5
ENDMDL
MODEL 3
REMARK VINA RESULT: -9.197730438      3.107      4.503
REMARK  5 active torsions:
REMARK  status: ('A' for Active; 'I' for Inactive)
REMARK    1  A    between atoms: N1_2  and  C2_4 
REMARK    2  A    between atoms: N3_7  and  C3_8 
REMARK    3  A    between atoms: C4_9  and  N4_10 
REMARK    4  A    between atoms: C9_24  and  C10_25 
REMARK       I    between atoms: C10_25  and  N8_27 
REMARK    5  A    between atoms: N8_27  and  C11_29 
ROOT
HETATM    1  C2  UNL     1      17.985  17.570  34.508  1.00  0.00     0.137 A 
HETATM    2  N2  UNL     1      19.372  17.609  34.469  1.00  0.00    -0.278 N 
ATOM      3  H2  UNL     1      19.967  16.923  34.934  1.00  0.00     0.189 HD
HETATM    4  N3  UNL     1      19.829  18.596  33.789  1.00  0.00    -0.259 N 
HETATM    5  C8  UNL     1      18.774  19.283  33.329  1.00  0.00     0.138 A 
HETATM    6  C9  UNL     1      17.594  18.660  33.766  1.00  0.00     0.095 A 
ENDROOT
BRANCH   4   7
HETATM    7  C3  UNL     1      21.201  18.966  33.538  1.00  0.00     0.129 A 
HETATM    8  C4  UNL     1      21.863  18.556  32.408  1.00  0.00     0.219 A 
HETATM    9  N5  UNL     1      23.160  18.965  32.254  1.00  0.00    -0.169 N 
HETATM   10  C5  UNL     1      23.780  19.735  33.159  1.00  0.00     0.677 A 
ATOM     11  H5  UNL     1      23.672  18.675  31.420  1.00  0.00     0.186 HD
HETATM   12  N6  UNL     1      25.011  20.099  32.971  1.00  0.00    -0.234 N 
HETATM   13  N7  UNL     1      23.090  20.114  34.254  1.00  0.00    -0.194 N 
ATOM     14  H62 UNL     1      25.532  19.813  32.143  1.00  0.00     0.174 HD
ATOM     15  H61 UNL     1      25.483  20.685  33.661  1.00  0.00     0.174 HD
HETATM   16  C6  UNL     1      21.826  19.757  34.475  1.00  0.00     0.055 A 
ATOM     17  H7  UNL     1      23.558  20.701  34.944  1.00  0.00     0.184 HD
HETATM   18  C7  UNL     1      21.091  20.175  35.668  1.00  0.00     0.071 C 
BRANCH   8  19
HETATM   19  N4  UNL     1      21.242  17.745  31.425  1.00  0.00    -0.095 N 
HETATM   20  O1  UNL     1      20.369  18.156  30.643  1.00  0.00    -0.530 OA
HETATM   21  O2  UNL     1      21.618  16.437  31.323  1.00  0.00    -0.530 OA
ENDBRANCH   8  19
ENDBRANCH   4   7
BRANCH   1  22
HETATM   22  N1  UNL     1      17.341  16.688  35.118  1.00  0.00    -0.360 N 
HETATM   23  C1  UNL     1      16.492  16.374  36.112  1.00  0.00     0.120 C 
ATOM     24  H1  UNL     1      17.559  15.808  34.650  1.00  0.00     0.165 HD
ENDBRANCH   1  22
BRANCH   6  25
HETATM   25  C10 UNL     1      16.265  19.126  33.464  1.00  0.00     0.275 C 
HETATM   26  O3  UNL     1      15.339  19.127  34.282  1.00  0.00    -0.267 OA
HETATM   27  N8  UNL     1      15.975  19.615  32.164  1.00  0.00    -0.152 N 
ATOM     28  H8  UNL     1      16.744  19.919  31.566  1.00  0.00     0.187 HD
BRANCH  27  29
HETATM   29  C11 UNL     1      14.778  19.686  31.719  1.00  0.00     0.716 A 
HETATM   30  N9  UNL     1      13.825  20.555  32.079  1.00  0.00    -0.115 N 
HETATM   31  N10 UNL     1      12.754  20.252  31.359  1.00  0.00    -0.213 N 
ATOM     32  H9  UNL     1      13.907  21.301  32.770  1.00  0.00     0.207 HD
HETATM   33  N11 UNL     1      13.038  19.232  30.582  1.00  0.00    -0.213 N 
ATOM     34  H10 UNL     1      11.855  20.733  31.401  1.00  0.00     0.210 HD
HETATM   35  N12 UNL     1      14.287  18.869  30.792  1.00  0.00    -0.115 N 
ATOM     36  H11 UNL     1      12.395  18.793  29.922  1.00  0.00     0.210 HD
ATOM     37  H12 UNL     1      14.782  18.106  30.331  1.00  0.00     0.207 HD
ENDBRANCH  27  29
ENDBRANCH   6  25
TORSDOF 5
ENDMDL
MODEL 4
REMARK VINA RESULT: -9.178367816      0.949      1.210
REMARK  5 active torsions:
REMARK  status: ('A' for Active; 'I' for Inactive)
REMARK    1  A    between atoms: N1_2  and  C2_4 
REMARK    2  A    between atoms: N3_7  and  C3_8 
REMARK    3  A    between atoms: C4_9  and  N4_10 
REMARK    4  A    between atoms: C9_24  and  C10_25 
REMARK       I    between atoms: C10_25  and  N8_27 
REMARK    5  A    between atoms: N8_27  and  C11_29 
ROOT
HETATM    1  C2  UNL     1      19.184  19.954  32.548  1.00  0.00     0.137 A 
HETATM    2  N2  UNL     1      19.956  18.830  32.805  1.00  0.00    -0.278 N 
ATOM      3  H2  UNL     1      20.976  18.842  32.832  1.00  0.00     0.189 HD
HETATM    4  N3  UNL     1      19.256  17.773  33.006  1.00  0.00    -0.259 N 
HETATM    5  C8  UNL     1      17.967  18.124  32.895  1.00  0.00     0.138 A 
HETATM    6  C9  UNL     1      17.888  19.496  32.606  1.00  0.00     0.095 A 
ENDROOT
BRANCH   4   7
HETATM    7  C3  UNL     1      19.702  16.430  33.287  1.00  0.00     0.129 A 
HETATM    8  C4  UNL     1      19.855  15.975  34.572  1.00  0.00     0.219 A 
HETATM    9  N5  UNL     1      20.274  14.683  34.738  1.00  0.00    -0.169 N 
HETATM   10  C5  UNL     1      20.534  13.875  33.700  1.00  0.00     0.677 A 
ATOM     11  H5  UNL     1      20.394  14.322  35.685  1.00  0.00     0.186 HD
HETATM   12  N6  UNL     1      20.929  12.657  33.904  1.00  0.00    -0.234 N 
HETATM   13  N7  UNL     1      20.369  14.365  32.454  1.00  0.00    -0.194 N 
ATOM     14  H62 UNL     1      21.053  12.287  34.847  1.00  0.00     0.174 HD
ATOM     15  H61 UNL     1      21.126  12.043  33.114  1.00  0.00     0.174 HD
HETATM   16  C6  UNL     1      19.964  15.611  32.212  1.00  0.00     0.055 A 
ATOM     17  H7  UNL     1      20.563  13.754  31.662  1.00  0.00     0.184 HD
HETATM   18  C7  UNL     1      19.791  16.128  30.855  1.00  0.00     0.071 C 
BRANCH   8  19
HETATM   19  N4  UNL     1      19.589  16.796  35.697  1.00  0.00    -0.095 N 
HETATM   20  O1  UNL     1      18.629  16.621  36.465  1.00  0.00    -0.530 OA
HETATM   21  O2  UNL     1      20.428  17.839  35.960  1.00  0.00    -0.530 OA
ENDBRANCH   8  19
ENDBRANCH   4   7
BRANCH   1  22
HETATM   22  N1  UNL     1      19.672  21.084  32.326  1.00  0.00    -0.360 N 
HETATM   23  C1  UNL     1      20.762  21.828  32.068  1.00  0.00     0.120 C 
ATOM     24  H1  UNL     1      18.889  21.738  32.354  1.00  0.00     0.165 HD
ENDBRANCH   1  22
BRANCH   6  25
HETATM   25  C10 UNL     1      16.658  20.220  32.415  1.00  0.00     0.275 C 
HETATM   26  O3  UNL     1      16.490  21.390  32.778  1.00  0.00    -0.267 OA
HETATM   27  N8  UNL     1      15.562  19.581  31.780  1.00  0.00    -0.152 N 
ATOM     28  H8  UNL     1      15.736  18.758  31.202  1.00  0.00     0.187 HD
BRANCH  27  29
HETATM   29  C11 UNL     1      14.363  20.005  31.910  1.00  0.00     0.716 A 
HETATM   30  N9  UNL     1      13.900  20.877  32.815  1.00  0.00    -0.115 N 
HETATM   31  N10 UNL     1      12.604  21.015  32.570  1.00  0.00    -0.213 N 
ATOM     32  H9  UNL     1      14.438  21.342  33.547  1.00  0.00     0.207 HD
HETATM   33  N11 UNL     1      12.281  20.256  31.549  1.00  0.00    -0.213 N 
ATOM     34  H10 UNL     1      11.963  21.615  33.090  1.00  0.00     0.210 HD
HETATM   35  N12 UNL     1      13.357  19.623  31.128  1.00  0.00    -0.115 N 
ATOM     36  H11 UNL     1      11.347  20.170  31.147  1.00  0.00     0.210 HD
ATOM     37  H12 UNL     1      13.408  18.965  30.351  1.00  0.00     0.207 HD
ENDBRANCH  27  29
ENDBRANCH   6  25
TORSDOF 5
ENDMDL
MODEL 5
REMARK VINA RESULT: -9.135127452      2.172      2.796
REMARK  5 active torsions:
REMARK  status: ('A' for Active; 'I' for Inactive)
REMARK    1  A    between atoms: N1_2  and  C2_4 
REMARK    2  A    between atoms: N3_7  and  C3_8 
REMARK    3  A    between atoms: C4_9  and  N4_10 
REMARK    4  A    between atoms: C9_24  and  C10_25 
REMARK       I    between atoms: C10_25  and  N8_27 
REMARK    5  A    between atoms: N8_27  and  C11_29 
ROOT
HETATM    1  C2  UNL     1      19.967  19.519  33.445  1.00  0.00     0.137 A 
HETATM    2  N2  UNL     1      20.589  18.411  34.005  1.00  0.00    -0.278 N 
ATOM      3  H2  UNL     1      21.592  18.358  34.180  1.00  0.00     0.189 HD
HETATM    4  N3  UNL     1      19.772  17.460  34.279  1.00  0.00    -0.259 N 
HETATM    5  C8  UNL     1      18.549  17.871  33.918  1.00  0.00     0.138 A 
HETATM    6  C9  UNL     1      18.638  19.169  33.389  1.00  0.00     0.095 A 
ENDROOT
BRANCH   4   7
HETATM    7  C3  UNL     1      20.049  16.164  34.850  1.00  0.00     0.129 A 
HETATM    8  C4  UNL     1      20.358  15.082  34.066  1.00  0.00     0.219 A 
HETATM    9  N5  UNL     1      20.614  13.896  34.700  1.00  0.00    -0.169 N 
HETATM   10  C5  UNL     1      20.567  13.773  36.035  1.00  0.00     0.677 A 
ATOM     11  H5  UNL     1      20.849  13.078  34.138  1.00  0.00     0.186 HD
HETATM   12  N6  UNL     1      20.816  12.630  36.593  1.00  0.00    -0.234 N 
HETATM   13  N7  UNL     1      20.258  14.864  36.765  1.00  0.00    -0.194 N 
ATOM     14  H62 UNL     1      21.050  11.805  36.040  1.00  0.00     0.174 HD
ATOM     15  H61 UNL     1      20.780  12.537  37.608  1.00  0.00     0.174 HD
HETATM   16  C6  UNL     1      19.997  16.052  36.221  1.00  0.00     0.055 A 
ATOM     17  H7  UNL     1      20.223  14.775  37.780  1.00  0.00     0.184 HD
HETATM   18  C7  UNL     1      19.663  17.225  37.026  1.00  0.00     0.071 C 
BRANCH   8  19
HETATM   19  N4  UNL     1      20.422  15.171  32.653  1.00  0.00    -0.095 N 
HETATM   20  O1  UNL     1      21.458  15.446  32.026  1.00  0.00    -0.530 OA
HETATM   21  O2  UNL     1      19.287  14.942  31.930  1.00  0.00    -0.530 OA
ENDBRANCH   8  19
ENDBRANCH   4   7
BRANCH   1  22
HETATM   22  N1  UNL     1      20.584  20.553  33.107  1.00  0.00    -0.360 N 
HETATM   23  C1  UNL     1      20.872  21.449  32.147  1.00  0.00     0.120 C 
ATOM     24  H1  UNL     1      21.105  20.851  33.932  1.00  0.00     0.165 HD
ENDBRANCH   1  22
BRANCH   6  25
HETATM   25  C10 UNL     1      17.518  19.928  32.895  1.00  0.00     0.275 C 
HETATM   26  O3  UNL     1      17.418  21.154  33.012  1.00  0.00    -0.267 OA
HETATM   27  N8  UNL     1      16.456  19.257  32.235  1.00  0.00    -0.152 N 
ATOM     28  H8  UNL     1      16.622  18.329  31.847  1.00  0.00     0.187 HD
BRANCH  27  29
HETATM   29  C11 UNL     1      15.296  19.782  32.112  1.00  0.00     0.716 A 
HETATM   30  N9  UNL     1      14.668  20.583  32.983  1.00  0.00    -0.115 N 
HETATM   31  N10 UNL     1      13.496  20.879  32.436  1.00  0.00    -0.213 N 
ATOM     32  H9  UNL     1      15.020  20.901  33.886  1.00  0.00     0.207 HD
HETATM   33  N11 UNL     1      13.407  20.283  31.270  1.00  0.00    -0.213 N 
ATOM     34  H10 UNL     1      12.781  21.475  32.854  1.00  0.00     0.210 HD
HETATM   35  N12 UNL     1      14.513  19.599  31.053  1.00  0.00    -0.115 N 
ATOM     36  H11 UNL     1      12.611  20.339  30.635  1.00  0.00     0.210 HD
ATOM     37  H12 UNL     1      14.726  19.036  30.230  1.00  0.00     0.207 HD
ENDBRANCH  27  29
ENDBRANCH   6  25
TORSDOF 5
ENDMDL
