MODEL 1
REMARK VINA RESULT: -8.774559843      0.000      0.000
REMARK  7 active torsions:
REMARK  status: ('A' for Active; 'I' for Inactive)
REMARK    1  A    between atoms: C2_2  and  O1_3 
REMARK    2  A    between atoms: C2_2  and  C3_5 
REMARK    3  A    between atoms: C3_5  and  O2_6 
REMARK    4  A    between atoms: C3_5  and  C4_8 
REMARK    5  A    between atoms: C5_9  and  C6_10 
REMARK    6  A    between atoms: C9_16  and  O6_17 
REMARK    7  A    between atoms: O6_17  and  N1_18 
ROOT
HETATM    1  C4  UNL     1      19.104  17.254  33.427  1.00  0.00     0.070 C 
HETATM    2  C5  UNL     1      17.671  16.934  33.741  1.00  0.00     0.161 C 
HETATM    3  C7  UNL     1      17.220  18.300  34.295  1.00  0.00     0.205 C 
HETATM    4  C8  UNL     1      15.906  18.219  34.988  1.00  0.00     0.243 C 
HETATM    5  O5  UNL     1      15.282  19.423  34.676  1.00  0.00    -0.332 OA
HETATM    6  C9  UNL     1      15.815  19.839  33.460  1.00  0.00     0.441 C 
HETATM    7  O7  UNL     1      17.032  19.225  33.306  1.00  0.00    -0.297 OA
HETATM    8  O8  UNL     1      18.280  18.581  35.152  1.00  0.00    -0.341 OA
HETATM    9  C11 UNL     1      19.432  18.301  34.421  1.00  0.00     0.064 C 
HETATM   10  C12 UNL     1      19.803  19.612  33.712  1.00  0.00     0.046 C 
HETATM   11  C13 UNL     1      20.548  17.993  35.356  1.00  0.00     0.046 C 
ENDROOT
BRANCH   2  12
HETATM   12  C6  UNL     1      17.461  15.989  34.835  1.00  0.00     0.183 C 
HETATM   13  O3  UNL     1      16.477  15.209  34.794  1.00  0.00    -0.648 OA
HETATM   14  O4  UNL     1      18.297  15.898  35.935  1.00  0.00    -0.648 OA
ENDBRANCH   2  12
BRANCH   1  15
HETATM   15  C3  UNL     1      20.028  16.102  33.335  1.00  0.00     0.154 C 
BRANCH  15  16
HETATM   16  C2  UNL     1      19.435  14.917  32.649  1.00  0.00     0.143 C 
HETATM   17  C1  UNL     1      19.502  15.061  31.121  1.00  0.00     0.042 C 
BRANCH  16  18
HETATM   18  O1  UNL     1      20.178  13.755  32.929  1.00  0.00    -0.393 OA
ATOM     19  H1  UNL     1      19.613  13.239  33.493  1.00  0.00     0.210 HD
ENDBRANCH  16  18
ENDBRANCH  15  16
BRANCH  15  20
HETATM   20  O2  UNL     1      21.141  16.504  32.594  1.00  0.00    -0.393 OA
ATOM     21  H2  UNL     1      21.687  15.739  32.457  1.00  0.00     0.210 HD
ENDBRANCH  15  20
ENDBRANCH   1  15
BRANCH   6  22
HETATM   22  O6  UNL     1      14.949  19.421  32.393  1.00  0.00    -0.218 OA
BRANCH  22  23
HETATM   23  N1  UNL     1      13.746  20.025  32.224  1.00  0.00    -0.236 N 
HETATM   24  C10 UNL     1      12.932  19.701  31.280  1.00  0.00     0.221 C 
HETATM   25  N2  UNL     1      11.695  20.376  31.169  1.00  0.00    -0.065 NA
HETATM   26  N3  UNL     1      13.286  18.680  30.375  1.00  0.00    -0.065 NA
ATOM     27  H1  UNL     1      13.475  20.765  32.871  1.00  0.00     0.197 HD
ENDBRANCH  22  23
ENDBRANCH   6  22
TORSDOF 7
ENDMDL
MODEL 2
REMARK VINA RESULT: -8.576222102      1.621      2.377
REMARK  7 active torsions:
REMARK  status: ('A' for Active; 'I' for Inactive)
REMARK    1  A    between atoms: C2_2  and  O1_3 
REMARK    2  A    between atoms: C2_2  and  C3_5 
REMARK    3  A    between atoms: C3_5  and  O2_6 
REMARK    4  A    between atoms: C3_5  and  C4_8 
REMARK    5  A    between atoms: C5_9  and  C6_10 
REMARK    6  A    between atoms: C9_16  and  O6_17 
REMARK    7  A    between atoms: O6_17  and  N1_18 
ROOT
HETATM    1  C4  UNL     1      18.781  17.510  33.416  1.00  0.00     0.070 C 
HETATM    2  C5  UNL     1      17.676  18.286  34.075  1.00  0.00     0.161 C 
HETATM    3  C7  UNL     1      17.537  19.439  33.063  1.00  0.00     0.205 C 
HETATM    4  C8  UNL     1      16.716  20.560  33.598  1.00  0.00     0.243 C 
HETATM    5  O5  UNL     1      16.010  21.023  32.492  1.00  0.00    -0.332 OA
HETATM    6  C9  UNL     1      15.892  19.945  31.620  1.00  0.00     0.441 C 
HETATM    7  O7  UNL     1      16.890  19.054  31.921  1.00  0.00    -0.297 OA
HETATM    8  O8  UNL     1      18.875  19.773  32.882  1.00  0.00    -0.341 OA
HETATM    9  C11 UNL     1      19.537  18.561  32.700  1.00  0.00     0.064 C 
HETATM   10  C12 UNL     1      19.513  18.298  31.187  1.00  0.00     0.046 C 
HETATM   11  C13 UNL     1      20.967  18.718  33.081  1.00  0.00     0.046 C 
ENDROOT
BRANCH   2  12
HETATM   12  C6  UNL     1      18.023  18.926  35.342  1.00  0.00     0.183 C 
HETATM   13  O3  UNL     1      17.434  18.572  36.392  1.00  0.00    -0.648 OA
HETATM   14  O4  UNL     1      18.982  19.919  35.455  1.00  0.00    -0.648 OA
ENDBRANCH   2  12
BRANCH   1  15
HETATM   15  C3  UNL     1      19.556  16.602  34.291  1.00  0.00     0.154 C 
BRANCH  15  16
HETATM   16  C2  UNL     1      18.728  15.531  34.919  1.00  0.00     0.143 C 
HETATM   17  C1  UNL     1      19.452  14.176  34.895  1.00  0.00     0.042 C 
BRANCH  16  18
HETATM   18  O1  UNL     1      18.520  15.797  36.285  1.00  0.00    -0.393 OA
ATOM     19  H1  UNL     1      18.122  16.661  36.303  1.00  0.00     0.210 HD
ENDBRANCH  16  18
ENDBRANCH  15  16
BRANCH  15  20
HETATM   20  O2  UNL     1      20.527  15.977  33.505  1.00  0.00    -0.393 OA
ATOM     21  H2  UNL     1      21.091  15.481  34.087  1.00  0.00     0.210 HD
ENDBRANCH  15  20
ENDBRANCH   1  15
BRANCH   6  22
HETATM   22  O6  UNL     1      14.624  19.304  31.828  1.00  0.00    -0.218 OA
BRANCH  22  23
HETATM   23  N1  UNL     1      13.516  20.056  32.054  1.00  0.00    -0.236 N 
HETATM   24  C10 UNL     1      12.481  20.016  31.288  1.00  0.00     0.221 C 
HETATM   25  N2  UNL     1      11.365  20.829  31.589  1.00  0.00    -0.065 NA
HETATM   26  N3  UNL     1      12.479  19.165  30.164  1.00  0.00    -0.065 NA
ATOM     27  H1  UNL     1      13.504  20.676  32.862  1.00  0.00     0.197 HD
ENDBRANCH  22  23
ENDBRANCH   6  22
TORSDOF 7
ENDMDL
MODEL 3
REMARK VINA RESULT: -8.363160756      3.944      5.877
REMARK  7 active torsions:
REMARK  status: ('A' for Active; 'I' for Inactive)
REMARK    1  A    between atoms: C2_2  and  O1_3 
REMARK    2  A    between atoms: C2_2  and  C3_5 
REMARK    3  A    between atoms: C3_5  and  O2_6 
REMARK    4  A    between atoms: C3_5  and  C4_8 
REMARK    5  A    between atoms: C5_9  and  C6_10 
REMARK    6  A    between atoms: C9_16  and  O6_17 
REMARK    7  A    between atoms: O6_17  and  N1_18 
ROOT
HETATM    1  C4  UNL     1      20.015  19.194  33.485  1.00  0.00     0.070 C 
HETATM    2  C5  UNL     1      19.352  18.047  34.192  1.00  0.00     0.161 C 
HETATM    3  C7  UNL     1      18.517  17.479  33.028  1.00  0.00     0.205 C 
HETATM    4  C8  UNL     1      17.497  16.501  33.494  1.00  0.00     0.243 C 
HETATM    5  O5  UNL     1      17.456  15.544  32.484  1.00  0.00    -0.332 OA
HETATM    6  C9  UNL     1      18.707  15.562  31.874  1.00  0.00     0.441 C 
HETATM    7  O7  UNL     1      19.280  16.780  32.133  1.00  0.00    -0.297 OA
HETATM    8  O8  UNL     1      17.966  18.653  32.522  1.00  0.00    -0.341 OA
HETATM    9  C11 UNL     1      19.025  19.554  32.445  1.00  0.00     0.064 C 
HETATM   10  C12 UNL     1      19.628  19.367  31.045  1.00  0.00     0.046 C 
HETATM   11  C13 UNL     1      18.494  20.944  32.496  1.00  0.00     0.046 C 
ENDROOT
BRANCH   2  12
HETATM   12  C6  UNL     1      18.380  18.415  35.218  1.00  0.00     0.183 C 
HETATM   13  O3  UNL     1      18.546  18.010  36.395  1.00  0.00    -0.648 OA
HETATM   14  O4  UNL     1      17.266  19.198  34.966  1.00  0.00    -0.648 OA
ENDBRANCH   2  12
BRANCH   1  15
HETATM   15  C3  UNL     1      20.518  20.291  34.342  1.00  0.00     0.154 C 
BRANCH  15  16
HETATM   16  C2  UNL     1      21.494  19.837  35.375  1.00  0.00     0.143 C 
HETATM   17  C1  UNL     1      22.861  19.512  34.752  1.00  0.00     0.042 C 
BRANCH  16  18
HETATM   18  O1  UNL     1      21.760  20.867  36.297  1.00  0.00    -0.393 OA
ATOM     19  H1  UNL     1      21.195  20.678  37.037  1.00  0.00     0.210 HD
ENDBRANCH  16  18
ENDBRANCH  15  16
BRANCH  15  20
HETATM   20  O2  UNL     1      21.171  21.211  33.520  1.00  0.00    -0.393 OA
ATOM     21  H2  UNL     1      20.939  21.009  32.621  1.00  0.00     0.210 HD
ENDBRANCH  15  20
ENDBRANCH   1  15
BRANCH   6  22
HETATM   22  O6  UNL     1      19.529  14.534  32.448  1.00  0.00    -0.218 OA
BRANCH  22  23
HETATM   23  N1  UNL     1      20.874  14.704  32.514  1.00  0.00    -0.236 N 
HETATM   24  C10 UNL     1      21.510  14.796  33.630  1.00  0.00     0.221 C 
HETATM   25  N2  UNL     1      22.912  14.972  33.617  1.00  0.00    -0.065 NA
HETATM   26  N3  UNL     1      20.798  14.721  34.845  1.00  0.00    -0.065 NA
ATOM     27  H1  UNL     1      21.403  14.760  31.643  1.00  0.00     0.197 HD
ENDBRANCH  22  23
ENDBRANCH   6  22
TORSDOF 7
ENDMDL
MODEL 4
REMARK VINA RESULT: -8.303836203      2.926      5.118
REMARK  7 active torsions:
REMARK  status: ('A' for Active; 'I' for Inactive)
REMARK    1  A    between atoms: C2_2  and  O1_3 
REMARK    2  A    between atoms: C2_2  and  C3_5 
REMARK    3  A    between atoms: C3_5  and  O2_6 
REMARK    4  A    between atoms: C3_5  and  C4_8 
REMARK    5  A    between atoms: C5_9  and  C6_10 
REMARK    6  A    between atoms: C9_16  and  O6_17 
REMARK    7  A    between atoms: O6_17  and  N1_18 
ROOT
HETATM    1  C4  UNL     1      18.369  16.898  34.642  1.00  0.00     0.070 C 
HETATM    2  C5  UNL     1      19.175  18.164  34.578  1.00  0.00     0.161 C 
HETATM    3  C7  UNL     1      20.378  17.658  33.759  1.00  0.00     0.205 C 
HETATM    4  C8  UNL     1      21.518  18.615  33.786  1.00  0.00     0.243 C 
HETATM    5  O5  UNL     1      22.068  18.524  32.511  1.00  0.00    -0.332 OA
HETATM    6  C9  UNL     1      21.038  18.126  31.665  1.00  0.00     0.441 C 
HETATM    7  O7  UNL     1      20.080  17.515  32.432  1.00  0.00    -0.297 OA
HETATM    8  O8  UNL     1      20.645  16.464  34.422  1.00  0.00    -0.341 OA
HETATM    9  C11 UNL     1      19.407  15.845  34.580  1.00  0.00     0.064 C 
HETATM   10  C12 UNL     1      19.213  14.977  33.328  1.00  0.00     0.046 C 
HETATM   11  C13 UNL     1      19.466  14.912  35.738  1.00  0.00     0.046 C 
ENDROOT
BRANCH   2  12
HETATM   12  C6  UNL     1      19.738  18.618  35.847  1.00  0.00     0.183 C 
HETATM   13  O3  UNL     1      19.954  19.842  36.022  1.00  0.00    -0.648 OA
HETATM   14  O4  UNL     1      20.053  17.762  36.890  1.00  0.00    -0.648 OA
ENDBRANCH   2  12
BRANCH   1  15
HETATM   15  C3  UNL     1      17.381  16.804  35.740  1.00  0.00     0.154 C 
BRANCH  15  16
HETATM   16  C2  UNL     1      16.582  18.050  35.929  1.00  0.00     0.143 C 
HETATM   17  C1  UNL     1      15.868  18.461  34.632  1.00  0.00     0.042 C 
BRANCH  16  18
HETATM   18  O1  UNL     1      15.542  17.842  36.855  1.00  0.00    -0.393 OA
ATOM     19  H1  UNL     1      15.307  16.927  36.748  1.00  0.00     0.210 HD
ENDBRANCH  16  18
ENDBRANCH  15  16
BRANCH  15  20
HETATM   20  O2  UNL     1      16.490  15.775  35.428  1.00  0.00    -0.393 OA
ATOM     21  H2  UNL     1      16.727  15.441  34.570  1.00  0.00     0.210 HD
ENDBRANCH  15  20
ENDBRANCH   1  15
BRANCH   6  22
HETATM   22  O6  UNL     1      20.460  19.285  31.043  1.00  0.00    -0.218 OA
BRANCH  22  23
HETATM   23  N1  UNL     1      19.299  19.799  31.521  1.00  0.00    -0.236 N 
HETATM   24  C10 UNL     1      19.244  20.915  32.161  1.00  0.00     0.221 C 
HETATM   25  N2  UNL     1      17.996  21.386  32.628  1.00  0.00    -0.065 NA
HETATM   26  N3  UNL     1      20.427  21.649  32.385  1.00  0.00    -0.065 NA
ATOM     27  H1  UNL     1      18.435  19.280  31.367  1.00  0.00     0.197 HD
ENDBRANCH  22  23
ENDBRANCH   6  22
TORSDOF 7
ENDMDL
MODEL 5
REMARK VINA RESULT: -8.163734671      2.685      3.788
REMARK  7 active torsions:
REMARK  status: ('A' for Active; 'I' for Inactive)
REMARK    1  A    between atoms: C2_2  and  O1_3 
REMARK    2  A    between atoms: C2_2  and  C3_5 
REMARK    3  A    between atoms: C3_5  and  O2_6 
REMARK    4  A    between atoms: C3_5  and  C4_8 
REMARK    5  A    between atoms: C5_9  and  C6_10 
REMARK    6  A    between atoms: C9_16  and  O6_17 
REMARK    7  A    between atoms: O6_17  and  N1_18 
ROOT
HETATM    1  C4  UNL     1      20.113  16.593  33.371  1.00  0.00     0.070 C 
HETATM    2  C5  UNL     1      19.699  17.487  34.504  1.00  0.00     0.161 C 
HETATM    3  C7  UNL     1      19.301  18.743  33.704  1.00  0.00     0.205 C 
HETATM    4  C8  UNL     1      19.130  19.935  34.578  1.00  0.00     0.243 C 
HETATM    5  O5  UNL     1      18.070  20.629  34.004  1.00  0.00    -0.332 OA
HETATM    6  C9  UNL     1      17.296  19.685  33.337  1.00  0.00     0.441 C 
HETATM    7  O7  UNL     1      18.094  18.600  33.077  1.00  0.00    -0.297 OA
HETATM    8  O8  UNL     1      20.389  18.842  32.842  1.00  0.00    -0.341 OA
HETATM    9  C11 UNL     1      20.591  17.554  32.352  1.00  0.00     0.064 C 
HETATM   10  C12 UNL     1      19.735  17.454  31.081  1.00  0.00     0.046 C 
HETATM   11  C13 UNL     1      22.009  17.407  31.922  1.00  0.00     0.046 C 
ENDROOT
BRANCH   2  12
HETATM   12  C6  UNL     1      20.775  17.922  35.391  1.00  0.00     0.183 C 
HETATM   13  O3  UNL     1      20.558  18.009  36.625  1.00  0.00    -0.648 OA
HETATM   14  O4  UNL     1      22.044  18.250  34.945  1.00  0.00    -0.648 OA
ENDBRANCH   2  12
BRANCH   1  15
HETATM   15  C3  UNL     1      21.019  15.474  33.716  1.00  0.00     0.154 C 
BRANCH  15  16
HETATM   16  C2  UNL     1      20.630  14.759  34.967  1.00  0.00     0.143 C 
HETATM   17  C1  UNL     1      19.181  14.254  34.897  1.00  0.00     0.042 C 
BRANCH  16  18
HETATM   18  O1  UNL     1      21.403  13.595  35.137  1.00  0.00    -0.393 OA
ATOM     19  H1  UNL     1      22.211  13.900  35.533  1.00  0.00     0.210 HD
ENDBRANCH  16  18
ENDBRANCH  15  16
BRANCH  15  20
HETATM   20  O2  UNL     1      20.975  14.549  32.671  1.00  0.00    -0.393 OA
ATOM     21  H2  UNL     1      20.206  14.745  32.147  1.00  0.00     0.210 HD
ENDBRANCH  15  20
ENDBRANCH   1  15
BRANCH   6  22
HETATM   22  O6  UNL     1      16.216  19.270  34.187  1.00  0.00    -0.218 OA
BRANCH  22  23
HETATM   23  N1  UNL     1      16.084  17.961  34.521  1.00  0.00    -0.236 N 
HETATM   24  C10 UNL     1      16.242  17.531  35.725  1.00  0.00     0.221 C 
HETATM   25  N2  UNL     1      16.088  16.152  35.995  1.00  0.00    -0.065 NA
HETATM   26  N3  UNL     1      16.567  18.441  36.752  1.00  0.00    -0.065 NA
ATOM     27  H1  UNL     1      15.850  17.291  33.789  1.00  0.00     0.197 HD
ENDBRANCH  22  23
ENDBRANCH   6  22
TORSDOF 7
ENDMDL
