MODEL 1
REMARK VINA RESULT: -5.614220193      0.000      0.000
REMARK  2 active torsions:
REMARK  status: ('A' for Active; 'I' for Inactive)
REMARK    1  A    between atoms: C2_2  and  N1_4 
REMARK    2  A    between atoms: N1_4  and  C3_6 
ROOT
HETATM    1  C3  UNL     1      44.535  -3.029  13.076  1.00  0.00     0.118 C 
HETATM    2  C4  UNL     1      44.243  -1.728  12.343  1.00  0.00     0.168 C 
HETATM    3  S2  UNL     1      44.979  -0.882  13.711  1.00  0.00     0.156 S 
HETATM    4  O1  UNL     1      45.786   0.315  13.375  1.00  0.00    -0.227 OA
HETATM    5  O2  UNL     1      44.154  -0.823  14.931  1.00  0.00    -0.227 OA
HETATM    6  C5  UNL     1      45.848  -2.437  13.475  1.00  0.00     0.078 C 
HETATM    7  C6  UNL     1      46.451  -2.854  14.772  1.00  0.00     0.034 C 
HETATM    8  C7  UNL     1      46.853  -2.322  12.352  1.00  0.00     0.034 C 
ENDROOT
BRANCH   1   9
HETATM    9  N1  UNL     1      44.568  -4.151  12.177  1.00  0.00    -0.377 N 
ATOM     10  H1  UNL     1      44.701  -3.964  11.183  1.00  0.00     0.160 HD
BRANCH   9  11
HETATM   11  C2  UNL     1      44.427  -5.488  12.583  1.00  0.00     0.069 C 
HETATM   12  C1  UNL     1      45.520  -6.152  13.317  1.00  0.00     0.081 C 
HETATM   13  S1  UNL     1      43.085  -6.347  12.266  1.00  0.00    -0.066 SA
ENDBRANCH   9  11
ENDBRANCH   1   9
TORSDOF 2
ENDMDL
MODEL 2
REMARK VINA RESULT: -4.863566022      2.061      2.337
REMARK  2 active torsions:
REMARK  status: ('A' for Active; 'I' for Inactive)
REMARK    1  A    between atoms: C2_2  and  N1_4 
REMARK    2  A    between atoms: N1_4  and  C3_6 
ROOT
HETATM    1  C3  UNL     1      44.298  -4.024  12.893  1.00  0.00     0.118 C 
HETATM    2  C4  UNL     1      45.384  -4.073  11.829  1.00  0.00     0.168 C 
HETATM    3  S2  UNL     1      45.587  -2.332  12.066  1.00  0.00     0.156 S 
HETATM    4  O1  UNL     1      46.978  -1.824  11.988  1.00  0.00    -0.227 OA
HETATM    5  O2  UNL     1      44.525  -1.489  11.487  1.00  0.00    -0.227 OA
HETATM    6  C5  UNL     1      45.169  -3.073  13.648  1.00  0.00     0.078 C 
HETATM    7  C6  UNL     1      44.519  -2.042  14.506  1.00  0.00     0.034 C 
HETATM    8  C7  UNL     1      46.388  -3.703  14.282  1.00  0.00     0.034 C 
ENDROOT
BRANCH   1   9
HETATM    9  N1  UNL     1      44.072  -5.316  13.484  1.00  0.00    -0.377 N 
ATOM     10  H1  UNL     1      44.065  -5.382  14.502  1.00  0.00     0.160 HD
BRANCH   9  11
HETATM   11  C2  UNL     1      43.862  -6.492  12.746  1.00  0.00     0.069 C 
HETATM   12  C1  UNL     1      42.618  -6.662  11.971  1.00  0.00     0.081 C 
HETATM   13  S1  UNL     1      44.954  -7.695  12.715  1.00  0.00    -0.066 SA
ENDBRANCH   9  11
ENDBRANCH   1   9
TORSDOF 2
ENDMDL
MODEL 3
REMARK VINA RESULT: -4.769208110      3.252      4.746
REMARK  2 active torsions:
REMARK  status: ('A' for Active; 'I' for Inactive)
REMARK    1  A    between atoms: C2_2  and  N1_4 
REMARK    2  A    between atoms: N1_4  and  C3_6 
ROOT
HETATM    1  C3  UNL     1      45.095  -1.615  14.929  1.00  0.00     0.118 C 
HETATM    2  C4  UNL     1      46.381  -0.971  14.434  1.00  0.00     0.168 C 
HETATM    3  S2  UNL     1      46.587  -2.374  13.378  1.00  0.00     0.156 S 
HETATM    4  O1  UNL     1      47.151  -2.099  12.035  1.00  0.00    -0.227 OA
HETATM    5  O2  UNL     1      47.017  -3.612  14.053  1.00  0.00    -0.227 OA
HETATM    6  C5  UNL     1      44.830  -2.024  13.516  1.00  0.00     0.078 C 
HETATM    7  C6  UNL     1      44.067  -3.280  13.271  1.00  0.00     0.034 C 
HETATM    8  C7  UNL     1      44.437  -0.891  12.595  1.00  0.00     0.034 C 
ENDROOT
BRANCH   1   9
HETATM    9  N1  UNL     1      44.203  -0.647  15.509  1.00  0.00    -0.377 N 
ATOM     10  H1  UNL     1      43.476  -0.249  14.913  1.00  0.00     0.160 HD
BRANCH   9  11
HETATM   11  C2  UNL     1      44.271  -0.215  16.843  1.00  0.00     0.069 C 
HETATM   12  C1  UNL     1      43.277   0.746  17.357  1.00  0.00     0.081 C 
HETATM   13  S1  UNL     1      45.423  -0.741  17.860  1.00  0.00    -0.066 SA
ENDBRANCH   9  11
ENDBRANCH   1   9
TORSDOF 2
ENDMDL
MODEL 4
REMARK VINA RESULT: -4.694491108      2.003      2.725
REMARK  2 active torsions:
REMARK  status: ('A' for Active; 'I' for Inactive)
REMARK    1  A    between atoms: C2_2  and  N1_4 
REMARK    2  A    between atoms: N1_4  and  C3_6 
ROOT
HETATM    1  C3  UNL     1      45.881  -4.573  13.672  1.00  0.00     0.118 C 
HETATM    2  C4  UNL     1      45.924  -3.749  14.950  1.00  0.00     0.168 C 
HETATM    3  S2  UNL     1      46.734  -2.484  14.016  1.00  0.00     0.156 S 
HETATM    4  O1  UNL     1      46.365  -1.089  14.356  1.00  0.00    -0.227 OA
HETATM    5  O2  UNL     1      48.147  -2.751  13.690  1.00  0.00    -0.227 OA
HETATM    6  C5  UNL     1      45.554  -3.310  12.943  1.00  0.00     0.078 C 
HETATM    7  C6  UNL     1      46.005  -3.168  11.530  1.00  0.00     0.034 C 
HETATM    8  C7  UNL     1      44.155  -2.788  13.185  1.00  0.00     0.034 C 
ENDROOT
BRANCH   1   9
HETATM    9  N1  UNL     1      44.859  -5.584  13.724  1.00  0.00    -0.377 N 
ATOM     10  H1  UNL     1      44.186  -5.544  14.490  1.00  0.00     0.160 HD
BRANCH   9  11
HETATM   11  C2  UNL     1      44.731  -6.621  12.786  1.00  0.00     0.069 C 
HETATM   12  C1  UNL     1      43.963  -6.401  11.546  1.00  0.00     0.081 C 
HETATM   13  S1  UNL     1      45.405  -8.080  13.021  1.00  0.00    -0.066 SA
ENDBRANCH   9  11
ENDBRANCH   1   9
TORSDOF 2
ENDMDL
MODEL 5
REMARK VINA RESULT: -4.630877793      3.051      4.626
REMARK  2 active torsions:
REMARK  status: ('A' for Active; 'I' for Inactive)
REMARK    1  A    between atoms: C2_2  and  N1_4 
REMARK    2  A    between atoms: N1_4  and  C3_6 
ROOT
HETATM    1  C3  UNL     1      45.558  -2.716  14.527  1.00  0.00     0.118 C 
HETATM    2  C4  UNL     1      46.199  -4.040  14.141  1.00  0.00     0.168 C 
HETATM    3  S2  UNL     1      45.053  -4.114  12.795  1.00  0.00     0.156 S 
HETATM    4  O1  UNL     1      45.577  -4.674  11.527  1.00  0.00    -0.227 OA
HETATM    5  O2  UNL     1      43.668  -4.457  13.167  1.00  0.00    -0.227 OA
HETATM    6  C5  UNL     1      45.492  -2.394  13.070  1.00  0.00     0.078 C 
HETATM    7  C6  UNL     1      44.382  -1.529  12.582  1.00  0.00     0.034 C 
HETATM    8  C7  UNL     1      46.827  -2.076  12.435  1.00  0.00     0.034 C 
ENDROOT
BRANCH   1   9
HETATM    9  N1  UNL     1      46.436  -1.915  15.337  1.00  0.00    -0.377 N 
ATOM     10  H1  UNL     1      47.442  -2.050  15.230  1.00  0.00     0.160 HD
BRANCH   9  11
HETATM   11  C2  UNL     1      45.995  -0.959  16.266  1.00  0.00     0.069 C 
HETATM   12  C1  UNL     1      44.695  -0.289  16.072  1.00  0.00     0.081 C 
HETATM   13  S1  UNL     1      46.879  -0.552  17.567  1.00  0.00    -0.066 SA
ENDBRANCH   9  11
ENDBRANCH   1   9
TORSDOF 2
ENDMDL
