MODEL 1
REMARK VINA RESULT: -4.476753255      0.000      0.000
REMARK  1 active torsions:
REMARK  status: ('A' for Active; 'I' for Inactive)
REMARK    1  A    between atoms: C2_2  and  C3_3 
REMARK       I    between atoms: N3_13  and  C10_14 
ROOT
HETATM    1  C3  UNL     1      51.054  -0.476  20.349  1.00  0.00     0.107 C 
HETATM    2  C4  UNL     1      49.915  -0.410  19.392  1.00  0.00     0.051 C 
HETATM    3  C5  UNL     1      48.671   0.252  19.842  1.00  0.00     0.025 C 
HETATM    4  C6  UNL     1      48.605   0.762  21.231  1.00  0.00     0.134 C 
HETATM    5  N1  UNL     1      49.829   0.728  21.965  1.00  0.00    -0.352 N 
ATOM      6  H1  UNL     1      49.843   0.752  22.984  1.00  0.00     0.174 HD
HETATM    7  N2  UNL     1      50.977   0.664  21.237  1.00  0.00    -0.207 NA
HETATM    8  C7  UNL     1      52.101   0.765  22.124  1.00  0.00     0.118 C 
HETATM    9  C8  UNL     1      52.467  -0.514  22.791  1.00  0.00     0.036 C 
HETATM   10  C9  UNL     1      52.397  -1.744  21.965  1.00  0.00     0.129 C 
HETATM   11  N3  UNL     1      51.147  -1.657  21.164  1.00  0.00    -0.329 N 
HETATM   12  C10 UNL     1      50.244  -2.704  21.298  1.00  0.00     0.217 C 
HETATM   13  C11 UNL     1      50.549  -3.834  22.202  1.00  0.00     0.117 C 
HETATM   14  O1  UNL     1      49.172  -2.751  20.693  1.00  0.00    -0.274 OA
ENDROOT
BRANCH   1  15
HETATM   15  C2  UNL     1      52.350  -0.409  19.553  1.00  0.00     0.045 C 
HETATM   16  C1  UNL     1      52.450   0.882  18.761  1.00  0.00     0.009 C 
ENDBRANCH   1  15
TORSDOF 1
ENDMDL
MODEL 2
REMARK VINA RESULT: -3.962424869      1.868      4.160
REMARK  1 active torsions:
REMARK  status: ('A' for Active; 'I' for Inactive)
REMARK    1  A    between atoms: C2_2  and  C3_3 
REMARK       I    between atoms: N3_13  and  C10_14 
ROOT
HETATM    1  C3  UNL     1      50.993  -0.491  20.439  1.00  0.00     0.107 C 
HETATM    2  C4  UNL     1      52.372  -1.053  20.414  1.00  0.00     0.051 C 
HETATM    3  C5  UNL     1      53.383  -0.448  21.310  1.00  0.00     0.025 C 
HETATM    4  C6  UNL     1      52.986   0.714  22.138  1.00  0.00     0.134 C 
HETATM    5  N1  UNL     1      51.596   1.038  22.131  1.00  0.00    -0.352 N 
ATOM      6  H1  UNL     1      51.261   1.965  22.394  1.00  0.00     0.174 HD
HETATM    7  N2  UNL     1      50.740   0.049  21.758  1.00  0.00    -0.207 NA
HETATM    8  C7  UNL     1      49.390   0.508  21.929  1.00  0.00     0.118 C 
HETATM    9  C8  UNL     1      48.887   1.350  20.810  1.00  0.00     0.036 C 
HETATM   10  C9  UNL     1      49.265   0.934  19.437  1.00  0.00     0.129 C 
HETATM   11  N3  UNL     1      50.698   0.542  19.482  1.00  0.00    -0.329 N 
HETATM   12  C10 UNL     1      51.556   1.205  18.614  1.00  0.00     0.217 C 
HETATM   13  C11 UNL     1      51.030   2.243  17.702  1.00  0.00     0.117 C 
HETATM   14  O1  UNL     1      52.765   0.977  18.556  1.00  0.00    -0.274 OA
ENDROOT
BRANCH   1  15
HETATM   15  C2  UNL     1      50.013  -1.620  20.158  1.00  0.00     0.045 C 
HETATM   16  C1  UNL     1      50.179  -2.760  21.146  1.00  0.00     0.009 C 
ENDBRANCH   1  15
TORSDOF 1
ENDMDL
MODEL 3
REMARK VINA RESULT: -3.926655139      2.096      3.737
REMARK  1 active torsions:
REMARK  status: ('A' for Active; 'I' for Inactive)
REMARK    1  A    between atoms: C2_2  and  C3_3 
REMARK       I    between atoms: N3_13  and  C10_14 
ROOT
HETATM    1  C3  UNL     1      50.768   0.138  21.001  1.00  0.00     0.107 C 
HETATM    2  C4  UNL     1      49.868   1.163  21.598  1.00  0.00     0.051 C 
HETATM    3  C5  UNL     1      48.513   1.314  21.022  1.00  0.00     0.025 C 
HETATM    4  C6  UNL     1      48.146   0.482  19.853  1.00  0.00     0.134 C 
HETATM    5  N1  UNL     1      49.083  -0.535  19.494  1.00  0.00    -0.352 N 
ATOM      6  H1  UNL     1      49.097  -0.944  18.560  1.00  0.00     0.174 HD
HETATM    7  N2  UNL     1      49.955  -0.930  20.460  1.00  0.00    -0.207 NA
HETATM    8  C7  UNL     1      50.729  -2.035  19.968  1.00  0.00     0.118 C 
HETATM    9  C8  UNL     1      51.879  -1.637  19.110  1.00  0.00     0.036 C 
HETATM   10  C9  UNL     1      52.645  -0.440  19.531  1.00  0.00     0.129 C 
HETATM   11  N3  UNL     1      51.653   0.582  19.959  1.00  0.00    -0.329 N 
HETATM   12  C10 UNL     1      51.702   1.812  19.314  1.00  0.00     0.217 C 
HETATM   13  C11 UNL     1      52.710   2.055  18.260  1.00  0.00     0.117 C 
HETATM   14  O1  UNL     1      50.935   2.739  19.573  1.00  0.00    -0.274 OA
ENDROOT
BRANCH   1  15
HETATM   15  C2  UNL     1      51.658  -0.415  22.105  1.00  0.00     0.045 C 
HETATM   16  C1  UNL     1      52.307   0.697  22.907  1.00  0.00     0.009 C 
ENDBRANCH   1  15
TORSDOF 1
ENDMDL
MODEL 4
REMARK VINA RESULT: -3.896895932      2.296      3.726
REMARK  1 active torsions:
REMARK  status: ('A' for Active; 'I' for Inactive)
REMARK    1  A    between atoms: C2_2  and  C3_3 
REMARK       I    between atoms: N3_13  and  C10_14 
ROOT
HETATM    1  C3  UNL     1      48.392  -0.296  20.662  1.00  0.00     0.107 C 
HETATM    2  C4  UNL     1      47.922   0.844  19.828  1.00  0.00     0.051 C 
HETATM    3  C5  UNL     1      46.959   0.558  18.742  1.00  0.00     0.025 C 
HETATM    4  C6  UNL     1      46.558  -0.849  18.508  1.00  0.00     0.134 C 
HETATM    5  N1  UNL     1      47.004  -1.794  19.480  1.00  0.00    -0.352 N 
ATOM      6  H1  UNL     1      47.062  -2.790  19.271  1.00  0.00     0.174 HD
HETATM    7  N2  UNL     1      47.349  -1.299  20.700  1.00  0.00    -0.207 NA
HETATM    8  C7  UNL     1      47.649  -2.392  21.581  1.00  0.00     0.118 C 
HETATM    9  C8  UNL     1      49.025  -2.937  21.427  1.00  0.00     0.036 C 
HETATM   10  C9  UNL     1      50.115  -1.954  21.213  1.00  0.00     0.129 C 
HETATM   11  N3  UNL     1      49.605  -0.946  20.246  1.00  0.00    -0.329 N 
HETATM   12  C10 UNL     1      50.347  -0.760  19.087  1.00  0.00     0.217 C 
HETATM   13  C11 UNL     1      51.581  -1.544  18.863  1.00  0.00     0.117 C 
HETATM   14  O1  UNL     1      50.032   0.040  18.206  1.00  0.00    -0.274 OA
ENDROOT
BRANCH   1  15
HETATM   15  C2  UNL     1      48.649   0.218  22.071  1.00  0.00     0.045 C 
HETATM   16  C1  UNL     1      49.738   1.275  22.088  1.00  0.00     0.009 C 
ENDBRANCH   1  15
TORSDOF 1
ENDMDL
MODEL 5
REMARK VINA RESULT: -3.866735051      1.715      3.551
REMARK  1 active torsions:
REMARK  status: ('A' for Active; 'I' for Inactive)
REMARK    1  A    between atoms: C2_2  and  C3_3 
REMARK       I    between atoms: N3_13  and  C10_14 
ROOT
HETATM    1  C3  UNL     1      49.705  -0.407  20.941  1.00  0.00     0.107 C 
HETATM    2  C4  UNL     1      51.168  -0.234  21.160  1.00  0.00     0.051 C 
HETATM    3  C5  UNL     1      52.070  -0.438  20.005  1.00  0.00     0.025 C 
HETATM    4  C6  UNL     1      51.478  -0.856  18.714  1.00  0.00     0.134 C 
HETATM    5  N1  UNL     1      50.052  -0.850  18.651  1.00  0.00    -0.352 N 
ATOM      6  H1  UNL     1      49.545  -1.396  17.955  1.00  0.00     0.174 HD
HETATM    7  N2  UNL     1      49.403  -0.079  19.565  1.00  0.00    -0.207 NA
HETATM    8  C7  UNL     1      47.997  -0.094  19.276  1.00  0.00     0.118 C 
HETATM    9  C8  UNL     1      47.282  -1.290  19.797  1.00  0.00     0.036 C 
HETATM   10  C9  UNL     1      47.677  -1.773  21.142  1.00  0.00     0.129 C 
HETATM   11  N3  UNL     1      49.161  -1.712  21.207  1.00  0.00    -0.329 N 
HETATM   12  C10 UNL     1      49.824  -2.894  21.509  1.00  0.00     0.217 C 
HETATM   13  C11 UNL     1      49.055  -4.134  21.751  1.00  0.00     0.117 C 
HETATM   14  O1  UNL     1      51.050  -2.978  21.589  1.00  0.00    -0.274 OA
ENDROOT
BRANCH   1  15
HETATM   15  C2  UNL     1      48.968   0.554  21.863  1.00  0.00     0.045 C 
HETATM   16  C1  UNL     1      48.992   1.972  21.323  1.00  0.00     0.009 C 
ENDBRANCH   1  15
TORSDOF 1
ENDMDL
