MODEL 1
REMARK VINA RESULT: -6.506692078      0.000      0.000
REMARK  1 active torsions:
REMARK  status: ('A' for Active; 'I' for Inactive)
REMARK       I    between atoms: N2_5  and  C4_6 
REMARK       I    between atoms: C4_6  and  N3_8 
REMARK       I    between atoms: N3_8  and  C5_10 
REMARK    1  A    between atoms: C5_10  and  C6_12 
ROOT
HETATM    1  C1  UNL     1      48.021   0.471  20.435  1.00  0.00     0.143 C 
HETATM    2  N1  UNL     1      47.154   0.190  19.342  1.00  0.00    -0.414 N 
HETATM    3  C2  UNL     1      46.653  -1.130  19.264  1.00  0.00     0.136 C 
HETATM    4  C3  UNL     1      46.570  -1.740  17.915  1.00  0.00     0.147 C 
HETATM    5  N2  UNL     1      46.368  -0.816  16.846  1.00  0.00    -0.331 N 
HETATM    6  C4  UNL     1      46.139  -1.312  15.529  1.00  0.00     0.325 C 
HETATM    7  O1  UNL     1      45.968  -0.470  14.639  1.00  0.00    -0.247 OA
HETATM    8  N3  UNL     1      46.110  -2.690  15.272  1.00  0.00    -0.279 N 
ATOM      9  H3  UNL     1      46.265  -3.275  16.092  1.00  0.00     0.173 HD
HETATM   10  C5  UNL     1      45.907  -3.400  14.089  1.00  0.00     0.233 C 
HETATM   11  O2  UNL     1      45.945  -4.692  14.196  1.00  0.00    -0.272 OA
HETATM   12  C10 UNL     1      46.397   0.581  17.098  1.00  0.00     0.147 C 
HETATM   13  C11 UNL     1      47.458   0.853  18.132  1.00  0.00     0.136 C 
ENDROOT
BRANCH  10  14
HETATM   14  C6  UNL     1      45.655  -2.912  12.726  1.00  0.00     0.030 C 
HETATM   15  C7  UNL     1      45.430  -4.117  11.786  1.00  0.00     0.025 C 
HETATM   16  C8  UNL     1      44.384  -2.097  12.698  1.00  0.00     0.025 C 
HETATM   17  C9  UNL     1      46.770  -2.118  12.127  1.00  0.00     0.025 C 
ENDBRANCH  10  14
TORSDOF 1
ENDMDL
MODEL 2
REMARK VINA RESULT: -6.249331798      0.093      1.060
REMARK  1 active torsions:
REMARK  status: ('A' for Active; 'I' for Inactive)
REMARK       I    between atoms: N2_5  and  C4_6 
REMARK       I    between atoms: C4_6  and  N3_8 
REMARK       I    between atoms: N3_8  and  C5_10 
REMARK    1  A    between atoms: C5_10  and  C6_12 
ROOT
HETATM    1  C1  UNL     1      47.922   0.489  20.378  1.00  0.00     0.143 C 
HETATM    2  N1  UNL     1      47.069   0.189  19.278  1.00  0.00    -0.414 N 
HETATM    3  C2  UNL     1      46.585  -1.137  19.205  1.00  0.00     0.136 C 
HETATM    4  C3  UNL     1      46.524  -1.759  17.861  1.00  0.00     0.147 C 
HETATM    5  N2  UNL     1      46.323  -0.846  16.782  1.00  0.00    -0.331 N 
HETATM    6  C4  UNL     1      46.113  -1.356  15.467  1.00  0.00     0.325 C 
HETATM    7  O1  UNL     1      45.943  -0.523  14.568  1.00  0.00    -0.247 OA
HETATM    8  N3  UNL     1      46.104  -2.735  15.220  1.00  0.00    -0.279 N 
ATOM      9  H3  UNL     1      46.257  -3.312  16.047  1.00  0.00     0.173 HD
HETATM   10  C5  UNL     1      45.922  -3.457  14.041  1.00  0.00     0.233 C 
HETATM   11  O2  UNL     1      45.974  -4.747  14.159  1.00  0.00    -0.272 OA
HETATM   12  C10 UNL     1      46.332   0.553  17.023  1.00  0.00     0.147 C 
HETATM   13  C11 UNL     1      47.379   0.846  18.066  1.00  0.00     0.136 C 
ENDROOT
BRANCH  10  14
HETATM   14  C6  UNL     1      45.679  -2.983  12.672  1.00  0.00     0.030 C 
HETATM   15  C7  UNL     1      44.418  -2.091  12.657  1.00  0.00     0.025 C 
HETATM   16  C8  UNL     1      46.830  -2.116  12.216  1.00  0.00     0.025 C 
HETATM   17  C9  UNL     1      45.440  -4.062  11.666  1.00  0.00     0.025 C 
ENDBRANCH  10  14
TORSDOF 1
ENDMDL
MODEL 3
REMARK VINA RESULT: -5.839374270      1.045      1.105
REMARK  1 active torsions:
REMARK  status: ('A' for Active; 'I' for Inactive)
REMARK       I    between atoms: N2_5  and  C4_6 
REMARK       I    between atoms: C4_6  and  N3_8 
REMARK       I    between atoms: N3_8  and  C5_10 
REMARK    1  A    between atoms: C5_10  and  C6_12 
ROOT
HETATM    1  C1  UNL     1      47.775   1.411  20.403  1.00  0.00     0.143 C 
HETATM    2  N1  UNL     1      46.949   0.637  19.540  1.00  0.00    -0.414 N 
HETATM    3  C2  UNL     1      47.405  -0.668  19.242  1.00  0.00     0.136 C 
HETATM    4  C3  UNL     1      47.226  -1.142  17.850  1.00  0.00     0.147 C 
HETATM    5  N2  UNL     1      46.107  -0.583  17.161  1.00  0.00    -0.331 N 
HETATM    6  C4  UNL     1      45.768  -1.075  15.866  1.00  0.00     0.325 C 
HETATM    7  O1  UNL     1      44.790  -0.557  15.313  1.00  0.00    -0.247 OA
HETATM    8  N3  UNL     1      46.516  -2.095  15.263  1.00  0.00    -0.279 N 
ATOM      9  H3  UNL     1      47.296  -2.434  15.825  1.00  0.00     0.173 HD
HETATM   10  C5  UNL     1      46.379  -2.729  14.028  1.00  0.00     0.233 C 
HETATM   11  O2  UNL     1      47.255  -3.649  13.769  1.00  0.00    -0.272 OA
HETATM   12  C10 UNL     1      45.346   0.453  17.764  1.00  0.00     0.147 C 
HETATM   13  C11 UNL     1      46.288   1.354  18.519  1.00  0.00     0.136 C 
ENDROOT
BRANCH  10  14
HETATM   14  C6  UNL     1      45.390  -2.515  12.962  1.00  0.00     0.030 C 
HETATM   15  C7  UNL     1      45.873  -3.214  11.672  1.00  0.00     0.025 C 
HETATM   16  C8  UNL     1      44.078  -3.162  13.341  1.00  0.00     0.025 C 
HETATM   17  C9  UNL     1      45.156  -1.085  12.600  1.00  0.00     0.025 C 
ENDBRANCH  10  14
TORSDOF 1
ENDMDL
MODEL 4
REMARK VINA RESULT: -5.785052537      1.732      6.163
REMARK  1 active torsions:
REMARK  status: ('A' for Active; 'I' for Inactive)
REMARK       I    between atoms: N2_5  and  C4_6 
REMARK       I    between atoms: C4_6  and  N3_8 
REMARK       I    between atoms: N3_8  and  C5_10 
REMARK    1  A    between atoms: C5_10  and  C6_12 
ROOT
HETATM    1  C1  UNL     1      44.623  -5.167  11.904  1.00  0.00     0.143 C 
HETATM    2  N1  UNL     1      45.323  -4.110  12.552  1.00  0.00    -0.414 N 
HETATM    3  C2  UNL     1      46.184  -4.486  13.608  1.00  0.00     0.136 C 
HETATM    4  C3  UNL     1      46.207  -3.608  14.803  1.00  0.00     0.147 C 
HETATM    5  N2  UNL     1      45.917  -2.234  14.548  1.00  0.00    -0.331 N 
HETATM    6  C4  UNL     1      46.048  -1.286  15.605  1.00  0.00     0.325 C 
HETATM    7  O1  UNL     1      45.786  -0.108  15.331  1.00  0.00    -0.247 OA
HETATM    8  N3  UNL     1      46.453  -1.684  16.886  1.00  0.00    -0.279 N 
ATOM      9  H3  UNL     1      46.637  -2.683  16.978  1.00  0.00     0.173 HD
HETATM   10  C5  UNL     1      46.650  -0.953  18.057  1.00  0.00     0.233 C 
HETATM   11  O2  UNL     1      47.033  -1.639  19.089  1.00  0.00    -0.272 OA
HETATM   12  C10 UNL     1      45.504  -1.822  13.253  1.00  0.00     0.147 C 
HETATM   13  C11 UNL     1      44.615  -2.894  12.677  1.00  0.00     0.136 C 
ENDROOT
BRANCH  10  14
HETATM   14  C6  UNL     1      46.488   0.485  18.310  1.00  0.00     0.030 C 
HETATM   15  C7  UNL     1      46.977   0.809  19.740  1.00  0.00     0.025 C 
HETATM   16  C8  UNL     1      47.361   1.276  17.364  1.00  0.00     0.025 C 
HETATM   17  C9  UNL     1      45.082   0.984  18.227  1.00  0.00     0.025 C 
ENDBRANCH  10  14
TORSDOF 1
ENDMDL
MODEL 5
REMARK VINA RESULT: -5.682426724      1.694      1.868
REMARK  1 active torsions:
REMARK  status: ('A' for Active; 'I' for Inactive)
REMARK       I    between atoms: N2_5  and  C4_6 
REMARK       I    between atoms: C4_6  and  N3_8 
REMARK       I    between atoms: N3_8  and  C5_10 
REMARK    1  A    between atoms: C5_10  and  C6_12 
ROOT
HETATM    1  C1  UNL     1      45.823   2.097  19.812  1.00  0.00     0.143 C 
HETATM    2  N1  UNL     1      45.365   1.038  18.979  1.00  0.00    -0.414 N 
HETATM    3  C2  UNL     1      46.290  -0.001  18.724  1.00  0.00     0.136 C 
HETATM    4  C3  UNL     1      46.319  -0.554  17.348  1.00  0.00     0.147 C 
HETATM    5  N2  UNL     1      45.079  -0.488  16.644  1.00  0.00    -0.331 N 
HETATM    6  C4  UNL     1      44.968  -1.114  15.368  1.00  0.00     0.325 C 
HETATM    7  O1  UNL     1      43.872  -1.029  14.801  1.00  0.00    -0.247 OA
HETATM    8  N3  UNL     1      46.055  -1.790  14.798  1.00  0.00    -0.279 N 
ATOM      9  H3  UNL     1      46.900  -1.785  15.369  1.00  0.00     0.173 HD
HETATM   10  C5  UNL     1      46.184  -2.467  13.586  1.00  0.00     0.233 C 
HETATM   11  O2  UNL     1      47.348  -2.989  13.355  1.00  0.00    -0.272 OA
HETATM   12  C10 UNL     1      43.973   0.196  17.214  1.00  0.00     0.147 C 
HETATM   13  C11 UNL     1      44.490   1.413  17.936  1.00  0.00     0.136 C 
ENDROOT
BRANCH  10  14
HETATM   14  C6  UNL     1      45.200  -2.683  12.516  1.00  0.00     0.030 C 
HETATM   15  C7  UNL     1      45.903  -3.322  11.298  1.00  0.00     0.025 C 
HETATM   16  C8  UNL     1      44.149  -3.667  12.975  1.00  0.00     0.025 C 
HETATM   17  C9  UNL     1      44.536  -1.443  12.013  1.00  0.00     0.025 C 
ENDBRANCH  10  14
TORSDOF 1
ENDMDL
