MODEL 1
REMARK VINA RESULT: -7.796149710      0.000      0.000
REMARK  1 active torsions:
REMARK  status: ('A' for Active; 'I' for Inactive)
REMARK       I    between atoms: N1_2  and  C3_4 
REMARK    1  A    between atoms: N3_6  and  N4_8 
ROOT
HETATM    1  N4  UNL     1      44.561  -1.432  14.098  1.00  0.00    -0.319 N 
HETATM    2  C4  UNL     1      44.724  -2.678  13.839  1.00  0.00     0.119 A 
HETATM    3  C5  UNL     1      44.984  -3.936  13.139  1.00  0.00    -0.015 A 
HETATM    4  C6  UNL     1      46.142  -4.793  13.603  1.00  0.00     0.018 C 
HETATM    5  C7  UNL     1      43.754  -4.745  12.785  1.00  0.00     0.018 C 
HETATM    6  C8  UNL     1      45.315  -2.760  12.398  1.00  0.00    -0.011 A 
HETATM    7  C9  UNL     1      46.779  -2.259  12.449  1.00  0.00     0.018 C 
HETATM    8  C10 UNL     1      44.406  -1.732  11.785  1.00  0.00     0.033 C 
HETATM    9  C11 UNL     1      44.666  -0.626  12.864  1.00  0.00     0.144 C 
ENDROOT
BRANCH   1  10
HETATM   10  N3  UNL     1      44.256  -0.846  15.293  1.00  0.00    -0.275 N 
HETATM   11  C3  UNL     1      45.041  -0.487  16.217  1.00  0.00     0.204 C 
HETATM   12  N1  UNL     1      44.424   0.111  17.376  1.00  0.00    -0.363 N 
HETATM   13  N2  UNL     1      46.449  -0.641  16.163  1.00  0.00    -0.062 NA
HETATM   14  C1  UNL     1      43.176   0.820  17.288  1.00  0.00     0.152 C 
HETATM   15  C2  UNL     1      45.089  -0.020  18.632  1.00  0.00     0.152 C 
ATOM     16  H3  UNL     1      43.264  -0.675  15.462  1.00  0.00     0.189 HD
ENDBRANCH   1  10
TORSDOF 1
ENDMDL
MODEL 2
REMARK VINA RESULT: -6.523739589      2.911      5.812
REMARK  1 active torsions:
REMARK  status: ('A' for Active; 'I' for Inactive)
REMARK       I    between atoms: N1_2  and  C3_4 
REMARK    1  A    between atoms: N3_6  and  N4_8 
ROOT
HETATM    1  N4  UNL     1      44.911  -4.004  13.094  1.00  0.00    -0.319 N 
HETATM    2  C4  UNL     1      44.682  -2.752  13.252  1.00  0.00     0.119 A 
HETATM    3  C5  UNL     1      44.834  -1.338  13.595  1.00  0.00    -0.015 A 
HETATM    4  C6  UNL     1      44.722  -0.311  12.489  1.00  0.00     0.018 C 
HETATM    5  C7  UNL     1      44.149  -0.906  14.875  1.00  0.00     0.018 C 
HETATM    6  C8  UNL     1      46.043  -2.097  13.642  1.00  0.00    -0.011 A 
HETATM    7  C9  UNL     1      46.953  -2.092  12.389  1.00  0.00     0.018 C 
HETATM    8  C10 UNL     1      46.466  -3.158  14.620  1.00  0.00     0.033 C 
HETATM    9  C11 UNL     1      46.228  -4.369  13.653  1.00  0.00     0.144 C 
ENDROOT
BRANCH   1  10
HETATM   10  N3  UNL     1      44.086  -4.957  12.567  1.00  0.00    -0.275 N 
HETATM   11  C3  UNL     1      44.315  -6.189  12.398  1.00  0.00     0.204 C 
HETATM   12  N1  UNL     1      43.243  -6.957  11.812  1.00  0.00    -0.363 N 
HETATM   13  N2  UNL     1      45.534  -6.824  12.748  1.00  0.00    -0.062 NA
HETATM   14  C1  UNL     1      41.865  -6.581  11.974  1.00  0.00     0.152 C 
HETATM   15  C2  UNL     1      43.587  -8.118  11.054  1.00  0.00     0.152 C 
ATOM     16  H3  UNL     1      43.166  -4.632  12.271  1.00  0.00     0.189 HD
ENDBRANCH   1  10
TORSDOF 1
ENDMDL
MODEL 3
REMARK VINA RESULT: -6.503699810      1.003      1.510
REMARK  1 active torsions:
REMARK  status: ('A' for Active; 'I' for Inactive)
REMARK       I    between atoms: N1_2  and  C3_4 
REMARK    1  A    between atoms: N3_6  and  N4_8 
ROOT
HETATM    1  N4  UNL     1      45.588  -1.164  14.537  1.00  0.00    -0.319 N 
HETATM    2  C4  UNL     1      45.438  -2.381  14.160  1.00  0.00     0.119 A 
HETATM    3  C5  UNL     1      45.246  -3.573  13.335  1.00  0.00    -0.015 A 
HETATM    4  C6  UNL     1      46.316  -4.643  13.350  1.00  0.00     0.018 C 
HETATM    5  C7  UNL     1      43.842  -4.141  13.337  1.00  0.00     0.018 C 
HETATM    6  C8  UNL     1      45.543  -2.382  12.605  1.00  0.00    -0.011 A 
HETATM    7  C9  UNL     1      47.019  -2.116  12.220  1.00  0.00     0.018 C 
HETATM    8  C10 UNL     1      44.691  -1.164  12.379  1.00  0.00     0.033 C 
HETATM    9  C11 UNL     1      45.458  -0.243  13.389  1.00  0.00     0.144 C 
ENDROOT
BRANCH   1  10
HETATM   10  N3  UNL     1      45.767  -0.683  15.803  1.00  0.00    -0.275 N 
HETATM   11  C3  UNL     1      44.912  -0.161  16.575  1.00  0.00     0.204 C 
HETATM   12  N1  UNL     1      45.399   0.257  17.867  1.00  0.00    -0.363 N 
HETATM   13  N2  UNL     1      43.548   0.021  16.237  1.00  0.00    -0.062 NA
HETATM   14  C1  UNL     1      46.521  -0.383  18.498  1.00  0.00     0.152 C 
HETATM   15  C2  UNL     1      44.731   1.339  18.516  1.00  0.00     0.152 C 
ATOM     16  H3  UNL     1      46.715  -0.755  16.174  1.00  0.00     0.189 HD
ENDBRANCH   1  10
TORSDOF 1
ENDMDL
MODEL 4
REMARK VINA RESULT: -6.447114459      2.736      5.435
REMARK  1 active torsions:
REMARK  status: ('A' for Active; 'I' for Inactive)
REMARK       I    between atoms: N1_2  and  C3_4 
REMARK    1  A    between atoms: N3_6  and  N4_8 
ROOT
HETATM    1  N4  UNL     1      45.035  -3.324  12.565  1.00  0.00    -0.319 N 
HETATM    2  C4  UNL     1      45.084  -2.616  13.634  1.00  0.00     0.119 A 
HETATM    3  C5  UNL     1      45.404  -1.562  14.597  1.00  0.00    -0.015 A 
HETATM    4  C6  UNL     1      44.271  -0.733  15.163  1.00  0.00     0.018 C 
HETATM    5  C7  UNL     1      46.445  -1.929  15.635  1.00  0.00     0.018 C 
HETATM    6  C8  UNL     1      45.792  -1.280  13.251  1.00  0.00    -0.011 A 
HETATM    7  C9  UNL     1      44.821  -0.453  12.374  1.00  0.00     0.018 C 
HETATM    8  C10 UNL     1      46.883  -1.900  12.424  1.00  0.00     0.033 C 
HETATM    9  C11 UNL     1      45.932  -2.769  11.531  1.00  0.00     0.144 C 
ENDROOT
BRANCH   1  10
HETATM   10  N3  UNL     1      44.346  -4.481  12.345  1.00  0.00    -0.275 N 
HETATM   11  C3  UNL     1      44.668  -5.662  12.663  1.00  0.00     0.204 C 
HETATM   12  N1  UNL     1      43.730  -6.695  12.296  1.00  0.00    -0.363 N 
HETATM   13  N2  UNL     1      45.867  -6.001  13.340  1.00  0.00    -0.062 NA
HETATM   14  C1  UNL     1      42.322  -6.430  12.173  1.00  0.00     0.152 C 
HETATM   15  C2  UNL     1      44.238  -8.008  12.055  1.00  0.00     0.152 C 
ATOM     16  H3  UNL     1      43.453  -4.381  11.862  1.00  0.00     0.189 HD
ENDBRANCH   1  10
TORSDOF 1
ENDMDL
MODEL 5
REMARK VINA RESULT: -6.220723094      1.089      2.342
REMARK  1 active torsions:
REMARK  status: ('A' for Active; 'I' for Inactive)
REMARK       I    between atoms: N1_2  and  C3_4 
REMARK    1  A    between atoms: N3_6  and  N4_8 
ROOT
HETATM    1  N4  UNL     1      46.203  -2.034  14.999  1.00  0.00    -0.319 N 
HETATM    2  C4  UNL     1      45.358  -2.359  14.089  1.00  0.00     0.119 A 
HETATM    3  C5  UNL     1      44.761  -2.892  12.865  1.00  0.00    -0.015 A 
HETATM    4  C6  UNL     1      43.693  -3.957  12.988  1.00  0.00     0.018 C 
HETATM    5  C7  UNL     1      44.453  -1.866  11.795  1.00  0.00     0.018 C 
HETATM    6  C8  UNL     1      46.107  -3.307  13.104  1.00  0.00    -0.011 A 
HETATM    7  C9  UNL     1      46.333  -4.663  13.817  1.00  0.00     0.018 C 
HETATM    8  C10 UNL     1      47.378  -2.507  13.035  1.00  0.00     0.033 C 
HETATM    9  C11 UNL     1      47.576  -2.389  14.585  1.00  0.00     0.144 C 
ENDROOT
BRANCH   1  10
HETATM   10  N3  UNL     1      45.973  -1.384  16.177  1.00  0.00    -0.275 N 
HETATM   11  C3  UNL     1      45.017  -0.611  16.476  1.00  0.00     0.204 C 
HETATM   12  N1  UNL     1      45.039  -0.065  17.811  1.00  0.00    -0.363 N 
HETATM   13  N2  UNL     1      43.965  -0.273  15.588  1.00  0.00    -0.062 NA
HETATM   14  C1  UNL     1      45.661  -0.761  18.904  1.00  0.00     0.152 C 
HETATM   15  C2  UNL     1      44.418   1.203  18.027  1.00  0.00     0.152 C 
ATOM     16  H3  UNL     1      46.662  -1.542  16.913  1.00  0.00     0.189 HD
ENDBRANCH   1  10
TORSDOF 1
ENDMDL
