MODEL 1
REMARK VINA RESULT: -8.573823440      0.000      0.000
REMARK  7 active torsions:
REMARK  status: ('A' for Active; 'I' for Inactive)
REMARK    1  A    between atoms: C2_2  and  C3_3 
REMARK    2  A    between atoms: C3_3  and  C4_4 
REMARK    3  A    between atoms: C4_4  and  O1_5 
REMARK    4  A    between atoms: O1_5  and  C5_6 
REMARK    5  A    between atoms: C10_11  and  O2_12 
REMARK    6  A    between atoms: C15_18  and  O3_19 
REMARK    7  A    between atoms: C21_27  and  C22_28 
ROOT
HETATM    1  C5  UNL     1      26.931  22.763  33.615  1.00  0.00     0.102 A 
HETATM    2  C6  UNL     1      27.432  21.479  33.537  1.00  0.00     0.047 A 
HETATM    3  C7  UNL     1      27.499  20.766  32.362  1.00  0.00    -0.042 A 
HETATM    4  C8  UNL     1      27.055  21.341  31.203  1.00  0.00    -0.049 A 
HETATM    5  C9  UNL     1      26.555  22.613  31.253  1.00  0.00     0.047 A 
HETATM    6  C10 UNL     1      26.487  23.332  32.441  1.00  0.00     0.099 A 
HETATM    7  C11 UNL     1      27.138  20.564  29.956  1.00  0.00     0.039 C 
HETATM    8  C12 UNL     1      28.482  19.922  29.913  1.00  0.00     0.010 C 
HETATM    9  C13 UNL     1      28.896  19.187  31.148  1.00  0.00     0.002 C 
HETATM   10  C14 UNL     1      28.056  19.364  32.350  1.00  0.00     0.052 C 
HETATM   11  C15 UNL     1      26.897  18.440  32.492  1.00  0.00     0.128 C 
HETATM   12  C16 UNL     1      27.166  17.026  32.120  1.00  0.00     0.049 C 
HETATM   13  C17 UNL     1      28.492  16.726  31.575  1.00  0.00     0.023 C 
HETATM   14  C18 UNL     1      28.379  15.451  30.721  1.00  0.00     0.024 C 
HETATM   15  C19 UNL     1      29.518  16.383  32.621  1.00  0.00     0.136 C 
HETATM   16  O4  UNL     1      29.419  16.244  33.805  1.00  0.00    -0.297 OA
HETATM   17  C20 UNL     1      30.771  16.245  31.802  1.00  0.00     0.084 C 
HETATM   18  C21 UNL     1      30.645  17.415  30.888  1.00  0.00    -0.002 C 
HETATM   19  C24 UNL     1      29.173  17.758  30.773  1.00  0.00     0.010 C 
ENDROOT
BRANCH   1  20
HETATM   20  O1  UNL     1      26.880  23.456  34.834  1.00  0.00    -0.348 OA
BRANCH  20  21
HETATM   21  C4  UNL     1      26.285  22.811  35.937  1.00  0.00     0.176 C 
BRANCH  21  22
HETATM   22  C3  UNL     1      26.540  23.534  37.232  1.00  0.00     0.026 C 
BRANCH  22  23
HETATM   23  C2  UNL     1      25.724  22.919  38.372  1.00  0.00    -0.002 C 
HETATM   24  C1  UNL     1      26.589  22.749  39.610  1.00  0.00     0.005 C 
ENDBRANCH  22  23
ENDBRANCH  21  22
ENDBRANCH  20  21
ENDBRANCH   1  20
BRANCH   6  25
HETATM   25  O2  UNL     1      25.980  24.627  32.497  1.00  0.00    -0.358 OA
ATOM     26  H2  UNL     1      25.060  24.733  32.711  1.00  0.00     0.217 HD
ENDBRANCH   6  25
BRANCH  11  27
HETATM   27  O3  UNL     1      26.511  18.468  33.857  1.00  0.00    -0.395 OA
ATOM     28  H3  UNL     1      25.675  18.021  33.917  1.00  0.00     0.210 HD
ENDBRANCH  11  27
BRANCH  18  29
HETATM   29  C22 UNL     1      31.324  17.252  29.567  1.00  0.00     0.001 C 
HETATM   30  C23 UNL     1      31.770  15.798  29.471  1.00  0.00     0.005 C 
ENDBRANCH  18  29
TORSDOF 7
ENDMDL
MODEL 2
REMARK VINA RESULT: -7.254012400     13.655     19.073
REMARK  7 active torsions:
REMARK  status: ('A' for Active; 'I' for Inactive)
REMARK    1  A    between atoms: C2_2  and  C3_3 
REMARK    2  A    between atoms: C3_3  and  C4_4 
REMARK    3  A    between atoms: C4_4  and  O1_5 
REMARK    4  A    between atoms: O1_5  and  C5_6 
REMARK    5  A    between atoms: C10_11  and  O2_12 
REMARK    6  A    between atoms: C15_18  and  O3_19 
REMARK    7  A    between atoms: C21_27  and  C22_28 
ROOT
HETATM    1  C5  UNL     1      16.876  26.713  40.396  1.00  0.00     0.102 A 
HETATM    2  C6  UNL     1      15.536  26.406  40.513  1.00  0.00     0.047 A 
HETATM    3  C7  UNL     1      14.631  27.215  41.163  1.00  0.00    -0.042 A 
HETATM    4  C8  UNL     1      15.062  28.385  41.725  1.00  0.00    -0.049 A 
HETATM    5  C9  UNL     1      16.386  28.712  41.622  1.00  0.00     0.047 A 
HETATM    6  C10 UNL     1      17.298  27.894  40.966  1.00  0.00     0.099 A 
HETATM    7  C11 UNL     1      14.080  29.237  42.413  1.00  0.00     0.039 C 
HETATM    8  C12 UNL     1      12.867  29.316  41.551  1.00  0.00     0.010 C 
HETATM    9  C13 UNL     1      12.335  28.010  41.050  1.00  0.00     0.002 C 
HETATM   10  C14 UNL     1      13.179  26.816  41.256  1.00  0.00     0.052 C 
HETATM   11  C15 UNL     1      13.012  26.100  42.552  1.00  0.00     0.128 C 
HETATM   12  C16 UNL     1      11.609  25.962  43.022  1.00  0.00     0.049 C 
HETATM   13  C17 UNL     1      10.574  26.619  42.219  1.00  0.00     0.023 C 
HETATM   14  C18 UNL     1       9.364  26.889  43.129  1.00  0.00     0.024 C 
HETATM   15  C19 UNL     1      10.023  25.758  41.114  1.00  0.00     0.136 C 
HETATM   16  O4  UNL     1      10.233  24.615  40.827  1.00  0.00    -0.297 OA
HETATM   17  C20 UNL     1       9.097  26.707  40.407  1.00  0.00     0.084 C 
HETATM   18  C21 UNL     1       9.925  27.945  40.375  1.00  0.00    -0.002 C 
HETATM   19  C24 UNL     1      10.914  27.871  41.521  1.00  0.00     0.010 C 
ENDROOT
BRANCH   1  20
HETATM   20  O1  UNL     1      17.766  25.860  39.724  1.00  0.00    -0.348 OA
BRANCH  20  21
HETATM   21  C4  UNL     1      18.696  25.135  40.497  1.00  0.00     0.176 C 
BRANCH  21  22
HETATM   22  C3  UNL     1      20.098  25.243  39.959  1.00  0.00     0.026 C 
BRANCH  22  23
HETATM   23  C2  UNL     1      20.168  24.747  38.512  1.00  0.00    -0.002 C 
HETATM   24  C1  UNL     1      20.861  23.396  38.450  1.00  0.00     0.005 C 
ENDBRANCH  22  23
ENDBRANCH  21  22
ENDBRANCH  20  21
ENDBRANCH   1  20
BRANCH   6  25
HETATM   25  O2  UNL     1      18.646  28.223  40.857  1.00  0.00    -0.358 OA
ATOM     26  H2  UNL     1      18.928  29.059  41.209  1.00  0.00     0.217 HD
ENDBRANCH   6  25
BRANCH  11  27
HETATM   27  O3  UNL     1      13.545  24.798  42.375  1.00  0.00    -0.395 OA
ATOM     28  H3  UNL     1      13.122  24.428  41.609  1.00  0.00     0.210 HD
ENDBRANCH  11  27
BRANCH  18  29
HETATM   29  C22 UNL     1       9.145  29.219  40.342  1.00  0.00     0.001 C 
HETATM   30  C23 UNL     1       8.946  29.582  38.875  1.00  0.00     0.005 C 
ENDBRANCH  18  29
TORSDOF 7
ENDMDL
MODEL 3
REMARK VINA RESULT: -7.156289617      2.667      3.164
REMARK  7 active torsions:
REMARK  status: ('A' for Active; 'I' for Inactive)
REMARK    1  A    between atoms: C2_2  and  C3_3 
REMARK    2  A    between atoms: C3_3  and  C4_4 
REMARK    3  A    between atoms: C4_4  and  O1_5 
REMARK    4  A    between atoms: O1_5  and  C5_6 
REMARK    5  A    between atoms: C10_11  and  O2_12 
REMARK    6  A    between atoms: C15_18  and  O3_19 
REMARK    7  A    between atoms: C21_27  and  C22_28 
ROOT
HETATM    1  C5  UNL     1      27.449  24.145  31.832  1.00  0.00     0.102 A 
HETATM    2  C6  UNL     1      27.888  22.847  31.995  1.00  0.00     0.047 A 
HETATM    3  C7  UNL     1      27.858  21.910  30.988  1.00  0.00    -0.042 A 
HETATM    4  C8  UNL     1      27.376  22.262  29.758  1.00  0.00    -0.049 A 
HETATM    5  C9  UNL     1      26.935  23.544  29.571  1.00  0.00     0.047 A 
HETATM    6  C10 UNL     1      26.965  24.490  30.589  1.00  0.00     0.099 A 
HETATM    7  C11 UNL     1      27.354  21.248  28.693  1.00  0.00     0.039 C 
HETATM    8  C12 UNL     1      28.664  20.538  28.719  1.00  0.00     0.010 C 
HETATM    9  C13 UNL     1      29.114  20.045  30.059  1.00  0.00     0.002 C 
HETATM   10  C14 UNL     1      28.352  20.506  31.236  1.00  0.00     0.052 C 
HETATM   11  C15 UNL     1      27.163  19.693  31.617  1.00  0.00     0.128 C 
HETATM   12  C16 UNL     1      27.349  18.221  31.529  1.00  0.00     0.049 C 
HETATM   13  C17 UNL     1      28.627  17.746  30.995  1.00  0.00     0.023 C 
HETATM   14  C18 UNL     1      28.411  16.334  30.426  1.00  0.00     0.024 C 
HETATM   15  C19 UNL     1      29.694  17.565  32.042  1.00  0.00     0.136 C 
HETATM   16  O4  UNL     1      29.656  17.673  33.232  1.00  0.00    -0.297 OA
HETATM   17  C20 UNL     1      30.892  17.197  31.211  1.00  0.00     0.084 C 
HETATM   18  C21 UNL     1      30.766  18.164  30.084  1.00  0.00    -0.002 C 
HETATM   19  C24 UNL     1      29.307  18.557  29.970  1.00  0.00     0.010 C 
ENDROOT
BRANCH   1  20
HETATM   20  O1  UNL     1      27.497  25.072  32.886  1.00  0.00    -0.348 OA
BRANCH  20  21
HETATM   21  C4  UNL     1      28.098  26.323  32.639  1.00  0.00     0.176 C 
BRANCH  21  22
HETATM   22  C3  UNL     1      29.565  26.203  32.327  1.00  0.00     0.026 C 
BRANCH  22  23
HETATM   23  C2  UNL     1      30.313  27.483  32.710  1.00  0.00    -0.002 C 
HETATM   24  C1  UNL     1      31.216  27.231  33.906  1.00  0.00     0.005 C 
ENDBRANCH  22  23
ENDBRANCH  21  22
ENDBRANCH  20  21
ENDBRANCH   1  20
BRANCH   6  25
HETATM   25  O2  UNL     1      26.519  25.795  30.404  1.00  0.00    -0.358 OA
ATOM     26  H2  UNL     1      26.971  26.488  30.870  1.00  0.00     0.217 HD
ENDBRANCH   6  25
BRANCH  11  27
HETATM   27  O3  UNL     1      26.856  20.016  32.963  1.00  0.00    -0.395 OA
ATOM     28  H3  UNL     1      25.980  20.386  32.965  1.00  0.00     0.210 HD
ENDBRANCH  11  27
BRANCH  18  29
HETATM   29  C22 UNL     1      31.362  17.702  28.794  1.00  0.00     0.001 C 
HETATM   30  C23 UNL     1      32.025  16.357  29.066  1.00  0.00     0.005 C 
ENDBRANCH  18  29
TORSDOF 7
ENDMDL
MODEL 4
REMARK VINA RESULT: -7.032899877     13.389     16.734
REMARK  7 active torsions:
REMARK  status: ('A' for Active; 'I' for Inactive)
REMARK    1  A    between atoms: C2_2  and  C3_3 
REMARK    2  A    between atoms: C3_3  and  C4_4 
REMARK    3  A    between atoms: C4_4  and  O1_5 
REMARK    4  A    between atoms: O1_5  and  C5_6 
REMARK    5  A    between atoms: C10_11  and  O2_12 
REMARK    6  A    between atoms: C15_18  and  O3_19 
REMARK    7  A    between atoms: C21_27  and  C22_28 
ROOT
HETATM    1  C5  UNL     1      14.268  25.470  39.743  1.00  0.00     0.102 A 
HETATM    2  C6  UNL     1      14.124  24.212  39.193  1.00  0.00     0.047 A 
HETATM    3  C7  UNL     1      12.939  23.512  39.211  1.00  0.00    -0.042 A 
HETATM    4  C8  UNL     1      11.838  24.074  39.797  1.00  0.00    -0.049 A 
HETATM    5  C9  UNL     1      11.955  25.320  40.349  1.00  0.00     0.047 A 
HETATM    6  C10 UNL     1      13.152  26.025  40.330  1.00  0.00     0.099 A 
HETATM    7  C11 UNL     1      10.580  23.312  39.805  1.00  0.00     0.039 C 
HETATM    8  C12 UNL     1      10.393  22.736  38.443  1.00  0.00     0.010 C 
HETATM    9  C13 UNL     1      11.571  22.012  37.872  1.00  0.00     0.002 C 
HETATM   10  C14 UNL     1      12.854  22.139  38.592  1.00  0.00     0.052 C 
HETATM   11  C15 UNL     1      13.100  21.158  39.686  1.00  0.00     0.128 C 
HETATM   12  C16 UNL     1      12.685  19.762  39.390  1.00  0.00     0.049 C 
HETATM   13  C17 UNL     1      12.005  19.531  38.113  1.00  0.00     0.023 C 
HETATM   14  C18 UNL     1      11.152  18.259  38.252  1.00  0.00     0.024 C 
HETATM   15  C19 UNL     1      12.939  19.230  36.971  1.00  0.00     0.136 C 
HETATM   16  O4  UNL     1      14.125  19.078  36.943  1.00  0.00    -0.297 OA
HETATM   17  C20 UNL     1      11.995  19.159  35.803  1.00  0.00     0.084 C 
HETATM   18  C21 UNL     1      11.113  20.328  36.076  1.00  0.00    -0.002 C 
HETATM   19  C24 UNL     1      11.152  20.601  37.566  1.00  0.00     0.010 C 
ENDROOT
BRANCH   1  20
HETATM   20  O1  UNL     1      15.495  26.150  39.703  1.00  0.00    -0.348 OA
BRANCH  20  21
HETATM   21  C4  UNL     1      16.558  25.643  40.478  1.00  0.00     0.176 C 
BRANCH  21  22
HETATM   22  C3  UNL     1      17.899  26.134  40.005  1.00  0.00     0.026 C 
BRANCH  22  23
HETATM   23  C2  UNL     1      18.997  25.114  40.318  1.00  0.00    -0.002 C 
HETATM   24  C1  UNL     1      20.020  25.077  39.195  1.00  0.00     0.005 C 
ENDBRANCH  22  23
ENDBRANCH  21  22
ENDBRANCH  20  21
ENDBRANCH   1  20
BRANCH   6  25
HETATM   25  O2  UNL     1      13.276  27.294  40.890  1.00  0.00    -0.358 OA
ATOM     26  H2  UNL     1      12.478  27.776  41.077  1.00  0.00     0.217 HD
ENDBRANCH   6  25
BRANCH  11  27
HETATM   27  O3  UNL     1      14.497  21.158  39.933  1.00  0.00    -0.395 OA
ATOM     28  H3  UNL     1      14.700  20.340  40.371  1.00  0.00     0.210 HD
ENDBRANCH  11  27
BRANCH  18  29
HETATM   29  C22 UNL     1       9.728  20.209  35.528  1.00  0.00     0.001 C 
HETATM   30  C23 UNL     1       9.634  18.848  34.847  1.00  0.00     0.005 C 
ENDBRANCH  18  29
TORSDOF 7
ENDMDL
MODEL 5
REMARK VINA RESULT: -6.882810602     13.719     16.890
REMARK  7 active torsions:
REMARK  status: ('A' for Active; 'I' for Inactive)
REMARK    1  A    between atoms: C2_2  and  C3_3 
REMARK    2  A    between atoms: C3_3  and  C4_4 
REMARK    3  A    between atoms: C4_4  and  O1_5 
REMARK    4  A    between atoms: O1_5  and  C5_6 
REMARK    5  A    between atoms: C10_11  and  O2_12 
REMARK    6  A    between atoms: C15_18  and  O3_19 
REMARK    7  A    between atoms: C21_27  and  C22_28 
ROOT
HETATM    1  C5  UNL     1      13.685  25.508  40.605  1.00  0.00     0.102 A 
HETATM    2  C6  UNL     1      13.731  24.385  39.804  1.00  0.00     0.047 A 
HETATM    3  C7  UNL     1      12.634  23.590  39.557  1.00  0.00    -0.042 A 
HETATM    4  C8  UNL     1      11.432  23.913  40.122  1.00  0.00    -0.049 A 
HETATM    5  C9  UNL     1      11.360  25.022  40.920  1.00  0.00     0.047 A 
HETATM    6  C10 UNL     1      12.468  25.824  41.169  1.00  0.00     0.099 A 
HETATM    7  C11 UNL     1      10.271  23.053  39.845  1.00  0.00     0.039 C 
HETATM    8  C12 UNL     1      10.266  22.759  38.384  1.00  0.00     0.010 C 
HETATM    9  C13 UNL     1      11.563  22.282  37.809  1.00  0.00     0.002 C 
HETATM   10  C14 UNL     1      12.757  22.374  38.673  1.00  0.00     0.052 C 
HETATM   11  C15 UNL     1      13.018  21.214  39.570  1.00  0.00     0.128 C 
HETATM   12  C16 UNL     1      12.789  19.878  38.960  1.00  0.00     0.049 C 
HETATM   13  C17 UNL     1      12.250  19.856  37.598  1.00  0.00     0.023 C 
HETATM   14  C18 UNL     1      11.537  18.510  37.390  1.00  0.00     0.024 C 
HETATM   15  C19 UNL     1      13.305  19.887  36.525  1.00  0.00     0.136 C 
HETATM   16  O4  UNL     1      14.499  19.855  36.593  1.00  0.00    -0.297 OA
HETATM   17  C20 UNL     1      12.479  19.974  35.273  1.00  0.00     0.084 C 
HETATM   18  C21 UNL     1      11.451  20.975  35.677  1.00  0.00    -0.002 C 
HETATM   19  C24 UNL     1      11.332  20.933  37.187  1.00  0.00     0.010 C 
ENDROOT
BRANCH   1  20
HETATM   20  O1  UNL     1      14.827  26.293  40.832  1.00  0.00    -0.348 OA
BRANCH  20  21
HETATM   21  C4  UNL     1      16.059  25.827  40.329  1.00  0.00     0.176 C 
BRANCH  21  22
HETATM   22  C3  UNL     1      17.209  26.719  40.713  1.00  0.00     0.026 C 
BRANCH  22  23
HETATM   23  C2  UNL     1      18.468  26.361  39.918  1.00  0.00    -0.002 C 
HETATM   24  C1  UNL     1      18.992  24.999  40.343  1.00  0.00     0.005 C 
ENDBRANCH  22  23
ENDBRANCH  21  22
ENDBRANCH  20  21
ENDBRANCH   1  20
BRANCH   6  25
HETATM   25  O2  UNL     1      12.400  26.953  41.979  1.00  0.00    -0.358 OA
ATOM     26  H2  UNL     1      11.870  27.683  41.680  1.00  0.00     0.217 HD
ENDBRANCH   6  25
BRANCH  11  27
HETATM   27  O3  UNL     1      14.380  21.292  39.958  1.00  0.00    -0.395 OA
ATOM     28  H3  UNL     1      14.400  21.708  40.812  1.00  0.00     0.210 HD
ENDBRANCH  11  27
BRANCH  18  29
HETATM   29  C22 UNL     1      10.140  20.844  34.972  1.00  0.00     0.001 C 
HETATM   30  C23 UNL     1      10.296  21.516  33.613  1.00  0.00     0.005 C 
ENDBRANCH  18  29
TORSDOF 7
ENDMDL
