MODEL 1
REMARK VINA RESULT: -7.657857015      0.000      0.000
REMARK  8 active torsions:
REMARK  status: ('A' for Active; 'I' for Inactive)
REMARK    1  A    between atoms: C2_2  and  C3_3 
REMARK    2  A    between atoms: C3_3  and  C4_4 
REMARK    3  A    between atoms: C4_4  and  C5_5 
REMARK    4  A    between atoms: C5_5  and  O1_6 
REMARK    5  A    between atoms: O1_6  and  C6_7 
REMARK    6  A    between atoms: C6_7  and  C7_9 
REMARK    7  A    between atoms: C16_18  and  O3_19 
REMARK    8  A    between atoms: C22_26  and  O4_27 
ROOT
HETATM    1  C7  UNL     1      16.330  27.761  40.658  1.00  0.00     0.092 C 
HETATM    2  C8  UNL     1      16.046  28.491  41.976  1.00  0.00     0.016 C 
HETATM    3  C9  UNL     1      14.593  28.891  41.845  1.00  0.00     0.013 C 
HETATM    4  C10 UNL     1      13.722  27.661  41.867  1.00  0.00    -0.008 C 
HETATM    5  C11 UNL     1      13.149  27.512  43.253  1.00  0.00     0.019 C 
HETATM    6  C12 UNL     1      12.781  27.651  40.723  1.00  0.00     0.009 C 
HETATM    7  C13 UNL     1      11.342  27.880  40.937  1.00  0.00     0.002 C 
HETATM    8  C14 UNL     1      10.839  29.227  40.458  1.00  0.00     0.008 C 
HETATM    9  C15 UNL     1       9.354  28.987  40.241  1.00  0.00     0.033 C 
HETATM   10  C16 UNL     1       9.171  27.476  40.232  1.00  0.00     0.126 C 
HETATM   11  C17 UNL     1      10.553  26.973  39.981  1.00  0.00    -0.014 C 
HETATM   12  C18 UNL     1      10.897  27.324  38.527  1.00  0.00     0.018 C 
HETATM   13  C19 UNL     1      10.773  25.536  40.255  1.00  0.00     0.012 C 
HETATM   14  C20 UNL     1      12.140  25.220  40.814  1.00  0.00     0.009 C 
HETATM   15  C21 UNL     1      13.172  26.235  40.419  1.00  0.00     0.026 C 
HETATM   16  C22 UNL     1      14.333  26.409  41.397  1.00  0.00     0.073 C 
HETATM   17  C23 UNL     1      15.650  26.426  40.765  1.00  0.00     0.031 C 
HETATM   18  C24 UNL     1      15.669  25.828  39.347  1.00  0.00     0.014 C 
ENDROOT
BRANCH   1  19
HETATM   19  C6  UNL     1      17.788  27.618  40.423  1.00  0.00     0.263 C 
HETATM   20  O2  UNL     1      18.393  28.407  39.648  1.00  0.00    -0.265 OA
BRANCH  19  21
HETATM   21  O1  UNL     1      18.546  26.628  41.032  1.00  0.00    -0.321 OA
BRANCH  21  22
HETATM   22  C5  UNL     1      19.754  26.209  40.427  1.00  0.00     0.178 C 
BRANCH  22  23
HETATM   23  C4  UNL     1      19.539  25.021  39.518  1.00  0.00     0.027 C 
BRANCH  23  24
HETATM   24  C3  UNL     1      20.753  24.703  38.682  1.00  0.00     0.002 C 
BRANCH  24  25
HETATM   25  C2  UNL     1      20.875  23.240  38.373  1.00  0.00    -0.004 C 
HETATM   26  C1  UNL     1      22.298  22.864  37.973  1.00  0.00     0.005 C 
ENDBRANCH  24  25
ENDBRANCH  23  24
ENDBRANCH  22  23
ENDBRANCH  21  22
ENDBRANCH  19  21
ENDBRANCH   1  19
BRANCH  16  27
HETATM   27  O4  UNL     1      14.243  25.345  42.331  1.00  0.00    -0.388 OA
ATOM     28  H4  UNL     1      13.455  24.821  42.239  1.00  0.00     0.210 HD
ENDBRANCH  16  27
BRANCH  10  29
HETATM   29  O3  UNL     1       8.642  27.112  41.453  1.00  0.00    -0.395 OA
ATOM     30  H3  UNL     1       9.354  26.786  41.990  1.00  0.00     0.210 HD
ENDBRANCH  10  29
TORSDOF 8
ENDMDL
MODEL 2
REMARK VINA RESULT: -7.473898098      8.143     11.151
REMARK  8 active torsions:
REMARK  status: ('A' for Active; 'I' for Inactive)
REMARK    1  A    between atoms: C2_2  and  C3_3 
REMARK    2  A    between atoms: C3_3  and  C4_4 
REMARK    3  A    between atoms: C4_4  and  C5_5 
REMARK    4  A    between atoms: C5_5  and  O1_6 
REMARK    5  A    between atoms: O1_6  and  C6_7 
REMARK    6  A    between atoms: C6_7  and  C7_9 
REMARK    7  A    between atoms: C16_18  and  O3_19 
REMARK    8  A    between atoms: C22_26  and  O4_27 
ROOT
HETATM    1  C7  UNL     1      10.174  20.612  34.947  1.00  0.00     0.092 C 
HETATM    2  C8  UNL     1       9.498  21.391  36.081  1.00  0.00     0.016 C 
HETATM    3  C9  UNL     1       9.684  20.490  37.281  1.00  0.00     0.013 C 
HETATM    4  C10 UNL     1      11.145  20.425  37.649  1.00  0.00    -0.008 C 
HETATM    5  C11 UNL     1      11.382  21.360  38.807  1.00  0.00     0.019 C 
HETATM    6  C12 UNL     1      11.602  19.022  37.784  1.00  0.00     0.009 C 
HETATM    7  C13 UNL     1      11.913  18.463  39.111  1.00  0.00     0.002 C 
HETATM    8  C14 UNL     1      10.897  17.464  39.628  1.00  0.00     0.008 C 
HETATM    9  C15 UNL     1      11.694  16.646  40.631  1.00  0.00     0.033 C 
HETATM   10  C16 UNL     1      13.158  16.955  40.355  1.00  0.00     0.126 C 
HETATM   11  C17 UNL     1      13.125  17.530  38.978  1.00  0.00    -0.014 C 
HETATM   12  C18 UNL     1      12.793  16.376  38.022  1.00  0.00     0.018 C 
HETATM   13  C19 UNL     1      14.346  18.247  38.553  1.00  0.00     0.012 C 
HETATM   14  C20 UNL     1      14.080  19.446  37.674  1.00  0.00     0.009 C 
HETATM   15  C21 UNL     1      12.788  19.329  36.918  1.00  0.00     0.026 C 
HETATM   16  C22 UNL     1      12.111  20.653  36.564  1.00  0.00     0.073 C 
HETATM   17  C23 UNL     1      11.654  20.738  35.178  1.00  0.00     0.031 C 
HETATM   18  C24 UNL     1      12.316  19.715  34.239  1.00  0.00     0.014 C 
ENDROOT
BRANCH   1  19
HETATM   19  C6  UNL     1       9.779  21.140  33.618  1.00  0.00     0.263 C 
HETATM   20  O2  UNL     1       9.827  22.378  33.381  1.00  0.00    -0.265 OA
BRANCH  19  21
HETATM   21  O1  UNL     1       9.346  20.317  32.589  1.00  0.00    -0.321 OA
BRANCH  21  22
HETATM   22  C5  UNL     1       8.026  19.808  32.616  1.00  0.00     0.178 C 
BRANCH  22  23
HETATM   23  C4  UNL     1       8.000  18.317  32.369  1.00  0.00     0.027 C 
BRANCH  23  24
HETATM   24  C3  UNL     1       8.763  17.543  33.413  1.00  0.00     0.002 C 
BRANCH  24  25
HETATM   25  C2  UNL     1       8.097  17.571  34.757  1.00  0.00    -0.004 C 
HETATM   26  C1  UNL     1       9.028  17.077  35.860  1.00  0.00     0.005 C 
ENDBRANCH  24  25
ENDBRANCH  23  24
ENDBRANCH  22  23
ENDBRANCH  21  22
ENDBRANCH  19  21
ENDBRANCH   1  19
BRANCH  16  27
HETATM   27  O4  UNL     1      13.050  21.679  36.842  1.00  0.00    -0.388 OA
ATOM     28  H4  UNL     1      13.905  21.529  36.457  1.00  0.00     0.210 HD
ENDBRANCH  16  27
BRANCH  10  29
HETATM   29  O3  UNL     1      13.592  17.829  41.330  1.00  0.00    -0.395 OA
ATOM     30  H3  UNL     1      12.885  17.936  41.956  1.00  0.00     0.210 HD
ENDBRANCH  10  29
TORSDOF 8
ENDMDL
MODEL 3
REMARK VINA RESULT: -7.389141407     10.763     18.503
REMARK  8 active torsions:
REMARK  status: ('A' for Active; 'I' for Inactive)
REMARK    1  A    between atoms: C2_2  and  C3_3 
REMARK    2  A    between atoms: C3_3  and  C4_4 
REMARK    3  A    between atoms: C4_4  and  C5_5 
REMARK    4  A    between atoms: C5_5  and  O1_6 
REMARK    5  A    between atoms: O1_6  and  C6_7 
REMARK    6  A    between atoms: C6_7  and  C7_9 
REMARK    7  A    between atoms: C16_18  and  O3_19 
REMARK    8  A    between atoms: C22_26  and  O4_27 
ROOT
HETATM    1  C7  UNL     1      27.703  21.428  32.965  1.00  0.00     0.092 C 
HETATM    2  C8  UNL     1      28.171  22.055  31.648  1.00  0.00     0.016 C 
HETATM    3  C9  UNL     1      29.150  21.038  31.106  1.00  0.00     0.013 C 
HETATM    4  C10 UNL     1      28.416  19.780  30.717  1.00  0.00    -0.008 C 
HETATM    5  C11 UNL     1      28.210  19.796  29.224  1.00  0.00     0.019 C 
HETATM    6  C12 UNL     1      29.048  18.583  31.318  1.00  0.00     0.009 C 
HETATM    7  C13 UNL     1      29.793  17.630  30.477  1.00  0.00     0.002 C 
HETATM    8  C14 UNL     1      31.298  17.674  30.657  1.00  0.00     0.008 C 
HETATM    9  C15 UNL     1      31.743  16.298  30.189  1.00  0.00     0.033 C 
HETATM   10  C16 UNL     1      30.484  15.444  30.141  1.00  0.00     0.126 C 
HETATM   11  C17 UNL     1      29.528  16.209  30.994  1.00  0.00    -0.014 C 
HETATM   12  C18 UNL     1      30.021  16.079  32.441  1.00  0.00     0.018 C 
HETATM   13  C19 UNL     1      28.107  15.819  30.872  1.00  0.00     0.012 C 
HETATM   14  C20 UNL     1      27.141  16.975  30.991  1.00  0.00     0.009 C 
HETATM   15  C21 UNL     1      27.703  18.114  31.790  1.00  0.00     0.026 C 
HETATM   16  C22 UNL     1      27.162  19.498  31.433  1.00  0.00     0.073 C 
HETATM   17  C23 UNL     1      26.777  20.306  32.588  1.00  0.00     0.031 C 
HETATM   18  C24 UNL     1      26.557  19.490  33.874  1.00  0.00     0.014 C 
ENDROOT
BRANCH   1  19
HETATM   19  C6  UNL     1      27.030  22.427  33.831  1.00  0.00     0.263 C 
HETATM   20  O2  UNL     1      26.292  23.317  33.328  1.00  0.00    -0.265 OA
BRANCH  19  21
HETATM   21  O1  UNL     1      27.175  22.434  35.211  1.00  0.00    -0.321 OA
BRANCH  21  22
HETATM   22  C5  UNL     1      26.049  22.695  36.027  1.00  0.00     0.178 C 
BRANCH  22  23
HETATM   23  C4  UNL     1      26.442  23.380  37.315  1.00  0.00     0.027 C 
BRANCH  23  24
HETATM   24  C3  UNL     1      25.261  23.646  38.214  1.00  0.00     0.002 C 
BRANCH  24  25
HETATM   25  C2  UNL     1      23.968  23.739  37.458  1.00  0.00    -0.004 C 
HETATM   26  C1  UNL     1      23.080  24.858  37.994  1.00  0.00     0.005 C 
ENDBRANCH  24  25
ENDBRANCH  23  24
ENDBRANCH  22  23
ENDBRANCH  21  22
ENDBRANCH  19  21
ENDBRANCH   1  19
BRANCH  16  27
HETATM   27  O4  UNL     1      26.050  19.293  30.576  1.00  0.00    -0.388 OA
ATOM     28  H4  UNL     1      26.198  18.634  29.908  1.00  0.00     0.210 HD
ENDBRANCH  16  27
BRANCH  10  29
HETATM   29  O3  UNL     1      30.107  15.329  28.819  1.00  0.00    -0.395 OA
ATOM     30  H3  UNL     1      29.993  16.207  28.475  1.00  0.00     0.210 HD
ENDBRANCH  10  29
TORSDOF 8
ENDMDL
MODEL 4
REMARK VINA RESULT: -7.304320952      6.028      8.064
REMARK  8 active torsions:
REMARK  status: ('A' for Active; 'I' for Inactive)
REMARK    1  A    between atoms: C2_2  and  C3_3 
REMARK    2  A    between atoms: C3_3  and  C4_4 
REMARK    3  A    between atoms: C4_4  and  C5_5 
REMARK    4  A    between atoms: C5_5  and  O1_6 
REMARK    5  A    between atoms: O1_6  and  C6_7 
REMARK    6  A    between atoms: C6_7  and  C7_9 
REMARK    7  A    between atoms: C16_18  and  O3_19 
REMARK    8  A    between atoms: C22_26  and  O4_27 
ROOT
HETATM    1  C7  UNL     1      13.403  22.865  38.581  1.00  0.00     0.092 C 
HETATM    2  C8  UNL     1      14.026  22.503  37.229  1.00  0.00     0.016 C 
HETATM    3  C9  UNL     1      13.945  20.993  37.202  1.00  0.00     0.013 C 
HETATM    4  C10 UNL     1      12.504  20.562  37.113  1.00  0.00    -0.008 C 
HETATM    5  C11 UNL     1      12.203  20.211  35.677  1.00  0.00     0.019 C 
HETATM    6  C12 UNL     1      12.179  19.559  38.154  1.00  0.00     0.009 C 
HETATM    7  C13 UNL     1      11.945  18.151  37.788  1.00  0.00     0.002 C 
HETATM    8  C14 UNL     1      13.058  17.203  38.189  1.00  0.00     0.008 C 
HETATM    9  C15 UNL     1      12.357  15.855  38.255  1.00  0.00     0.033 C 
HETATM   10  C16 UNL     1      10.866  16.159  38.273  1.00  0.00     0.126 C 
HETATM   11  C17 UNL     1      10.821  17.595  38.674  1.00  0.00    -0.014 C 
HETATM   12  C18 UNL     1      11.240  17.658  40.149  1.00  0.00     0.018 C 
HETATM   13  C19 UNL     1       9.532  18.283  38.450  1.00  0.00     0.012 C 
HETATM   14  C20 UNL     1       9.671  19.731  38.041  1.00  0.00     0.009 C 
HETATM   15  C21 UNL     1      10.955  20.343  38.522  1.00  0.00     0.026 C 
HETATM   16  C22 UNL     1      11.500  21.484  37.665  1.00  0.00     0.073 C 
HETATM   17  C23 UNL     1      11.923  22.657  38.430  1.00  0.00     0.031 C 
HETATM   18  C24 UNL     1      11.340  22.716  39.852  1.00  0.00     0.014 C 
ENDROOT
BRANCH   1  19
HETATM   19  C6  UNL     1      13.723  24.262  38.968  1.00  0.00     0.263 C 
HETATM   20  O2  UNL     1      13.090  25.228  38.462  1.00  0.00    -0.265 OA
BRANCH  19  21
HETATM   21  O1  UNL     1      14.715  24.570  39.887  1.00  0.00    -0.321 OA
BRANCH  21  22
HETATM   22  C5  UNL     1      15.411  25.797  39.772  1.00  0.00     0.178 C 
BRANCH  22  23
HETATM   23  C4  UNL     1      16.604  25.850  40.698  1.00  0.00     0.027 C 
BRANCH  23  24
HETATM   24  C3  UNL     1      17.899  26.084  39.963  1.00  0.00     0.002 C 
BRANCH  24  25
HETATM   25  C2  UNL     1      18.964  25.096  40.337  1.00  0.00    -0.004 C 
HETATM   26  C1  UNL     1      20.017  24.959  39.242  1.00  0.00     0.005 C 
ENDBRANCH  24  25
ENDBRANCH  23  24
ENDBRANCH  22  23
ENDBRANCH  21  22
ENDBRANCH  19  21
ENDBRANCH   1  19
BRANCH  16  27
HETATM   27  O4  UNL     1      10.477  21.832  36.747  1.00  0.00    -0.388 OA
ATOM     28  H4  UNL     1      10.798  22.248  35.956  1.00  0.00     0.210 HD
ENDBRANCH  16  27
BRANCH  10  29
HETATM   29  O3  UNL     1      10.372  15.900  37.011  1.00  0.00    -0.395 OA
ATOM     30  H3  UNL     1      10.581  14.998  36.799  1.00  0.00     0.210 HD
ENDBRANCH  10  29
TORSDOF 8
ENDMDL
MODEL 5
REMARK VINA RESULT: -7.167777310      8.100     10.823
REMARK  8 active torsions:
REMARK  status: ('A' for Active; 'I' for Inactive)
REMARK    1  A    between atoms: C2_2  and  C3_3 
REMARK    2  A    between atoms: C3_3  and  C4_4 
REMARK    3  A    between atoms: C4_4  and  C5_5 
REMARK    4  A    between atoms: C5_5  and  O1_6 
REMARK    5  A    between atoms: O1_6  and  C6_7 
REMARK    6  A    between atoms: C6_7  and  C7_9 
REMARK    7  A    between atoms: C16_18  and  O3_19 
REMARK    8  A    between atoms: C22_26  and  O4_27 
ROOT
HETATM    1  C7  UNL     1      11.437  20.908  35.640  1.00  0.00     0.092 C 
HETATM    2  C8  UNL     1      12.902  21.310  35.842  1.00  0.00     0.016 C 
HETATM    3  C9  UNL     1      13.091  21.198  37.339  1.00  0.00     0.013 C 
HETATM    4  C10 UNL     1      13.005  19.752  37.757  1.00  0.00    -0.008 C 
HETATM    5  C11 UNL     1      14.408  19.229  37.937  1.00  0.00     0.019 C 
HETATM    6  C12 UNL     1      12.049  19.573  38.874  1.00  0.00     0.009 C 
HETATM    7  C13 UNL     1      12.534  19.260  40.229  1.00  0.00     0.002 C 
HETATM    8  C14 UNL     1      12.422  20.403  41.218  1.00  0.00     0.008 C 
HETATM    9  C15 UNL     1      12.403  19.697  42.564  1.00  0.00     0.033 C 
HETATM   10  C16 UNL     1      12.121  18.231  42.264  1.00  0.00     0.126 C 
HETATM   11  C17 UNL     1      11.555  18.275  40.885  1.00  0.00    -0.014 C 
HETATM   12  C18 UNL     1      10.165  18.916  40.994  1.00  0.00     0.018 C 
HETATM   13  C19 UNL     1      11.497  16.979  40.175  1.00  0.00     0.012 C 
HETATM   14  C20 UNL     1      11.753  17.081  38.689  1.00  0.00     0.009 C 
HETATM   15  C21 UNL     1      11.408  18.434  38.138  1.00  0.00     0.026 C 
HETATM   16  C22 UNL     1      12.202  18.863  36.904  1.00  0.00     0.073 C 
HETATM   17  C23 UNL     1      11.382  19.419  35.829  1.00  0.00     0.031 C 
HETATM   18  C24 UNL     1       9.889  19.062  35.936  1.00  0.00     0.014 C 
ENDROOT
BRANCH   1  19
HETATM   19  C6  UNL     1      10.947  21.310  34.299  1.00  0.00     0.263 C 
HETATM   20  O2  UNL     1      10.325  22.396  34.143  1.00  0.00    -0.265 OA
BRANCH  19  21
HETATM   21  O1  UNL     1      11.142  20.527  33.170  1.00  0.00    -0.321 OA
BRANCH  21  22
HETATM   22  C5  UNL     1      10.213  20.599  32.106  1.00  0.00     0.178 C 
BRANCH  22  23
HETATM   23  C4  UNL     1       8.954  19.820  32.411  1.00  0.00     0.027 C 
BRANCH  23  24
HETATM   24  C3  UNL     1       8.095  19.605  31.192  1.00  0.00     0.002 C 
BRANCH  24  25
HETATM   25  C2  UNL     1       8.544  20.422  30.016  1.00  0.00    -0.004 C 
HETATM   26  C1  UNL     1       8.218  19.735  28.693  1.00  0.00     0.005 C 
ENDBRANCH  24  25
ENDBRANCH  23  24
ENDBRANCH  22  23
ENDBRANCH  21  22
ENDBRANCH  19  21
ENDBRANCH   1  19
BRANCH  16  27
HETATM   27  O4  UNL     1      12.905  17.718  36.452  1.00  0.00    -0.388 OA
ATOM     28  H4  UNL     1      12.452  17.235  35.771  1.00  0.00     0.210 HD
ENDBRANCH  16  27
BRANCH  10  29
HETATM   29  O3  UNL     1      13.313  17.546  42.374  1.00  0.00    -0.395 OA
ATOM     30  H3  UNL     1      13.959  18.006  41.851  1.00  0.00     0.210 HD
ENDBRANCH  10  29
TORSDOF 8
ENDMDL
