MODEL 1
REMARK VINA RESULT: -7.536325803      0.000      0.000
REMARK  7 active torsions:
REMARK  status: ('A' for Active; 'I' for Inactive)
REMARK    1  A    between atoms: C2_2  and  C19_19 
REMARK    2  A    between atoms: C3_3  and  C4_4 
REMARK    3  A    between atoms: C4_4  and  C5_5 
REMARK    4  A    between atoms: C5_5  and  C6_6 
REMARK    5  A    between atoms: C19_19  and  C20_20 
REMARK    6  A    between atoms: C23_25  and  O3_26 
REMARK    7  A    between atoms: C24_28  and  O4_29 
ROOT
HETATM    1  C1  UNL     1      14.216  21.749  36.239  1.00  0.00     0.043 C 
HETATM    2  C2  UNL     1      13.257  21.208  37.278  1.00  0.00    -0.085 C 
HETATM    3  C3  UNL     1      13.688  21.130  38.526  1.00  0.00    -0.024 C 
ENDROOT
BRANCH   3   4
HETATM    4  C4  UNL     1      12.930  20.639  39.685  1.00  0.00     0.031 C 
BRANCH   4   5
HETATM    5  C5  UNL     1      12.894  19.184  39.908  1.00  0.00     0.038 C 
BRANCH   5   6
HETATM    6  C6  UNL     1      11.729  18.397  39.574  1.00  0.00    -0.075 C 
HETATM    7  C7  UNL     1      10.533  18.847  39.873  1.00  0.00    -0.022 C 
HETATM    8  C8  UNL     1       9.095  18.452  39.759  1.00  0.00     0.040 C 
HETATM    9  C9  UNL     1       8.564  18.507  38.362  1.00  0.00    -0.022 C 
HETATM   10  C10 UNL     1       8.450  19.918  37.838  1.00  0.00     0.020 C 
HETATM   11  C11 UNL     1       7.129  17.964  38.435  1.00  0.00     0.020 C 
HETATM   12  C12 UNL     1       9.283  17.644  37.413  1.00  0.00    -0.079 C 
HETATM   13  C13 UNL     1       8.807  17.823  36.024  1.00  0.00     0.044 C 
HETATM   14  C14 UNL     1      10.245  16.752  37.495  1.00  0.00    -0.023 C 
HETATM   15  C15 UNL     1      11.080  16.178  38.594  1.00  0.00     0.040 C 
HETATM   16  C16 UNL     1      12.176  17.127  38.896  1.00  0.00    -0.021 C 
HETATM   17  C17 UNL     1      12.876  17.471  37.575  1.00  0.00     0.020 C 
HETATM   18  C18 UNL     1      13.182  16.444  39.797  1.00  0.00     0.020 C 
ENDBRANCH   5   6
ENDBRANCH   4   5
ENDBRANCH   3   4
BRANCH   2  19
HETATM   19  C19 UNL     1      11.912  20.793  36.848  1.00  0.00     0.068 C 
BRANCH  19  20
HETATM   20  C20 UNL     1      11.836  20.909  35.315  1.00  0.00     0.167 C 
HETATM   21  O1  UNL     1      10.896  21.864  34.926  1.00  0.00    -0.313 OA
HETATM   22  C21 UNL     1      10.192  21.793  33.752  1.00  0.00     0.261 C 
HETATM   23  O2  UNL     1       9.860  22.887  33.184  1.00  0.00    -0.265 OA
HETATM   24  C22 UNL     1       9.855  20.471  33.207  1.00  0.00     0.145 C 
HETATM   25  C23 UNL     1      11.033  19.572  33.346  1.00  0.00     0.158 C 
HETATM   26  C24 UNL     1      11.687  19.577  34.672  1.00  0.00     0.177 C 
BRANCH  25  27
HETATM   27  O3  UNL     1      10.624  18.266  33.036  1.00  0.00    -0.392 OA
ATOM     28  H3  UNL     1       9.742  18.307  32.688  1.00  0.00     0.210 HD
ENDBRANCH  25  27
BRANCH  26  29
HETATM   29  O4  UNL     1      12.957  18.970  34.533  1.00  0.00    -0.390 OA
ATOM     30  H4  UNL     1      12.868  18.141  34.076  1.00  0.00     0.210 HD
ENDBRANCH  26  29
ENDBRANCH  19  20
ENDBRANCH   2  19
TORSDOF 7
ENDMDL
MODEL 2
REMARK VINA RESULT: -7.514438641     13.554     17.195
REMARK  7 active torsions:
REMARK  status: ('A' for Active; 'I' for Inactive)
REMARK    1  A    between atoms: C2_2  and  C19_19 
REMARK    2  A    between atoms: C3_3  and  C4_4 
REMARK    3  A    between atoms: C4_4  and  C5_5 
REMARK    4  A    between atoms: C5_5  and  C6_6 
REMARK    5  A    between atoms: C19_19  and  C20_20 
REMARK    6  A    between atoms: C23_25  and  O3_26 
REMARK    7  A    between atoms: C24_28  and  O4_29 
ROOT
HETATM    1  C1  UNL     1      27.250  24.478  36.187  1.00  0.00     0.043 C 
HETATM    2  C2  UNL     1      26.469  23.232  35.829  1.00  0.00    -0.085 C 
HETATM    3  C3  UNL     1      27.084  22.312  35.105  1.00  0.00    -0.024 C 
ENDROOT
BRANCH   3   4
HETATM    4  C4  UNL     1      26.518  21.035  34.648  1.00  0.00     0.031 C 
BRANCH   4   5
HETATM    5  C5  UNL     1      26.887  20.572  33.299  1.00  0.00     0.038 C 
BRANCH   5   6
HETATM    6  C6  UNL     1      27.067  21.499  32.205  1.00  0.00    -0.075 C 
HETATM    7  C7  UNL     1      26.209  22.478  32.034  1.00  0.00    -0.022 C 
HETATM    8  C8  UNL     1      25.951  23.632  31.118  1.00  0.00     0.040 C 
HETATM    9  C9  UNL     1      26.921  24.758  31.281  1.00  0.00    -0.022 C 
HETATM   10  C10 UNL     1      26.762  25.478  32.598  1.00  0.00     0.020 C 
HETATM   11  C11 UNL     1      26.564  25.781  30.193  1.00  0.00     0.020 C 
HETATM   12  C12 UNL     1      28.323  24.381  31.047  1.00  0.00    -0.079 C 
HETATM   13  C13 UNL     1      29.256  25.490  31.339  1.00  0.00     0.044 C 
HETATM   14  C14 UNL     1      28.951  23.299  30.642  1.00  0.00    -0.023 C 
HETATM   15  C15 UNL     1      28.548  21.923  30.221  1.00  0.00     0.040 C 
HETATM   16  C16 UNL     1      28.305  21.112  31.436  1.00  0.00    -0.021 C 
HETATM   17  C17 UNL     1      29.534  21.247  32.344  1.00  0.00     0.020 C 
HETATM   18  C18 UNL     1      28.173  19.658  31.038  1.00  0.00     0.020 C 
ENDBRANCH   5   6
ENDBRANCH   4   5
ENDBRANCH   3   4
BRANCH   2  19
HETATM   19  C19 UNL     1      25.076  23.114  36.292  1.00  0.00     0.068 C 
BRANCH  19  20
HETATM   20  C20 UNL     1      24.956  23.825  37.652  1.00  0.00     0.167 C 
HETATM   21  O1  UNL     1      25.679  23.156  38.639  1.00  0.00    -0.313 OA
HETATM   22  C21 UNL     1      25.325  23.158  39.963  1.00  0.00     0.261 C 
HETATM   23  O2  UNL     1      26.258  23.090  40.833  1.00  0.00    -0.265 OA
HETATM   24  C22 UNL     1      23.902  23.237  40.317  1.00  0.00     0.145 C 
HETATM   25  C23 UNL     1      23.236  24.235  39.436  1.00  0.00     0.158 C 
HETATM   26  C24 UNL     1      23.539  24.116  37.994  1.00  0.00     0.177 C 
BRANCH  25  27
HETATM   27  O3  UNL     1      21.850  24.131  39.628  1.00  0.00    -0.392 OA
ATOM     28  H3  UNL     1      21.422  24.328  38.804  1.00  0.00     0.210 HD
ENDBRANCH  25  27
BRANCH  26  29
HETATM   29  O4  UNL     1      23.132  25.317  37.364  1.00  0.00    -0.390 OA
ATOM     30  H4  UNL     1      23.434  26.062  37.871  1.00  0.00     0.210 HD
ENDBRANCH  26  29
ENDBRANCH  19  20
ENDBRANCH   2  19
TORSDOF 7
ENDMDL
MODEL 3
REMARK VINA RESULT: -7.323853322     13.510     17.356
REMARK  7 active torsions:
REMARK  status: ('A' for Active; 'I' for Inactive)
REMARK    1  A    between atoms: C2_2  and  C19_19 
REMARK    2  A    between atoms: C3_3  and  C4_4 
REMARK    3  A    between atoms: C4_4  and  C5_5 
REMARK    4  A    between atoms: C5_5  and  C6_6 
REMARK    5  A    between atoms: C19_19  and  C20_20 
REMARK    6  A    between atoms: C23_25  and  O3_26 
REMARK    7  A    between atoms: C24_28  and  O4_29 
ROOT
HETATM    1  C1  UNL     1      26.140  21.144  35.533  1.00  0.00     0.043 C 
HETATM    2  C2  UNL     1      26.343  22.639  35.407  1.00  0.00    -0.085 C 
HETATM    3  C3  UNL     1      26.438  23.142  34.188  1.00  0.00    -0.024 C 
ENDROOT
BRANCH   3   4
HETATM    4  C4  UNL     1      26.635  24.556  33.838  1.00  0.00     0.031 C 
BRANCH   4   5
HETATM    5  C5  UNL     1      27.493  24.857  32.679  1.00  0.00     0.038 C 
BRANCH   5   6
HETATM    6  C6  UNL     1      27.844  23.838  31.716  1.00  0.00    -0.075 C 
HETATM    7  C7  UNL     1      28.699  22.898  32.046  1.00  0.00    -0.022 C 
HETATM    8  C8  UNL     1      29.363  21.693  31.461  1.00  0.00     0.040 C 
HETATM    9  C9  UNL     1      28.442  20.530  31.272  1.00  0.00    -0.022 C 
HETATM   10  C10 UNL     1      27.992  19.925  32.580  1.00  0.00     0.020 C 
HETATM   11  C11 UNL     1      29.270  19.446  30.566  1.00  0.00     0.020 C 
HETATM   12  C12 UNL     1      27.296  20.809  30.394  1.00  0.00    -0.079 C 
HETATM   13  C13 UNL     1      26.348  19.676  30.335  1.00  0.00     0.044 C 
HETATM   14  C14 UNL     1      26.907  21.819  29.647  1.00  0.00    -0.023 C 
HETATM   15  C15 UNL     1      27.438  23.179  29.326  1.00  0.00     0.040 C 
HETATM   16  C16 UNL     1      27.088  24.094  30.436  1.00  0.00    -0.021 C 
HETATM   17  C17 UNL     1      25.583  23.962  30.697  1.00  0.00     0.020 C 
HETATM   18  C18 UNL     1      27.367  25.518  30.005  1.00  0.00     0.020 C 
ENDBRANCH   5   6
ENDBRANCH   4   5
ENDBRANCH   3   4
BRANCH   2  19
HETATM   19  C19 UNL     1      26.433  23.444  36.636  1.00  0.00     0.068 C 
BRANCH  19  20
HETATM   20  C20 UNL     1      25.540  22.795  37.708  1.00  0.00     0.167 C 
HETATM   21  O1  UNL     1      24.196  23.112  37.508  1.00  0.00    -0.313 OA
HETATM   22  C21 UNL     1      23.286  23.208  38.527  1.00  0.00     0.261 C 
HETATM   23  O2  UNL     1      22.073  22.893  38.280  1.00  0.00    -0.265 OA
HETATM   24  C22 UNL     1      23.743  23.666  39.846  1.00  0.00     0.145 C 
HETATM   25  C23 UNL     1      25.046  23.020  40.161  1.00  0.00     0.158 C 
HETATM   26  C24 UNL     1      26.053  23.054  39.079  1.00  0.00     0.177 C 
BRANCH  25  27
HETATM   27  O3  UNL     1      25.574  23.637  41.306  1.00  0.00    -0.392 OA
ATOM     28  H3  UNL     1      24.854  24.012  41.798  1.00  0.00     0.210 HD
ENDBRANCH  25  27
BRANCH  26  29
HETATM   29  O4  UNL     1      27.064  22.116  39.396  1.00  0.00    -0.390 OA
ATOM     30  H4  UNL     1      27.918  22.498  39.237  1.00  0.00     0.210 HD
ENDBRANCH  26  29
ENDBRANCH  19  20
ENDBRANCH   2  19
TORSDOF 7
ENDMDL
MODEL 4
REMARK VINA RESULT: -7.189073502     12.557     16.310
REMARK  7 active torsions:
REMARK  status: ('A' for Active; 'I' for Inactive)
REMARK    1  A    between atoms: C2_2  and  C19_19 
REMARK    2  A    between atoms: C3_3  and  C4_4 
REMARK    3  A    between atoms: C4_4  and  C5_5 
REMARK    4  A    between atoms: C5_5  and  C6_6 
REMARK    5  A    between atoms: C19_19  and  C20_20 
REMARK    6  A    between atoms: C23_25  and  O3_26 
REMARK    7  A    between atoms: C24_28  and  O4_29 
ROOT
HETATM    1  C1  UNL     1      26.415  23.194  38.663  1.00  0.00     0.043 C 
HETATM    2  C2  UNL     1      25.758  23.502  37.334  1.00  0.00    -0.085 C 
HETATM    3  C3  UNL     1      26.191  22.845  36.271  1.00  0.00    -0.024 C 
ENDROOT
BRANCH   3   4
HETATM    4  C4  UNL     1      25.699  22.987  34.894  1.00  0.00     0.031 C 
BRANCH   4   5
HETATM    5  C5  UNL     1      26.580  23.655  33.921  1.00  0.00     0.038 C 
BRANCH   5   6
HETATM    6  C6  UNL     1      27.333  22.902  32.944  1.00  0.00    -0.075 C 
HETATM    7  C7  UNL     1      27.909  21.776  33.293  1.00  0.00    -0.022 C 
HETATM    8  C8  UNL     1      28.751  20.687  32.708  1.00  0.00     0.040 C 
HETATM    9  C9  UNL     1      28.013  19.799  31.757  1.00  0.00    -0.022 C 
HETATM   10  C10 UNL     1      26.981  18.939  32.446  1.00  0.00     0.020 C 
HETATM   11  C11 UNL     1      29.059  18.831  31.186  1.00  0.00     0.020 C 
HETATM   12  C12 UNL     1      27.433  20.506  30.605  1.00  0.00    -0.079 C 
HETATM   13  C13 UNL     1      26.610  19.614  29.760  1.00  0.00     0.044 C 
HETATM   14  C14 UNL     1      27.467  21.735  30.142  1.00  0.00    -0.023 C 
HETATM   15  C15 UNL     1      28.111  23.018  30.558  1.00  0.00     0.040 C 
HETATM   16  C16 UNL     1      27.287  23.632  31.625  1.00  0.00    -0.021 C 
HETATM   17  C17 UNL     1      25.839  23.693  31.124  1.00  0.00     0.020 C 
HETATM   18  C18 UNL     1      27.763  25.050  31.858  1.00  0.00     0.020 C 
ENDBRANCH   5   6
ENDBRANCH   4   5
ENDBRANCH   3   4
BRANCH   2  19
HETATM   19  C19 UNL     1      24.689  24.514  37.293  1.00  0.00     0.068 C 
BRANCH  19  20
HETATM   20  C20 UNL     1      23.600  24.109  38.302  1.00  0.00     0.167 C 
HETATM   21  O1  UNL     1      23.116  22.827  38.038  1.00  0.00    -0.313 OA
HETATM   22  C21 UNL     1      21.835  22.433  38.324  1.00  0.00     0.261 C 
HETATM   23  O2  UNL     1      21.640  21.210  38.637  1.00  0.00    -0.265 OA
HETATM   24  C22 UNL     1      20.755  23.426  38.258  1.00  0.00     0.145 C 
HETATM   25  C23 UNL     1      21.225  24.698  38.872  1.00  0.00     0.158 C 
HETATM   26  C24 UNL     1      22.560  25.162  38.436  1.00  0.00     0.177 C 
BRANCH  25  27
HETATM   27  O3  UNL     1      20.275  25.693  38.597  1.00  0.00    -0.392 OA
ATOM     28  H3  UNL     1      20.187  26.239  39.369  1.00  0.00     0.210 HD
ENDBRANCH  25  27
BRANCH  26  29
HETATM   29  O4  UNL     1      22.995  26.151  39.350  1.00  0.00    -0.390 OA
ATOM     30  H4  UNL     1      22.621  26.992  39.116  1.00  0.00     0.210 HD
ENDBRANCH  26  29
ENDBRANCH  19  20
ENDBRANCH   2  19
TORSDOF 7
ENDMDL
MODEL 5
REMARK VINA RESULT: -7.113125746      2.394      4.247
REMARK  7 active torsions:
REMARK  status: ('A' for Active; 'I' for Inactive)
REMARK    1  A    between atoms: C2_2  and  C19_19 
REMARK    2  A    between atoms: C3_3  and  C4_4 
REMARK    3  A    between atoms: C4_4  and  C5_5 
REMARK    4  A    between atoms: C5_5  and  C6_6 
REMARK    5  A    between atoms: C19_19  and  C20_20 
REMARK    6  A    between atoms: C23_25  and  O3_26 
REMARK    7  A    between atoms: C24_28  and  O4_29 
ROOT
HETATM    1  C1  UNL     1       9.195  21.173  35.434  1.00  0.00     0.043 C 
HETATM    2  C2  UNL     1      10.576  21.330  34.833  1.00  0.00    -0.085 C 
HETATM    3  C3  UNL     1      11.615  21.120  35.624  1.00  0.00    -0.024 C 
ENDROOT
BRANCH   3   4
HETATM    4  C4  UNL     1      13.032  21.217  35.251  1.00  0.00     0.031 C 
BRANCH   4   5
HETATM    5  C5  UNL     1      14.032  20.881  36.280  1.00  0.00     0.038 C 
BRANCH   5   6
HETATM    6  C6  UNL     1      13.770  21.096  37.684  1.00  0.00    -0.075 C 
HETATM    7  C7  UNL     1      13.519  22.308  38.121  1.00  0.00    -0.022 C 
HETATM    8  C8  UNL     1      13.209  23.029  39.394  1.00  0.00     0.040 C 
HETATM    9  C9  UNL     1      11.837  22.756  39.923  1.00  0.00    -0.022 C 
HETATM   10  C10 UNL     1      10.752  23.351  39.058  1.00  0.00     0.020 C 
HETATM   11  C11 UNL     1      11.752  23.485  41.271  1.00  0.00     0.020 C 
HETATM   12  C12 UNL     1      11.575  21.337  40.204  1.00  0.00    -0.079 C 
HETATM   13  C13 UNL     1      10.171  21.097  40.604  1.00  0.00     0.044 C 
HETATM   14  C14 UNL     1      12.281  20.229  40.187  1.00  0.00    -0.023 C 
HETATM   15  C15 UNL     1      13.697  19.867  39.874  1.00  0.00     0.040 C 
HETATM   16  C16 UNL     1      13.844  19.772  38.403  1.00  0.00    -0.021 C 
HETATM   17  C17 UNL     1      12.740  18.845  37.880  1.00  0.00     0.020 C 
HETATM   18  C18 UNL     1      15.181  19.140  38.082  1.00  0.00     0.020 C 
ENDBRANCH   5   6
ENDBRANCH   4   5
ENDBRANCH   3   4
BRANCH   2  19
HETATM   19  C19 UNL     1      10.689  21.716  33.417  1.00  0.00     0.068 C 
BRANCH  19  20
HETATM   20  C20 UNL     1      10.076  20.595  32.559  1.00  0.00     0.167 C 
HETATM   21  O1  UNL     1       8.816  20.954  32.080  1.00  0.00    -0.313 OA
HETATM   22  C21 UNL     1       7.820  20.048  31.828  1.00  0.00     0.261 C 
HETATM   23  O2  UNL     1       7.000  20.305  30.883  1.00  0.00    -0.265 OA
HETATM   24  C22 UNL     1       7.742  18.831  32.648  1.00  0.00     0.145 C 
HETATM   25  C23 UNL     1       9.115  18.291  32.849  1.00  0.00     0.158 C 
HETATM   26  C24 UNL     1      10.137  19.281  33.252  1.00  0.00     0.177 C 
BRANCH  25  27
HETATM   27  O3  UNL     1       9.047  17.275  33.814  1.00  0.00    -0.392 OA
ATOM     28  H3  UNL     1       9.771  16.678  33.665  1.00  0.00     0.210 HD
ENDBRANCH  25  27
BRANCH  26  29
HETATM   29  O4  UNL     1      11.410  18.695  33.054  1.00  0.00    -0.390 OA
ATOM     30  H4  UNL     1      11.406  17.802  33.376  1.00  0.00     0.210 HD
ENDBRANCH  26  29
ENDBRANCH  19  20
ENDBRANCH   2  19
TORSDOF 7
ENDMDL
