MODEL 1
REMARK VINA RESULT: -9.105694270      0.000      0.000
REMARK  11 active torsions:
REMARK  status: ('A' for Active; 'I' for Inactive)
REMARK    1  A    between atoms: O1_1  and  N1_3 
REMARK    2  A    between atoms: C1_5  and  N2_6 
REMARK    3  A    between atoms: C1_5  and  S1_17 
REMARK    4  A    between atoms: N2_6  and  C2_8 
REMARK    5  A    between atoms: S1_17  and  C11_18 
REMARK    6  A    between atoms: C11_18  and  C12_19 
REMARK    7  A    between atoms: C12_19  and  C13_20 
REMARK    8  A    between atoms: C13_20  and  C14_21 
REMARK    9  A    between atoms: C15_22  and  C16_23 
REMARK   10  A    between atoms: C16_23  and  O2_24 
REMARK   11  A    between atoms: O2_24  and  C17_25 
ROOT
HETATM    1  N1  UNL     1      26.453  19.451  29.827  1.00  0.00    -0.247 N 
ATOM      2  H1  UNL     1      26.345  19.931  28.934  1.00  0.00     0.196 HD
HETATM    3  C1  UNL     1      27.262  19.968  30.674  1.00  0.00     0.160 C 
ENDROOT
BRANCH   3   4
HETATM    4  N2  UNL     1      27.950  21.150  30.339  1.00  0.00    -0.360 N 
ATOM      5  H2  UNL     1      28.821  21.048  29.819  1.00  0.00     0.162 HD
BRANCH   4   6
HETATM    6  C2  UNL     1      27.540  22.472  30.661  1.00  0.00     0.033 C 
HETATM    7  C3  UNL     1      28.500  23.224  31.538  1.00  0.00     0.035 C 
HETATM    8  C4  UNL     1      27.993  24.605  31.839  1.00  0.00    -0.012 C 
HETATM    9  C5  UNL     1      26.562  24.573  32.399  1.00  0.00     0.010 C 
HETATM   10  C9  UNL     1      27.717  25.385  30.544  1.00  0.00     0.010 C 
HETATM   11  C6  UNL     1      25.841  24.002  31.169  1.00  0.00    -0.008 C 
HETATM   12  C7  UNL     1      26.114  22.496  31.232  1.00  0.00     0.036 C 
HETATM   13  C8  UNL     1      26.599  24.501  29.972  1.00  0.00    -0.008 C 
HETATM   14  C10 UNL     1      27.335  23.282  29.399  1.00  0.00     0.036 C 
ENDBRANCH   4   6
ENDBRANCH   3   4
BRANCH   3  15
HETATM   15  S1  UNL     1      27.470  19.159  32.229  1.00  0.00    -0.092 SA
BRANCH  15  16
HETATM   16  C11 UNL     1      27.907  20.209  33.596  1.00  0.00     0.083 C 
BRANCH  16  17
HETATM   17  C12 UNL     1      26.768  20.847  34.317  1.00  0.00     0.022 C 
BRANCH  17  18
HETATM   18  C13 UNL     1      27.166  22.203  34.845  1.00  0.00     0.095 C 
BRANCH  18  19
HETATM   19  C14 UNL     1      26.382  22.597  35.989  1.00  0.00    -0.104 C 
HETATM   20  C15 UNL     1      25.749  22.924  36.954  1.00  0.00    -0.081 C 
BRANCH  20  21
HETATM   21  C16 UNL     1      25.010  23.324  38.130  1.00  0.00     0.261 C 
BRANCH  21  22
HETATM   22  O2  UNL     1      23.725  22.844  38.195  1.00  0.00    -0.374 OA
BRANCH  22  23
HETATM   23  C17 UNL     1      22.774  23.620  37.578  1.00  0.00     0.122 C 
HETATM   24  C18 UNL     1      22.834  25.070  38.014  1.00  0.00     0.032 C 
HETATM   25  C19 UNL     1      22.269  25.237  39.417  1.00  0.00     0.002 C 
HETATM   26  C20 UNL     1      20.791  24.980  39.450  1.00  0.00     0.000 C 
HETATM   27  C21 UNL     1      20.419  24.215  38.217  1.00  0.00     0.002 C 
HETATM   28  C22 UNL     1      21.408  23.089  37.979  1.00  0.00     0.032 C 
ENDBRANCH  22  23
ENDBRANCH  21  22
ENDBRANCH  20  21
ENDBRANCH  18  19
ENDBRANCH  17  18
ENDBRANCH  16  17
ENDBRANCH  15  16
ENDBRANCH   3  15
BRANCH   1  29
HETATM   29  O1  UNL     1      25.726  18.318  30.017  1.00  0.00    -0.288 OA
ATOM     30  H1  UNL     1      25.199  18.121  30.783  1.00  0.00     0.244 HD
ENDBRANCH   1  29
TORSDOF 11
ENDMDL
MODEL 2
REMARK VINA RESULT: -8.776755972      0.688      1.254
REMARK  11 active torsions:
REMARK  status: ('A' for Active; 'I' for Inactive)
REMARK    1  A    between atoms: O1_1  and  N1_3 
REMARK    2  A    between atoms: C1_5  and  N2_6 
REMARK    3  A    between atoms: C1_5  and  S1_17 
REMARK    4  A    between atoms: N2_6  and  C2_8 
REMARK    5  A    between atoms: S1_17  and  C11_18 
REMARK    6  A    between atoms: C11_18  and  C12_19 
REMARK    7  A    between atoms: C12_19  and  C13_20 
REMARK    8  A    between atoms: C13_20  and  C14_21 
REMARK    9  A    between atoms: C15_22  and  C16_23 
REMARK   10  A    between atoms: C16_23  and  O2_24 
REMARK   11  A    between atoms: O2_24  and  C17_25 
ROOT
HETATM    1  N1  UNL     1      26.201  19.926  29.794  1.00  0.00    -0.247 N 
ATOM      2  H1  UNL     1      25.914  20.715  29.215  1.00  0.00     0.196 HD
HETATM    3  C1  UNL     1      27.303  20.040  30.435  1.00  0.00     0.160 C 
ENDROOT
BRANCH   3   4
HETATM    4  N2  UNL     1      28.053  21.226  30.313  1.00  0.00    -0.360 N 
ATOM      5  H2  UNL     1      29.001  21.139  29.948  1.00  0.00     0.162 HD
BRANCH   4   6
HETATM    6  C2  UNL     1      27.607  22.532  30.654  1.00  0.00     0.033 C 
HETATM    7  C3  UNL     1      28.591  23.333  31.459  1.00  0.00     0.035 C 
HETATM    8  C4  UNL     1      28.046  24.693  31.785  1.00  0.00    -0.012 C 
HETATM    9  C5  UNL     1      26.659  24.604  32.442  1.00  0.00     0.010 C 
HETATM   10  C9  UNL     1      27.648  25.448  30.507  1.00  0.00     0.010 C 
HETATM   11  C6  UNL     1      25.882  23.992  31.267  1.00  0.00    -0.008 C 
HETATM   12  C7  UNL     1      26.224  22.500  31.320  1.00  0.00     0.036 C 
HETATM   13  C8  UNL     1      26.534  24.512  30.018  1.00  0.00    -0.008 C 
HETATM   14  C10 UNL     1      27.282  23.320  29.404  1.00  0.00     0.036 C 
ENDBRANCH   4   6
ENDBRANCH   3   4
BRANCH   3  15
HETATM   15  S1  UNL     1      27.823  18.690  31.446  1.00  0.00    -0.092 SA
BRANCH  15  16
HETATM   16  C11 UNL     1      27.957  19.031  33.186  1.00  0.00     0.083 C 
BRANCH  16  17
HETATM   17  C12 UNL     1      26.976  20.012  33.733  1.00  0.00     0.022 C 
BRANCH  17  18
HETATM   18  C13 UNL     1      27.683  21.248  34.231  1.00  0.00     0.095 C 
BRANCH  18  19
HETATM   19  C14 UNL     1      26.827  22.080  35.039  1.00  0.00    -0.104 C 
HETATM   20  C15 UNL     1      26.123  22.791  35.701  1.00  0.00    -0.081 C 
BRANCH  20  21
HETATM   21  C16 UNL     1      25.280  23.669  36.481  1.00  0.00     0.261 C 
BRANCH  21  22
HETATM   22  O2  UNL     1      24.026  23.177  36.749  1.00  0.00    -0.374 OA
BRANCH  22  23
HETATM   23  C17 UNL     1      23.608  23.307  38.051  1.00  0.00     0.122 C 
HETATM   24  C18 UNL     1      22.368  22.488  38.347  1.00  0.00     0.032 C 
HETATM   25  C19 UNL     1      21.134  23.133  37.734  1.00  0.00     0.002 C 
HETATM   26  C20 UNL     1      20.798  24.431  38.407  1.00  0.00     0.000 C 
HETATM   27  C21 UNL     1      22.011  24.903  39.151  1.00  0.00     0.002 C 
HETATM   28  C22 UNL     1      23.247  24.765  38.281  1.00  0.00     0.032 C 
ENDBRANCH  22  23
ENDBRANCH  21  22
ENDBRANCH  20  21
ENDBRANCH  18  19
ENDBRANCH  17  18
ENDBRANCH  16  17
ENDBRANCH  15  16
ENDBRANCH   3  15
BRANCH   1  29
HETATM   29  O1  UNL     1      25.379  18.843  29.819  1.00  0.00    -0.288 OA
ATOM     30  H1  UNL     1      24.686  18.660  29.195  1.00  0.00     0.244 HD
ENDBRANCH   1  29
TORSDOF 11
ENDMDL
MODEL 3
REMARK VINA RESULT: -8.591677743      2.420      3.668
REMARK  11 active torsions:
REMARK  status: ('A' for Active; 'I' for Inactive)
REMARK    1  A    between atoms: O1_1  and  N1_3 
REMARK    2  A    between atoms: C1_5  and  N2_6 
REMARK    3  A    between atoms: C1_5  and  S1_17 
REMARK    4  A    between atoms: N2_6  and  C2_8 
REMARK    5  A    between atoms: S1_17  and  C11_18 
REMARK    6  A    between atoms: C11_18  and  C12_19 
REMARK    7  A    between atoms: C12_19  and  C13_20 
REMARK    8  A    between atoms: C13_20  and  C14_21 
REMARK    9  A    between atoms: C15_22  and  C16_23 
REMARK   10  A    between atoms: C16_23  and  O2_24 
REMARK   11  A    between atoms: O2_24  and  C17_25 
ROOT
HETATM    1  N1  UNL     1      28.935  25.198  31.165  1.00  0.00    -0.247 N 
ATOM      2  H1  UNL     1      29.785  25.064  30.619  1.00  0.00     0.196 HD
HETATM    3  C1  UNL     1      27.969  24.385  30.953  1.00  0.00     0.160 C 
ENDROOT
BRANCH   3   4
HETATM    4  N2  UNL     1      28.123  23.364  29.996  1.00  0.00    -0.360 N 
ATOM      5  H2  UNL     1      28.233  23.652  29.025  1.00  0.00     0.162 HD
BRANCH   4   6
HETATM    6  C2  UNL     1      28.139  21.968  30.264  1.00  0.00     0.033 C 
HETATM    7  C3  UNL     1      26.783  21.321  30.265  1.00  0.00     0.035 C 
HETATM    8  C4  UNL     1      26.884  19.853  30.563  1.00  0.00    -0.012 C 
HETATM    9  C5  UNL     1      27.680  19.589  31.851  1.00  0.00     0.010 C 
HETATM   10  C9  UNL     1      27.818  19.151  29.565  1.00  0.00     0.010 C 
HETATM   11  C6  UNL     1      29.045  20.130  31.397  1.00  0.00    -0.008 C 
HETATM   12  C7  UNL     1      28.921  21.649  31.547  1.00  0.00     0.036 C 
HETATM   13  C8  UNL     1      29.125  19.874  29.919  1.00  0.00    -0.008 C 
HETATM   14  C10 UNL     1      28.995  21.247  29.245  1.00  0.00     0.036 C 
ENDBRANCH   4   6
ENDBRANCH   3   4
BRANCH   3  15
HETATM   15  S1  UNL     1      26.484  24.595  31.884  1.00  0.00    -0.092 SA
BRANCH  15  16
HETATM   16  C11 UNL     1      26.524  23.986  33.554  1.00  0.00     0.083 C 
BRANCH  16  17
HETATM   17  C12 UNL     1      26.390  22.509  33.711  1.00  0.00     0.022 C 
BRANCH  17  18
HETATM   18  C13 UNL     1      27.052  22.048  34.986  1.00  0.00     0.095 C 
BRANCH  18  19
HETATM   19  C14 UNL     1      26.386  22.550  36.162  1.00  0.00    -0.104 C 
HETATM   20  C15 UNL     1      25.850  22.981  37.145  1.00  0.00    -0.081 C 
BRANCH  20  21
HETATM   21  C16 UNL     1      25.223  23.520  38.330  1.00  0.00     0.261 C 
BRANCH  21  22
HETATM   22  O2  UNL     1      23.948  23.069  38.565  1.00  0.00    -0.374 OA
BRANCH  22  23
HETATM   23  C17 UNL     1      22.968  23.646  37.795  1.00  0.00     0.122 C 
HETATM   24  C18 UNL     1      22.826  25.133  38.053  1.00  0.00     0.032 C 
HETATM   25  C19 UNL     1      22.135  25.389  39.383  1.00  0.00     0.002 C 
HETATM   26  C20 UNL     1      20.698  24.957  39.350  1.00  0.00     0.000 C 
HETATM   27  C21 UNL     1      20.516  24.016  38.198  1.00  0.00     0.002 C 
HETATM   28  C22 UNL     1      21.644  23.000  38.167  1.00  0.00     0.032 C 
ENDBRANCH  22  23
ENDBRANCH  21  22
ENDBRANCH  20  21
ENDBRANCH  18  19
ENDBRANCH  17  18
ENDBRANCH  16  17
ENDBRANCH  15  16
ENDBRANCH   3  15
BRANCH   1  29
HETATM   29  O1  UNL     1      28.923  26.226  32.056  1.00  0.00    -0.288 OA
ATOM     30  H1  UNL     1      29.312  26.211  32.923  1.00  0.00     0.244 HD
ENDBRANCH   1  29
TORSDOF 11
ENDMDL
MODEL 4
REMARK VINA RESULT: -8.548283806      2.561      3.648
REMARK  11 active torsions:
REMARK  status: ('A' for Active; 'I' for Inactive)
REMARK    1  A    between atoms: O1_1  and  N1_3 
REMARK    2  A    between atoms: C1_5  and  N2_6 
REMARK    3  A    between atoms: C1_5  and  S1_17 
REMARK    4  A    between atoms: N2_6  and  C2_8 
REMARK    5  A    between atoms: S1_17  and  C11_18 
REMARK    6  A    between atoms: C11_18  and  C12_19 
REMARK    7  A    between atoms: C12_19  and  C13_20 
REMARK    8  A    between atoms: C13_20  and  C14_21 
REMARK    9  A    between atoms: C15_22  and  C16_23 
REMARK   10  A    between atoms: C16_23  and  O2_24 
REMARK   11  A    between atoms: O2_24  and  C17_25 
ROOT
HETATM    1  N1  UNL     1      29.028  25.640  31.301  1.00  0.00    -0.247 N 
ATOM      2  H1  UNL     1      29.799  25.528  30.643  1.00  0.00     0.196 HD
HETATM    3  C1  UNL     1      28.007  24.886  31.140  1.00  0.00     0.160 C 
ENDROOT
BRANCH   3   4
HETATM    4  N2  UNL     1      27.996  23.955  30.084  1.00  0.00    -0.360 N 
ATOM      5  H2  UNL     1      27.948  24.329  29.136  1.00  0.00     0.162 HD
BRANCH   4   6
HETATM    6  C2  UNL     1      28.046  22.541  30.219  1.00  0.00     0.033 C 
HETATM    7  C3  UNL     1      28.853  22.058  31.391  1.00  0.00     0.035 C 
HETATM    8  C4  UNL     1      28.864  20.558  31.461  1.00  0.00    -0.012 C 
HETATM    9  C5  UNL     1      29.302  19.933  30.127  1.00  0.00     0.010 C 
HETATM   10  C9  UNL     1      27.434  19.999  31.520  1.00  0.00     0.010 C 
HETATM   11  C6  UNL     1      28.135  20.411  29.249  1.00  0.00    -0.008 C 
HETATM   12  C7  UNL     1      28.484  21.864  28.912  1.00  0.00     0.036 C 
HETATM   13  C8  UNL     1      26.936  20.482  30.150  1.00  0.00    -0.008 C 
HETATM   14  C10 UNL     1      26.648  21.976  30.356  1.00  0.00     0.036 C 
ENDBRANCH   4   6
ENDBRANCH   3   4
BRANCH   3  15
HETATM   15  S1  UNL     1      26.657  25.058  32.264  1.00  0.00    -0.092 SA
BRANCH  15  16
HETATM   16  C11 UNL     1      26.812  24.178  33.802  1.00  0.00     0.083 C 
BRANCH  16  17
HETATM   17  C12 UNL     1      26.305  22.776  33.802  1.00  0.00     0.022 C 
BRANCH  17  18
HETATM   18  C13 UNL     1      26.811  22.029  35.012  1.00  0.00     0.095 C 
BRANCH  18  19
HETATM   19  C14 UNL     1      26.261  22.540  36.242  1.00  0.00    -0.104 C 
HETATM   20  C15 UNL     1      25.789  22.948  37.266  1.00  0.00    -0.081 C 
BRANCH  20  21
HETATM   21  C16 UNL     1      25.209  23.415  38.505  1.00  0.00     0.261 C 
BRANCH  21  22
HETATM   22  O2  UNL     1      23.911  23.024  38.719  1.00  0.00    -0.374 OA
BRANCH  22  23
HETATM   23  C17 UNL     1      22.979  23.594  37.887  1.00  0.00     0.122 C 
HETATM   24  C18 UNL     1      22.862  25.092  38.085  1.00  0.00     0.032 C 
HETATM   25  C19 UNL     1      22.120  25.412  39.374  1.00  0.00     0.002 C 
HETATM   26  C20 UNL     1      20.676  25.011  39.293  1.00  0.00     0.000 C 
HETATM   27  C21 UNL     1      20.522  24.033  38.168  1.00  0.00     0.002 C 
HETATM   28  C22 UNL     1      21.625  22.992  38.223  1.00  0.00     0.032 C 
ENDBRANCH  22  23
ENDBRANCH  21  22
ENDBRANCH  20  21
ENDBRANCH  18  19
ENDBRANCH  17  18
ENDBRANCH  16  17
ENDBRANCH  15  16
ENDBRANCH   3  15
BRANCH   1  29
HETATM   29  O1  UNL     1      29.173  26.579  32.275  1.00  0.00    -0.288 OA
ATOM     30  H1  UNL     1      29.667  27.386  32.195  1.00  0.00     0.244 HD
ENDBRANCH   1  29
TORSDOF 11
ENDMDL
MODEL 5
REMARK VINA RESULT: -8.491526246      2.587      4.181
REMARK  11 active torsions:
REMARK  status: ('A' for Active; 'I' for Inactive)
REMARK    1  A    between atoms: O1_1  and  N1_3 
REMARK    2  A    between atoms: C1_5  and  N2_6 
REMARK    3  A    between atoms: C1_5  and  S1_17 
REMARK    4  A    between atoms: N2_6  and  C2_8 
REMARK    5  A    between atoms: S1_17  and  C11_18 
REMARK    6  A    between atoms: C11_18  and  C12_19 
REMARK    7  A    between atoms: C12_19  and  C13_20 
REMARK    8  A    between atoms: C13_20  and  C14_21 
REMARK    9  A    between atoms: C15_22  and  C16_23 
REMARK   10  A    between atoms: C16_23  and  O2_24 
REMARK   11  A    between atoms: O2_24  and  C17_25 
ROOT
HETATM    1  N1  UNL     1      26.040  21.746  34.442  1.00  0.00    -0.247 N 
ATOM      2  H1  UNL     1      25.740  21.597  33.479  1.00  0.00     0.196 HD
HETATM    3  C1  UNL     1      26.256  22.954  34.808  1.00  0.00     0.160 C 
ENDROOT
BRANCH   3   4
HETATM    4  N2  UNL     1      26.074  23.998  33.882  1.00  0.00    -0.360 N 
ATOM      5  H2  UNL     1      25.377  24.706  34.112  1.00  0.00     0.162 HD
BRANCH   4   6
HETATM    6  C2  UNL     1      26.773  24.155  32.654  1.00  0.00     0.033 C 
HETATM    7  C3  UNL     1      27.910  23.191  32.461  1.00  0.00     0.035 C 
HETATM    8  C4  UNL     1      28.602  23.426  31.149  1.00  0.00    -0.012 C 
HETATM    9  C5  UNL     1      29.022  24.895  30.985  1.00  0.00     0.010 C 
HETATM   10  C9  UNL     1      27.611  23.336  29.979  1.00  0.00     0.010 C 
HETATM   11  C6  UNL     1      27.626  25.537  30.967  1.00  0.00    -0.008 C 
HETATM   12  C7  UNL     1      27.221  25.609  32.442  1.00  0.00     0.036 C 
HETATM   13  C8  UNL     1      26.708  24.524  30.344  1.00  0.00    -0.008 C 
HETATM   14  C10 UNL     1      25.827  23.994  31.484  1.00  0.00     0.036 C 
ENDBRANCH   4   6
ENDBRANCH   3   4
BRANCH   3  15
HETATM   15  S1  UNL     1      26.777  23.241  36.470  1.00  0.00    -0.092 SA
BRANCH  15  16
HETATM   16  C11 UNL     1      25.483  23.604  37.635  1.00  0.00     0.083 C 
BRANCH  16  17
HETATM   17  C12 UNL     1      25.540  22.855  38.923  1.00  0.00     0.022 C 
BRANCH  17  18
HETATM   18  C13 UNL     1      24.516  23.390  39.894  1.00  0.00     0.095 C 
BRANCH  18  19
HETATM   19  C14 UNL     1      23.215  23.540  39.291  1.00  0.00    -0.104 C 
HETATM   20  C15 UNL     1      22.127  23.645  38.797  1.00  0.00    -0.081 C 
BRANCH  20  21
HETATM   21  C16 UNL     1      20.807  23.751  38.218  1.00  0.00     0.261 C 
BRANCH  21  22
HETATM   22  O2  UNL     1      20.173  24.948  38.441  1.00  0.00    -0.374 OA
BRANCH  22  23
HETATM   23  C17 UNL     1      20.168  25.379  39.745  1.00  0.00     0.122 C 
HETATM   24  C18 UNL     1      18.825  25.178  40.418  1.00  0.00     0.032 C 
HETATM   25  C19 UNL     1      17.812  26.200  39.923  1.00  0.00     0.002 C 
HETATM   26  C20 UNL     1      18.164  27.588  40.375  1.00  0.00     0.000 C 
HETATM   27  C21 UNL     1      19.608  27.600  40.777  1.00  0.00     0.002 C 
HETATM   28  C22 UNL     1      20.447  26.873  39.742  1.00  0.00     0.032 C 
ENDBRANCH  22  23
ENDBRANCH  21  22
ENDBRANCH  20  21
ENDBRANCH  18  19
ENDBRANCH  17  18
ENDBRANCH  16  17
ENDBRANCH  15  16
ENDBRANCH   3  15
BRANCH   1  29
HETATM   29  O1  UNL     1      26.176  20.645  35.229  1.00  0.00    -0.288 OA
ATOM     30  H1  UNL     1      26.572  19.823  34.965  1.00  0.00     0.244 HD
ENDBRANCH   1  29
TORSDOF 11
ENDMDL
