MODEL 1
REMARK VINA RESULT: -8.665418975      0.000      0.000
REMARK  7 active torsions:
REMARK  status: ('A' for Active; 'I' for Inactive)
REMARK    1  A    between atoms: C11_11  and  C12_12 
REMARK    2  A    between atoms: C14_14  and  O1_15 
REMARK    3  A    between atoms: N1_17  and  C15_18 
REMARK    4  A    between atoms: C15_18  and  C16_19 
REMARK    5  A    between atoms: C16_19  and  C17_20 
REMARK    6  A    between atoms: C17_20  and  N2_21 
REMARK    7  A    between atoms: C23_27  and  O2_28 
ROOT
HETATM    1  C12 UNL     1      24.194  23.492  38.573  1.00  0.00     0.006 A 
HETATM    2  C13 UNL     1      25.278  23.340  39.389  1.00  0.00     0.068 A 
HETATM    3  C14 UNL     1      26.311  22.917  38.579  1.00  0.00     0.144 A 
HETATM    4  N1  UNL     1      25.888  22.809  37.309  1.00  0.00    -0.308 N 
HETATM    5  C23 UNL     1      24.595  23.159  37.295  1.00  0.00     0.151 A 
ENDROOT
BRANCH   1   6
HETATM    6  C11 UNL     1      22.834  23.930  38.948  1.00  0.00    -0.003 A 
HETATM    7  C6  UNL     1      22.261  24.965  38.003  1.00  0.00     0.008 A 
HETATM    8  C5  UNL     1      20.977  24.413  37.459  1.00  0.00     0.015 C 
HETATM    9  C7  UNL     1      22.132  25.899  39.143  1.00  0.00    -0.035 A 
HETATM   10  C4  UNL     1      20.549  23.343  38.442  1.00  0.00     0.010 C 
HETATM   11  C3  UNL     1      19.713  24.003  39.478  1.00  0.00    -0.020 C 
HETATM   12  C24 UNL     1      21.810  22.865  39.129  1.00  0.00     0.023 C 
HETATM   13  C2  UNL     1      19.825  25.260  39.886  1.00  0.00    -0.086 C 
HETATM   14  C1  UNL     1      18.842  25.632  40.940  1.00  0.00     0.043 C 
HETATM   15  C9  UNL     1      20.738  26.330  39.479  1.00  0.00     0.043 C 
HETATM   16  C8  UNL     1      23.015  27.125  38.943  1.00  0.00     0.016 C 
HETATM   17  C10 UNL     1      22.798  24.942  40.076  1.00  0.00     0.024 A 
ENDBRANCH   1   6
BRANCH   5  18
HETATM   18  O2  UNL     1      23.799  23.179  36.171  1.00  0.00    -0.345 OA
ATOM     19  H2  UNL     1      23.256  22.463  35.863  1.00  0.00     0.219 HD
ENDBRANCH   5  18
BRANCH   3  20
HETATM   20  O1  UNL     1      27.607  22.632  38.978  1.00  0.00    -0.346 OA
ATOM     21  H1  UNL     1      28.225  23.241  39.365  1.00  0.00     0.219 HD
ENDBRANCH   3  20
BRANCH   4  22
HETATM   22  C15 UNL     1      26.674  22.402  36.168  1.00  0.00     0.135 C 
BRANCH  22  23
HETATM   23  C16 UNL     1      26.678  23.487  35.109  1.00  0.00     0.050 C 
BRANCH  23  24
HETATM   24  C17 UNL     1      26.731  22.926  33.722  1.00  0.00     0.274 C 
BRANCH  24  25
HETATM   25  N2  UNL     1      26.297  23.910  32.768  1.00  0.00     0.088 N 
HETATM   26  C18 UNL     1      26.336  23.407  31.409  1.00  0.00     0.272 C 
HETATM   27  C19 UNL     1      27.726  23.309  30.834  1.00  0.00     0.030 C 
HETATM   28  C20 UNL     1      28.513  24.585  31.041  1.00  0.00     0.003 C 
HETATM   29  C21 UNL     1      27.588  25.653  31.595  1.00  0.00     0.030 C 
HETATM   30  C22 UNL     1      26.938  25.195  32.887  1.00  0.00     0.272 C 
ENDBRANCH  24  25
ENDBRANCH  23  24
ENDBRANCH  22  23
ENDBRANCH   4  22
TORSDOF 7
ENDMDL
MODEL 2
REMARK VINA RESULT: -8.597567431      3.417      9.890
REMARK  7 active torsions:
REMARK  status: ('A' for Active; 'I' for Inactive)
REMARK    1  A    between atoms: C11_11  and  C12_12 
REMARK    2  A    between atoms: C14_14  and  O1_15 
REMARK    3  A    between atoms: N1_17  and  C15_18 
REMARK    4  A    between atoms: C15_18  and  C16_19 
REMARK    5  A    between atoms: C16_19  and  C17_20 
REMARK    6  A    between atoms: C17_20  and  N2_21 
REMARK    7  A    between atoms: C23_27  and  O2_28 
ROOT
HETATM    1  C12 UNL     1      27.664  21.822  32.305  1.00  0.00     0.006 A 
HETATM    2  C13 UNL     1      27.523  23.110  31.872  1.00  0.00     0.068 A 
HETATM    3  C14 UNL     1      26.788  23.762  32.840  1.00  0.00     0.144 A 
HETATM    4  N1  UNL     1      26.481  22.914  33.835  1.00  0.00    -0.308 N 
HETATM    5  C23 UNL     1      27.013  21.727  33.518  1.00  0.00     0.151 A 
ENDROOT
BRANCH   1   6
HETATM    6  C11 UNL     1      28.372  20.714  31.633  1.00  0.00    -0.003 A 
HETATM    7  C6  UNL     1      27.442  19.783  30.883  1.00  0.00     0.008 A 
HETATM    8  C5  UNL     1      27.889  19.763  29.451  1.00  0.00     0.015 C 
HETATM    9  C7  UNL     1      27.921  18.665  31.725  1.00  0.00    -0.035 A 
HETATM   10  C4  UNL     1      29.327  20.235  29.470  1.00  0.00     0.010 C 
HETATM   11  C3  UNL     1      30.184  19.035  29.652  1.00  0.00    -0.020 C 
HETATM   12  C24 UNL     1      29.483  21.084  30.713  1.00  0.00     0.023 C 
HETATM   13  C2  UNL     1      29.849  17.930  30.304  1.00  0.00    -0.086 C 
HETATM   14  C1  UNL     1      30.924  16.899  30.315  1.00  0.00     0.043 C 
HETATM   15  C9  UNL     1      28.619  17.555  31.002  1.00  0.00     0.043 C 
HETATM   16  C8  UNL     1      26.787  18.096  32.568  1.00  0.00     0.016 C 
HETATM   17  C10 UNL     1      28.762  19.577  32.557  1.00  0.00     0.024 A 
ENDBRANCH   1   6
BRANCH   5  18
HETATM   18  O2  UNL     1      26.917  20.591  34.292  1.00  0.00    -0.345 OA
ATOM     19  H2  UNL     1      26.449  20.519  35.116  1.00  0.00     0.219 HD
ENDBRANCH   5  18
BRANCH   3  20
HETATM   20  O1  UNL     1      26.400  25.092  32.823  1.00  0.00    -0.346 OA
ATOM     21  H1  UNL     1      25.633  25.451  32.393  1.00  0.00     0.219 HD
ENDBRANCH   3  20
BRANCH   4  22
HETATM   22  C15 UNL     1      25.728  23.221  35.030  1.00  0.00     0.135 C 
BRANCH  22  23
HETATM   23  C16 UNL     1      26.630  23.196  36.249  1.00  0.00     0.050 C 
BRANCH  23  24
HETATM   24  C17 UNL     1      26.007  23.875  37.429  1.00  0.00     0.274 C 
BRANCH  24  25
HETATM   25  N2  UNL     1      25.335  22.913  38.261  1.00  0.00     0.088 N 
HETATM   26  C18 UNL     1      23.913  22.855  37.988  1.00  0.00     0.272 C 
HETATM   27  C19 UNL     1      23.138  24.026  38.535  1.00  0.00     0.030 C 
HETATM   28  C20 UNL     1      23.477  24.299  39.984  1.00  0.00     0.003 C 
HETATM   29  C21 UNL     1      24.354  23.177  40.508  1.00  0.00     0.030 C 
HETATM   30  C22 UNL     1      25.611  23.032  39.670  1.00  0.00     0.272 C 
ENDBRANCH  24  25
ENDBRANCH  23  24
ENDBRANCH  22  23
ENDBRANCH   4  22
TORSDOF 7
ENDMDL
MODEL 3
REMARK VINA RESULT: -8.453129678      3.863      9.645
REMARK  7 active torsions:
REMARK  status: ('A' for Active; 'I' for Inactive)
REMARK    1  A    between atoms: C11_11  and  C12_12 
REMARK    2  A    between atoms: C14_14  and  O1_15 
REMARK    3  A    between atoms: N1_17  and  C15_18 
REMARK    4  A    between atoms: C15_18  and  C16_19 
REMARK    5  A    between atoms: C16_19  and  C17_20 
REMARK    6  A    between atoms: C17_20  and  N2_21 
REMARK    7  A    between atoms: C23_27  and  O2_28 
ROOT
HETATM    1  C12 UNL     1      27.137  20.898  32.883  1.00  0.00     0.006 A 
HETATM    2  C13 UNL     1      27.358  22.096  32.265  1.00  0.00     0.068 A 
HETATM    3  C14 UNL     1      26.878  23.064  33.122  1.00  0.00     0.144 A 
HETATM    4  N1  UNL     1      26.377  22.493  34.229  1.00  0.00    -0.308 N 
HETATM    5  C23 UNL     1      26.531  21.170  34.093  1.00  0.00     0.151 A 
ENDROOT
BRANCH   1   6
HETATM    6  C11 UNL     1      27.469  19.548  32.385  1.00  0.00    -0.003 A 
HETATM    7  C6  UNL     1      28.960  19.301  32.290  1.00  0.00     0.008 A 
HETATM    8  C5  UNL     1      29.269  18.101  33.136  1.00  0.00     0.015 C 
HETATM    9  C7  UNL     1      28.801  19.047  30.841  1.00  0.00    -0.035 A 
HETATM   10  C4  UNL     1      27.955  17.364  33.287  1.00  0.00     0.010 C 
HETATM   11  C3  UNL     1      27.848  16.414  32.150  1.00  0.00    -0.020 C 
HETATM   12  C24 UNL     1      26.863  18.396  33.107  1.00  0.00     0.023 C 
HETATM   13  C2  UNL     1      28.369  16.580  30.942  1.00  0.00    -0.086 C 
HETATM   14  C1  UNL     1      28.090  15.450  30.014  1.00  0.00     0.043 C 
HETATM   15  C9  UNL     1      29.164  17.671  30.376  1.00  0.00     0.043 C 
HETATM   16  C8  UNL     1      29.559  20.084  30.021  1.00  0.00     0.016 C 
HETATM   17  C10 UNL     1      27.349  19.396  30.881  1.00  0.00     0.024 A 
ENDBRANCH   1   6
BRANCH   5  18
HETATM   18  O2  UNL     1      26.139  20.234  35.025  1.00  0.00    -0.345 OA
ATOM     19  H2  UNL     1      25.279  20.173  35.422  1.00  0.00     0.219 HD
ENDBRANCH   5  18
BRANCH   3  20
HETATM   20  O1  UNL     1      26.890  24.433  32.908  1.00  0.00    -0.346 OA
ATOM     21  H1  UNL     1      26.371  24.910  32.272  1.00  0.00     0.219 HD
ENDBRANCH   3  20
BRANCH   4  22
HETATM   22  C15 UNL     1      25.789  23.173  35.361  1.00  0.00     0.135 C 
BRANCH  22  23
HETATM   23  C16 UNL     1      26.733  23.144  36.548  1.00  0.00     0.050 C 
BRANCH  23  24
HETATM   24  C17 UNL     1      26.163  23.846  37.742  1.00  0.00     0.274 C 
BRANCH  24  25
HETATM   25  N2  UNL     1      25.465  22.914  38.584  1.00  0.00     0.088 N 
HETATM   26  C18 UNL     1      24.065  22.800  38.228  1.00  0.00     0.272 C 
HETATM   27  C19 UNL     1      23.228  23.977  38.659  1.00  0.00     0.030 C 
HETATM   28  C20 UNL     1      23.468  24.338  40.109  1.00  0.00     0.003 C 
HETATM   29  C21 UNL     1      24.338  23.273  40.748  1.00  0.00     0.030 C 
HETATM   30  C22 UNL     1      25.648  23.118  39.998  1.00  0.00     0.272 C 
ENDBRANCH  24  25
ENDBRANCH  23  24
ENDBRANCH  22  23
ENDBRANCH   4  22
TORSDOF 7
ENDMDL
MODEL 4
REMARK VINA RESULT: -8.435118568      5.895      9.650
REMARK  7 active torsions:
REMARK  status: ('A' for Active; 'I' for Inactive)
REMARK    1  A    between atoms: C11_11  and  C12_12 
REMARK    2  A    between atoms: C14_14  and  O1_15 
REMARK    3  A    between atoms: N1_17  and  C15_18 
REMARK    4  A    between atoms: C15_18  and  C16_19 
REMARK    5  A    between atoms: C16_19  and  C17_20 
REMARK    6  A    between atoms: C17_20  and  N2_21 
REMARK    7  A    between atoms: C23_27  and  O2_28 
ROOT
HETATM    1  C12 UNL     1      15.373  27.181  41.439  1.00  0.00     0.006 A 
HETATM    2  C13 UNL     1      16.154  28.300  41.509  1.00  0.00     0.068 A 
HETATM    3  C14 UNL     1      17.305  28.009  40.806  1.00  0.00     0.144 A 
HETATM    4  N1  UNL     1      17.244  26.759  40.319  1.00  0.00    -0.308 N 
HETATM    5  C23 UNL     1      16.068  26.245  40.700  1.00  0.00     0.151 A 
ENDROOT
BRANCH   1   6
HETATM    6  C11 UNL     1      14.035  26.974  42.029  1.00  0.00    -0.003 A 
HETATM    7  C6  UNL     1      12.908  27.266  41.060  1.00  0.00     0.008 A 
HETATM    8  C5  UNL     1      12.080  26.020  40.949  1.00  0.00     0.015 C 
HETATM    9  C7  UNL     1      12.404  28.296  41.995  1.00  0.00    -0.035 A 
HETATM   10  C4  UNL     1      12.392  25.216  42.194  1.00  0.00     0.010 C 
HETATM   11  C3  UNL     1      11.434  25.642  43.248  1.00  0.00    -0.020 C 
HETATM   12  C24 UNL     1      13.770  25.647  42.647  1.00  0.00     0.023 C 
HETATM   13  C2  UNL     1      10.889  26.845  43.365  1.00  0.00    -0.086 C 
HETATM   14  C1  UNL     1       9.965  26.967  44.527  1.00  0.00     0.043 C 
HETATM   15  C9  UNL     1      11.037  28.056  42.557  1.00  0.00     0.043 C 
HETATM   16  C8  UNL     1      12.463  29.680  41.360  1.00  0.00     0.016 C 
HETATM   17  C10 UNL     1      13.566  28.112  42.915  1.00  0.00     0.024 A 
ENDBRANCH   1   6
BRANCH   5  18
HETATM   18  O2  UNL     1      15.630  24.975  40.396  1.00  0.00    -0.345 OA
ATOM     19  H2  UNL     1      14.883  24.762  39.849  1.00  0.00     0.219 HD
ENDBRANCH   5  18
BRANCH   3  20
HETATM   20  O1  UNL     1      18.386  28.853  40.610  1.00  0.00    -0.346 OA
ATOM     21  H1  UNL     1      19.222  28.619  40.224  1.00  0.00     0.219 HD
ENDBRANCH   3  20
BRANCH   4  22
HETATM   22  C15 UNL     1      18.251  26.092  39.526  1.00  0.00     0.135 C 
BRANCH  22  23
HETATM   23  C16 UNL     1      19.352  25.546  40.414  1.00  0.00     0.050 C 
BRANCH  23  24
HETATM   24  C17 UNL     1      20.018  24.344  39.819  1.00  0.00     0.274 C 
BRANCH  24  25
HETATM   25  N2  UNL     1      20.725  24.706  38.620  1.00  0.00     0.088 N 
HETATM   26  C18 UNL     1      20.962  23.564  37.761  1.00  0.00     0.272 C 
HETATM   27  C19 UNL     1      22.052  22.646  38.252  1.00  0.00     0.030 C 
HETATM   28  C20 UNL     1      23.305  23.408  38.624  1.00  0.00     0.003 C 
HETATM   29  C21 UNL     1      23.150  24.856  38.199  1.00  0.00     0.030 C 
HETATM   30  C22 UNL     1      21.921  25.481  38.831  1.00  0.00     0.272 C 
ENDBRANCH  24  25
ENDBRANCH  23  24
ENDBRANCH  22  23
ENDBRANCH   4  22
TORSDOF 7
ENDMDL
MODEL 5
REMARK VINA RESULT: -8.267140335      4.188      9.688
REMARK  7 active torsions:
REMARK  status: ('A' for Active; 'I' for Inactive)
REMARK    1  A    between atoms: C11_11  and  C12_12 
REMARK    2  A    between atoms: C14_14  and  O1_15 
REMARK    3  A    between atoms: N1_17  and  C15_18 
REMARK    4  A    between atoms: C15_18  and  C16_19 
REMARK    5  A    between atoms: C16_19  and  C17_20 
REMARK    6  A    between atoms: C17_20  and  N2_21 
REMARK    7  A    between atoms: C23_27  and  O2_28 
ROOT
HETATM    1  C12 UNL     1      21.444  25.684  39.387  1.00  0.00     0.006 A 
HETATM    2  C13 UNL     1      21.371  27.015  39.682  1.00  0.00     0.068 A 
HETATM    3  C14 UNL     1      20.100  27.230  40.172  1.00  0.00     0.144 A 
HETATM    4  N1  UNL     1      19.409  26.080  40.183  1.00  0.00    -0.308 N 
HETATM    5  C23 UNL     1      20.221  25.128  39.705  1.00  0.00     0.151 A 
ENDROOT
BRANCH   1   6
HETATM    6  C11 UNL     1      22.595  24.941  38.834  1.00  0.00    -0.003 A 
HETATM    7  C6  UNL     1      22.689  23.520  39.349  1.00  0.00     0.008 A 
HETATM    8  C5  UNL     1      22.658  22.609  38.158  1.00  0.00     0.015 C 
HETATM    9  C7  UNL     1      24.029  23.831  39.892  1.00  0.00    -0.035 A 
HETATM   10  C4  UNL     1      23.067  23.470  36.981  1.00  0.00     0.010 C 
HETATM   11  C3  UNL     1      24.548  23.400  36.875  1.00  0.00    -0.020 C 
HETATM   12  C24 UNL     1      22.716  24.895  37.351  1.00  0.00     0.023 C 
HETATM   13  C2  UNL     1      25.394  23.222  37.880  1.00  0.00    -0.086 C 
HETATM   14  C1  UNL     1      26.821  23.196  37.457  1.00  0.00     0.043 C 
HETATM   15  C9  UNL     1      25.165  23.045  39.316  1.00  0.00     0.043 C 
HETATM   16  C8  UNL     1      24.041  23.714  41.411  1.00  0.00     0.016 C 
HETATM   17  C10 UNL     1      23.919  25.267  39.497  1.00  0.00     0.024 A 
ENDBRANCH   1   6
BRANCH   5  18
HETATM   18  O2  UNL     1      19.877  23.803  39.558  1.00  0.00    -0.345 OA
ATOM     19  H2  UNL     1      19.669  23.371  38.738  1.00  0.00     0.219 HD
ENDBRANCH   5  18
BRANCH   3  20
HETATM   20  O1  UNL     1      19.576  28.440  40.600  1.00  0.00    -0.346 OA
ATOM     21  H1  UNL     1      18.904  28.562  41.260  1.00  0.00     0.219 HD
ENDBRANCH   3  20
BRANCH   4  22
HETATM   22  C15 UNL     1      18.048  25.894  40.631  1.00  0.00     0.135 C 
BRANCH  22  23
HETATM   23  C16 UNL     1      17.070  26.355  39.567  1.00  0.00     0.050 C 
BRANCH  23  24
HETATM   24  C17 UNL     1      15.645  26.218  40.009  1.00  0.00     0.274 C 
BRANCH  24  25
HETATM   25  N2  UNL     1      15.488  26.713  41.350  1.00  0.00     0.088 N 
HETATM   26  C18 UNL     1      14.272  26.228  41.971  1.00  0.00     0.272 C 
HETATM   27  C19 UNL     1      13.019  26.898  41.465  1.00  0.00     0.030 C 
HETATM   28  C20 UNL     1      13.150  28.405  41.459  1.00  0.00     0.003 C 
HETATM   29  C21 UNL     1      14.440  28.794  42.156  1.00  0.00     0.030 C 
HETATM   30  C22 UNL     1      15.637  28.138  41.493  1.00  0.00     0.272 C 
ENDBRANCH  24  25
ENDBRANCH  23  24
ENDBRANCH  22  23
ENDBRANCH   4  22
TORSDOF 7
ENDMDL
