MODEL 1
REMARK VINA RESULT: -6.081938117      0.000      0.000
REMARK  8 active torsions:
REMARK  status: ('A' for Active; 'I' for Inactive)
REMARK    1  A    between atoms: O1_2  and  C2_3 
REMARK    2  A    between atoms: C2_3  and  C3_4 
REMARK    3  A    between atoms: C3_4  and  O2_5 
REMARK    4  A    between atoms: C5_8  and  C6_9 
REMARK    5  A    between atoms: C6_9  and  O3_12 
REMARK    6  A    between atoms: C10_15  and  O4_16 
REMARK    7  A    between atoms: C12_18  and  C14_20 
REMARK    8  A    between atoms: C14_20  and  C15_21 
ROOT
HETATM    1  C3  UNL     1     -11.023  -5.761  -8.245  1.00  0.00     0.129 C 
HETATM    2  C4  UNL     1     -10.691  -6.786  -9.252  1.00  0.00     0.065 C 
HETATM    3  C5  UNL     1     -11.340  -6.325 -10.579  1.00  0.00     0.023 C 
HETATM    4  C9  UNL     1     -11.512  -4.859 -10.370  1.00  0.00    -0.027 C 
HETATM    5  C10 UNL     1     -11.333  -4.569  -9.054  1.00  0.00     0.086 C 
HETATM    6  C12 UNL     1     -11.680  -3.846 -11.448  1.00  0.00    -0.016 C 
HETATM    7  C13 UNL     1     -10.459  -2.850 -11.220  1.00  0.00     0.020 C 
HETATM    8  C21 UNL     1     -11.261  -4.425 -12.797  1.00  0.00     0.014 C 
HETATM    9  C22 UNL     1     -10.345  -5.554 -12.775  1.00  0.00     0.006 C 
HETATM   10  C23 UNL     1     -10.186  -6.385 -11.572  1.00  0.00    -0.003 C 
HETATM   11  C24 UNL     1      -9.548  -7.722 -11.746  1.00  0.00     0.011 C 
ENDROOT
BRANCH   6  12
HETATM   12  C14 UNL     1     -12.779  -2.934 -11.533  1.00  0.00     0.027 C 
BRANCH  12  13
HETATM   13  C15 UNL     1     -14.203  -3.017 -11.658  1.00  0.00    -0.025 C 
HETATM   14  C16 UNL     1     -14.943  -1.810 -12.194  1.00  0.00     0.019 C 
HETATM   15  C17 UNL     1     -14.848  -3.235 -10.319  1.00  0.00    -0.021 C 
HETATM   16  C18 UNL     1     -15.706  -4.216 -10.294  1.00  0.00    -0.030 C 
HETATM   17  C19 UNL     1     -15.792  -4.834 -11.613  1.00  0.00     0.028 C 
HETATM   18  C20 UNL     1     -14.740  -4.183 -12.428  1.00  0.00     0.017 C 
ENDBRANCH  12  13
ENDBRANCH   6  12
BRANCH   3  19
HETATM   19  C6  UNL     1     -12.495  -7.162 -10.823  1.00  0.00     0.063 C 
HETATM   20  C7  UNL     1     -12.315  -8.660 -10.628  1.00  0.00     0.046 C 
HETATM   21  C8  UNL     1     -13.153  -7.108 -12.180  1.00  0.00     0.046 C 
BRANCH  19  22
HETATM   22  O3  UNL     1     -13.527  -6.851  -9.942  1.00  0.00    -0.390 OA
ATOM     23  H3  UNL     1     -13.226  -6.888  -9.043  1.00  0.00     0.210 HD
ENDBRANCH  19  22
ENDBRANCH   3  19
BRANCH   5  24
HETATM   24  O4  UNL     1     -11.403  -3.342  -8.419  1.00  0.00    -0.357 OA
HETATM   25  C11 UNL     1     -12.384  -2.903  -7.529  1.00  0.00     0.209 C 
ENDBRANCH   5  24
BRANCH   1  26
HETATM   26  C2  UNL     1      -9.742  -5.468  -7.416  1.00  0.00     0.212 C 
BRANCH  26  27
HETATM   27  O1  UNL     1      -9.991  -5.299  -6.089  1.00  0.00    -0.393 OA
HETATM   28  C1  UNL     1      -9.308  -4.163  -5.665  1.00  0.00     0.201 C 
ENDBRANCH  26  27
ENDBRANCH   1  26
BRANCH   1  29
HETATM   29  O2  UNL     1     -11.958  -6.090  -7.288  1.00  0.00    -0.381 OA
ATOM     30  H2  UNL     1     -12.208  -5.250  -6.922  1.00  0.00     0.211 HD
ENDBRANCH   1  29
TORSDOF 8
ENDMDL
MODEL 2
REMARK VINA RESULT: -6.012892473      2.525      5.097
REMARK  8 active torsions:
REMARK  status: ('A' for Active; 'I' for Inactive)
REMARK    1  A    between atoms: O1_2  and  C2_3 
REMARK    2  A    between atoms: C2_3  and  C3_4 
REMARK    3  A    between atoms: C3_4  and  O2_5 
REMARK    4  A    between atoms: C5_8  and  C6_9 
REMARK    5  A    between atoms: C6_9  and  O3_12 
REMARK    6  A    between atoms: C10_15  and  O4_16 
REMARK    7  A    between atoms: C12_18  and  C14_20 
REMARK    8  A    between atoms: C14_20  and  C15_21 
ROOT
HETATM    1  C3  UNL     1     -11.740  -5.568 -10.526  1.00  0.00     0.129 C 
HETATM    2  C4  UNL     1     -12.832  -4.605 -10.291  1.00  0.00     0.065 C 
HETATM    3  C5  UNL     1     -13.723  -4.633 -11.556  1.00  0.00     0.023 C 
HETATM    4  C9  UNL     1     -13.400  -5.957 -12.158  1.00  0.00    -0.027 C 
HETATM    5  C10 UNL     1     -12.283  -6.458 -11.567  1.00  0.00     0.086 C 
HETATM    6  C12 UNL     1     -14.253  -6.699 -13.127  1.00  0.00    -0.016 C 
HETATM    7  C13 UNL     1     -14.539  -8.082 -12.391  1.00  0.00     0.020 C 
HETATM    8  C21 UNL     1     -15.672  -6.137 -13.129  1.00  0.00     0.014 C 
HETATM    9  C22 UNL     1     -16.099  -5.416 -11.941  1.00  0.00     0.006 C 
HETATM   10  C23 UNL     1     -15.121  -4.857 -10.995  1.00  0.00    -0.003 C 
HETATM   11  C24 UNL     1     -15.611  -3.820 -10.040  1.00  0.00     0.011 C 
ENDROOT
BRANCH   6  12
HETATM   12  C14 UNL     1     -13.812  -7.146 -14.412  1.00  0.00     0.027 C 
BRANCH  12  13
HETATM   13  C15 UNL     1     -13.215  -6.564 -15.576  1.00  0.00    -0.025 C 
HETATM   14  C16 UNL     1     -11.738  -6.236 -15.532  1.00  0.00     0.019 C 
HETATM   15  C17 UNL     1     -13.842  -5.237 -15.896  1.00  0.00    -0.021 C 
HETATM   16  C18 UNL     1     -14.214  -5.108 -17.138  1.00  0.00    -0.030 C 
HETATM   17  C19 UNL     1     -13.904  -6.326 -17.878  1.00  0.00     0.028 C 
HETATM   18  C20 UNL     1     -13.418  -7.294 -16.868  1.00  0.00     0.017 C 
ENDBRANCH  12  13
ENDBRANCH   6  12
BRANCH   3  19
HETATM   19  C6  UNL     1     -13.473  -3.418 -12.303  1.00  0.00     0.063 C 
HETATM   20  C7  UNL     1     -14.638  -2.841 -13.092  1.00  0.00     0.046 C 
HETATM   21  C8  UNL     1     -12.374  -3.420 -13.337  1.00  0.00     0.046 C 
BRANCH  19  22
HETATM   22  O3  UNL     1     -13.123  -2.376 -11.449  1.00  0.00    -0.390 OA
ATOM     23  H3  UNL     1     -12.437  -1.842 -11.832  1.00  0.00     0.210 HD
ENDBRANCH  19  22
ENDBRANCH   3  19
BRANCH   5  24
HETATM   24  O4  UNL     1     -11.630  -7.653 -11.817  1.00  0.00    -0.357 OA
HETATM   25  C11 UNL     1     -10.521  -7.857 -12.637  1.00  0.00     0.209 C 
ENDBRANCH   5  24
BRANCH   1  26
HETATM   26  C2  UNL     1     -11.541  -6.397  -9.228  1.00  0.00     0.212 C 
BRANCH  26  27
HETATM   27  O1  UNL     1     -11.757  -5.676  -8.094  1.00  0.00    -0.393 OA
HETATM   28  C1  UNL     1     -10.759  -6.002  -7.181  1.00  0.00     0.201 C 
ENDBRANCH  26  27
ENDBRANCH   1  26
BRANCH   1  29
HETATM   29  O2  UNL     1     -10.486  -5.055 -10.777  1.00  0.00    -0.381 OA
ATOM     30  H2  UNL     1     -10.663  -4.180 -11.102  1.00  0.00     0.211 HD
ENDBRANCH   1  29
TORSDOF 8
ENDMDL
MODEL 3
REMARK VINA RESULT: -5.972955936      1.880      5.762
REMARK  8 active torsions:
REMARK  status: ('A' for Active; 'I' for Inactive)
REMARK    1  A    between atoms: O1_2  and  C2_3 
REMARK    2  A    between atoms: C2_3  and  C3_4 
REMARK    3  A    between atoms: C3_4  and  O2_5 
REMARK    4  A    between atoms: C5_8  and  C6_9 
REMARK    5  A    between atoms: C6_9  and  O3_12 
REMARK    6  A    between atoms: C10_15  and  O4_16 
REMARK    7  A    between atoms: C12_18  and  C14_20 
REMARK    8  A    between atoms: C14_20  and  C15_21 
ROOT
HETATM    1  C3  UNL     1     -13.732  -6.918 -12.671  1.00  0.00     0.129 C 
HETATM    2  C4  UNL     1     -14.327  -5.568 -12.679  1.00  0.00     0.065 C 
HETATM    3  C5  UNL     1     -13.700  -4.804 -11.487  1.00  0.00     0.023 C 
HETATM    4  C9  UNL     1     -12.439  -5.558 -11.239  1.00  0.00    -0.027 C 
HETATM    5  C10 UNL     1     -12.483  -6.740 -11.910  1.00  0.00     0.086 C 
HETATM    6  C12 UNL     1     -11.247  -5.035 -10.517  1.00  0.00    -0.016 C 
HETATM    7  C13 UNL     1     -10.077  -5.153 -11.592  1.00  0.00     0.020 C 
HETATM    8  C21 UNL     1     -11.312  -3.514 -10.408  1.00  0.00     0.014 C 
HETATM    9  C22 UNL     1     -12.137  -2.816 -11.381  1.00  0.00     0.006 C 
HETATM   10  C23 UNL     1     -13.197  -3.516 -12.125  1.00  0.00    -0.003 C 
HETATM   11  C24 UNL     1     -14.231  -2.673 -12.793  1.00  0.00     0.011 C 
ENDROOT
BRANCH   6  12
HETATM   12  C14 UNL     1     -10.652  -5.666  -9.380  1.00  0.00     0.027 C 
BRANCH  12  13
HETATM   13  C15 UNL     1     -10.572  -5.425  -7.970  1.00  0.00    -0.025 C 
HETATM   14  C16 UNL     1     -10.078  -6.547  -7.083  1.00  0.00     0.019 C 
HETATM   15  C17 UNL     1     -11.927  -5.120  -7.398  1.00  0.00    -0.021 C 
HETATM   16  C18 UNL     1     -11.965  -4.049  -6.658  1.00  0.00    -0.030 C 
HETATM   17  C19 UNL     1     -10.640  -3.440  -6.597  1.00  0.00     0.028 C 
HETATM   18  C20 UNL     1      -9.801  -4.215  -7.541  1.00  0.00     0.017 C 
ENDBRANCH  12  13
ENDBRANCH   6  12
BRANCH   3  19
HETATM   19  C6  UNL     1     -14.702  -4.706 -10.447  1.00  0.00     0.063 C 
HETATM   20  C7  UNL     1     -16.148  -4.940 -10.857  1.00  0.00     0.046 C 
HETATM   21  C8  UNL     1     -14.811  -3.418  -9.669  1.00  0.00     0.046 C 
BRANCH  19  22
HETATM   22  O3  UNL     1     -14.492  -5.669  -9.465  1.00  0.00    -0.390 OA
ATOM     23  H3  UNL     1     -14.166  -5.272  -8.667  1.00  0.00     0.210 HD
ENDBRANCH  19  22
ENDBRANCH   3  19
BRANCH   5  24
HETATM   24  O4  UNL     1     -11.534  -7.745 -11.959  1.00  0.00    -0.357 OA
HETATM   25  C11 UNL     1     -11.396  -8.825 -11.086  1.00  0.00     0.209 C 
ENDBRANCH   5  24
BRANCH   1  26
HETATM   26  C2  UNL     1     -13.365  -7.291 -14.133  1.00  0.00     0.212 C 
BRANCH  26  27
HETATM   27  O1  UNL     1     -14.320  -6.930 -15.033  1.00  0.00    -0.393 OA
HETATM   28  C1  UNL     1     -13.785  -7.079 -16.309  1.00  0.00     0.201 C 
ENDBRANCH  26  27
ENDBRANCH   1  26
BRANCH   1  29
HETATM   29  O2  UNL     1     -14.534  -7.962 -12.263  1.00  0.00    -0.381 OA
ATOM     30  H2  UNL     1     -15.310  -7.529 -11.928  1.00  0.00     0.211 HD
ENDBRANCH   1  29
TORSDOF 8
ENDMDL
MODEL 4
REMARK VINA RESULT: -5.904546241      1.962      4.676
REMARK  8 active torsions:
REMARK  status: ('A' for Active; 'I' for Inactive)
REMARK    1  A    between atoms: O1_2  and  C2_3 
REMARK    2  A    between atoms: C2_3  and  C3_4 
REMARK    3  A    between atoms: C3_4  and  O2_5 
REMARK    4  A    between atoms: C5_8  and  C6_9 
REMARK    5  A    between atoms: C6_9  and  O3_12 
REMARK    6  A    between atoms: C10_15  and  O4_16 
REMARK    7  A    between atoms: C12_18  and  C14_20 
REMARK    8  A    between atoms: C14_20  and  C15_21 
ROOT
HETATM    1  C3  UNL     1     -11.429  -4.507  -9.382  1.00  0.00     0.129 C 
HETATM    2  C4  UNL     1     -12.594  -3.610  -9.496  1.00  0.00     0.065 C 
HETATM    3  C5  UNL     1     -13.394  -4.083 -10.735  1.00  0.00     0.023 C 
HETATM    4  C9  UNL     1     -12.946  -5.495 -10.896  1.00  0.00    -0.027 C 
HETATM    5  C10 UNL     1     -11.842  -5.706 -10.131  1.00  0.00     0.086 C 
HETATM    6  C12 UNL     1     -13.682  -6.557 -11.635  1.00  0.00    -0.016 C 
HETATM    7  C13 UNL     1     -13.929  -7.680 -10.532  1.00  0.00     0.020 C 
HETATM    8  C21 UNL     1     -15.131  -6.138 -11.871  1.00  0.00     0.014 C 
HETATM    9  C22 UNL     1     -15.683  -5.136 -10.974  1.00  0.00     0.006 C 
HETATM   10  C23 UNL     1     -14.809  -4.244 -10.196  1.00  0.00    -0.003 C 
HETATM   11  C24 UNL     1     -15.428  -3.014  -9.620  1.00  0.00     0.011 C 
ENDROOT
BRANCH   6  12
HETATM   12  C14 UNL     1     -13.127  -7.327 -12.706  1.00  0.00     0.027 C 
BRANCH  12  13
HETATM   13  C15 UNL     1     -12.678  -7.090 -14.044  1.00  0.00    -0.025 C 
HETATM   14  C16 UNL     1     -11.241  -6.657 -14.248  1.00  0.00     0.019 C 
HETATM   15  C17 UNL     1     -13.455  -5.974 -14.683  1.00  0.00    -0.021 C 
HETATM   16  C18 UNL     1     -13.928  -6.260 -15.862  1.00  0.00    -0.030 C 
HETATM   17  C19 UNL     1     -13.554  -7.621 -16.231  1.00  0.00     0.028 C 
HETATM   18  C20 UNL     1     -12.901  -8.194 -15.030  1.00  0.00     0.017 C 
ENDBRANCH  12  13
ENDBRANCH   6  12
BRANCH   3  19
HETATM   19  C6  UNL     1     -13.171  -3.127 -11.799  1.00  0.00     0.063 C 
HETATM   20  C7  UNL     1     -14.361  -2.793 -12.685  1.00  0.00     0.046 C 
HETATM   21  C8  UNL     1     -12.102  -3.422 -12.821  1.00  0.00     0.046 C 
BRANCH  19  22
HETATM   22  O3  UNL     1     -12.804  -1.888 -11.283  1.00  0.00    -0.390 OA
ATOM     23  H3  UNL     1     -13.423  -1.217 -11.543  1.00  0.00     0.210 HD
ENDBRANCH  19  22
ENDBRANCH   3  19
BRANCH   5  24
HETATM   24  O4  UNL     1     -11.099  -6.864  -9.981  1.00  0.00    -0.357 OA
HETATM   25  C11 UNL     1     -10.009  -7.278 -10.748  1.00  0.00     0.209 C 
ENDBRANCH   5  24
BRANCH   1  26
HETATM   26  C2  UNL     1     -11.266  -4.896  -7.887  1.00  0.00     0.212 C 
BRANCH  26  27
HETATM   27  O1  UNL     1     -12.069  -4.176  -7.056  1.00  0.00    -0.393 OA
HETATM   28  C1  UNL     1     -11.303  -3.764  -5.970  1.00  0.00     0.201 C 
ENDBRANCH  26  27
ENDBRANCH   1  26
BRANCH   1  29
HETATM   29  O2  UNL     1     -10.196  -3.991  -9.717  1.00  0.00    -0.381 OA
ATOM     30  H2  UNL     1      -9.982  -4.435 -10.529  1.00  0.00     0.211 HD
ENDBRANCH   1  29
TORSDOF 8
ENDMDL
MODEL 5
REMARK VINA RESULT: -5.887161784      2.039      4.785
REMARK  8 active torsions:
REMARK  status: ('A' for Active; 'I' for Inactive)
REMARK    1  A    between atoms: O1_2  and  C2_3 
REMARK    2  A    between atoms: C2_3  and  C3_4 
REMARK    3  A    between atoms: C3_4  and  O2_5 
REMARK    4  A    between atoms: C5_8  and  C6_9 
REMARK    5  A    between atoms: C6_9  and  O3_12 
REMARK    6  A    between atoms: C10_15  and  O4_16 
REMARK    7  A    between atoms: C12_18  and  C14_20 
REMARK    8  A    between atoms: C14_20  and  C15_21 
ROOT
HETATM    1  C3  UNL     1     -11.244  -3.597  -9.972  1.00  0.00     0.129 C 
HETATM    2  C4  UNL     1     -12.580  -2.974  -9.938  1.00  0.00     0.065 C 
HETATM    3  C5  UNL     1     -13.438  -3.714 -10.993  1.00  0.00     0.023 C 
HETATM    4  C9  UNL     1     -12.723  -5.012 -11.147  1.00  0.00    -0.027 C 
HETATM    5  C10 UNL     1     -11.496  -4.920 -10.570  1.00  0.00     0.086 C 
HETATM    6  C12 UNL     1     -13.315  -6.267 -11.688  1.00  0.00    -0.016 C 
HETATM    7  C13 UNL     1     -13.139  -7.309 -10.497  1.00  0.00     0.020 C 
HETATM    8  C21 UNL     1     -14.839  -6.178 -11.698  1.00  0.00     0.014 C 
HETATM    9  C22 UNL     1     -15.452  -5.232 -10.779  1.00  0.00     0.006 C 
HETATM   10  C23 UNL     1     -14.684  -4.111 -10.214  1.00  0.00    -0.003 C 
HETATM   11  C24 UNL     1     -15.460  -2.987  -9.612  1.00  0.00     0.011 C 
ENDROOT
BRANCH   6  12
HETATM   12  C14 UNL     1     -12.778  -7.001 -12.791  1.00  0.00     0.027 C 
BRANCH  12  13
HETATM   13  C15 UNL     1     -12.977  -7.062 -14.208  1.00  0.00    -0.025 C 
HETATM   14  C16 UNL     1     -13.112  -8.425 -14.851  1.00  0.00     0.019 C 
HETATM   15  C17 UNL     1     -11.811  -6.461 -14.940  1.00  0.00    -0.021 C 
HETATM   16  C18 UNL     1     -12.143  -5.587 -15.848  1.00  0.00    -0.030 C 
HETATM   17  C19 UNL     1     -13.594  -5.442 -15.889  1.00  0.00     0.028 C 
HETATM   18  C20 UNL     1     -14.108  -6.251 -14.759  1.00  0.00     0.017 C 
ENDBRANCH  12  13
ENDBRANCH   6  12
BRANCH   3  19
HETATM   19  C6  UNL     1     -13.595  -2.835 -12.133  1.00  0.00     0.063 C 
HETATM   20  C7  UNL     1     -14.954  -2.828 -12.816  1.00  0.00     0.046 C 
HETATM   21  C8  UNL     1     -12.664  -3.003 -13.308  1.00  0.00     0.046 C 
BRANCH  19  22
HETATM   22  O3  UNL     1     -13.422  -1.505 -11.761  1.00  0.00    -0.390 OA
ATOM     23  H3  UNL     1     -13.995  -0.937 -12.262  1.00  0.00     0.210 HD
ENDBRANCH  19  22
ENDBRANCH   3  19
BRANCH   5  24
HETATM   24  O4  UNL     1     -10.504  -5.882 -10.482  1.00  0.00    -0.357 OA
HETATM   25  C11 UNL     1      -9.497  -6.148 -11.409  1.00  0.00     0.209 C 
ENDBRANCH   5  24
BRANCH   1  26
HETATM   26  C2  UNL     1     -10.772  -3.805  -8.507  1.00  0.00     0.212 C 
BRANCH  26  27
HETATM   27  O1  UNL     1     -10.530  -2.636  -7.853  1.00  0.00    -0.393 OA
HETATM   28  C1  UNL     1     -11.245  -2.657  -6.659  1.00  0.00     0.201 C 
ENDBRANCH  26  27
ENDBRANCH   1  26
BRANCH   1  29
HETATM   29  O2  UNL     1     -10.220  -2.873 -10.542  1.00  0.00    -0.381 OA
ATOM     30  H2  UNL     1      -9.757  -3.515 -11.067  1.00  0.00     0.211 HD
ENDBRANCH   1  29
TORSDOF 8
ENDMDL
