MODEL 1
REMARK VINA RESULT: -7.281372961      0.000      0.000
REMARK  6 active torsions:
REMARK  status: ('A' for Active; 'I' for Inactive)
REMARK    1  A    between atoms: C5_5  and  C6_6 
REMARK    2  A    between atoms: C6_6  and  O1_7 
REMARK    3  A    between atoms: C6_6  and  C7_9 
REMARK    4  A    between atoms: C7_9  and  C8_10 
REMARK    5  A    between atoms: C8_10  and  C9_11 
REMARK    6  A    between atoms: C16_19  and  O2_20 
ROOT
HETATM    1  C9  UNL     1     -12.295  -3.173  -7.991  1.00  0.00     0.262 A 
HETATM    2  N1  UNL     1     -12.538  -3.486  -9.269  1.00  0.00     0.112 N 
HETATM    3  C10 UNL     1     -12.771  -4.390 -10.239  1.00  0.00     0.233 C 
HETATM    4  C11 UNL     1     -11.547  -4.426 -11.181  1.00  0.00     0.063 C 
HETATM    5  C12 UNL     1     -11.917  -4.919 -12.512  1.00  0.00    -0.021 C 
HETATM    6  C13 UNL     1     -13.120  -5.067 -13.011  1.00  0.00    -0.075 C 
HETATM    7  C14 UNL     1     -13.335  -5.592 -14.415  1.00  0.00     0.037 C 
HETATM    8  C15 UNL     1     -14.565  -6.446 -14.345  1.00  0.00     0.036 C 
HETATM    9  C16 UNL     1     -14.820  -7.015 -12.969  1.00  0.00     0.119 C 
HETATM   10  C17 UNL     1     -15.132  -5.978 -11.934  1.00  0.00     0.045 C 
HETATM   11  C18 UNL     1     -14.315  -4.731 -12.222  1.00  0.00    -0.013 C 
HETATM   12  C19 UNL     1     -15.183  -3.834 -13.120  1.00  0.00     0.021 C 
HETATM   13  C20 UNL     1     -13.992  -3.947 -11.018  1.00  0.00     0.032 C 
HETATM   14  C21 UNL     1     -15.163  -3.811 -10.072  1.00  0.00     0.010 C 
HETATM   15  C22 UNL     1     -14.769  -3.106  -8.801  1.00  0.00     0.044 C 
HETATM   16  C23 UNL     1     -13.558  -3.791  -8.187  1.00  0.00     0.188 A 
HETATM   17  C24 UNL     1     -13.797  -5.229  -7.931  1.00  0.00     0.051 C 
ENDROOT
BRANCH   1  18
HETATM   18  C8  UNL     1     -11.291  -3.782  -7.047  1.00  0.00     0.041 C 
BRANCH  18  19
HETATM   19  C7  UNL     1     -10.174  -4.536  -7.699  1.00  0.00     0.041 C 
BRANCH  19  20
HETATM   20  C6  UNL     1     -10.096  -6.000  -7.528  1.00  0.00     0.175 C 
BRANCH  20  21
HETATM   21  C5  UNL     1     -10.238  -6.816  -8.740  1.00  0.00     0.082 A 
HETATM   22  C4  UNL     1      -9.173  -7.198  -9.525  1.00  0.00     0.038 A 
HETATM   23  C3  UNL     1      -9.682  -7.947 -10.564  1.00  0.00     0.035 A 
HETATM   24  C2  UNL     1     -11.043  -7.990 -10.366  1.00  0.00     0.049 A 
HETATM   25  C1  UNL     1     -11.995  -8.711 -11.277  1.00  0.00     0.076 C 
HETATM   26  O3  UNL     1     -11.313  -7.320  -9.296  1.00  0.00    -0.317 OA
ENDBRANCH  20  21
BRANCH  20  27
HETATM   27  O1  UNL     1     -10.976  -6.451  -6.522  1.00  0.00    -0.389 OA
ATOM     28  H1  UNL     1     -11.847  -6.585  -6.876  1.00  0.00     0.210 HD
ENDBRANCH  20  27
ENDBRANCH  19  20
ENDBRANCH  18  19
ENDBRANCH   1  18
BRANCH   9  29
HETATM   29  O2  UNL     1     -15.864  -7.949 -13.100  1.00  0.00    -0.396 OA
ATOM     30  H2  UNL     1     -16.672  -7.489 -12.905  1.00  0.00     0.210 HD
ENDBRANCH   9  29
TORSDOF 6
ENDMDL
MODEL 2
REMARK VINA RESULT: -7.167932171      2.150      6.293
REMARK  6 active torsions:
REMARK  status: ('A' for Active; 'I' for Inactive)
REMARK    1  A    between atoms: C5_5  and  C6_6 
REMARK    2  A    between atoms: C6_6  and  O1_7 
REMARK    3  A    between atoms: C6_6  and  C7_9 
REMARK    4  A    between atoms: C7_9  and  C8_10 
REMARK    5  A    between atoms: C8_10  and  C9_11 
REMARK    6  A    between atoms: C16_19  and  O2_20 
ROOT
HETATM    1  C9  UNL     1     -16.044  -5.349 -11.330  1.00  0.00     0.262 A 
HETATM    2  N1  UNL     1     -14.957  -5.510 -10.568  1.00  0.00     0.112 N 
HETATM    3  C10 UNL     1     -13.632  -5.384 -10.359  1.00  0.00     0.233 C 
HETATM    4  C11 UNL     1     -13.000  -6.793 -10.353  1.00  0.00     0.063 C 
HETATM    5  C12 UNL     1     -11.741  -6.805  -9.601  1.00  0.00    -0.021 C 
HETATM    6  C13 UNL     1     -11.278  -5.887  -8.789  1.00  0.00    -0.075 C 
HETATM    7  C14 UNL     1      -9.948  -6.052  -8.083  1.00  0.00     0.037 C 
HETATM    8  C15 UNL     1      -9.336  -4.684  -8.045  1.00  0.00     0.036 C 
HETATM    9  C16 UNL     1      -9.822  -3.781  -9.154  1.00  0.00     0.119 C 
HETATM   10  C17 UNL     1     -11.279  -3.445  -9.066  1.00  0.00     0.045 C 
HETATM   11  C18 UNL     1     -12.032  -4.650  -8.533  1.00  0.00    -0.013 C 
HETATM   12  C19 UNL     1     -12.090  -4.493  -7.004  1.00  0.00     0.021 C 
HETATM   13  C20 UNL     1     -13.424  -4.733  -9.008  1.00  0.00     0.032 C 
HETATM   14  C21 UNL     1     -14.136  -3.400  -8.983  1.00  0.00     0.010 C 
HETATM   15  C22 UNL     1     -15.513  -3.496  -9.581  1.00  0.00     0.044 C 
HETATM   16  C23 UNL     1     -15.431  -4.123 -10.964  1.00  0.00     0.188 A 
HETATM   17  C24 UNL     1     -14.524  -3.378 -11.865  1.00  0.00     0.051 C 
ENDROOT
BRANCH   1  18
HETATM   18  C8  UNL     1     -16.235  -5.699 -12.784  1.00  0.00     0.041 C 
BRANCH  18  19
HETATM   19  C7  UNL     1     -15.427  -6.860 -13.275  1.00  0.00     0.041 C 
BRANCH  19  20
HETATM   20  C6  UNL     1     -14.100  -6.613 -13.872  1.00  0.00     0.175 C 
BRANCH  20  21
HETATM   21  C5  UNL     1     -14.076  -5.933 -15.173  1.00  0.00     0.082 A 
HETATM   22  C4  UNL     1     -13.734  -4.609 -15.329  1.00  0.00     0.038 A 
HETATM   23  C3  UNL     1     -13.823  -4.322 -16.673  1.00  0.00     0.035 A 
HETATM   24  C2  UNL     1     -14.217  -5.491 -17.283  1.00  0.00     0.049 A 
HETATM   25  C1  UNL     1     -14.438  -5.626 -18.763  1.00  0.00     0.076 C 
HETATM   26  O3  UNL     1     -14.350  -6.393 -16.369  1.00  0.00    -0.317 OA
ENDBRANCH  20  21
BRANCH  20  27
HETATM   27  O1  UNL     1     -13.324  -7.790 -13.914  1.00  0.00    -0.389 OA
ATOM     28  H1  UNL     1     -13.473  -8.316 -13.137  1.00  0.00     0.210 HD
ENDBRANCH  20  27
ENDBRANCH  19  20
ENDBRANCH  18  19
ENDBRANCH   1  18
BRANCH   9  29
HETATM   29  O2  UNL     1      -9.020  -2.626  -9.121  1.00  0.00    -0.396 OA
ATOM     30  H2  UNL     1      -9.410  -2.036  -8.487  1.00  0.00     0.210 HD
ENDBRANCH   9  29
TORSDOF 6
ENDMDL
MODEL 3
REMARK VINA RESULT: -7.124718656      8.996     11.695
REMARK  6 active torsions:
REMARK  status: ('A' for Active; 'I' for Inactive)
REMARK    1  A    between atoms: C5_5  and  C6_6 
REMARK    2  A    between atoms: C6_6  and  O1_7 
REMARK    3  A    between atoms: C6_6  and  C7_9 
REMARK    4  A    between atoms: C7_9  and  C8_10 
REMARK    5  A    between atoms: C8_10  and  C9_11 
REMARK    6  A    between atoms: C16_19  and  O2_20 
ROOT
HETATM    1  C9  UNL     1     -19.274   2.478 -14.589  1.00  0.00     0.262 A 
HETATM    2  N1  UNL     1     -18.012   2.767 -14.928  1.00  0.00     0.112 N 
HETATM    3  C10 UNL     1     -16.801   3.283 -14.642  1.00  0.00     0.233 C 
HETATM    4  C11 UNL     1     -16.594   4.552 -15.498  1.00  0.00     0.063 C 
HETATM    5  C12 UNL     1     -15.167   4.840 -15.681  1.00  0.00    -0.021 C 
HETATM    6  C13 UNL     1     -14.148   4.054 -15.435  1.00  0.00    -0.075 C 
HETATM    7  C14 UNL     1     -12.723   4.506 -15.680  1.00  0.00     0.037 C 
HETATM    8  C15 UNL     1     -11.911   3.907 -14.571  1.00  0.00     0.036 C 
HETATM    9  C16 UNL     1     -12.717   3.629 -13.324  1.00  0.00     0.119 C 
HETATM   10  C17 UNL     1     -13.771   2.581 -13.505  1.00  0.00     0.045 C 
HETATM   11  C18 UNL     1     -14.348   2.697 -14.904  1.00  0.00    -0.013 C 
HETATM   12  C19 UNL     1     -13.520   1.760 -15.800  1.00  0.00     0.021 C 
HETATM   13  C20 UNL     1     -15.750   2.256 -15.003  1.00  0.00     0.032 C 
HETATM   14  C21 UNL     1     -16.020   0.978 -14.241  1.00  0.00     0.010 C 
HETATM   15  C22 UNL     1     -17.481   0.618 -14.265  1.00  0.00     0.044 C 
HETATM   16  C23 UNL     1     -18.311   1.802 -13.795  1.00  0.00     0.188 A 
HETATM   17  C24 UNL     1     -17.913   2.266 -12.447  1.00  0.00     0.051 C 
ENDROOT
BRANCH   1  18
HETATM   18  C8  UNL     1     -20.302   3.369 -13.941  1.00  0.00     0.041 C 
BRANCH  18  19
HETATM   19  C7  UNL     1     -21.717   2.890 -14.039  1.00  0.00     0.041 C 
BRANCH  19  20
HETATM   20  C6  UNL     1     -22.414   2.448 -12.814  1.00  0.00     0.175 C 
BRANCH  20  21
HETATM   21  C5  UNL     1     -22.488   0.999 -12.583  1.00  0.00     0.082 A 
HETATM   22  C4  UNL     1     -21.414   0.152 -12.738  1.00  0.00     0.038 A 
HETATM   23  C3  UNL     1     -21.853  -1.119 -12.438  1.00  0.00     0.035 A 
HETATM   24  C2  UNL     1     -23.183  -0.991 -12.110  1.00  0.00     0.049 A 
HETATM   25  C1  UNL     1     -24.059  -2.145 -11.713  1.00  0.00     0.076 C 
HETATM   26  O3  UNL     1     -23.501   0.257 -12.210  1.00  0.00    -0.317 OA
ENDBRANCH  20  21
BRANCH  20  27
HETATM   27  O1  UNL     1     -23.692   3.032 -12.706  1.00  0.00    -0.389 OA
ATOM     28  H1  UNL     1     -23.624   3.979 -12.669  1.00  0.00     0.210 HD
ENDBRANCH  20  27
ENDBRANCH  19  20
ENDBRANCH  18  19
ENDBRANCH   1  18
BRANCH   9  29
HETATM   29  O2  UNL     1     -11.801   3.277 -12.316  1.00  0.00    -0.396 OA
ATOM     30  H2  UNL     1     -11.225   2.618 -12.685  1.00  0.00     0.210 HD
ENDBRANCH   9  29
TORSDOF 6
ENDMDL
MODEL 4
REMARK VINA RESULT: -7.121915888      1.961      5.788
REMARK  6 active torsions:
REMARK  status: ('A' for Active; 'I' for Inactive)
REMARK    1  A    between atoms: C5_5  and  C6_6 
REMARK    2  A    between atoms: C6_6  and  O1_7 
REMARK    3  A    between atoms: C6_6  and  C7_9 
REMARK    4  A    between atoms: C7_9  and  C8_10 
REMARK    5  A    between atoms: C8_10  and  C9_11 
REMARK    6  A    between atoms: C16_19  and  O2_20 
ROOT
HETATM    1  C9  UNL     1     -14.824  -4.981 -12.718  1.00  0.00     0.262 A 
HETATM    2  N1  UNL     1     -14.061  -5.141 -11.631  1.00  0.00     0.112 N 
HETATM    3  C10 UNL     1     -13.082  -4.728 -10.804  1.00  0.00     0.233 C 
HETATM    4  C11 UNL     1     -11.883  -5.691 -10.943  1.00  0.00     0.063 C 
HETATM    5  C12 UNL     1     -11.045  -5.672  -9.739  1.00  0.00    -0.021 C 
HETATM    6  C13 UNL     1     -11.333  -5.165  -8.565  1.00  0.00    -0.075 C 
HETATM    7  C14 UNL     1     -10.350  -5.228  -7.414  1.00  0.00     0.037 C 
HETATM    8  C15 UNL     1     -10.510  -3.934  -6.674  1.00  0.00     0.036 C 
HETATM    9  C16 UNL     1     -11.031  -2.811  -7.539  1.00  0.00     0.119 C 
HETATM   10  C17 UNL     1     -12.427  -3.029  -8.038  1.00  0.00     0.045 C 
HETATM   11  C18 UNL     1     -12.625  -4.507  -8.319  1.00  0.00    -0.013 C 
HETATM   12  C19 UNL     1     -13.183  -5.130  -7.028  1.00  0.00     0.021 C 
HETATM   13  C20 UNL     1     -13.606  -4.779  -9.384  1.00  0.00     0.032 C 
HETATM   14  C21 UNL     1     -14.843  -3.916  -9.279  1.00  0.00     0.010 C 
HETATM   15  C22 UNL     1     -15.771  -4.135 -10.445  1.00  0.00     0.044 C 
HETATM   16  C23 UNL     1     -15.008  -3.960 -11.749  1.00  0.00     0.188 A 
HETATM   17  C24 UNL     1     -14.356  -2.635 -11.844  1.00  0.00     0.051 C 
ENDROOT
BRANCH   1  18
HETATM   18  C8  UNL     1     -14.401  -4.628 -14.121  1.00  0.00     0.041 C 
BRANCH  18  19
HETATM   19  C7  UNL     1     -13.753  -5.736 -14.892  1.00  0.00     0.041 C 
BRANCH  19  20
HETATM   20  C6  UNL     1     -14.239  -7.118 -14.712  1.00  0.00     0.175 C 
BRANCH  20  21
HETATM   21  C5  UNL     1     -13.561  -7.929 -13.692  1.00  0.00     0.082 A 
HETATM   22  C4  UNL     1     -14.232  -8.644 -12.725  1.00  0.00     0.038 A 
HETATM   23  C3  UNL     1     -13.280  -9.276 -11.955  1.00  0.00     0.035 A 
HETATM   24  C2  UNL     1     -12.063  -8.917 -12.489  1.00  0.00     0.049 A 
HETATM   25  C1  UNL     1     -10.744  -9.388 -11.948  1.00  0.00     0.076 C 
HETATM   26  O3  UNL     1     -12.283  -8.136 -13.493  1.00  0.00    -0.317 OA
ENDBRANCH  20  21
BRANCH  20  27
HETATM   27  O1  UNL     1     -14.295  -7.811 -15.939  1.00  0.00    -0.389 OA
ATOM     28  H1  UNL     1     -15.139  -8.234 -16.045  1.00  0.00     0.210 HD
ENDBRANCH  20  27
ENDBRANCH  19  20
ENDBRANCH  18  19
ENDBRANCH   1  18
BRANCH   9  29
HETATM   29  O2  UNL     1     -10.929  -1.630  -6.782  1.00  0.00    -0.396 OA
ATOM     30  H2  UNL     1     -10.005  -1.487  -6.616  1.00  0.00     0.210 HD
ENDBRANCH   9  29
TORSDOF 6
ENDMDL
MODEL 5
REMARK VINA RESULT: -7.105788454      2.125      5.563
REMARK  6 active torsions:
REMARK  status: ('A' for Active; 'I' for Inactive)
REMARK    1  A    between atoms: C5_5  and  C6_6 
REMARK    2  A    between atoms: C6_6  and  O1_7 
REMARK    3  A    between atoms: C6_6  and  C7_9 
REMARK    4  A    between atoms: C7_9  and  C8_10 
REMARK    5  A    between atoms: C8_10  and  C9_11 
REMARK    6  A    between atoms: C16_19  and  O2_20 
ROOT
HETATM    1  C9  UNL     1     -16.046  -5.305 -11.243  1.00  0.00     0.262 A 
HETATM    2  N1  UNL     1     -14.945  -5.462 -10.498  1.00  0.00     0.112 N 
HETATM    3  C10 UNL     1     -13.616  -5.337 -10.314  1.00  0.00     0.233 C 
HETATM    4  C11 UNL     1     -12.987  -6.747 -10.308  1.00  0.00     0.063 C 
HETATM    5  C12 UNL     1     -11.714  -6.756  -9.579  1.00  0.00    -0.021 C 
HETATM    6  C13 UNL     1     -11.236  -5.833  -8.782  1.00  0.00    -0.075 C 
HETATM    7  C14 UNL     1      -9.894  -5.996  -8.098  1.00  0.00     0.037 C 
HETATM    8  C15 UNL     1      -9.279  -4.629  -8.081  1.00  0.00     0.036 C 
HETATM    9  C16 UNL     1      -9.783  -3.733  -9.187  1.00  0.00     0.119 C 
HETATM   10  C17 UNL     1     -11.237  -3.393  -9.076  1.00  0.00     0.045 C 
HETATM   11  C18 UNL     1     -11.983  -4.593  -8.521  1.00  0.00    -0.013 C 
HETATM   12  C19 UNL     1     -12.014  -4.425  -6.993  1.00  0.00     0.021 C 
HETATM   13  C20 UNL     1     -13.384  -4.677  -8.971  1.00  0.00     0.032 C 
HETATM   14  C21 UNL     1     -14.092  -3.342  -8.943  1.00  0.00     0.010 C 
HETATM   15  C22 UNL     1     -15.480  -3.439  -9.516  1.00  0.00     0.044 C 
HETATM   16  C23 UNL     1     -15.424  -4.077 -10.896  1.00  0.00     0.188 A 
HETATM   17  C24 UNL     1     -14.531  -3.340 -11.818  1.00  0.00     0.051 C 
ENDROOT
BRANCH   1  18
HETATM   18  C8  UNL     1     -16.262  -5.664 -12.690  1.00  0.00     0.041 C 
BRANCH  18  19
HETATM   19  C7  UNL     1     -15.599  -6.928 -13.142  1.00  0.00     0.041 C 
BRANCH  19  20
HETATM   20  C6  UNL     1     -14.478  -6.850 -14.100  1.00  0.00     0.175 C 
BRANCH  20  21
HETATM   21  C5  UNL     1     -13.251  -7.573 -13.741  1.00  0.00     0.082 A 
HETATM   22  C4  UNL     1     -13.227  -8.912 -13.421  1.00  0.00     0.038 A 
HETATM   23  C3  UNL     1     -11.918  -9.240 -13.144  1.00  0.00     0.035 A 
HETATM   24  C2  UNL     1     -11.196  -8.080 -13.308  1.00  0.00     0.049 A 
HETATM   25  C1  UNL     1      -9.711  -7.987 -13.104  1.00  0.00     0.076 C 
HETATM   26  O3  UNL     1     -12.016  -7.144 -13.654  1.00  0.00    -0.317 OA
ENDBRANCH  20  21
BRANCH  20  27
HETATM   27  O1  UNL     1     -14.183  -5.515 -14.445  1.00  0.00    -0.389 OA
ATOM     28  H1  UNL     1     -13.344  -5.462 -14.886  1.00  0.00     0.210 HD
ENDBRANCH  20  27
ENDBRANCH  19  20
ENDBRANCH  18  19
ENDBRANCH   1  18
BRANCH   9  29
HETATM   29  O2  UNL     1      -8.978  -2.579  -9.178  1.00  0.00    -0.396 OA
ATOM     30  H2  UNL     1      -9.255  -2.043  -9.911  1.00  0.00     0.210 HD
ENDBRANCH   9  29
TORSDOF 6
ENDMDL
