MODEL 1
REMARK VINA RESULT: -7.525676186      0.000      0.000
REMARK  6 active torsions:
REMARK  status: ('A' for Active; 'I' for Inactive)
REMARK    1  A    between atoms: C2_2  and  C3_3 
REMARK    2  A    between atoms: C11_11  and  O1_12 
REMARK    3  A    between atoms: C12_14  and  C13_15 
REMARK    4  A    between atoms: C13_15  and  C15_17 
REMARK    5  A    between atoms: N1_18  and  N2_20 
REMARK       I    between atoms: N2_20  and  C16_22 
REMARK    6  A    between atoms: C16_22  and  C17_24 
ROOT
HETATM    1  C3  UNL     1     -13.975  -6.540 -12.977  1.00  0.00    -0.040 C 
HETATM    2  C4  UNL     1     -13.681  -8.057 -13.012  1.00  0.00     0.015 C 
HETATM    3  C5  UNL     1     -15.438  -6.412 -13.418  1.00  0.00     0.010 C 
HETATM    4  C6  UNL     1     -16.190  -5.833 -12.204  1.00  0.00     0.011 C 
HETATM    5  C7  UNL     1     -15.113  -5.026 -11.555  1.00  0.00    -0.033 C 
HETATM    6  C8  UNL     1     -14.851  -3.841 -12.386  1.00  0.00     0.016 C 
HETATM    7  C9  UNL     1     -14.033  -6.117 -11.630  1.00  0.00     0.005 C 
HETATM    8  C10 UNL     1     -12.978  -5.500 -10.819  1.00  0.00     0.044 C 
HETATM    9  C11 UNL     1     -13.781  -5.350  -9.543  1.00  0.00     0.067 C 
HETATM   10  C12 UNL     1     -13.374  -4.375  -8.562  1.00  0.00     0.029 C 
HETATM   11  C22 UNL     1     -13.796  -3.042  -9.200  1.00  0.00     0.009 C 
HETATM   12  C23 UNL     1     -15.224  -3.457  -9.573  1.00  0.00     0.009 C 
HETATM   13  C24 UNL     1     -15.133  -4.841 -10.097  1.00  0.00     0.029 C 
ENDROOT
BRANCH  10  14
HETATM   14  C13 UNL     1     -12.067  -4.363  -7.942  1.00  0.00     0.028 C 
HETATM   15  C14 UNL     1     -11.715  -2.924  -7.534  1.00  0.00     0.016 C 
BRANCH  14  16
HETATM   16  C15 UNL     1     -11.750  -5.238  -6.836  1.00  0.00     0.085 C 
HETATM   17  N1  UNL     1     -11.224  -6.398  -7.039  1.00  0.00    -0.313 N 
ATOM     18  H1  UNL     1     -11.022  -6.970  -6.220  1.00  0.00     0.185 HD
BRANCH  17  19
HETATM   19  N2  UNL     1     -10.913  -6.928  -8.274  1.00  0.00    -0.270 N 
HETATM   20  C16 UNL     1      -9.644  -7.475  -8.547  1.00  0.00     0.240 C 
HETATM   21  O2  UNL     1      -8.771  -7.480  -7.642  1.00  0.00    -0.271 OA
ATOM     22  H2  UNL     1     -11.621  -6.924  -9.008  1.00  0.00     0.190 HD
BRANCH  20  23
HETATM   23  C17 UNL     1      -9.276  -8.053  -9.868  1.00  0.00     0.079 C 
HETATM   24  C18 UNL     1      -9.579  -7.129 -11.004  1.00  0.00     0.014 C 
HETATM   25  C19 UNL     1     -10.117  -7.980 -12.127  1.00  0.00     0.001 C 
HETATM   26  C20 UNL     1     -10.452  -9.322 -11.558  1.00  0.00     0.001 C 
HETATM   27  C21 UNL     1      -9.978  -9.345 -10.127  1.00  0.00     0.014 C 
ENDBRANCH  20  23
ENDBRANCH  17  19
ENDBRANCH  14  16
ENDBRANCH  10  14
BRANCH   9  28
HETATM   28  O1  UNL     1     -13.930  -6.639  -9.019  1.00  0.00    -0.389 OA
ATOM     29  H1  UNL     1     -14.569  -7.078  -9.568  1.00  0.00     0.210 HD
ENDBRANCH   9  28
BRANCH   1  30
HETATM   30  C2  UNL     1     -13.015  -5.936 -13.931  1.00  0.00     0.005 C 
HETATM   31  C1  UNL     1     -13.631  -5.860 -15.337  1.00  0.00     0.006 C 
ENDBRANCH   1  30
TORSDOF 6
ENDMDL
MODEL 2
REMARK VINA RESULT: -7.391086122      2.374      6.528
REMARK  6 active torsions:
REMARK  status: ('A' for Active; 'I' for Inactive)
REMARK    1  A    between atoms: C2_2  and  C3_3 
REMARK    2  A    between atoms: C11_11  and  O1_12 
REMARK    3  A    between atoms: C12_14  and  C13_15 
REMARK    4  A    between atoms: C13_15  and  C15_17 
REMARK    5  A    between atoms: N1_18  and  N2_20 
REMARK       I    between atoms: N2_20  and  C16_22 
REMARK    6  A    between atoms: C16_22  and  C17_24 
ROOT
HETATM    1  C3  UNL     1     -12.328  -5.005  -8.279  1.00  0.00    -0.040 C 
HETATM    2  C4  UNL     1     -13.729  -5.183  -7.651  1.00  0.00     0.015 C 
HETATM    3  C5  UNL     1     -11.345  -5.290  -7.137  1.00  0.00     0.010 C 
HETATM    4  C6  UNL     1     -10.562  -6.546  -7.566  1.00  0.00     0.011 C 
HETATM    5  C7  UNL     1     -10.583  -6.406  -9.054  1.00  0.00    -0.033 C 
HETATM    6  C8  UNL     1      -9.686  -5.303  -9.432  1.00  0.00     0.016 C 
HETATM    7  C9  UNL     1     -12.081  -6.082  -9.160  1.00  0.00     0.005 C 
HETATM    8  C10 UNL     1     -12.260  -6.132 -10.615  1.00  0.00     0.044 C 
HETATM    9  C11 UNL     1     -11.804  -7.564 -10.813  1.00  0.00     0.067 C 
HETATM   10  C12 UNL     1     -11.336  -7.983 -12.111  1.00  0.00     0.029 C 
HETATM   11  C22 UNL     1      -9.947  -7.334 -12.208  1.00  0.00     0.009 C 
HETATM   12  C23 UNL     1      -9.433  -7.787 -10.836  1.00  0.00     0.009 C 
HETATM   13  C24 UNL     1     -10.563  -7.614  -9.890  1.00  0.00     0.029 C 
ENDROOT
BRANCH  10  14
HETATM   14  C13 UNL     1     -12.134  -7.891 -13.315  1.00  0.00     0.028 C 
HETATM   15  C14 UNL     1     -11.202  -7.730 -14.526  1.00  0.00     0.016 C 
BRANCH  14  16
HETATM   16  C15 UNL     1     -13.128  -8.888 -13.638  1.00  0.00     0.085 C 
HETATM   17  N1  UNL     1     -14.369  -8.711 -13.331  1.00  0.00    -0.313 N 
ATOM     18  H1  UNL     1     -15.024  -9.450 -13.585  1.00  0.00     0.185 HD
BRANCH  17  19
HETATM   19  N2  UNL     1     -14.880  -7.605 -12.686  1.00  0.00    -0.270 N 
HETATM   20  C16 UNL     1     -15.254  -6.443 -13.391  1.00  0.00     0.240 C 
HETATM   21  O2  UNL     1     -15.117  -6.415 -14.640  1.00  0.00    -0.271 OA
ATOM     22  H2  UNL     1     -14.991  -7.628 -11.672  1.00  0.00     0.190 HD
BRANCH  20  23
HETATM   23  C17 UNL     1     -15.808  -5.233 -12.726  1.00  0.00     0.079 C 
HETATM   24  C18 UNL     1     -14.896  -4.053 -12.829  1.00  0.00     0.014 C 
HETATM   25  C19 UNL     1     -14.953  -3.339 -11.501  1.00  0.00     0.001 C 
HETATM   26  C20 UNL     1     -15.608  -4.259 -10.521  1.00  0.00     0.001 C 
HETATM   27  C21 UNL     1     -16.090  -5.470 -11.280  1.00  0.00     0.014 C 
ENDBRANCH  20  23
ENDBRANCH  17  19
ENDBRANCH  14  16
ENDBRANCH  10  14
BRANCH   9  28
HETATM   28  O1  UNL     1     -12.821  -8.375 -10.297  1.00  0.00    -0.389 OA
ATOM     29  H1  UNL     1     -12.638  -8.476  -9.371  1.00  0.00     0.210 HD
ENDBRANCH   9  28
BRANCH   1  30
HETATM   30  C2  UNL     1     -12.291  -3.600  -8.753  1.00  0.00     0.005 C 
HETATM   31  C1  UNL     1     -11.876  -2.659  -7.612  1.00  0.00     0.006 C 
ENDBRANCH   1  30
TORSDOF 6
ENDMDL
MODEL 3
REMARK VINA RESULT: -7.236562815      5.960      9.253
REMARK  6 active torsions:
REMARK  status: ('A' for Active; 'I' for Inactive)
REMARK    1  A    between atoms: C2_2  and  C3_3 
REMARK    2  A    between atoms: C11_11  and  O1_12 
REMARK    3  A    between atoms: C12_14  and  C13_15 
REMARK    4  A    between atoms: C13_15  and  C15_17 
REMARK    5  A    between atoms: N1_18  and  N2_20 
REMARK       I    between atoms: N2_20  and  C16_22 
REMARK    6  A    between atoms: C16_22  and  C17_24 
ROOT
HETATM    1  C3  UNL     1     -14.538  -4.365 -10.723  1.00  0.00    -0.040 C 
HETATM    2  C4  UNL     1     -15.809  -5.116 -11.180  1.00  0.00     0.015 C 
HETATM    3  C5  UNL     1     -13.447  -5.440 -10.656  1.00  0.00     0.010 C 
HETATM    4  C6  UNL     1     -12.403  -5.041 -11.716  1.00  0.00     0.011 C 
HETATM    5  C7  UNL     1     -12.549  -3.554 -11.720  1.00  0.00    -0.033 C 
HETATM    6  C8  UNL     1     -11.981  -3.025 -10.471  1.00  0.00     0.016 C 
HETATM    7  C9  UNL     1     -14.085  -3.547 -11.783  1.00  0.00     0.005 C 
HETATM    8  C10 UNL     1     -14.334  -2.119 -12.007  1.00  0.00     0.044 C 
HETATM    9  C11 UNL     1     -13.548  -1.989 -13.296  1.00  0.00     0.067 C 
HETATM   10  C12 UNL     1     -13.071  -0.691 -13.705  1.00  0.00     0.029 C 
HETATM   11  C22 UNL     1     -11.896  -0.434 -12.748  1.00  0.00     0.009 C 
HETATM   12  C23 UNL     1     -11.203  -1.788 -12.935  1.00  0.00     0.009 C 
HETATM   13  C24 UNL     1     -12.280  -2.808 -12.958  1.00  0.00     0.029 C 
ENDROOT
BRANCH  10  14
HETATM   14  C13 UNL     1     -13.938   0.448 -13.919  1.00  0.00     0.028 C 
HETATM   15  C14 UNL     1     -13.406   1.646 -13.117  1.00  0.00     0.016 C 
BRANCH  14  16
HETATM   16  C15 UNL     1     -14.267   0.903 -15.250  1.00  0.00     0.085 C 
HETATM   17  N1  UNL     1     -15.485   1.183 -15.572  1.00  0.00    -0.313 N 
ATOM     18  H1  UNL     1     -15.655   1.500 -16.526  1.00  0.00     0.185 HD
BRANCH  17  19
HETATM   19  N2  UNL     1     -16.574   1.088 -14.732  1.00  0.00    -0.270 N 
HETATM   20  C16 UNL     1     -17.448   2.173 -14.527  1.00  0.00     0.240 C 
HETATM   21  O2  UNL     1     -17.229   3.257 -15.124  1.00  0.00    -0.271 OA
ATOM     22  H2  UNL     1     -16.752   0.208 -14.248  1.00  0.00     0.190 HD
BRANCH  20  23
HETATM   23  C17 UNL     1     -18.632   2.104 -13.627  1.00  0.00     0.079 C 
HETATM   24  C18 UNL     1     -19.299   0.766 -13.658  1.00  0.00     0.014 C 
HETATM   25  C19 UNL     1     -20.786   1.018 -13.617  1.00  0.00     0.001 C 
HETATM   26  C20 UNL     1     -21.006   2.469 -13.905  1.00  0.00     0.001 C 
HETATM   27  C21 UNL     1     -19.655   3.135 -13.969  1.00  0.00     0.014 C 
ENDBRANCH  20  23
ENDBRANCH  17  19
ENDBRANCH  14  16
ENDBRANCH  10  14
BRANCH   9  28
HETATM   28  O1  UNL     1     -14.296  -2.644 -14.280  1.00  0.00    -0.389 OA
ATOM     29  H1  UNL     1     -14.746  -3.357 -13.843  1.00  0.00     0.210 HD
ENDBRANCH   9  28
BRANCH   1  30
HETATM   30  C2  UNL     1     -14.882  -3.788  -9.401  1.00  0.00     0.005 C 
HETATM   31  C1  UNL     1     -14.122  -4.519  -8.283  1.00  0.00     0.006 C 
ENDBRANCH   1  30
TORSDOF 6
ENDMDL
MODEL 4
REMARK VINA RESULT: -7.221961853      1.884      3.961
REMARK  6 active torsions:
REMARK  status: ('A' for Active; 'I' for Inactive)
REMARK    1  A    between atoms: C2_2  and  C3_3 
REMARK    2  A    between atoms: C11_11  and  O1_12 
REMARK    3  A    between atoms: C12_14  and  C13_15 
REMARK    4  A    between atoms: C13_15  and  C15_17 
REMARK    5  A    between atoms: N1_18  and  N2_20 
REMARK       I    between atoms: N2_20  and  C16_22 
REMARK    6  A    between atoms: C16_22  and  C17_24 
ROOT
HETATM    1  C3  UNL     1     -11.689  -8.159 -12.234  1.00  0.00    -0.040 C 
HETATM    2  C4  UNL     1     -10.954  -8.694 -10.983  1.00  0.00     0.015 C 
HETATM    3  C5  UNL     1     -12.372  -9.388 -12.844  1.00  0.00     0.010 C 
HETATM    4  C6  UNL     1     -13.885  -9.113 -12.751  1.00  0.00     0.011 C 
HETATM    5  C7  UNL     1     -13.913  -7.622 -12.841  1.00  0.00    -0.033 C 
HETATM    6  C8  UNL     1     -13.584  -7.230 -14.220  1.00  0.00     0.016 C 
HETATM    7  C9  UNL     1     -12.793  -7.381 -11.818  1.00  0.00     0.005 C 
HETATM    8  C10 UNL     1     -12.880  -5.925 -11.667  1.00  0.00     0.044 C 
HETATM    9  C11 UNL     1     -14.321  -5.868 -11.202  1.00  0.00     0.067 C 
HETATM   10  C12 UNL     1     -15.066  -4.643 -11.357  1.00  0.00     0.029 C 
HETATM   11  C22 UNL     1     -15.359  -4.601 -12.865  1.00  0.00     0.009 C 
HETATM   12  C23 UNL     1     -15.880  -6.036 -12.994  1.00  0.00     0.009 C 
HETATM   13  C24 UNL     1     -14.987  -6.881 -12.164  1.00  0.00     0.029 C 
ENDROOT
BRANCH  10  14
HETATM   14  C13 UNL     1     -14.652  -3.379 -10.784  1.00  0.00     0.028 C 
HETATM   15  C14 UNL     1     -14.898  -2.258 -11.805  1.00  0.00     0.016 C 
BRANCH  14  16
HETATM   16  C15 UNL     1     -15.144  -2.938  -9.499  1.00  0.00     0.085 C 
HETATM   17  N1  UNL     1     -14.537  -3.266  -8.409  1.00  0.00    -0.313 N 
ATOM     18  H1  UNL     1     -14.932  -2.924  -7.533  1.00  0.00     0.185 HD
BRANCH  17  19
HETATM   19  N2  UNL     1     -13.399  -4.040  -8.332  1.00  0.00    -0.270 N 
HETATM   20  C16 UNL     1     -12.158  -3.496  -7.946  1.00  0.00     0.240 C 
HETATM   21  O2  UNL     1     -12.086  -2.273  -7.666  1.00  0.00    -0.271 OA
ATOM     22  H2  UNL     1     -13.458  -5.033  -8.560  1.00  0.00     0.190 HD
BRANCH  20  23
HETATM   23  C17 UNL     1     -10.911  -4.304  -7.854  1.00  0.00     0.079 C 
HETATM   24  C18 UNL     1     -10.238  -4.475  -9.178  1.00  0.00     0.014 C 
HETATM   25  C19 UNL     1      -9.727  -5.893  -9.229  1.00  0.00     0.001 C 
HETATM   26  C20 UNL     1     -10.378  -6.649  -8.114  1.00  0.00     0.001 C 
HETATM   27  C21 UNL     1     -11.167  -5.662  -7.290  1.00  0.00     0.014 C 
ENDBRANCH  20  23
ENDBRANCH  17  19
ENDBRANCH  14  16
ENDBRANCH  10  14
BRANCH   9  28
HETATM   28  O1  UNL     1     -14.332  -6.367  -9.895  1.00  0.00    -0.389 OA
ATOM     29  H1  UNL     1     -14.370  -5.611  -9.321  1.00  0.00     0.210 HD
ENDBRANCH   9  28
BRANCH   1  30
HETATM   30  C2  UNL     1     -10.626  -7.586 -13.094  1.00  0.00     0.005 C 
HETATM   31  C1  UNL     1      -9.254  -7.721 -12.413  1.00  0.00     0.006 C 
ENDBRANCH   1  30
TORSDOF 6
ENDMDL
MODEL 5
REMARK VINA RESULT: -7.161637735      4.005      7.318
REMARK  6 active torsions:
REMARK  status: ('A' for Active; 'I' for Inactive)
REMARK    1  A    between atoms: C2_2  and  C3_3 
REMARK    2  A    between atoms: C11_11  and  O1_12 
REMARK    3  A    between atoms: C12_14  and  C13_15 
REMARK    4  A    between atoms: C13_15  and  C15_17 
REMARK    5  A    between atoms: N1_18  and  N2_20 
REMARK       I    between atoms: N2_20  and  C16_22 
REMARK    6  A    between atoms: C16_22  and  C17_24 
ROOT
HETATM    1  C3  UNL     1     -11.492  -7.680 -11.241  1.00  0.00    -0.040 C 
HETATM    2  C4  UNL     1     -10.810  -7.796  -9.859  1.00  0.00     0.015 C 
HETATM    3  C5  UNL     1     -11.966  -9.102 -11.567  1.00  0.00     0.010 C 
HETATM    4  C6  UNL     1     -13.504  -9.024 -11.628  1.00  0.00     0.011 C 
HETATM    5  C7  UNL     1     -13.704  -7.615 -12.084  1.00  0.00    -0.033 C 
HETATM    6  C8  UNL     1     -13.305  -7.520 -13.497  1.00  0.00     0.016 C 
HETATM    7  C9  UNL     1     -12.714  -6.986 -11.092  1.00  0.00     0.005 C 
HETATM    8  C10 UNL     1     -12.989  -5.562 -11.309  1.00  0.00     0.044 C 
HETATM    9  C11 UNL     1     -14.461  -5.597 -10.953  1.00  0.00     0.067 C 
HETATM   10  C12 UNL     1     -15.332  -4.558 -11.446  1.00  0.00     0.029 C 
HETATM   11  C22 UNL     1     -15.496  -4.916 -12.932  1.00  0.00     0.009 C 
HETATM   12  C23 UNL     1     -15.827  -6.399 -12.732  1.00  0.00     0.009 C 
HETATM   13  C24 UNL     1     -14.914  -6.890 -11.671  1.00  0.00     0.029 C 
ENDROOT
BRANCH  10  14
HETATM   14  C13 UNL     1     -15.126  -3.150 -11.181  1.00  0.00     0.028 C 
HETATM   15  C14 UNL     1     -15.358  -2.879  -9.687  1.00  0.00     0.016 C 
BRANCH  14  16
HETATM   16  C15 UNL     1     -13.910  -2.479 -11.580  1.00  0.00     0.085 C 
HETATM   17  N1  UNL     1     -13.925  -1.566 -12.491  1.00  0.00    -0.313 N 
ATOM     18  H1  UNL     1     -13.036  -1.128 -12.730  1.00  0.00     0.185 HD
BRANCH  17  19
HETATM   19  N2  UNL     1     -15.046  -1.135 -13.169  1.00  0.00    -0.270 N 
HETATM   20  C16 UNL     1     -15.619   0.129 -12.924  1.00  0.00     0.240 C 
HETATM   21  O2  UNL     1     -15.095   0.883 -12.065  1.00  0.00    -0.271 OA
ATOM     22  H2  UNL     1     -15.471  -1.746 -13.866  1.00  0.00     0.190 HD
BRANCH  20  23
HETATM   23  C17 UNL     1     -16.828   0.624 -13.637  1.00  0.00     0.079 C 
HETATM   24  C18 UNL     1     -16.494   1.590 -14.729  1.00  0.00     0.014 C 
HETATM   25  C19 UNL     1     -17.545   2.672 -14.691  1.00  0.00     0.001 C 
HETATM   26  C20 UNL     1     -18.281   2.542 -13.395  1.00  0.00     0.001 C 
HETATM   27  C21 UNL     1     -17.788   1.292 -12.711  1.00  0.00     0.014 C 
ENDBRANCH  20  23
ENDBRANCH  17  19
ENDBRANCH  14  16
ENDBRANCH  10  14
BRANCH   9  28
HETATM   28  O1  UNL     1     -14.527  -5.768  -9.566  1.00  0.00    -0.389 OA
ATOM     29  H1  UNL     1     -14.040  -5.047  -9.185  1.00  0.00     0.210 HD
ENDBRANCH   9  28
BRANCH   1  30
HETATM   30  C2  UNL     1     -10.435  -7.186 -12.156  1.00  0.00     0.005 C 
HETATM   31  C1  UNL     1      -9.505  -8.336 -12.572  1.00  0.00     0.006 C 
ENDBRANCH   1  30
TORSDOF 6
ENDMDL
