MODEL 1
REMARK VINA RESULT: -6.822201437      0.000      0.000
REMARK  6 active torsions:
REMARK  status: ('A' for Active; 'I' for Inactive)
REMARK    1  A    between atoms: N1_2  and  C2_5 
REMARK    2  A    between atoms: C2_5  and  C3_6 
REMARK    3  A    between atoms: C3_6  and  C4_7 
REMARK    4  A    between atoms: C4_7  and  O1_8 
REMARK    5  A    between atoms: O1_8  and  C5_9 
REMARK    6  A    between atoms: C13_18  and  O3_19 
ROOT
HETATM    1  C5  UNL     1     -14.012  -4.609  -8.995  1.00  0.00     0.071 A 
HETATM    2  C6  UNL     1     -14.219  -5.442 -10.063  1.00  0.00    -0.034 A 
HETATM    3  C7  UNL     1     -13.589  -6.766 -10.130  1.00  0.00     0.043 C 
HETATM    4  C8  UNL     1     -12.836  -7.132 -11.335  1.00  0.00    -0.006 C 
HETATM    5  C9  UNL     1     -13.462  -8.357 -11.991  1.00  0.00     0.006 C 
HETATM    6  C10 UNL     1     -12.863  -8.737 -13.293  1.00  0.00     0.013 C 
HETATM    7  C11 UNL     1     -12.376  -7.619 -14.154  1.00  0.00     0.067 C 
HETATM    8  C12 UNL     1     -11.357  -8.185 -15.109  1.00  0.00     0.160 C 
HETATM    9  O2  UNL     1     -11.190  -9.388 -15.201  1.00  0.00    -0.295 OA
HETATM   10  C13 UNL     1     -10.561  -7.274 -15.933  1.00  0.00     0.188 C 
HETATM   11  C14 UNL     1     -10.228  -5.964 -15.323  1.00  0.00     0.040 C 
HETATM   12  C15 UNL     1     -11.184  -5.469 -14.299  1.00  0.00     0.013 C 
HETATM   13  C16 UNL     1     -11.672  -6.541 -13.378  1.00  0.00    -0.029 C 
HETATM   14  C17 UNL     1     -10.449  -7.152 -12.716  1.00  0.00     0.016 C 
HETATM   15  C18 UNL     1     -12.609  -6.043 -12.331  1.00  0.00    -0.001 C 
HETATM   16  C19 UNL     1     -13.948  -5.615 -12.899  1.00  0.00     0.007 C 
HETATM   17  C20 UNL     1     -14.417  -4.349 -12.248  1.00  0.00     0.018 C 
HETATM   18  C21 UNL     1     -15.124  -4.702 -10.954  1.00  0.00    -0.000 A 
HETATM   19  C22 UNL     1     -16.428  -5.412 -11.199  1.00  0.00     0.024 C 
HETATM   20  C23 UNL     1     -15.410  -3.411 -10.294  1.00  0.00    -0.010 A 
HETATM   21  C24 UNL     1     -14.747  -3.394  -9.164  1.00  0.00     0.034 A 
ENDROOT
BRANCH   1  22
HETATM   22  O1  UNL     1     -13.206  -4.968  -7.955  1.00  0.00    -0.351 OA
BRANCH  22  23
HETATM   23  C4  UNL     1     -11.966  -4.599  -7.516  1.00  0.00     0.177 C 
BRANCH  23  24
HETATM   24  C3  UNL     1     -10.774  -4.902  -8.367  1.00  0.00     0.054 C 
BRANCH  24  25
HETATM   25  C2  UNL     1     -10.407  -6.364  -8.100  1.00  0.00     0.234 C 
BRANCH  25  26
HETATM   26  N1  UNL     1     -10.574  -6.735  -6.721  1.00  0.00    -0.079 N 
HETATM   27  C1  UNL     1      -9.297  -6.989  -6.070  1.00  0.00     0.266 C 
ATOM     28  H12 UNL     1     -11.205  -7.530  -6.624  1.00  0.00     0.276 HD
ATOM     29  H11 UNL     1     -11.118  -6.038  -6.212  1.00  0.00     0.276 HD
ENDBRANCH  25  26
ENDBRANCH  24  25
ENDBRANCH  23  24
ENDBRANCH  22  23
ENDBRANCH   1  22
BRANCH  10  30
HETATM   30  O3  UNL     1     -11.201  -7.133 -17.184  1.00  0.00    -0.388 OA
ATOM     31  H3  UNL     1     -10.637  -6.619 -17.751  1.00  0.00     0.210 HD
ENDBRANCH  10  30
TORSDOF 6
ENDMDL
MODEL 2
REMARK VINA RESULT: -6.798779518      2.460      6.197
REMARK  6 active torsions:
REMARK  status: ('A' for Active; 'I' for Inactive)
REMARK    1  A    between atoms: N1_2  and  C2_5 
REMARK    2  A    between atoms: C2_5  and  C3_6 
REMARK    3  A    between atoms: C3_6  and  C4_7 
REMARK    4  A    between atoms: C4_7  and  O1_8 
REMARK    5  A    between atoms: O1_8  and  C5_9 
REMARK    6  A    between atoms: C13_18  and  O3_19 
ROOT
HETATM    1  C5  UNL     1     -14.467  -6.656 -13.076  1.00  0.00     0.071 A 
HETATM    2  C6  UNL     1     -13.844  -5.584 -12.490  1.00  0.00    -0.034 A 
HETATM    3  C7  UNL     1     -12.384  -5.538 -12.344  1.00  0.00     0.043 C 
HETATM    4  C8  UNL     1     -11.813  -5.250 -11.024  1.00  0.00    -0.006 C 
HETATM    5  C9  UNL     1     -10.978  -3.978 -11.081  1.00  0.00     0.006 C 
HETATM    6  C10 UNL     1     -10.460  -3.517  -9.769  1.00  0.00     0.013 C 
HETATM    7  C11 UNL     1     -11.334  -3.761  -8.586  1.00  0.00     0.067 C 
HETATM    8  C12 UNL     1     -10.460  -3.745  -7.358  1.00  0.00     0.160 C 
HETATM    9  O2  UNL     1      -9.297  -3.389  -7.425  1.00  0.00    -0.295 OA
HETATM   10  C13 UNL     1     -11.019  -4.163  -6.072  1.00  0.00     0.188 C 
HETATM   11  C14 UNL     1     -12.053  -5.226  -6.123  1.00  0.00     0.040 C 
HETATM   12  C15 UNL     1     -12.833  -5.304  -7.385  1.00  0.00     0.013 C 
HETATM   13  C16 UNL     1     -11.997  -5.110  -8.611  1.00  0.00    -0.029 C 
HETATM   14  C17 UNL     1     -10.914  -6.174  -8.585  1.00  0.00     0.016 C 
HETATM   15  C18 UNL     1     -12.772  -5.216  -9.880  1.00  0.00    -0.001 C 
HETATM   16  C19 UNL     1     -13.729  -4.057 -10.081  1.00  0.00     0.007 C 
HETATM   17  C20 UNL     1     -15.041  -4.544 -10.620  1.00  0.00     0.018 C 
HETATM   18  C21 UNL     1     -14.931  -4.663 -12.128  1.00  0.00    -0.000 A 
HETATM   19  C22 UNL     1     -14.815  -3.318 -12.793  1.00  0.00     0.024 C 
HETATM   20  C23 UNL     1     -16.191  -5.297 -12.568  1.00  0.00    -0.010 A 
HETATM   21  C24 UNL     1     -15.881  -6.449 -13.109  1.00  0.00     0.034 A 
ENDROOT
BRANCH   1  22
HETATM   22  O1  UNL     1     -13.761  -7.726 -13.539  1.00  0.00    -0.351 OA
BRANCH  22  23
HETATM   23  C4  UNL     1     -13.552  -9.008 -13.114  1.00  0.00     0.177 C 
BRANCH  23  24
HETATM   24  C3  UNL     1     -13.495  -9.288 -11.646  1.00  0.00     0.054 C 
BRANCH  24  25
HETATM   25  C2  UNL     1     -12.029  -9.141 -11.231  1.00  0.00     0.234 C 
BRANCH  25  26
HETATM   26  N1  UNL     1     -11.145  -8.998 -12.356  1.00  0.00    -0.079 N 
HETATM   27  C1  UNL     1      -9.896  -8.348 -11.984  1.00  0.00     0.266 C 
ATOM     28  H12 UNL     1     -11.601  -8.511 -13.127  1.00  0.00     0.276 HD
ATOM     29  H11 UNL     1     -10.976  -9.894 -12.812  1.00  0.00     0.276 HD
ENDBRANCH  25  26
ENDBRANCH  24  25
ENDBRANCH  23  24
ENDBRANCH  22  23
ENDBRANCH   1  22
BRANCH  10  30
HETATM   30  O3  UNL     1     -11.471  -3.013  -5.388  1.00  0.00    -0.388 OA
ATOM     31  H3  UNL     1     -12.100  -3.284  -4.730  1.00  0.00     0.210 HD
ENDBRANCH  10  30
TORSDOF 6
ENDMDL
MODEL 3
REMARK VINA RESULT: -6.660589803      5.084      7.829
REMARK  6 active torsions:
REMARK  status: ('A' for Active; 'I' for Inactive)
REMARK    1  A    between atoms: N1_2  and  C2_5 
REMARK    2  A    between atoms: C2_5  and  C3_6 
REMARK    3  A    between atoms: C3_6  and  C4_7 
REMARK    4  A    between atoms: C4_7  and  O1_8 
REMARK    5  A    between atoms: O1_8  and  C5_9 
REMARK    6  A    between atoms: C13_18  and  O3_19 
ROOT
HETATM    1  C5  UNL     1     -14.824   0.737 -12.767  1.00  0.00     0.071 A 
HETATM    2  C6  UNL     1     -14.430  -0.566 -12.928  1.00  0.00    -0.034 A 
HETATM    3  C7  UNL     1     -15.342  -1.679 -12.636  1.00  0.00     0.043 C 
HETATM    4  C8  UNL     1     -14.886  -2.753 -11.747  1.00  0.00    -0.006 C 
HETATM    5  C9  UNL     1     -14.893  -4.084 -12.489  1.00  0.00     0.006 C 
HETATM    6  C10 UNL     1     -14.322  -5.221 -11.726  1.00  0.00     0.013 C 
HETATM    7  C11 UNL     1     -13.190  -4.906 -10.808  1.00  0.00     0.067 C 
HETATM    8  C12 UNL     1     -13.122  -5.996  -9.770  1.00  0.00     0.160 C 
HETATM    9  O2  UNL     1     -13.796  -7.005  -9.881  1.00  0.00    -0.295 OA
HETATM   10  C13 UNL     1     -12.235  -5.838  -8.617  1.00  0.00     0.188 C 
HETATM   11  C14 UNL     1     -12.050  -4.452  -8.121  1.00  0.00     0.040 C 
HETATM   12  C15 UNL     1     -12.231  -3.378  -9.131  1.00  0.00     0.013 C 
HETATM   13  C16 UNL     1     -13.383  -3.620 -10.054  1.00  0.00    -0.029 C 
HETATM   14  C17 UNL     1     -14.625  -3.756  -9.190  1.00  0.00     0.016 C 
HETATM   15  C18 UNL     1     -13.584  -2.530 -11.051  1.00  0.00    -0.001 C 
HETATM   16  C19 UNL     1     -12.480  -2.473 -12.088  1.00  0.00     0.007 C 
HETATM   17  C20 UNL     1     -12.093  -1.052 -12.370  1.00  0.00     0.018 C 
HETATM   18  C21 UNL     1     -13.043  -0.489 -13.409  1.00  0.00    -0.000 A 
HETATM   19  C22 UNL     1     -12.846  -1.125 -14.758  1.00  0.00     0.024 C 
HETATM   20  C23 UNL     1     -12.709   0.947 -13.514  1.00  0.00    -0.010 A 
HETATM   21  C24 UNL     1     -13.764   1.624 -13.132  1.00  0.00     0.034 A 
ENDROOT
BRANCH   1  22
HETATM   22  O1  UNL     1     -16.073   1.055 -12.321  1.00  0.00    -0.351 OA
BRANCH  22  23
HETATM   23  C4  UNL     1     -17.243   1.446 -12.909  1.00  0.00     0.177 C 
BRANCH  23  24
HETATM   24  C3  UNL     1     -17.280   1.648 -14.390  1.00  0.00     0.054 C 
BRANCH  24  25
HETATM   25  C2  UNL     1     -17.995   2.980 -14.631  1.00  0.00     0.234 C 
BRANCH  25  26
HETATM   26  N1  UNL     1     -18.854   3.354 -13.540  1.00  0.00    -0.079 N 
HETATM   27  C1  UNL     1     -20.253   3.400 -13.943  1.00  0.00     0.266 C 
ATOM     28  H12 UNL     1     -18.560   4.236 -13.122  1.00  0.00     0.276 HD
ATOM     29  H11 UNL     1     -18.719   2.743 -12.735  1.00  0.00     0.276 HD
ENDBRANCH  25  26
ENDBRANCH  24  25
ENDBRANCH  23  24
ENDBRANCH  22  23
ENDBRANCH   1  22
BRANCH  10  30
HETATM   30  O3  UNL     1     -11.006  -6.466  -8.911  1.00  0.00    -0.388 OA
ATOM     31  H3  UNL     1     -10.432  -5.826  -9.316  1.00  0.00     0.210 HD
ENDBRANCH  10  30
TORSDOF 6
ENDMDL
MODEL 4
REMARK VINA RESULT: -6.599954093      3.205      5.411
REMARK  6 active torsions:
REMARK  status: ('A' for Active; 'I' for Inactive)
REMARK    1  A    between atoms: N1_2  and  C2_5 
REMARK    2  A    between atoms: C2_5  and  C3_6 
REMARK    3  A    between atoms: C3_6  and  C4_7 
REMARK    4  A    between atoms: C4_7  and  O1_8 
REMARK    5  A    between atoms: O1_8  and  C5_9 
REMARK    6  A    between atoms: C13_18  and  O3_19 
ROOT
HETATM    1  C5  UNL     1     -10.182  -5.058  -6.542  1.00  0.00     0.071 A 
HETATM    2  C6  UNL     1     -10.292  -4.849  -7.892  1.00  0.00    -0.034 A 
HETATM    3  C7  UNL     1     -10.774  -3.570  -8.429  1.00  0.00     0.043 C 
HETATM    4  C8  UNL     1     -11.868  -3.579  -9.405  1.00  0.00    -0.006 C 
HETATM    5  C9  UNL     1     -11.404  -2.961 -10.717  1.00  0.00     0.006 C 
HETATM    6  C10 UNL     1     -12.391  -3.039 -11.822  1.00  0.00     0.013 C 
HETATM    7  C11 UNL     1     -13.259  -4.252 -11.856  1.00  0.00     0.067 C 
HETATM    8  C12 UNL     1     -14.493  -3.912 -12.651  1.00  0.00     0.160 C 
HETATM    9  O2  UNL     1     -14.565  -2.867 -13.273  1.00  0.00    -0.295 OA
HETATM   10  C13 UNL     1     -15.615  -4.851 -12.673  1.00  0.00     0.188 C 
HETATM   11  C14 UNL     1     -15.833  -5.638 -11.435  1.00  0.00     0.040 C 
HETATM   12  C15 UNL     1     -14.626  -5.870 -10.600  1.00  0.00     0.013 C 
HETATM   13  C16 UNL     1     -13.739  -4.671 -10.494  1.00  0.00    -0.029 C 
HETATM   14  C17 UNL     1     -14.579  -3.545  -9.918  1.00  0.00     0.016 C 
HETATM   15  C18 UNL     1     -12.541  -4.892  -9.635  1.00  0.00    -0.001 C 
HETATM   16  C19 UNL     1     -11.543  -5.849 -10.255  1.00  0.00     0.007 C 
HETATM   17  C20 UNL     1     -10.996  -6.786  -9.219  1.00  0.00     0.018 C 
HETATM   18  C21 UNL     1      -9.842  -6.105  -8.510  1.00  0.00    -0.000 A 
HETATM   19  C22 UNL     1      -8.651  -5.929  -9.412  1.00  0.00     0.024 C 
HETATM   20  C23 UNL     1      -9.465  -7.011  -7.406  1.00  0.00    -0.010 A 
HETATM   21  C24 UNL     1      -9.678  -6.371  -6.283  1.00  0.00     0.034 A 
ENDROOT
BRANCH   1  22
HETATM   22  O1  UNL     1     -10.523  -4.093  -5.640  1.00  0.00    -0.351 OA
BRANCH  22  23
HETATM   23  C4  UNL     1     -11.681  -3.700  -5.031  1.00  0.00     0.177 C 
BRANCH  23  24
HETATM   24  C3  UNL     1     -11.745  -3.682  -3.537  1.00  0.00     0.054 C 
BRANCH  24  25
HETATM   25  C2  UNL     1     -10.300  -3.604  -3.039  1.00  0.00     0.234 C 
BRANCH  25  26
HETATM   26  N1  UNL     1      -9.782  -4.884  -2.636  1.00  0.00    -0.079 N 
HETATM   27  C1  UNL     1      -8.422  -5.092  -3.111  1.00  0.00     0.266 C 
ATOM     28  H12 UNL     1     -10.398  -5.642  -2.928  1.00  0.00     0.276 HD
ATOM     29  H11 UNL     1      -9.845  -5.007  -1.625  1.00  0.00     0.276 HD
ENDBRANCH  25  26
ENDBRANCH  24  25
ENDBRANCH  23  24
ENDBRANCH  22  23
ENDBRANCH   1  22
BRANCH  10  30
HETATM   30  O3  UNL     1     -15.483  -5.675 -13.812  1.00  0.00    -0.388 OA
ATOM     31  H3  UNL     1     -16.349  -5.821 -14.177  1.00  0.00     0.210 HD
ENDBRANCH  10  30
TORSDOF 6
ENDMDL
MODEL 5
REMARK VINA RESULT: -6.398334544      3.016      7.206
REMARK  6 active torsions:
REMARK  status: ('A' for Active; 'I' for Inactive)
REMARK    1  A    between atoms: N1_2  and  C2_5 
REMARK    2  A    between atoms: C2_5  and  C3_6 
REMARK    3  A    between atoms: C3_6  and  C4_7 
REMARK    4  A    between atoms: C4_7  and  O1_8 
REMARK    5  A    between atoms: O1_8  and  C5_9 
REMARK    6  A    between atoms: C13_18  and  O3_19 
ROOT
HETATM    1  C5  UNL     1     -13.632  -7.173 -15.973  1.00  0.00     0.071 A 
HETATM    2  C6  UNL     1     -13.972  -7.215 -14.646  1.00  0.00    -0.034 A 
HETATM    3  C7  UNL     1     -15.062  -6.388 -14.113  1.00  0.00     0.043 C 
HETATM    4  C8  UNL     1     -14.806  -5.548 -12.939  1.00  0.00    -0.006 C 
HETATM    5  C9  UNL     1     -15.721  -5.958 -11.792  1.00  0.00     0.006 C 
HETATM    6  C10 UNL     1     -15.456  -5.264 -10.509  1.00  0.00     0.013 C 
HETATM    7  C11 UNL     1     -14.033  -4.924 -10.217  1.00  0.00     0.067 C 
HETATM    8  C12 UNL     1     -14.025  -3.798  -9.215  1.00  0.00     0.160 C 
HETATM    9  O2  UNL     1     -15.054  -3.447  -8.665  1.00  0.00    -0.295 OA
HETATM   10  C13 UNL     1     -12.766  -3.122  -8.903  1.00  0.00     0.188 C 
HETATM   11  C14 UNL     1     -11.790  -3.013 -10.014  1.00  0.00     0.040 C 
HETATM   12  C15 UNL     1     -11.882  -4.067 -11.057  1.00  0.00     0.013 C 
HETATM   13  C16 UNL     1     -13.289  -4.418 -11.422  1.00  0.00    -0.029 C 
HETATM   14  C17 UNL     1     -13.960  -3.140 -11.894  1.00  0.00     0.016 C 
HETATM   15  C18 UNL     1     -13.385  -5.456 -12.488  1.00  0.00    -0.001 C 
HETATM   16  C19 UNL     1     -12.933  -6.824 -12.017  1.00  0.00     0.007 C 
HETATM   17  C20 UNL     1     -12.114  -7.502 -13.074  1.00  0.00     0.018 C 
HETATM   18  C21 UNL     1     -13.051  -8.191 -14.046  1.00  0.00    -0.000 A 
HETATM   19  C22 UNL     1     -13.755  -9.362 -13.417  1.00  0.00     0.024 C 
HETATM   20  C23 UNL     1     -12.191  -8.691 -15.139  1.00  0.00    -0.010 A 
HETATM   21  C24 UNL     1     -12.556  -8.077 -16.237  1.00  0.00     0.034 A 
ENDROOT
BRANCH   1  22
HETATM   22  O1  UNL     1     -14.282  -6.358 -16.852  1.00  0.00    -0.351 OA
BRANCH  22  23
HETATM   23  C4  UNL     1     -13.971  -5.777 -18.050  1.00  0.00     0.177 C 
BRANCH  23  24
HETATM   24  C3  UNL     1     -14.601  -4.469 -18.407  1.00  0.00     0.054 C 
BRANCH  24  25
HETATM   25  C2  UNL     1     -13.827  -3.389 -17.647  1.00  0.00     0.234 C 
BRANCH  25  26
HETATM   26  N1  UNL     1     -13.929  -3.535 -16.220  1.00  0.00    -0.079 N 
HETATM   27  C1  UNL     1     -12.651  -3.303 -15.560  1.00  0.00     0.266 C 
ATOM     28  H12 UNL     1     -14.318  -4.442 -15.965  1.00  0.00     0.276 HD
ATOM     29  H11 UNL     1     -14.659  -2.935 -15.837  1.00  0.00     0.276 HD
ENDBRANCH  25  26
ENDBRANCH  24  25
ENDBRANCH  23  24
ENDBRANCH  22  23
ENDBRANCH   1  22
BRANCH  10  30
HETATM   30  O3  UNL     1     -12.205  -3.733  -7.760  1.00  0.00    -0.388 OA
ATOM     31  H3  UNL     1     -11.314  -3.992  -7.966  1.00  0.00     0.210 HD
ENDBRANCH  10  30
TORSDOF 6
ENDMDL
