MODEL 1
REMARK VINA RESULT: -7.041536917      0.000      0.000
REMARK  5 active torsions:
REMARK  status: ('A' for Active; 'I' for Inactive)
REMARK    1  A    between atoms: N2_4  and  N3_6 
REMARK       I    between atoms: N3_6  and  C1_8 
REMARK       I    between atoms: C1_8  and  N4_10 
REMARK       I    between atoms: C2_12  and  N5_13 
REMARK       I    between atoms: C2_12  and  N7_26 
REMARK    2  A    between atoms: C3_15  and  C4_16 
REMARK       I    between atoms: N6_21  and  C8_22 
REMARK    3  A    between atoms: C8_22  and  C9_24 
REMARK    4  A    between atoms: N7_26  and  C10_28 
REMARK    5  A    between atoms: C10_28  and  C11_29 
ROOT
HETATM    1  N3  UNL     1      91.572  95.655 -40.492  1.00  0.00    -0.237 N 
ATOM      2  H3  UNL     1      91.852  95.970 -39.563  1.00  0.00     0.193 HD
HETATM    3  C1  UNL     1      91.514  96.572 -41.561  1.00  0.00     0.354 C 
HETATM    4  O1  UNL     1      91.166  96.185 -42.717  1.00  0.00    -0.245 OA
HETATM    5  N4  UNL     1      91.849  97.932 -41.328  1.00  0.00    -0.140 N 
ATOM      6  H4  UNL     1      92.373  98.150 -40.480  1.00  0.00     0.189 HD
HETATM    7  C2  UNL     1      91.541  98.908 -42.107  1.00  0.00     0.682 C 
HETATM    8  N5  UNL     1      90.825  98.713 -43.294  1.00  0.00    -0.203 N 
ATOM      9  H5  UNL     1      91.375  98.535 -44.134  1.00  0.00     0.183 HD
HETATM   10  C3  UNL     1      89.551  98.735 -43.435  1.00  0.00     0.104 C 
HETATM   11  N7  UNL     1      91.961 100.206 -41.713  1.00  0.00    -0.222 N 
ATOM     12  H7  UNL     1      92.961 100.383 -41.612  1.00  0.00     0.178 HD
ENDROOT
BRANCH  11  13
HETATM   13  C10 UNL     1      91.048 101.282 -41.449  1.00  0.00     0.176 C 
BRANCH  13  14
HETATM   14  C11 UNL     1      91.474 102.073 -40.268  1.00  0.00    -0.040 A 
HETATM   15  C12 UNL     1      92.803 102.086 -39.896  1.00  0.00     0.010 A 
HETATM   16  C13 UNL     1      93.247 102.812 -38.798  1.00  0.00     0.019 A 
HETATM   17  C14 UNL     1      92.296 103.517 -38.100  1.00  0.00     0.011 A 
HETATM   18 BR2  UNL     1      92.868 104.533 -36.578  1.00  0.00    -0.051 Br
HETATM   19  C15 UNL     1      90.958 103.517 -38.459  1.00  0.00     0.019 A 
HETATM   20  C16 UNL     1      90.528 102.785 -39.562  1.00  0.00     0.010 A 
ENDBRANCH  13  14
ENDBRANCH  11  13
BRANCH  10  21
HETATM   21  C4  UNL     1      88.989  98.506 -44.782  1.00  0.00     0.127 C 
HETATM   22  C5  UNL     1      90.050  98.959 -45.773  1.00  0.00     0.048 C 
HETATM   23  C6  UNL     1      89.386 100.104 -46.521  1.00  0.00     0.078 C 
HETATM   24 BR1  UNL     1      89.727 101.715 -45.541  1.00  0.00    -0.089 Br
HETATM   25  C7  UNL     1      87.930  99.693 -46.442  1.00  0.00     0.142 C 
HETATM   26  N6  UNL     1      87.809  99.306 -45.050  1.00  0.00    -0.341 N 
HETATM   27  C8  UNL     1      86.762  99.635 -44.138  1.00  0.00     0.234 C 
HETATM   28  O2  UNL     1      86.806  99.217 -42.955  1.00  0.00    -0.272 OA
BRANCH  27  29
HETATM   29  C9  UNL     1      85.613 100.467 -44.567  1.00  0.00     0.217 C 
HETATM   30 CL1  UNL     1      85.963 102.207 -44.495  1.00  0.00    -0.121 Cl
ENDBRANCH  27  29
ENDBRANCH  10  21
BRANCH   1  31
HETATM   31  N2  UNL     1      91.247  94.324 -40.705  1.00  0.00    -0.245 N 
HETATM   32  N1  UNL     1      92.149  93.533 -41.112  1.00  0.00    -0.331 N 
ATOM     33  H12 UNL     1      93.093  93.885 -41.275  1.00  0.00     0.178 HD
ATOM     34  H11 UNL     1      91.910  92.553 -41.269  1.00  0.00     0.178 HD
ATOM     35  H2  UNL     1      90.299  93.988 -40.537  1.00  0.00     0.208 HD
ENDBRANCH   1  31
TORSDOF 5
ENDMDL
MODEL 2
REMARK VINA RESULT: -6.973334483      0.636      1.110
REMARK  5 active torsions:
REMARK  status: ('A' for Active; 'I' for Inactive)
REMARK    1  A    between atoms: N2_4  and  N3_6 
REMARK       I    between atoms: N3_6  and  C1_8 
REMARK       I    between atoms: C1_8  and  N4_10 
REMARK       I    between atoms: C2_12  and  N5_13 
REMARK       I    between atoms: C2_12  and  N7_26 
REMARK    2  A    between atoms: C3_15  and  C4_16 
REMARK       I    between atoms: N6_21  and  C8_22 
REMARK    3  A    between atoms: C8_22  and  C9_24 
REMARK    4  A    between atoms: N7_26  and  C10_28 
REMARK    5  A    between atoms: C10_28  and  C11_29 
ROOT
HETATM    1  N3  UNL     1      91.701  95.935 -40.435  1.00  0.00    -0.237 N 
ATOM      2  H3  UNL     1      92.108  96.256 -39.556  1.00  0.00     0.193 HD
HETATM    3  C1  UNL     1      91.505  96.843 -41.495  1.00  0.00     0.354 C 
HETATM    4  O1  UNL     1      91.000  96.448 -42.589  1.00  0.00    -0.245 OA
HETATM    5  N4  UNL     1      91.879  98.201 -41.324  1.00  0.00    -0.140 N 
ATOM      6  H4  UNL     1      92.515  98.423 -40.558  1.00  0.00     0.189 HD
HETATM    7  C2  UNL     1      91.476  99.173 -42.064  1.00  0.00     0.682 C 
HETATM    8  N5  UNL     1      90.603  98.973 -43.140  1.00  0.00    -0.203 N 
ATOM      9  H5  UNL     1      91.032  98.782 -44.046  1.00  0.00     0.183 HD
HETATM   10  C3  UNL     1      89.322  99.005 -43.107  1.00  0.00     0.104 C 
HETATM   11  N7  UNL     1      91.955 100.471 -41.745  1.00  0.00    -0.222 N 
ATOM     12  H7  UNL     1      92.960 100.639 -41.783  1.00  0.00     0.178 HD
ENDROOT
BRANCH  11  13
HETATM   13  C10 UNL     1      91.094 101.557 -41.370  1.00  0.00     0.176 C 
BRANCH  13  14
HETATM   14  C11 UNL     1      91.592 102.244 -40.152  1.00  0.00    -0.040 A 
HETATM   15  C12 UNL     1      90.717 102.970 -39.369  1.00  0.00     0.010 A 
HETATM   16  C13 UNL     1      91.140 103.629 -38.221  1.00  0.00     0.019 A 
HETATM   17  C14 UNL     1      92.472 103.522 -37.904  1.00  0.00     0.011 A 
HETATM   18 BR2  UNL     1      93.095 104.416 -36.327  1.00  0.00    -0.051 Br
HETATM   19  C15 UNL     1      93.364 102.798 -38.678  1.00  0.00     0.019 A 
HETATM   20  C16 UNL     1      92.928 102.143 -39.825  1.00  0.00     0.010 A 
ENDBRANCH  13  14
ENDBRANCH  11  13
BRANCH  10  21
HETATM   21  C4  UNL     1      88.580  98.768 -44.362  1.00  0.00     0.127 C 
HETATM   22  C5  UNL     1      89.624  98.638 -45.461  1.00  0.00     0.048 C 
HETATM   23  C6  UNL     1      89.322  99.800 -46.393  1.00  0.00     0.078 C 
HETATM   24 BR1  UNL     1      90.298 101.323 -45.757  1.00  0.00    -0.089 Br
HETATM   25  C7  UNL     1      87.831  99.957 -46.182  1.00  0.00     0.142 C 
HETATM   26  N6  UNL     1      87.728  99.880 -44.738  1.00  0.00    -0.341 N 
HETATM   27  C8  UNL     1      86.958 100.712 -43.871  1.00  0.00     0.234 C 
HETATM   28  O2  UNL     1      86.977 100.512 -42.631  1.00  0.00    -0.272 OA
BRANCH  27  29
HETATM   29  C9  UNL     1      86.129 101.815 -44.411  1.00  0.00     0.217 C 
HETATM   30 CL1  UNL     1      87.071 103.287 -44.727  1.00  0.00    -0.121 Cl
ENDBRANCH  27  29
ENDBRANCH  10  21
BRANCH   1  31
HETATM   31  N2  UNL     1      91.340  94.605 -40.587  1.00  0.00    -0.245 N 
HETATM   32  N1  UNL     1      92.207  93.782 -41.007  1.00  0.00    -0.331 N 
ATOM     33  H12 UNL     1      93.149  94.107 -41.224  1.00  0.00     0.178 HD
ATOM     34  H11 UNL     1      91.941  92.803 -41.120  1.00  0.00     0.178 HD
ATOM     35  H2  UNL     1      90.395  94.295 -40.366  1.00  0.00     0.208 HD
ENDBRANCH   1  31
TORSDOF 5
ENDMDL
MODEL 3
REMARK VINA RESULT: -6.533119572      4.015      6.640
REMARK  5 active torsions:
REMARK  status: ('A' for Active; 'I' for Inactive)
REMARK    1  A    between atoms: N2_4  and  N3_6 
REMARK       I    between atoms: N3_6  and  C1_8 
REMARK       I    between atoms: C1_8  and  N4_10 
REMARK       I    between atoms: C2_12  and  N5_13 
REMARK       I    between atoms: C2_12  and  N7_26 
REMARK    2  A    between atoms: C3_15  and  C4_16 
REMARK       I    between atoms: N6_21  and  C8_22 
REMARK    3  A    between atoms: C8_22  and  C9_24 
REMARK    4  A    between atoms: N7_26  and  C10_28 
REMARK    5  A    between atoms: C10_28  and  C11_29 
ROOT
HETATM    1  N3  UNL     1      85.176  97.010 -44.147  1.00  0.00    -0.237 N 
ATOM      2  H3  UNL     1      85.507  96.047 -44.090  1.00  0.00     0.193 HD
HETATM    3  C1  UNL     1      85.977  97.998 -44.755  1.00  0.00     0.354 C 
HETATM    4  O1  UNL     1      85.569  99.196 -44.828  1.00  0.00    -0.245 OA
HETATM    5  N4  UNL     1      87.244  97.635 -45.282  1.00  0.00    -0.140 N 
ATOM      6  H4  UNL     1      87.421  96.645 -45.448  1.00  0.00     0.189 HD
HETATM    7  C2  UNL     1      88.186  98.465 -45.565  1.00  0.00     0.682 C 
HETATM    8  N5  UNL     1      88.043  99.844 -45.374  1.00  0.00    -0.203 N 
ATOM      9  H5  UNL     1      87.669 100.377 -46.158  1.00  0.00     0.183 HD
HETATM   10  C3  UNL     1      88.333 100.507 -44.315  1.00  0.00     0.104 C 
HETATM   11  N7  UNL     1      89.390  97.922 -46.086  1.00  0.00    -0.222 N 
ATOM     12  H7  UNL     1      89.350  97.409 -46.967  1.00  0.00     0.178 HD
ENDROOT
BRANCH  11  13
HETATM   13  C10 UNL     1      90.662  98.058 -45.433  1.00  0.00     0.176 C 
BRANCH  13  14
HETATM   14  C11 UNL     1      90.945  96.894 -44.556  1.00  0.00    -0.040 A 
HETATM   15  C12 UNL     1      90.962  97.058 -43.185  1.00  0.00     0.010 A 
HETATM   16  C13 UNL     1      91.222  95.998 -42.327  1.00  0.00     0.019 A 
HETATM   17  C14 UNL     1      91.462  94.777 -42.910  1.00  0.00     0.011 A 
HETATM   18 BR2  UNL     1      91.825  93.287 -41.760  1.00  0.00    -0.051 Br
HETATM   19  C15 UNL     1      91.449  94.594 -44.283  1.00  0.00     0.019 A 
HETATM   20  C16 UNL     1      91.186  95.665 -45.131  1.00  0.00     0.010 A 
ENDBRANCH  13  14
ENDBRANCH  11  13
BRANCH  10  21
HETATM   21  C4  UNL     1      88.108 101.967 -44.316  1.00  0.00     0.127 C 
HETATM   22  C5  UNL     1      88.678 102.489 -45.626  1.00  0.00     0.048 C 
HETATM   23  C6  UNL     1      89.792 103.428 -45.193  1.00  0.00     0.078 C 
HETATM   24 BR1  UNL     1      91.390 102.386 -45.006  1.00  0.00    -0.089 Br
HETATM   25  C7  UNL     1      89.265 103.899 -43.853  1.00  0.00     0.142 C 
HETATM   26  N6  UNL     1      88.822 102.654 -43.257  1.00  0.00    -0.341 N 
HETATM   27  C8  UNL     1      89.036 102.199 -41.922  1.00  0.00     0.234 C 
HETATM   28  O2  UNL     1      88.582 101.086 -41.558  1.00  0.00    -0.272 OA
BRANCH  27  29
HETATM   29  C9  UNL     1      89.790 103.023 -40.948  1.00  0.00     0.217 C 
HETATM   30 CL1  UNL     1      90.821 102.048 -39.880  1.00  0.00    -0.121 Cl
ENDBRANCH  27  29
ENDBRANCH  10  21
BRANCH   1  31
HETATM   31  N2  UNL     1      83.935  97.349 -43.628  1.00  0.00    -0.245 N 
HETATM   32  N1  UNL     1      83.884  98.125 -42.628  1.00  0.00    -0.331 N 
ATOM     33  H12 UNL     1      84.748  98.485 -42.223  1.00  0.00     0.178 HD
ATOM     34  H11 UNL     1      82.971  98.374 -42.245  1.00  0.00     0.178 HD
ATOM     35  H2  UNL     1      83.080  96.981 -44.044  1.00  0.00     0.208 HD
ENDBRANCH   1  31
TORSDOF 5
ENDMDL
MODEL 4
REMARK VINA RESULT: -6.421905862      1.147      1.253
REMARK  5 active torsions:
REMARK  status: ('A' for Active; 'I' for Inactive)
REMARK    1  A    between atoms: N2_4  and  N3_6 
REMARK       I    between atoms: N3_6  and  C1_8 
REMARK       I    between atoms: C1_8  and  N4_10 
REMARK       I    between atoms: C2_12  and  N5_13 
REMARK       I    between atoms: C2_12  and  N7_26 
REMARK    2  A    between atoms: C3_15  and  C4_16 
REMARK       I    between atoms: N6_21  and  C8_22 
REMARK    3  A    between atoms: C8_22  and  C9_24 
REMARK    4  A    between atoms: N7_26  and  C10_28 
REMARK    5  A    between atoms: C10_28  and  C11_29 
ROOT
HETATM    1  N3  UNL     1      91.632  96.448 -40.540  1.00  0.00    -0.237 N 
ATOM      2  H3  UNL     1      91.871  96.920 -39.668  1.00  0.00     0.193 HD
HETATM    3  C1  UNL     1      91.424  97.198 -41.715  1.00  0.00     0.354 C 
HETATM    4  O1  UNL     1      91.126  96.615 -42.801  1.00  0.00    -0.245 OA
HETATM    5  N4  UNL     1      91.551  98.611 -41.667  1.00  0.00    -0.140 N 
ATOM      6  H4  UNL     1      92.044  99.014 -40.871  1.00  0.00     0.189 HD
HETATM    7  C2  UNL     1      91.090  99.420 -42.556  1.00  0.00     0.682 C 
HETATM    8  N5  UNL     1      90.399  98.966 -43.686  1.00  0.00    -0.203 N 
ATOM      9  H5  UNL     1      90.960  98.764 -44.513  1.00  0.00     0.183 HD
HETATM   10  C3  UNL     1      89.135  98.779 -43.789  1.00  0.00     0.104 C 
HETATM   11  N7  UNL     1      91.311 100.806 -42.344  1.00  0.00    -0.222 N 
ATOM     12  H7  UNL     1      92.274 101.142 -42.297  1.00  0.00     0.178 HD
ENDROOT
BRANCH  11  13
HETATM   13  C10 UNL     1      90.248 101.759 -42.191  1.00  0.00     0.176 C 
BRANCH  13  14
HETATM   14  C11 UNL     1      90.400 102.541 -40.939  1.00  0.00    -0.040 A 
HETATM   15  C12 UNL     1      91.412 102.226 -40.054  1.00  0.00     0.010 A 
HETATM   16  C13 UNL     1      91.591 102.931 -38.871  1.00  0.00     0.019 A 
HETATM   17  C14 UNL     1      90.712 103.958 -38.625  1.00  0.00     0.011 A 
HETATM   18 BR2  UNL     1      90.926 104.957 -37.003  1.00  0.00    -0.051 Br
HETATM   19  C15 UNL     1      89.692 104.289 -39.503  1.00  0.00     0.019 A 
HETATM   20  C16 UNL     1      89.524 103.574 -40.684  1.00  0.00     0.010 A 
ENDBRANCH  13  14
ENDBRANCH  11  13
BRANCH  10  21
HETATM   21  C4  UNL     1      88.600  98.294 -45.078  1.00  0.00     0.127 C 
HETATM   22  C5  UNL     1      89.530  98.826 -46.158  1.00  0.00     0.048 C 
HETATM   23  C6  UNL     1      88.640  99.729 -46.995  1.00  0.00     0.078 C 
HETATM   24 BR1  UNL     1      88.681 101.477 -46.210  1.00  0.00    -0.089 Br
HETATM   25  C7  UNL     1      87.294  99.059 -46.809  1.00  0.00     0.142 C 
HETATM   26  N6  UNL     1      87.281  98.818 -45.380  1.00  0.00    -0.341 N 
HETATM   27  C8  UNL     1      86.209  99.042 -44.465  1.00  0.00     0.234 C 
HETATM   28  O2  UNL     1      86.359  98.778 -43.246  1.00  0.00    -0.272 OA
BRANCH  27  29
HETATM   29  C9  UNL     1      84.911  99.585 -44.930  1.00  0.00     0.217 C 
HETATM   30 CL1  UNL     1      83.887 100.150 -43.595  1.00  0.00    -0.121 Cl
ENDBRANCH  27  29
ENDBRANCH  10  21
BRANCH   1  31
HETATM   31  N2  UNL     1      91.511  95.067 -40.571  1.00  0.00    -0.245 N 
HETATM   32  N1  UNL     1      92.439  94.384 -41.099  1.00  0.00    -0.331 N 
ATOM     33  H12 UNL     1      93.254  94.858 -41.490  1.00  0.00     0.178 HD
ATOM     34  H11 UNL     1      92.350  93.368 -41.123  1.00  0.00     0.178 HD
ATOM     35  H2  UNL     1      90.690  94.609 -40.176  1.00  0.00     0.208 HD
ENDBRANCH   1  31
TORSDOF 5
ENDMDL
MODEL 5
REMARK VINA RESULT: -6.404598333      2.253      2.631
REMARK  5 active torsions:
REMARK  status: ('A' for Active; 'I' for Inactive)
REMARK    1  A    between atoms: N2_4  and  N3_6 
REMARK       I    between atoms: N3_6  and  C1_8 
REMARK       I    between atoms: C1_8  and  N4_10 
REMARK       I    between atoms: C2_12  and  N5_13 
REMARK       I    between atoms: C2_12  and  N7_26 
REMARK    2  A    between atoms: C3_15  and  C4_16 
REMARK       I    between atoms: N6_21  and  C8_22 
REMARK    3  A    between atoms: C8_22  and  C9_24 
REMARK    4  A    between atoms: N7_26  and  C10_28 
REMARK    5  A    between atoms: C10_28  and  C11_29 
ROOT
HETATM    1  N3  UNL     1      91.531  95.749 -40.529  1.00  0.00    -0.237 N 
ATOM      2  H3  UNL     1      91.812  96.089 -39.609  1.00  0.00     0.193 HD
HETATM    3  C1  UNL     1      91.474  96.637 -41.622  1.00  0.00     0.354 C 
HETATM    4  O1  UNL     1      91.125  96.219 -42.767  1.00  0.00    -0.245 OA
HETATM    5  N4  UNL     1      91.812  98.001 -41.426  1.00  0.00    -0.140 N 
ATOM      6  H4  UNL     1      92.336  98.242 -40.585  1.00  0.00     0.189 HD
HETATM    7  C2  UNL     1      91.505  98.957 -42.232  1.00  0.00     0.682 C 
HETATM    8  N5  UNL     1      90.789  98.730 -43.413  1.00  0.00    -0.203 N 
ATOM      9  H5  UNL     1      91.338  98.528 -44.249  1.00  0.00     0.183 HD
HETATM   10  C3  UNL     1      89.514  98.750 -43.554  1.00  0.00     0.104 C 
HETATM   11  N7  UNL     1      91.927 100.264 -41.875  1.00  0.00    -0.222 N 
ATOM     12  H7  UNL     1      92.927 100.442 -41.779  1.00  0.00     0.178 HD
ENDROOT
BRANCH  11  13
HETATM   13  C10 UNL     1      91.016 101.349 -41.640  1.00  0.00     0.176 C 
BRANCH  13  14
HETATM   14  C11 UNL     1      91.343 102.521 -42.489  1.00  0.00    -0.040 A 
HETATM   15  C12 UNL     1      92.443 102.478 -43.321  1.00  0.00     0.010 A 
HETATM   16  C13 UNL     1      92.787 103.552 -44.132  1.00  0.00     0.019 A 
HETATM   17  C14 UNL     1      91.976 104.660 -44.065  1.00  0.00     0.011 A 
HETATM   18 BR2  UNL     1      92.416 106.163 -45.170  1.00  0.00    -0.051 Br
HETATM   19  C15 UNL     1      90.868 104.720 -43.237  1.00  0.00     0.019 A 
HETATM   20  C16 UNL     1      90.535 103.637 -42.429  1.00  0.00     0.010 A 
ENDBRANCH  13  14
ENDBRANCH  11  13
BRANCH  10  21
HETATM   21  C4  UNL     1      88.952  98.485 -44.894  1.00  0.00     0.127 C 
HETATM   22  C5  UNL     1      89.985  98.971 -45.899  1.00  0.00     0.048 C 
HETATM   23  C6  UNL     1      89.269 100.080 -46.653  1.00  0.00     0.078 C 
HETATM   24 BR1  UNL     1      89.552 101.714 -45.691  1.00  0.00    -0.089 Br
HETATM   25  C7  UNL     1      87.832  99.611 -46.557  1.00  0.00     0.142 C 
HETATM   26  N6  UNL     1      87.738  99.234 -45.160  1.00  0.00    -0.341 N 
HETATM   27  C8  UNL     1      86.685  99.529 -44.244  1.00  0.00     0.234 C 
HETATM   28  O2  UNL     1      86.756  99.125 -43.056  1.00  0.00    -0.272 OA
BRANCH  27  29
HETATM   29  C9  UNL     1      85.500 100.310 -44.670  1.00  0.00     0.217 C 
HETATM   30 CL1  UNL     1      85.800 102.060 -44.680  1.00  0.00    -0.121 Cl
ENDBRANCH  27  29
ENDBRANCH  10  21
BRANCH   1  31
HETATM   31  N2  UNL     1      91.204  94.413 -40.704  1.00  0.00    -0.245 N 
HETATM   32  N1  UNL     1      92.114  93.602 -41.047  1.00  0.00    -0.331 N 
ATOM     33  H12 UNL     1      93.066  93.941 -41.186  1.00  0.00     0.178 HD
ATOM     34  H11 UNL     1      91.874  92.619 -41.177  1.00  0.00     0.178 HD
ATOM     35  H2  UNL     1      90.247  94.090 -40.561  1.00  0.00     0.208 HD
ENDBRANCH   1  31
TORSDOF 5
ENDMDL
