MODEL 1
REMARK VINA RESULT: -6.560130290      0.000      0.000
REMARK  7 active torsions:
REMARK  status: ('A' for Active; 'I' for Inactive)
REMARK    1  A    between atoms: C4_5  and  C5_6 
REMARK    2  A    between atoms: C5_6  and  C6_7 
REMARK    3  A    between atoms: C6_7  and  N2_8 
REMARK    4  A    between atoms: C6_7  and  N3_12 
REMARK    5  A    between atoms: N3_12  and  C7_14 
REMARK    6  A    between atoms: C7_14  and  C8_15 
REMARK    7  A    between atoms: C8_15  and  N4_16 
ROOT
HETATM    1  C6  UNL     1      91.536  90.111 -48.088  1.00  0.00     0.281 C 
ENDROOT
BRANCH   1   2
HETATM    2  C5  UNL     1      91.120  90.576 -49.496  1.00  0.00     0.092 C 
BRANCH   2   3
HETATM    3  C4  UNL     1      89.641  90.529 -49.552  1.00  0.00    -0.051 A 
HETATM    4  C3  UNL     1      89.039  89.432 -48.979  1.00  0.00     0.037 A 
HETATM    5  C2  UNL     1      87.641  89.352 -49.024  1.00  0.00     0.042 A 
HETATM    6  N1  UNL     1      86.897  88.430 -48.559  1.00  0.00    -0.381 N 
HETATM    7  C16 UNL     1      86.912  90.351 -49.628  1.00  0.00     0.006 A 
HETATM    8  C1  UNL     1      87.365  87.222 -47.857  1.00  0.00     0.150 C 
HETATM    9  C18 UNL     1      85.521  88.772 -48.841  1.00  0.00     0.151 A 
HETATM   10  C17 UNL     1      85.623  90.061 -49.551  1.00  0.00     0.008 A 
HETATM   11  C15 UNL     1      87.541  91.447 -50.199  1.00  0.00     0.023 A 
HETATM   12  C14 UNL     1      88.912  91.522 -50.153  1.00  0.00     0.027 A 
HETATM   13 BR3  UNL     1      86.596  92.864 -51.046  1.00  0.00    -0.050 Br
ENDBRANCH   2   3
ENDBRANCH   1   2
BRANCH   1  14
HETATM   14  N2  UNL     1      92.451  89.011 -48.331  1.00  0.00    -0.058 N 
ATOM     15  H23 UNL     1      93.345  89.292 -48.734  1.00  0.00     0.276 HD
ATOM     16  H22 UNL     1      92.836  88.593 -47.484  1.00  0.00     0.276 HD
ATOM     17  H21 UNL     1      91.917  88.362 -48.911  1.00  0.00     0.276 HD
ENDBRANCH   1  14
BRANCH   1  18
HETATM   18  N3  UNL     1      92.096  91.237 -47.440  1.00  0.00    -0.394 N 
ATOM     19  H3  UNL     1      92.942  91.677 -47.804  1.00  0.00     0.155 HD
BRANCH  18  20
HETATM   20  C7  UNL     1      91.464  91.745 -46.279  1.00  0.00     0.136 C 
BRANCH  20  21
HETATM   21  C8  UNL     1      90.764  93.048 -46.499  1.00  0.00     0.147 C 
BRANCH  21  22
HETATM   22  N4  UNL     1      90.925  93.838 -45.270  1.00  0.00    -0.363 N 
HETATM   23  C9  UNL     1      90.612  95.136 -45.224  1.00  0.00     0.092 A 
HETATM   24  C10 UNL     1      90.792  95.800 -44.024  1.00  0.00     0.038 A 
HETATM   25  C11 UNL     1      91.275  95.180 -42.899  1.00  0.00     0.031 A 
HETATM   26 BR1  UNL     1      91.528  96.078 -41.245  1.00  0.00    -0.050 Br
HETATM   27  C12 UNL     1      91.588  93.847 -42.979  1.00  0.00     0.043 A 
HETATM   28 BR2  UNL     1      92.268  92.914 -41.442  1.00  0.00    -0.048 Br
HETATM   29  C13 UNL     1      91.398  93.208 -44.188  1.00  0.00     0.111 A 
ENDBRANCH  21  22
ENDBRANCH  20  21
ENDBRANCH  18  20
ENDBRANCH   1  18
TORSDOF 7
ENDMDL
MODEL 2
REMARK VINA RESULT: -6.441473778      1.589      2.297
REMARK  7 active torsions:
REMARK  status: ('A' for Active; 'I' for Inactive)
REMARK    1  A    between atoms: C4_5  and  C5_6 
REMARK    2  A    between atoms: C5_6  and  C6_7 
REMARK    3  A    between atoms: C6_7  and  N2_8 
REMARK    4  A    between atoms: C6_7  and  N3_12 
REMARK    5  A    between atoms: N3_12  and  C7_14 
REMARK    6  A    between atoms: C7_14  and  C8_15 
REMARK    7  A    between atoms: C8_15  and  N4_16 
ROOT
HETATM    1  C6  UNL     1      91.667  90.033 -47.913  1.00  0.00     0.281 C 
ENDROOT
BRANCH   1   2
HETATM    2  C5  UNL     1      91.174  90.231 -49.358  1.00  0.00     0.092 C 
BRANCH   2   3
HETATM    3  C4  UNL     1      89.705  90.043 -49.348  1.00  0.00    -0.051 A 
HETATM    4  C3  UNL     1      88.950  91.075 -49.859  1.00  0.00     0.037 A 
HETATM    5  C2  UNL     1      87.556  90.931 -49.855  1.00  0.00     0.042 A 
HETATM    6  N1  UNL     1      86.686  91.760 -50.275  1.00  0.00    -0.381 N 
HETATM    7  C16 UNL     1      86.981  89.787 -49.352  1.00  0.00     0.006 A 
HETATM    8  C1  UNL     1      86.972  93.078 -50.869  1.00  0.00     0.150 C 
HETATM    9  C18 UNL     1      85.375  91.187 -50.066  1.00  0.00     0.151 A 
HETATM   10  C17 UNL     1      85.665  89.877 -49.451  1.00  0.00     0.008 A 
HETATM   11  C15 UNL     1      87.763  88.761 -48.843  1.00  0.00     0.023 A 
HETATM   12  C14 UNL     1      89.130  88.904 -48.848  1.00  0.00     0.027 A 
HETATM   13 BR3  UNL     1      87.035  87.151 -48.136  1.00  0.00    -0.050 Br
ENDBRANCH   2   3
ENDBRANCH   1   2
BRANCH   1  14
HETATM   14  N2  UNL     1      92.723  89.044 -48.027  1.00  0.00    -0.058 N 
ATOM     15  H23 UNL     1      93.241  88.885 -47.163  1.00  0.00     0.276 HD
ATOM     16  H22 UNL     1      92.388  88.087 -48.135  1.00  0.00     0.276 HD
ATOM     17  H21 UNL     1      93.296  89.376 -48.803  1.00  0.00     0.276 HD
ENDBRANCH   1  14
BRANCH   1  18
HETATM   18  N3  UNL     1      92.073  91.307 -47.448  1.00  0.00    -0.394 N 
ATOM     19  H3  UNL     1      92.787  91.837 -47.946  1.00  0.00     0.155 HD
BRANCH  18  20
HETATM   20  C7  UNL     1      91.471  91.832 -46.278  1.00  0.00     0.136 C 
BRANCH  20  21
HETATM   21  C8  UNL     1      90.759  93.129 -46.502  1.00  0.00     0.147 C 
BRANCH  21  22
HETATM   22  N4  UNL     1      90.933  93.933 -45.284  1.00  0.00    -0.363 N 
HETATM   23  C9  UNL     1      90.643  95.237 -45.257  1.00  0.00     0.092 A 
HETATM   24  C10 UNL     1      90.834  95.914 -44.066  1.00  0.00     0.038 A 
HETATM   25  C11 UNL     1      91.304  95.302 -42.931  1.00  0.00     0.031 A 
HETATM   26 BR1  UNL     1      91.571  96.219 -41.290  1.00  0.00    -0.050 Br
HETATM   27  C12 UNL     1      91.592  93.962 -42.992  1.00  0.00     0.043 A 
HETATM   28 BR2  UNL     1      92.253  93.040 -41.441  1.00  0.00    -0.048 Br
HETATM   29  C13 UNL     1      91.393  93.309 -44.192  1.00  0.00     0.111 A 
ENDBRANCH  21  22
ENDBRANCH  20  21
ENDBRANCH  18  20
ENDBRANCH   1  18
TORSDOF 7
ENDMDL
MODEL 3
REMARK VINA RESULT: -6.434844135      6.005      8.847
REMARK  7 active torsions:
REMARK  status: ('A' for Active; 'I' for Inactive)
REMARK    1  A    between atoms: C4_5  and  C5_6 
REMARK    2  A    between atoms: C5_6  and  C6_7 
REMARK    3  A    between atoms: C6_7  and  N2_8 
REMARK    4  A    between atoms: C6_7  and  N3_12 
REMARK    5  A    between atoms: N3_12  and  C7_14 
REMARK    6  A    between atoms: C7_14  and  C8_15 
REMARK    7  A    between atoms: C8_15  and  N4_16 
ROOT
HETATM    1  C6  UNL     1      90.544  98.681 -45.082  1.00  0.00     0.281 C 
ENDROOT
BRANCH   1   2
HETATM    2  C5  UNL     1      89.826  97.443 -45.650  1.00  0.00     0.092 C 
BRANCH   2   3
HETATM    3  C4  UNL     1      90.383  96.259 -44.957  1.00  0.00    -0.051 A 
HETATM    4  C3  UNL     1      90.740  96.430 -43.639  1.00  0.00     0.037 A 
HETATM    5  C2  UNL     1      91.280  95.330 -42.958  1.00  0.00     0.042 A 
HETATM    6  N1  UNL     1      91.672  95.279 -41.748  1.00  0.00    -0.381 N 
HETATM    7  C16 UNL     1      91.438  94.126 -43.606  1.00  0.00     0.006 A 
HETATM    8  C1  UNL     1      91.639  96.395 -40.786  1.00  0.00     0.150 C 
HETATM    9  C18 UNL     1      92.156  93.942 -41.485  1.00  0.00     0.151 A 
HETATM   10  C17 UNL     1      91.962  93.244 -42.770  1.00  0.00     0.008 A 
HETATM   11  C15 UNL     1      91.069  93.978 -44.935  1.00  0.00     0.023 A 
HETATM   12  C14 UNL     1      90.541  95.058 -45.600  1.00  0.00     0.027 A 
HETATM   13 BR3  UNL     1      91.257  92.344 -45.890  1.00  0.00    -0.050 Br
ENDBRANCH   2   3
ENDBRANCH   1   2
BRANCH   1  14
HETATM   14  N2  UNL     1      91.508  99.037 -46.107  1.00  0.00    -0.058 N 
ATOM     15  H23 UNL     1      92.470  98.783 -45.881  1.00  0.00     0.276 HD
ATOM     16  H22 UNL     1      91.441  98.477 -46.956  1.00  0.00     0.276 HD
ATOM     17  H21 UNL     1      91.363 100.037 -46.252  1.00  0.00     0.276 HD
ENDBRANCH   1  14
BRANCH   1  18
HETATM   18  N3  UNL     1      89.541  99.647 -44.827  1.00  0.00    -0.394 N 
ATOM     19  H3  UNL     1      88.711  99.701 -45.418  1.00  0.00     0.155 HD
BRANCH  18  20
HETATM   20  C7  UNL     1      89.709 100.537 -43.739  1.00  0.00     0.136 C 
BRANCH  20  21
HETATM   21  C8  UNL     1      90.589 100.000 -42.655  1.00  0.00     0.147 C 
BRANCH  21  22
HETATM   22  N4  UNL     1      91.649 100.992 -42.427  1.00  0.00    -0.363 N 
HETATM   23  C9  UNL     1      92.347 101.518 -43.437  1.00  0.00     0.092 A 
HETATM   24  C10 UNL     1      93.323 102.448 -43.130  1.00  0.00     0.038 A 
HETATM   25  C11 UNL     1      93.594 102.841 -41.843  1.00  0.00     0.031 A 
HETATM   26 BR1  UNL     1      94.931 104.117 -41.405  1.00  0.00    -0.050 Br
HETATM   27  C12 UNL     1      92.860 102.282 -40.828  1.00  0.00     0.043 A 
HETATM   28 BR2  UNL     1      93.185 102.786 -39.002  1.00  0.00    -0.048 Br
HETATM   29  C13 UNL     1      91.892 101.357 -41.161  1.00  0.00     0.111 A 
ENDBRANCH  21  22
ENDBRANCH  20  21
ENDBRANCH  18  20
ENDBRANCH   1  18
TORSDOF 7
ENDMDL
MODEL 4
REMARK VINA RESULT: -6.432072720      6.051      8.951
REMARK  7 active torsions:
REMARK  status: ('A' for Active; 'I' for Inactive)
REMARK    1  A    between atoms: C4_5  and  C5_6 
REMARK    2  A    between atoms: C5_6  and  C6_7 
REMARK    3  A    between atoms: C6_7  and  N2_8 
REMARK    4  A    between atoms: C6_7  and  N3_12 
REMARK    5  A    between atoms: N3_12  and  C7_14 
REMARK    6  A    between atoms: C7_14  and  C8_15 
REMARK    7  A    between atoms: C8_15  and  N4_16 
ROOT
HETATM    1  C6  UNL     1      90.634  98.777 -45.142  1.00  0.00     0.281 C 
ENDROOT
BRANCH   1   2
HETATM    2  C5  UNL     1      89.853  97.554 -45.658  1.00  0.00     0.092 C 
BRANCH   2   3
HETATM    3  C4  UNL     1      90.394  96.365 -44.960  1.00  0.00    -0.051 A 
HETATM    4  C3  UNL     1      90.741  96.532 -43.638  1.00  0.00     0.037 A 
HETATM    5  C2  UNL     1      91.264  95.428 -42.953  1.00  0.00     0.042 A 
HETATM    6  N1  UNL     1      91.645  95.373 -41.740  1.00  0.00    -0.381 N 
HETATM    7  C16 UNL     1      91.419  94.223 -43.600  1.00  0.00     0.006 A 
HETATM    8  C1  UNL     1      91.612  96.489 -40.777  1.00  0.00     0.150 C 
HETATM    9  C18 UNL     1      92.115  94.032 -41.472  1.00  0.00     0.151 A 
HETATM   10  C17 UNL     1      91.927  93.336 -42.760  1.00  0.00     0.008 A 
HETATM   11  C15 UNL     1      91.062  94.079 -44.932  1.00  0.00     0.023 A 
HETATM   12  C14 UNL     1      90.548  95.164 -45.602  1.00  0.00     0.027 A 
HETATM   13 BR3  UNL     1      91.244  92.443 -45.886  1.00  0.00    -0.050 Br
ENDBRANCH   2   3
ENDBRANCH   1   2
BRANCH   1  14
HETATM   14  N2  UNL     1      91.747  98.906 -46.065  1.00  0.00    -0.058 N 
ATOM     15  H23 UNL     1      92.092  98.019 -46.430  1.00  0.00     0.276 HD
ATOM     16  H22 UNL     1      91.496  99.308 -46.968  1.00  0.00     0.276 HD
ATOM     17  H21 UNL     1      92.442  99.444 -45.547  1.00  0.00     0.276 HD
ENDBRANCH   1  14
BRANCH   1  18
HETATM   18  N3  UNL     1      89.724  99.861 -45.130  1.00  0.00    -0.394 N 
ATOM     19  H3  UNL     1      89.055  99.984 -45.889  1.00  0.00     0.155 HD
BRANCH  18  20
HETATM   20  C7  UNL     1      89.758 100.771 -44.046  1.00  0.00     0.136 C 
BRANCH  20  21
HETATM   21  C8  UNL     1      89.510 100.130 -42.717  1.00  0.00     0.147 C 
BRANCH  21  22
HETATM   22  N4  UNL     1      90.325 100.854 -41.729  1.00  0.00    -0.363 N 
HETATM   23  C9  UNL     1      91.534 100.421 -41.365  1.00  0.00     0.092 A 
HETATM   24  C10 UNL     1      92.232 101.168 -40.433  1.00  0.00     0.038 A 
HETATM   25  C11 UNL     1      91.730 102.318 -39.878  1.00  0.00     0.031 A 
HETATM   26 BR1  UNL     1      92.675 103.354 -38.597  1.00  0.00    -0.050 Br
HETATM   27  C12 UNL     1      90.484 102.736 -40.273  1.00  0.00     0.043 A 
HETATM   28 BR2  UNL     1      89.719 104.338 -39.539  1.00  0.00    -0.048 Br
HETATM   29  C13 UNL     1      89.809 101.973 -41.205  1.00  0.00     0.111 A 
ENDBRANCH  21  22
ENDBRANCH  20  21
ENDBRANCH  18  20
ENDBRANCH   1  18
TORSDOF 7
ENDMDL
MODEL 5
REMARK VINA RESULT: -6.393581150      6.094      9.053
REMARK  7 active torsions:
REMARK  status: ('A' for Active; 'I' for Inactive)
REMARK    1  A    between atoms: C4_5  and  C5_6 
REMARK    2  A    between atoms: C5_6  and  C6_7 
REMARK    3  A    between atoms: C6_7  and  N2_8 
REMARK    4  A    between atoms: C6_7  and  N3_12 
REMARK    5  A    between atoms: N3_12  and  C7_14 
REMARK    6  A    between atoms: C7_14  and  C8_15 
REMARK    7  A    between atoms: C8_15  and  N4_16 
ROOT
HETATM    1  C6  UNL     1      90.951  98.852 -44.905  1.00  0.00     0.281 C 
ENDROOT
BRANCH   1   2
HETATM    2  C5  UNL     1      90.040  97.723 -45.420  1.00  0.00     0.092 C 
BRANCH   2   3
HETATM    3  C4  UNL     1      90.504  96.465 -44.789  1.00  0.00    -0.051 A 
HETATM    4  C3  UNL     1      90.842  96.535 -43.456  1.00  0.00     0.037 A 
HETATM    5  C2  UNL     1      91.294  95.364 -42.833  1.00  0.00     0.042 A 
HETATM    6  N1  UNL     1      91.655  95.216 -41.621  1.00  0.00    -0.381 N 
HETATM    7  C16 UNL     1      91.388  94.193 -43.549  1.00  0.00     0.006 A 
HETATM    8  C1  UNL     1      91.673  96.274 -40.595  1.00  0.00     0.150 C 
HETATM    9  C18 UNL     1      92.045  93.837 -41.430  1.00  0.00     0.151 A 
HETATM   10  C17 UNL     1      91.835  93.230 -42.758  1.00  0.00     0.008 A 
HETATM   11  C15 UNL     1      91.041  94.147 -44.890  1.00  0.00     0.023 A 
HETATM   12  C14 UNL     1      90.598  95.297 -45.500  1.00  0.00     0.027 A 
HETATM   13 BR3  UNL     1      91.143  92.563 -45.939  1.00  0.00    -0.050 Br
ENDBRANCH   2   3
ENDBRANCH   1   2
BRANCH   1  14
HETATM   14  N2  UNL     1      92.002  98.947 -45.902  1.00  0.00    -0.058 N 
ATOM     15  H23 UNL     1      92.825  99.463 -45.592  1.00  0.00     0.276 HD
ATOM     16  H22 UNL     1      92.484  98.067 -46.085  1.00  0.00     0.276 HD
ATOM     17  H21 UNL     1      91.539  99.348 -46.718  1.00  0.00     0.276 HD
ENDBRANCH   1  14
BRANCH   1  18
HETATM   18  N3  UNL     1      90.134 100.000 -44.770  1.00  0.00    -0.394 N 
ATOM     19  H3  UNL     1      89.390 100.188 -45.443  1.00  0.00     0.155 HD
BRANCH  18  20
HETATM   20  C7  UNL     1      90.365 100.882 -43.688  1.00  0.00     0.136 C 
BRANCH  20  21
HETATM   21  C8  UNL     1      90.789 100.190 -42.431  1.00  0.00     0.147 C 
BRANCH  21  22
HETATM   22  N4  UNL     1      91.786 101.051 -41.778  1.00  0.00    -0.363 N 
HETATM   23  C9  UNL     1      92.033 100.971 -40.468  1.00  0.00     0.092 A 
HETATM   24  C10 UNL     1      92.991 101.816 -39.940  1.00  0.00     0.038 A 
HETATM   25  C11 UNL     1      93.684 102.722 -40.704  1.00  0.00     0.031 A 
HETATM   26 BR1  UNL     1      95.003 103.889 -39.994  1.00  0.00    -0.050 Br
HETATM   27  C12 UNL     1      93.407 102.779 -42.047  1.00  0.00     0.043 A 
HETATM   28 BR2  UNL     1      94.340 104.022 -43.178  1.00  0.00    -0.048 Br
HETATM   29  C13 UNL     1      92.447 101.925 -42.549  1.00  0.00     0.111 A 
ENDBRANCH  21  22
ENDBRANCH  20  21
ENDBRANCH  18  20
ENDBRANCH   1  18
TORSDOF 7
ENDMDL
