MODEL 1
REMARK VINA RESULT: -6.627475005      0.000      0.000
REMARK  5 active torsions:
REMARK  status: ('A' for Active; 'I' for Inactive)
REMARK       I    between atoms: C1_2  and  N6_24 
REMARK       I    between atoms: N2_3  and  C2_5 
REMARK    1  A    between atoms: C2_5  and  C3_7 
REMARK    2  A    between atoms: C3_7  and  N3_8 
REMARK    3  A    between atoms: N3_8  and  S1_10 
REMARK    4  A    between atoms: S1_10  and  N4_13 
REMARK    5  A    between atoms: N6_24  and  C13_26 
ROOT
HETATM    1  C3  UNL     1      91.226 100.691 -41.610  1.00  0.00     0.122 A 
HETATM    2  C11 UNL     1      92.303 100.824 -40.528  1.00  0.00     0.044 A 
HETATM    3  C12 UNL     1      92.303 101.699 -41.720  1.00  0.00     0.044 A 
ENDROOT
BRANCH   1   4
HETATM    4  C2  UNL     1      91.364  99.496 -42.533  1.00  0.00     0.253 C 
HETATM    5  N2  UNL     1      92.014  99.671 -43.776  1.00  0.00    -0.299 N 
HETATM    6  C1  UNL     1      91.649  99.062 -44.856  1.00  0.00     0.195 C 
ATOM      7  H2  UNL     1      92.808 100.309 -43.823  1.00  0.00     0.171 HD
HETATM    8  N1  UNL     1      92.301  99.240 -46.095  1.00  0.00    -0.063 NA
HETATM    9  N6  UNL     1      90.531  98.176 -44.750  1.00  0.00    -0.330 N 
ATOM     10  H6  UNL     1      89.587  98.530 -44.597  1.00  0.00     0.168 HD
HETATM   11  O1  UNL     1      90.924  98.380 -42.225  1.00  0.00    -0.270 OA
BRANCH   9  12
HETATM   12  C13 UNL     1      90.786  96.785 -44.865  1.00  0.00     0.034 A 
HETATM   13  C14 UNL     1      90.432  96.106 -46.021  1.00  0.00     0.031 A 
HETATM   14  C15 UNL     1      90.664  94.750 -46.167  1.00  0.00     0.026 A 
HETATM   15  C16 UNL     1      91.262  94.017 -45.159  1.00  0.00     0.034 A 
HETATM   16 CL1  UNL     1      91.552  92.296 -45.347  1.00  0.00    -0.084 Cl
HETATM   17  C17 UNL     1      91.616  94.686 -44.008  1.00  0.00     0.026 A 
HETATM   18  C18 UNL     1      91.380  96.055 -43.863  1.00  0.00     0.031 A 
ENDBRANCH   9  12
ENDBRANCH   1   4
BRANCH   1  19
HETATM   19  N3  UNL     1      89.901 100.982 -41.272  1.00  0.00    -0.288 N 
ATOM     20  H3  UNL     1      89.570 100.773 -40.331  1.00  0.00     0.174 HD
BRANCH  19  21
HETATM   21  S1  UNL     1      88.845 101.664 -42.374  1.00  0.00     0.300 S 
HETATM   22  O2  UNL     1      88.396 103.053 -42.137  1.00  0.00    -0.188 OA
HETATM   23  O3  UNL     1      89.553 101.685 -43.726  1.00  0.00    -0.188 OA
BRANCH  21  24
HETATM   24  N4  UNL     1      87.423 100.686 -42.468  1.00  0.00    -0.190 NA
HETATM   25  C4  UNL     1      86.397 101.313 -43.261  1.00  0.00     0.137 C 
HETATM   26  C5  UNL     1      85.160 100.463 -43.371  1.00  0.00     0.253 C 
HETATM   27  N5  UNL     1      85.427  99.146 -43.879  1.00  0.00    -0.065 N 
HETATM   28  C6  UNL     1      84.985  98.933 -45.256  1.00  0.00     0.239 C 
HETATM   29  C8  UNL     1      84.327  98.260 -43.486  1.00  0.00     0.239 C 
HETATM   30  C9  UNL     1      86.678  98.575 -43.567  1.00  0.00     0.253 C 
HETATM   31  C7  UNL     1      84.460  97.597 -44.841  1.00  0.00     0.056 C 
HETATM   32  C10 UNL     1      87.652  99.325 -42.763  1.00  0.00     0.137 C 
ENDBRANCH  21  24
ENDBRANCH  19  21
ENDBRANCH   1  19
TORSDOF 5
ENDMDL
MODEL 2
REMARK VINA RESULT: -6.564806423      1.675      2.190
REMARK  5 active torsions:
REMARK  status: ('A' for Active; 'I' for Inactive)
REMARK       I    between atoms: C1_2  and  N6_24 
REMARK       I    between atoms: N2_3  and  C2_5 
REMARK    1  A    between atoms: C2_5  and  C3_7 
REMARK    2  A    between atoms: C3_7  and  N3_8 
REMARK    3  A    between atoms: N3_8  and  S1_10 
REMARK    4  A    between atoms: S1_10  and  N4_13 
REMARK    5  A    between atoms: N6_24  and  C13_26 
ROOT
HETATM    1  C3  UNL     1      91.806 101.809 -42.434  1.00  0.00     0.122 A 
HETATM    2  C11 UNL     1      92.658 102.341 -41.277  1.00  0.00     0.044 A 
HETATM    3  C12 UNL     1      93.066 102.542 -42.684  1.00  0.00     0.044 A 
ENDROOT
BRANCH   1   4
HETATM    4  C2  UNL     1      91.872 100.313 -42.667  1.00  0.00     0.253 C 
HETATM    5  N2  UNL     1      92.311  99.841 -43.926  1.00  0.00    -0.299 N 
HETATM    6  C1  UNL     1      91.822  98.789 -44.495  1.00  0.00     0.195 C 
ATOM      7  H2  UNL     1      93.048 100.356 -44.407  1.00  0.00     0.171 HD
HETATM    8  N1  UNL     1      92.263  98.323 -45.752  1.00  0.00    -0.063 NA
HETATM    9  N6  UNL     1      90.789  98.095 -43.790  1.00  0.00    -0.330 N 
ATOM     10  H6  UNL     1      89.860  98.500 -43.677  1.00  0.00     0.168 HD
HETATM   11  O1  UNL     1      91.553  99.501 -41.787  1.00  0.00    -0.270 OA
BRANCH   9  12
HETATM   12  C13 UNL     1      91.108  96.821 -43.253  1.00  0.00     0.034 A 
HETATM   13  C14 UNL     1      91.329  96.674 -41.892  1.00  0.00     0.031 A 
HETATM   14  C15 UNL     1      91.642  95.448 -41.335  1.00  0.00     0.026 A 
HETATM   15  C16 UNL     1      91.748  94.315 -42.119  1.00  0.00     0.034 A 
HETATM   16 CL1  UNL     1      92.149  92.761 -41.408  1.00  0.00    -0.084 Cl
HETATM   17  C17 UNL     1      91.530  94.454 -43.472  1.00  0.00     0.026 A 
HETATM   18  C18 UNL     1      91.213  95.693 -44.033  1.00  0.00     0.031 A 
ENDBRANCH   9  12
ENDBRANCH   1   4
BRANCH   1  19
HETATM   19  N3  UNL     1      90.528 102.345 -42.623  1.00  0.00    -0.288 N 
ATOM     20  H3  UNL     1      90.063 102.810 -41.844  1.00  0.00     0.174 HD
BRANCH  19  21
HETATM   21  S1  UNL     1      89.743 102.241 -44.096  1.00  0.00     0.300 S 
HETATM   22  O2  UNL     1      88.783 103.310 -44.446  1.00  0.00    -0.188 OA
HETATM   23  O3  UNL     1      90.814 102.277 -45.182  1.00  0.00    -0.188 OA
BRANCH  21  24
HETATM   24  N4  UNL     1      88.879 100.747 -44.168  1.00  0.00    -0.190 NA
HETATM   25  C4  UNL     1      88.146 100.496 -42.953  1.00  0.00     0.137 C 
HETATM   26  C5  UNL     1      87.370  99.208 -43.010  1.00  0.00     0.253 C 
HETATM   27  N5  UNL     1      86.480  99.137 -44.136  1.00  0.00    -0.065 N 
HETATM   28  C6  UNL     1      85.067  99.292 -43.794  1.00  0.00     0.239 C 
HETATM   29  C8  UNL     1      86.168  97.729 -44.400  1.00  0.00     0.239 C 
HETATM   30  C9  UNL     1      86.876  99.801 -45.315  1.00  0.00     0.253 C 
HETATM   31  C7  UNL     1      84.757  98.169 -44.731  1.00  0.00     0.056 C 
HETATM   32  C10 UNL     1      88.148 100.536 -45.356  1.00  0.00     0.137 C 
ENDBRANCH  21  24
ENDBRANCH  19  21
ENDBRANCH   1  19
TORSDOF 5
ENDMDL
MODEL 3
REMARK VINA RESULT: -6.509934088      2.976      5.964
REMARK  5 active torsions:
REMARK  status: ('A' for Active; 'I' for Inactive)
REMARK       I    between atoms: C1_2  and  N6_24 
REMARK       I    between atoms: N2_3  and  C2_5 
REMARK    1  A    between atoms: C2_5  and  C3_7 
REMARK    2  A    between atoms: C3_7  and  N3_8 
REMARK    3  A    between atoms: N3_8  and  S1_10 
REMARK    4  A    between atoms: S1_10  and  N4_13 
REMARK    5  A    between atoms: N6_24  and  C13_26 
ROOT
HETATM    1  C3  UNL     1      92.253 100.764 -45.829  1.00  0.00     0.122 A 
HETATM    2  C11 UNL     1      93.025 101.127 -47.102  1.00  0.00     0.044 A 
HETATM    3  C12 UNL     1      91.625 101.560 -46.906  1.00  0.00     0.044 A 
ENDROOT
BRANCH   1   4
HETATM    4  C2  UNL     1      91.784  99.325 -45.733  1.00  0.00     0.253 C 
HETATM    5  N2  UNL     1      90.394  99.066 -45.697  1.00  0.00    -0.299 N 
HETATM    6  C1  UNL     1      89.870  98.121 -44.989  1.00  0.00     0.195 C 
ATOM      7  H2  UNL     1      89.776  99.654 -46.257  1.00  0.00     0.171 HD
HETATM    8  N1  UNL     1      88.482  97.867 -44.957  1.00  0.00    -0.063 NA
HETATM    9  N6  UNL     1      90.769  97.319 -44.218  1.00  0.00    -0.330 N 
ATOM     10  H6  UNL     1      91.252  97.699 -43.404  1.00  0.00     0.168 HD
HETATM   11  O1  UNL     1      92.583  98.381 -45.685  1.00  0.00    -0.270 OA
BRANCH   9  12
HETATM   12  C13 UNL     1      90.962  95.974 -44.629  1.00  0.00     0.034 A 
HETATM   13  C14 UNL     1      90.641  95.589 -45.922  1.00  0.00     0.031 A 
HETATM   14  C15 UNL     1      90.815  94.288 -46.356  1.00  0.00     0.026 A 
HETATM   15  C16 UNL     1      91.318  93.316 -45.511  1.00  0.00     0.034 A 
HETATM   16 CL1  UNL     1      91.534  91.664 -46.065  1.00  0.00    -0.084 Cl
HETATM   17  C17 UNL     1      91.638  93.692 -44.225  1.00  0.00     0.026 A 
HETATM   18  C18 UNL     1      91.462  95.007 -43.789  1.00  0.00     0.031 A 
ENDBRANCH   9  12
ENDBRANCH   1   4
BRANCH   1  19
HETATM   19  N3  UNL     1      92.691 101.288 -44.609  1.00  0.00    -0.288 N 
ATOM     20  H3  UNL     1      93.628 101.685 -44.547  1.00  0.00     0.174 HD
BRANCH  19  21
HETATM   21  S1  UNL     1      91.717 101.279 -43.251  1.00  0.00     0.300 S 
HETATM   22  O2  UNL     1      90.260 101.441 -43.442  1.00  0.00    -0.188 OA
HETATM   23  O3  UNL     1      91.896  99.923 -42.575  1.00  0.00    -0.188 OA
BRANCH  21  24
HETATM   24  N4  UNL     1      92.226 102.541 -42.187  1.00  0.00    -0.190 NA
HETATM   25  C4  UNL     1      91.457 102.554 -40.969  1.00  0.00     0.137 C 
HETATM   26  C5  UNL     1      91.905 103.635 -40.022  1.00  0.00     0.253 C 
HETATM   27  N5  UNL     1      93.305 103.563 -39.709  1.00  0.00    -0.065 N 
HETATM   28  C6  UNL     1      93.595 103.075 -38.361  1.00  0.00     0.239 C 
HETATM   29  C8  UNL     1      93.746 104.876 -39.229  1.00  0.00     0.239 C 
HETATM   30  C9  UNL     1      94.166 103.070 -40.711  1.00  0.00     0.253 C 
HETATM   31  C7  UNL     1      94.628 104.148 -38.236  1.00  0.00     0.056 C 
HETATM   32  C10 UNL     1      93.622 102.646 -42.008  1.00  0.00     0.137 C 
ENDBRANCH  21  24
ENDBRANCH  19  21
ENDBRANCH   1  19
TORSDOF 5
ENDMDL
MODEL 4
REMARK VINA RESULT: -6.469386556      2.969      5.974
REMARK  5 active torsions:
REMARK  status: ('A' for Active; 'I' for Inactive)
REMARK       I    between atoms: C1_2  and  N6_24 
REMARK       I    between atoms: N2_3  and  C2_5 
REMARK    1  A    between atoms: C2_5  and  C3_7 
REMARK    2  A    between atoms: C3_7  and  N3_8 
REMARK    3  A    between atoms: N3_8  and  S1_10 
REMARK    4  A    between atoms: S1_10  and  N4_13 
REMARK    5  A    between atoms: N6_24  and  C13_26 
ROOT
HETATM    1  C3  UNL     1      92.288 100.660 -45.578  1.00  0.00     0.122 A 
HETATM    2  C11 UNL     1      92.974 101.140 -46.861  1.00  0.00     0.044 A 
HETATM    3  C12 UNL     1      91.600 101.567 -46.522  1.00  0.00     0.044 A 
ENDROOT
BRANCH   1   4
HETATM    4  C2  UNL     1      91.800  99.225 -45.589  1.00  0.00     0.253 C 
HETATM    5  N2  UNL     1      90.407  98.983 -45.594  1.00  0.00    -0.299 N 
HETATM    6  C1  UNL     1      89.860  97.997 -44.962  1.00  0.00     0.195 C 
ATOM      7  H2  UNL     1      89.806  99.615 -46.121  1.00  0.00     0.171 HD
HETATM    8  N1  UNL     1      88.468  97.759 -44.970  1.00  0.00    -0.063 NA
HETATM    9  N6  UNL     1      90.736  97.132 -44.234  1.00  0.00    -0.330 N 
ATOM     10  H6  UNL     1      91.210  97.448 -43.388  1.00  0.00     0.168 HD
HETATM   11  O1  UNL     1      92.587  98.269 -45.594  1.00  0.00    -0.270 OA
BRANCH   9  12
HETATM   12  C13 UNL     1      90.920  95.817 -44.734  1.00  0.00     0.034 A 
HETATM   13  C14 UNL     1      91.454  94.830 -43.919  1.00  0.00     0.031 A 
HETATM   14  C15 UNL     1      91.648  93.539 -44.373  1.00  0.00     0.026 A 
HETATM   15  C16 UNL     1      91.316  93.181 -45.666  1.00  0.00     0.034 A 
HETATM   16 CL1  UNL     1      91.567  91.541 -46.240  1.00  0.00    -0.084 Cl
HETATM   17  C17 UNL     1      90.785  94.156 -46.481  1.00  0.00     0.026 A 
HETATM   18  C18 UNL     1      90.589  95.460 -46.020  1.00  0.00     0.031 A 
ENDBRANCH   9  12
ENDBRANCH   1   4
BRANCH   1  19
HETATM   19  N3  UNL     1      92.822 101.056 -44.347  1.00  0.00    -0.288 N 
ATOM     20  H3  UNL     1      93.817 101.267 -44.282  1.00  0.00     0.174 HD
BRANCH  19  21
HETATM   21  S1  UNL     1      91.869 101.190 -42.981  1.00  0.00     0.300 S 
HETATM   22  O2  UNL     1      90.564 101.874 -43.110  1.00  0.00    -0.188 OA
HETATM   23  O3  UNL     1      91.547  99.774 -42.513  1.00  0.00    -0.188 OA
BRANCH  21  24
HETATM   24  N4  UNL     1      92.756 102.028 -41.757  1.00  0.00    -0.190 NA
HETATM   25  C4  UNL     1      92.763 103.451 -41.984  1.00  0.00     0.137 C 
HETATM   26  C5  UNL     1      93.513 104.196 -40.914  1.00  0.00     0.253 C 
HETATM   27  N5  UNL     1      93.027 103.920 -39.591  1.00  0.00    -0.065 N 
HETATM   28  C6  UNL     1      92.260 105.012 -38.993  1.00  0.00     0.239 C 
HETATM   29  C8  UNL     1      94.080 104.253 -38.625  1.00  0.00     0.239 C 
HETATM   30  C9  UNL     1      92.504 102.633 -39.351  1.00  0.00     0.253 C 
HETATM   31  C7  UNL     1      92.990 104.771 -37.710  1.00  0.00     0.056 C 
HETATM   32  C10 UNL     1      92.461 101.640 -40.433  1.00  0.00     0.137 C 
ENDBRANCH  21  24
ENDBRANCH  19  21
ENDBRANCH   1  19
TORSDOF 5
ENDMDL
MODEL 5
REMARK VINA RESULT: -6.342166491      3.266      6.054
REMARK  5 active torsions:
REMARK  status: ('A' for Active; 'I' for Inactive)
REMARK       I    between atoms: C1_2  and  N6_24 
REMARK       I    between atoms: N2_3  and  C2_5 
REMARK    1  A    between atoms: C2_5  and  C3_7 
REMARK    2  A    between atoms: C3_7  and  N3_8 
REMARK    3  A    between atoms: N3_8  and  S1_10 
REMARK    4  A    between atoms: S1_10  and  N4_13 
REMARK    5  A    between atoms: N6_24  and  C13_26 
ROOT
HETATM    1  C3  UNL     1      92.442 100.786 -46.806  1.00  0.00     0.122 A 
HETATM    2  C11 UNL     1      93.007 100.482 -48.197  1.00  0.00     0.044 A 
HETATM    3  C12 UNL     1      91.654 101.052 -48.028  1.00  0.00     0.044 A 
ENDROOT
BRANCH   1   4
HETATM    4  C2  UNL     1      91.996  99.582 -46.000  1.00  0.00     0.253 C 
HETATM    5  N2  UNL     1      90.656  99.147 -46.115  1.00  0.00    -0.299 N 
HETATM    6  C1  UNL     1      89.979  98.673 -45.121  1.00  0.00     0.195 C 
ATOM      7  H2  UNL     1      90.201  99.212 -47.025  1.00  0.00     0.171 HD
HETATM    8  N1  UNL     1      88.641  98.241 -45.241  1.00  0.00    -0.063 NA
HETATM    9  N6  UNL     1      90.651  98.599 -43.860  1.00  0.00    -0.330 N 
ATOM     10  H6  UNL     1      90.886  99.441 -43.335  1.00  0.00     0.168 HD
HETATM   11  O1  UNL     1      92.773  98.976 -45.248  1.00  0.00    -0.270 OA
BRANCH   9  12
HETATM   12  C13 UNL     1      90.978  97.309 -43.369  1.00  0.00     0.034 A 
HETATM   13  C14 UNL     1      91.234  97.123 -42.019  1.00  0.00     0.031 A 
HETATM   14  C15 UNL     1      91.557  95.880 -41.505  1.00  0.00     0.026 A 
HETATM   15  C16 UNL     1      91.638  94.770 -42.325  1.00  0.00     0.034 A 
HETATM   16 CL1  UNL     1      92.052  93.194 -41.670  1.00  0.00    -0.084 Cl
HETATM   17  C17 UNL     1      91.386  94.948 -43.667  1.00  0.00     0.026 A 
HETATM   18  C18 UNL     1      91.059  96.204 -44.183  1.00  0.00     0.031 A 
ENDBRANCH   9  12
ENDBRANCH   1   4
BRANCH   1  19
HETATM   19  N3  UNL     1      93.064 101.772 -46.034  1.00  0.00    -0.288 N 
ATOM     20  H3  UNL     1      94.062 101.944 -46.156  1.00  0.00     0.174 HD
BRANCH  19  21
HETATM   21  S1  UNL     1      92.212 102.677 -44.916  1.00  0.00     0.300 S 
HETATM   22  O2  UNL     1      92.238 104.150 -45.052  1.00  0.00    -0.188 OA
HETATM   23  O3  UNL     1      90.743 102.279 -45.037  1.00  0.00    -0.188 OA
BRANCH  21  24
HETATM   24  N4  UNL     1      92.795 102.308 -43.333  1.00  0.00    -0.190 NA
HETATM   25  C4  UNL     1      93.810 103.238 -42.908  1.00  0.00     0.137 C 
HETATM   26  C5  UNL     1      94.312 102.941 -41.521  1.00  0.00     0.253 C 
HETATM   27  N5  UNL     1      93.261 102.892 -40.542  1.00  0.00    -0.065 N 
HETATM   28  C6  UNL     1      93.219 104.048 -39.647  1.00  0.00     0.239 C 
HETATM   29  C8  UNL     1      93.734 102.128 -39.383  1.00  0.00     0.239 C 
HETATM   30  C9  UNL     1      91.998 102.436 -40.972  1.00  0.00     0.253 C 
HETATM   31  C7  UNL     1      92.984 103.109 -38.508  1.00  0.00     0.056 C 
HETATM   32  C10 UNL     1      91.794 102.044 -42.373  1.00  0.00     0.137 C 
ENDBRANCH  21  24
ENDBRANCH  19  21
ENDBRANCH   1  19
TORSDOF 5
ENDMDL
