MODEL 1
REMARK VINA RESULT: -6.877633824      0.000      0.000
REMARK  7 active torsions:
REMARK  status: ('A' for Active; 'I' for Inactive)
REMARK    1  A    between atoms: S1_2  and  C2_3 
REMARK    2  A    between atoms: C2_3  and  C3_4 
REMARK    3  A    between atoms: C3_4  and  C4_5 
REMARK    4  A    between atoms: N1_12  and  C10_14 
REMARK    5  A    between atoms: C10_14  and  C11_15 
REMARK    6  A    between atoms: C10_14  and  C13_22 
REMARK       I    between atoms: C11_15  and  N2_17 
REMARK       I    between atoms: C13_22  and  N5_24 
REMARK    7  A    between atoms: N5_24  and  C14_26 
ROOT
HETATM    1  C10 UNL     1      90.449  98.642 -44.240  1.00  0.00     0.268 C 
ENDROOT
BRANCH   1   2
HETATM    2  N1  UNL     1      89.187  97.855 -44.494  1.00  0.00    -0.364 N 
HETATM    3  C2  UNL     1      88.400  98.195 -45.461  1.00  0.00     0.067 C 
ATOM      4  H1  UNL     1      88.956  97.055 -43.904  1.00  0.00     0.161 HD
BRANCH   3   5
HETATM    5  S1  UNL     1      87.898 100.062 -44.513  1.00  0.00    -0.117 SA
HETATM    6  C1  UNL     1      87.274 100.531 -43.348  1.00  0.00     0.097 C 
ENDBRANCH   3   5
BRANCH   3   7
HETATM    7  C3  UNL     1      87.548  98.581 -46.520  1.00  0.00     0.048 C 
BRANCH   7   8
HETATM    8  C4  UNL     1      87.362  97.432 -47.466  1.00  0.00    -0.034 A 
HETATM    9  C5  UNL     1      86.120  96.968 -47.831  1.00  0.00     0.013 A 
HETATM   10  C6  UNL     1      85.971  95.896 -48.675  1.00  0.00     0.020 A 
HETATM   11  C7  UNL     1      87.150  95.322 -49.132  1.00  0.00     0.011 A 
HETATM   12 BR1  UNL     1      86.955  93.856 -50.332  1.00  0.00    -0.051 Br
HETATM   13  C8  UNL     1      88.408  95.748 -48.798  1.00  0.00     0.020 A 
HETATM   14  C9  UNL     1      88.521  96.823 -47.948  1.00  0.00     0.013 A 
ENDBRANCH   7   8
ENDBRANCH   3   7
ENDBRANCH   1   2
BRANCH   1  15
HETATM   15  C11 UNL     1      90.884  98.721 -42.862  1.00  0.00     0.256 C 
HETATM   16  O1  UNL     1      91.168  99.790 -42.292  1.00  0.00    -0.270 OA
HETATM   17  N2  UNL     1      90.995  97.501 -42.171  1.00  0.00    -0.301 N 
HETATM   18  C12 UNL     1      91.504  96.887 -41.288  1.00  0.00     0.203 C 
ATOM     19  H2  UNL     1      90.354  96.855 -42.632  1.00  0.00     0.171 HD
HETATM   20  N3  UNL     1      92.458  97.423 -40.380  1.00  0.00    -0.066 NA
HETATM   21  N4  UNL     1      91.315  95.443 -41.114  1.00  0.00    -0.066 NA
ENDBRANCH   1  15
BRANCH   1  22
HETATM   22  C13 UNL     1      91.331  97.745 -45.162  1.00  0.00     0.255 C 
HETATM   23  O2  UNL     1      92.288  98.387 -45.746  1.00  0.00    -0.270 OA
HETATM   24  N5  UNL     1      91.167  96.462 -45.389  1.00  0.00    -0.311 N 
ATOM     25  H5  UNL     1      90.415  96.479 -46.077  1.00  0.00     0.170 HD
BRANCH  24  26
HETATM   26  C14 UNL     1      91.357  95.284 -45.287  1.00  0.00     0.107 A 
HETATM   27  C15 UNL     1      91.008  94.462 -46.377  1.00  0.00     0.048 A 
HETATM   28  C16 UNL     1      91.160  93.118 -46.278  1.00  0.00     0.005 A 
HETATM   29  C17 UNL     1      91.652  92.592 -45.123  1.00  0.00     0.017 A 
HETATM   30  C18 UNL     1      92.005  93.360 -44.039  1.00  0.00     0.089 A 
HETATM   31  N6  UNL     1      91.850  94.675 -44.149  1.00  0.00    -0.352 N 
ATOM     32  H6  UNL     1      92.107  95.264 -43.356  1.00  0.00     0.166 HD
ENDBRANCH  24  26
ENDBRANCH   1  22
TORSDOF 7
ENDMDL
MODEL 2
REMARK VINA RESULT: -6.326306967      3.454      4.905
REMARK  7 active torsions:
REMARK  status: ('A' for Active; 'I' for Inactive)
REMARK    1  A    between atoms: S1_2  and  C2_3 
REMARK    2  A    between atoms: C2_3  and  C3_4 
REMARK    3  A    between atoms: C3_4  and  C4_5 
REMARK    4  A    between atoms: N1_12  and  C10_14 
REMARK    5  A    between atoms: C10_14  and  C11_15 
REMARK    6  A    between atoms: C10_14  and  C13_22 
REMARK       I    between atoms: C11_15  and  N2_17 
REMARK       I    between atoms: C13_22  and  N5_24 
REMARK    7  A    between atoms: N5_24  and  C14_26 
ROOT
HETATM    1  C10 UNL     1      92.275 101.073 -43.359  1.00  0.00     0.268 C 
ENDROOT
BRANCH   1   2
HETATM    2  N1  UNL     1      91.046 101.274 -44.211  1.00  0.00    -0.364 N 
HETATM    3  C2  UNL     1      90.579 100.290 -44.908  1.00  0.00     0.067 C 
ATOM      4  H1  UNL     1      90.585 102.183 -44.237  1.00  0.00     0.161 HD
BRANCH   3   5
HETATM    5  S1  UNL     1      92.323 100.240 -46.170  1.00  0.00    -0.117 SA
HETATM    6  C1  UNL     1      92.837 100.886 -47.302  1.00  0.00     0.097 C 
ENDBRANCH   3   5
BRANCH   3   7
HETATM    7  C3  UNL     1      90.082  99.207 -45.665  1.00  0.00     0.048 C 
BRANCH   7   8
HETATM    8  C4  UNL     1      88.721  98.820 -45.168  1.00  0.00    -0.034 A 
HETATM    9  C5  UNL     1      87.917  97.924 -45.831  1.00  0.00     0.013 A 
HETATM   10  C6  UNL     1      86.663  97.606 -45.375  1.00  0.00     0.020 A 
HETATM   11  C7  UNL     1      86.267  98.245 -44.207  1.00  0.00     0.011 A 
HETATM   12 BR1  UNL     1      84.541  97.786 -43.547  1.00  0.00    -0.051 Br
HETATM   13  C8  UNL     1      87.030  99.145 -43.512  1.00  0.00     0.020 A 
HETATM   14  C9  UNL     1      88.282  99.443 -43.998  1.00  0.00     0.013 A 
ENDBRANCH   7   8
ENDBRANCH   3   7
ENDBRANCH   1   2
BRANCH   1  15
HETATM   15  C11 UNL     1      92.906 102.276 -42.857  1.00  0.00     0.256 C 
HETATM   16  O1  UNL     1      93.084 103.296 -43.546  1.00  0.00    -0.270 OA
HETATM   17  N2  UNL     1      93.342 102.240 -41.519  1.00  0.00    -0.301 N 
HETATM   18  C12 UNL     1      94.087 102.660 -40.693  1.00  0.00     0.203 C 
ATOM     19  H2  UNL     1      92.759 101.547 -41.051  1.00  0.00     0.171 HD
HETATM   20  N3  UNL     1      95.065 103.666 -40.926  1.00  0.00    -0.066 NA
HETATM   21  N4  UNL     1      94.187 102.082 -39.349  1.00  0.00    -0.066 NA
ENDBRANCH   1  15
BRANCH   1  22
HETATM   22  C13 UNL     1      91.532 100.220 -42.286  1.00  0.00     0.255 C 
HETATM   23  O2  UNL     1      90.570 100.850 -41.698  1.00  0.00    -0.270 OA
HETATM   24  N5  UNL     1      91.811  98.982 -41.943  1.00  0.00    -0.311 N 
ATOM     25  H5  UNL     1      92.605  99.126 -41.321  1.00  0.00     0.170 HD
BRANCH  24  26
HETATM   26  C14 UNL     1      91.707  97.790 -41.911  1.00  0.00     0.107 A 
HETATM   27  C15 UNL     1      91.336  97.127 -43.097  1.00  0.00     0.048 A 
HETATM   28  C16 UNL     1      91.159  95.782 -43.086  1.00  0.00     0.005 A 
HETATM   29  C17 UNL     1      91.347  95.101 -41.923  1.00  0.00     0.017 A 
HETATM   30  C18 UNL     1      91.710  95.711 -40.746  1.00  0.00     0.089 A 
HETATM   31  N6  UNL     1      91.880  97.029 -40.771  1.00  0.00    -0.352 N 
ATOM     32  H6  UNL     1      92.151  97.501 -39.908  1.00  0.00     0.166 HD
ENDBRANCH  24  26
ENDBRANCH   1  22
TORSDOF 7
ENDMDL
MODEL 3
REMARK VINA RESULT: -6.290814423      3.212      5.806
REMARK  7 active torsions:
REMARK  status: ('A' for Active; 'I' for Inactive)
REMARK    1  A    between atoms: S1_2  and  C2_3 
REMARK    2  A    between atoms: C2_3  and  C3_4 
REMARK    3  A    between atoms: C3_4  and  C4_5 
REMARK    4  A    between atoms: N1_12  and  C10_14 
REMARK    5  A    between atoms: C10_14  and  C11_15 
REMARK    6  A    between atoms: C10_14  and  C13_22 
REMARK       I    between atoms: C11_15  and  N2_17 
REMARK       I    between atoms: C13_22  and  N5_24 
REMARK    7  A    between atoms: N5_24  and  C14_26 
ROOT
HETATM    1  C10 UNL     1      91.042 100.416 -45.240  1.00  0.00     0.268 C 
ENDROOT
BRANCH   1   2
HETATM    2  N1  UNL     1      91.883  99.223 -44.858  1.00  0.00    -0.364 N 
HETATM    3  C2  UNL     1      91.364  98.267 -44.159  1.00  0.00     0.067 C 
ATOM      4  H1  UNL     1      92.859  99.171 -45.150  1.00  0.00     0.161 HD
BRANCH   3   5
HETATM    5  S1  UNL     1      91.110  99.541 -42.442  1.00  0.00    -0.117 SA
HETATM    6  C1  UNL     1      91.870 100.382 -41.618  1.00  0.00     0.097 C 
ENDBRANCH   3   5
BRANCH   3   7
HETATM    7  C3  UNL     1      90.784  97.231 -43.394  1.00  0.00     0.048 C 
BRANCH   7   8
HETATM    8  C4  UNL     1      90.962  95.918 -44.097  1.00  0.00    -0.034 A 
HETATM    9  C5  UNL     1      91.491  94.812 -43.476  1.00  0.00     0.013 A 
HETATM   10  C6  UNL     1      91.673  93.628 -44.144  1.00  0.00     0.020 A 
HETATM   11  C7  UNL     1      91.288  93.626 -45.479  1.00  0.00     0.011 A 
HETATM   12 BR1  UNL     1      91.505  91.978 -46.408  1.00  0.00    -0.051 Br
HETATM   13  C8  UNL     1      90.757  94.701 -46.141  1.00  0.00     0.020 A 
HETATM   14  C9  UNL     1      90.590  95.873 -45.441  1.00  0.00     0.013 A 
ENDBRANCH   7   8
ENDBRANCH   3   7
ENDBRANCH   1   2
BRANCH   1  15
HETATM   15  C11 UNL     1      91.689 101.415 -46.063  1.00  0.00     0.256 C 
HETATM   16  O1  UNL     1      91.616 102.638 -45.844  1.00  0.00    -0.270 OA
HETATM   17  N2  UNL     1      92.417 100.937 -47.169  1.00  0.00    -0.301 N 
HETATM   18  C12 UNL     1      92.852 101.150 -48.255  1.00  0.00     0.203 C 
ATOM     19  H2  UNL     1      92.693  99.984 -46.935  1.00  0.00     0.171 HD
HETATM   20  N3  UNL     1      92.706 102.381 -48.954  1.00  0.00    -0.066 NA
HETATM   21  N4  UNL     1      93.479 100.110 -49.076  1.00  0.00    -0.066 NA
ENDBRANCH   1  15
BRANCH   1  22
HETATM   22  C13 UNL     1      89.956  99.563 -45.965  1.00  0.00     0.255 C 
HETATM   23  O2  UNL     1      90.373  99.016 -47.058  1.00  0.00    -0.270 OA
HETATM   24  N5  UNL     1      88.714  99.387 -45.576  1.00  0.00    -0.311 N 
ATOM     25  H5  UNL     1      88.285 100.256 -45.893  1.00  0.00     0.170 HD
BRANCH  24  26
HETATM   26  C14 UNL     1      87.775  98.836 -45.078  1.00  0.00     0.107 A 
HETATM   27  C15 UNL     1      87.336  97.629 -45.656  1.00  0.00     0.048 A 
HETATM   28  C16 UNL     1      86.243  97.003 -45.152  1.00  0.00     0.005 A 
HETATM   29  C17 UNL     1      85.594  97.558 -44.092  1.00  0.00     0.017 A 
HETATM   30  C18 UNL     1      85.992  98.733 -43.500  1.00  0.00     0.089 A 
HETATM   31  N6  UNL     1      87.064  99.336 -44.004  1.00  0.00    -0.352 N 
ATOM     32  H6  UNL     1      87.376 100.209 -43.578  1.00  0.00     0.166 HD
ENDBRANCH  24  26
ENDBRANCH   1  22
TORSDOF 7
ENDMDL
MODEL 4
REMARK VINA RESULT: -6.289334451      2.684      3.546
REMARK  7 active torsions:
REMARK  status: ('A' for Active; 'I' for Inactive)
REMARK    1  A    between atoms: S1_2  and  C2_3 
REMARK    2  A    between atoms: C2_3  and  C3_4 
REMARK    3  A    between atoms: C3_4  and  C4_5 
REMARK    4  A    between atoms: N1_12  and  C10_14 
REMARK    5  A    between atoms: C10_14  and  C11_15 
REMARK    6  A    between atoms: C10_14  and  C13_22 
REMARK       I    between atoms: C11_15  and  N2_17 
REMARK       I    between atoms: C13_22  and  N5_24 
REMARK    7  A    between atoms: N5_24  and  C14_26 
ROOT
HETATM    1  C10 UNL     1      90.588  99.398 -42.918  1.00  0.00     0.268 C 
ENDROOT
BRANCH   1   2
HETATM    2  N1  UNL     1      89.284  98.941 -42.311  1.00  0.00    -0.364 N 
HETATM    3  C2  UNL     1      88.166  99.405 -42.764  1.00  0.00     0.067 C 
ATOM      4  H1  UNL     1      89.286  98.267 -41.545  1.00  0.00     0.161 HD
BRANCH   3   5
HETATM    5  S1  UNL     1      88.613 101.397 -42.078  1.00  0.00    -0.117 SA
HETATM    6  C1  UNL     1      89.017 102.636 -42.596  1.00  0.00     0.097 C 
ENDBRANCH   3   5
BRANCH   3   7
HETATM    7  C3  UNL     1      86.952  99.923 -43.267  1.00  0.00     0.048 C 
BRANCH   7   8
HETATM    8  C4  UNL     1      86.217  98.854 -44.021  1.00  0.00    -0.034 A 
HETATM    9  C5  UNL     1      84.902  98.544 -43.770  1.00  0.00     0.013 A 
HETATM   10  C6  UNL     1      84.256  97.542 -44.449  1.00  0.00     0.020 A 
HETATM   11  C7  UNL     1      85.015  96.874 -45.400  1.00  0.00     0.011 A 
HETATM   12 BR1  UNL     1      84.119  95.504 -46.374  1.00  0.00    -0.051 Br
HETATM   13  C8  UNL     1      86.327  97.146 -45.686  1.00  0.00     0.020 A 
HETATM   14  C9  UNL     1      86.945  98.154 -44.984  1.00  0.00     0.013 A 
ENDBRANCH   7   8
ENDBRANCH   3   7
ENDBRANCH   1   2
BRANCH   1  15
HETATM   15  C11 UNL     1      91.679  99.622 -41.993  1.00  0.00     0.256 C 
HETATM   16  O1  UNL     1      92.215  98.715 -41.332  1.00  0.00    -0.270 OA
HETATM   17  N2  UNL     1      92.115 100.953 -41.853  1.00  0.00    -0.301 N 
HETATM   18  C12 UNL     1      92.641 101.772 -41.170  1.00  0.00     0.203 C 
ATOM     19  H2  UNL     1      91.871 101.424 -42.724  1.00  0.00     0.171 HD
HETATM   20  N3  UNL     1      93.155 101.525 -39.867  1.00  0.00    -0.066 NA
HETATM   21  N4  UNL     1      92.699 103.191 -41.536  1.00  0.00    -0.066 NA
ENDBRANCH   1  15
BRANCH   1  22
HETATM   22  C13 UNL     1      90.738  98.140 -43.827  1.00  0.00     0.255 C 
HETATM   23  O2  UNL     1      90.815  98.417 -45.086  1.00  0.00    -0.270 OA
HETATM   24  N5  UNL     1      90.772  96.889 -43.427  1.00  0.00    -0.311 N 
ATOM     25  H5  UNL     1      89.780  96.703 -43.284  1.00  0.00     0.170 HD
BRANCH  24  26
HETATM   26  C14 UNL     1      91.248  95.832 -43.128  1.00  0.00     0.107 A 
HETATM   27  C15 UNL     1      91.423  94.874 -44.145  1.00  0.00     0.048 A 
HETATM   28  C16 UNL     1      91.912  93.648 -43.834  1.00  0.00     0.005 A 
HETATM   29  C17 UNL     1      92.226  93.370 -42.539  1.00  0.00     0.017 A 
HETATM   30  C18 UNL     1      92.071  94.279 -41.519  1.00  0.00     0.089 A 
HETATM   31  N6  UNL     1      91.591  95.476 -41.837  1.00  0.00    -0.352 N 
ATOM     32  H6  UNL     1      91.470  96.165 -41.094  1.00  0.00     0.166 HD
ENDBRANCH  24  26
ENDBRANCH   1  22
TORSDOF 7
ENDMDL
MODEL 5
REMARK VINA RESULT: -6.279024332      3.405      6.123
REMARK  7 active torsions:
REMARK  status: ('A' for Active; 'I' for Inactive)
REMARK    1  A    between atoms: S1_2  and  C2_3 
REMARK    2  A    between atoms: C2_3  and  C3_4 
REMARK    3  A    between atoms: C3_4  and  C4_5 
REMARK    4  A    between atoms: N1_12  and  C10_14 
REMARK    5  A    between atoms: C10_14  and  C11_15 
REMARK    6  A    between atoms: C10_14  and  C13_22 
REMARK       I    between atoms: C11_15  and  N2_17 
REMARK       I    between atoms: C13_22  and  N5_24 
REMARK    7  A    between atoms: N5_24  and  C14_26 
ROOT
HETATM    1  C10 UNL     1      90.609  97.928 -42.778  1.00  0.00     0.268 C 
ENDROOT
BRANCH   1   2
HETATM    2  N1  UNL     1      91.292  98.500 -43.996  1.00  0.00    -0.364 N 
HETATM    3  C2  UNL     1      90.602  98.761 -45.057  1.00  0.00     0.067 C 
ATOM      4  H1  UNL     1      92.296  98.681 -43.981  1.00  0.00     0.161 HD
BRANCH   3   5
HETATM    5  S1  UNL     1      90.167  96.679 -45.394  1.00  0.00    -0.117 SA
HETATM    6  C1  UNL     1      90.845  95.472 -45.611  1.00  0.00     0.097 C 
ENDBRANCH   3   5
BRANCH   3   7
HETATM    7  C3  UNL     1      89.835  99.040 -46.210  1.00  0.00     0.048 C 
BRANCH   7   8
HETATM    8  C4  UNL     1      88.696  99.949 -45.857  1.00  0.00    -0.034 A 
HETATM    9  C5  UNL     1      88.885 101.255 -45.471  1.00  0.00     0.013 A 
HETATM   10  C6  UNL     1      87.832 102.063 -45.123  1.00  0.00     0.020 A 
HETATM   11  C7  UNL     1      86.575 101.475 -45.190  1.00  0.00     0.011 A 
HETATM   12 BR1  UNL     1      85.103 102.597 -44.742  1.00  0.00    -0.051 Br
HETATM   13  C8  UNL     1      86.337 100.180 -45.568  1.00  0.00     0.020 A 
HETATM   14  C9  UNL     1      87.415  99.398 -45.908  1.00  0.00     0.013 A 
ENDBRANCH   7   8
ENDBRANCH   3   7
ENDBRANCH   1   2
BRANCH   1  15
HETATM   15  C11 UNL     1      91.460  97.225 -41.841  1.00  0.00     0.256 C 
HETATM   16  O1  UNL     1      92.265  97.796 -41.083  1.00  0.00    -0.270 OA
HETATM   17  N2  UNL     1      91.350  95.822 -41.829  1.00  0.00    -0.301 N 
HETATM   18  C12 UNL     1      91.865  94.775 -41.599  1.00  0.00     0.203 C 
ATOM     19  H2  UNL     1      90.413  95.609 -42.169  1.00  0.00     0.171 HD
HETATM   20  N3  UNL     1      93.183  94.621 -41.086  1.00  0.00    -0.066 NA
HETATM   21  N4  UNL     1      91.248  93.493 -41.955  1.00  0.00    -0.066 NA
ENDBRANCH   1  15
BRANCH   1  22
HETATM   22  C13 UNL     1      90.080  99.309 -42.284  1.00  0.00     0.255 C 
HETATM   23  O2  UNL     1      88.796  99.430 -42.365  1.00  0.00    -0.270 OA
HETATM   24  N5  UNL     1      90.805 100.307 -41.834  1.00  0.00    -0.311 N 
ATOM     25  H5  UNL     1      91.139 100.715 -42.707  1.00  0.00     0.170 HD
BRANCH  24  26
HETATM   26  C14 UNL     1      91.317 101.034 -41.032  1.00  0.00     0.107 A 
HETATM   27  C15 UNL     1      90.530 102.062 -40.476  1.00  0.00     0.048 A 
HETATM   28  C16 UNL     1      91.090 102.936 -39.603  1.00  0.00     0.005 A 
HETATM   29  C17 UNL     1      92.405 102.798 -39.281  1.00  0.00     0.017 A 
HETATM   30  C18 UNL     1      93.205 101.808 -39.801  1.00  0.00     0.089 A 
HETATM   31  N6  UNL     1      92.644 100.958 -40.655  1.00  0.00    -0.352 N 
ATOM     32  H6  UNL     1      93.220 100.216 -41.051  1.00  0.00     0.166 HD
ENDBRANCH  24  26
ENDBRANCH   1  22
TORSDOF 7
ENDMDL
