MODEL 1
REMARK VINA RESULT: -6.735110716      0.000      0.000
REMARK  8 active torsions:
REMARK  status: ('A' for Active; 'I' for Inactive)
REMARK       I    between atoms: C1_4  and  N3_6 
REMARK       I    between atoms: N3_6  and  C2_7 
REMARK    1  A    between atoms: C2_7  and  C3_9 
REMARK    2  A    between atoms: C6_12  and  C7_13 
REMARK    3  A    between atoms: N4_16  and  C10_17 
REMARK    4  A    between atoms: C10_17  and  C11_18 
REMARK    5  A    between atoms: C11_18  and  N5_19 
REMARK    6  A    between atoms: C11_18  and  C12_23 
REMARK    7  A    between atoms: N6_27  and  C16_28 
REMARK    8  A    between atoms: C16_28  and  C17_29 
ROOT
HETATM    1  C7  UNL     1      90.968  96.784 -44.045  1.00  0.00     0.045 A 
HETATM    2  C8  UNL     1      90.838  97.943 -44.775  1.00  0.00     0.037 A 
HETATM    3  C9  UNL     1      90.734  99.114 -44.045  1.00  0.00     0.111 A 
HETATM    4  N4  UNL     1      90.750  99.180 -42.703  1.00  0.00    -0.298 N 
HETATM    5  N7  UNL     1      90.878  98.031 -42.044  1.00  0.00    -0.264 N 
ATOM      6  H7  UNL     1      90.896  98.048 -41.025  1.00  0.00     0.190 HD
HETATM    7  C24 UNL     1      90.987  96.840 -42.680  1.00  0.00     0.271 A 
HETATM    8  O2  UNL     1      91.107  95.783 -41.959  1.00  0.00    -0.266 OA
ENDROOT
BRANCH   4   9
HETATM    9  C10 UNL     1      90.619 100.465 -42.021  1.00  0.00     0.186 C 
BRANCH   9  10
HETATM   10  C11 UNL     1      90.229 101.551 -42.993  1.00  0.00     0.237 C 
BRANCH  10  11
HETATM   11  N5  UNL     1      90.876 102.816 -42.650  1.00  0.00    -0.069 N 
ATOM     12  H53 UNL     1      90.242 103.440 -42.151  1.00  0.00     0.275 HD
ATOM     13  H52 UNL     1      91.578 102.694 -41.919  1.00  0.00     0.275 HD
ATOM     14  H51 UNL     1      91.268 103.260 -43.479  1.00  0.00     0.275 HD
ENDBRANCH  10  11
BRANCH  10  15
HETATM   15  C12 UNL     1      88.747 101.781 -42.979  1.00  0.00    -0.011 A 
HETATM   16  C13 UNL     1      88.298 103.052 -42.602  1.00  0.00     0.012 A 
HETATM   17  C14 UNL     1      86.949 103.271 -42.603  1.00  0.00     0.018 A 
HETATM   18  C15 UNL     1      86.080 102.278 -42.960  1.00  0.00     0.090 A 
HETATM   19  N6  UNL     1      86.495 101.042 -43.328  1.00  0.00    -0.362 N 
HETATM   20  C23 UNL     1      87.819 100.835 -43.325  1.00  0.00     0.100 A 
BRANCH  19  21
HETATM   21  C16 UNL     1      85.493 100.069 -43.702  1.00  0.00     0.166 C 
BRANCH  21  22
HETATM   22  C17 UNL     1      86.009  99.236 -44.817  1.00  0.00    -0.040 A 
HETATM   23  C18 UNL     1      85.872  99.612 -46.134  1.00  0.00     0.010 A 
HETATM   24  C19 UNL     1      86.344  98.835 -47.177  1.00  0.00     0.019 A 
HETATM   25  C20 UNL     1      86.978  97.637 -46.940  1.00  0.00     0.011 A 
HETATM   26 BR1  UNL     1      87.627  96.544 -48.369  1.00  0.00    -0.051 Br
HETATM   27  C21 UNL     1      87.120  97.257 -45.619  1.00  0.00     0.019 A 
HETATM   28  C22 UNL     1      86.647  98.034 -44.584  1.00  0.00     0.010 A 
ENDBRANCH  21  22
ENDBRANCH  19  21
ENDBRANCH  10  15
ENDBRANCH   9  10
ENDBRANCH   4   9
BRANCH   1  29
HETATM   29  C6  UNL     1      91.057  95.515 -44.764  1.00  0.00    -0.020 A 
HETATM   30  C5  UNL     1      90.495  95.443 -46.014  1.00  0.00     0.013 A 
HETATM   31  C4  UNL     1      90.603  94.227 -46.703  1.00  0.00     0.019 A 
HETATM   32  C3  UNL     1      91.240  93.145 -46.160  1.00  0.00     0.046 A 
HETATM   33  C26 UNL     1      91.782  93.273 -44.909  1.00  0.00     0.019 A 
HETATM   34  C25 UNL     1      91.703  94.453 -44.186  1.00  0.00     0.013 A 
BRANCH  32  35
HETATM   35  C2  UNL     1      91.337  91.856 -46.929  1.00  0.00     0.328 C 
HETATM   36  N3  UNL     1      90.783  91.700 -48.135  1.00  0.00    -0.334 NA
HETATM   37  C1  UNL     1      90.213  91.540 -49.375  1.00  0.00     0.264 C 
HETATM   38  N1  UNL     1      89.556  92.624 -49.826  1.00  0.00    -0.362 N 
HETATM   39  N2  UNL     1      90.222  90.409 -50.227  1.00  0.00    -0.049 NA
ATOM     40  H12 UNL     1      89.133  92.506 -50.746  1.00  0.00     0.159 HD
ATOM     41  H11 UNL     1      89.549  93.439 -49.213  1.00  0.00     0.159 HD
HETATM   42  O1  UNL     1      92.004  90.992 -46.263  1.00  0.00    -0.251 OA
ENDBRANCH  32  35
ENDBRANCH   1  29
TORSDOF 8
ENDMDL
MODEL 2
REMARK VINA RESULT: -6.696603838      3.948      6.176
REMARK  8 active torsions:
REMARK  status: ('A' for Active; 'I' for Inactive)
REMARK       I    between atoms: C1_4  and  N3_6 
REMARK       I    between atoms: N3_6  and  C2_7 
REMARK    1  A    between atoms: C2_7  and  C3_9 
REMARK    2  A    between atoms: C6_12  and  C7_13 
REMARK    3  A    between atoms: N4_16  and  C10_17 
REMARK    4  A    between atoms: C10_17  and  C11_18 
REMARK    5  A    between atoms: C11_18  and  N5_19 
REMARK    6  A    between atoms: C11_18  and  C12_23 
REMARK    7  A    between atoms: N6_27  and  C16_28 
REMARK    8  A    between atoms: C16_28  and  C17_29 
ROOT
HETATM    1  C7  UNL     1      87.712  96.019 -49.341  1.00  0.00     0.045 A 
HETATM    2  C8  UNL     1      86.432  96.417 -49.647  1.00  0.00     0.037 A 
HETATM    3  C9  UNL     1      85.703  96.974 -48.610  1.00  0.00     0.111 A 
HETATM    4  N4  UNL     1      86.162  97.140 -47.359  1.00  0.00    -0.298 N 
HETATM    5  N7  UNL     1      87.407  96.740 -47.115  1.00  0.00    -0.264 N 
ATOM      6  H7  UNL     1      87.786  96.854 -46.175  1.00  0.00     0.190 HD
HETATM    7  C24 UNL     1      88.190  96.185 -48.072  1.00  0.00     0.271 A 
HETATM    8  O2  UNL     1      89.380  95.829 -47.742  1.00  0.00    -0.266 OA
ENDROOT
BRANCH   4   9
HETATM    9  C10 UNL     1      85.310  97.726 -46.327  1.00  0.00     0.186 C 
BRANCH   9  10
HETATM   10  C11 UNL     1      85.735  97.268 -44.954  1.00  0.00     0.237 C 
BRANCH  10  11
HETATM   11  N5  UNL     1      84.584  97.157 -44.061  1.00  0.00    -0.069 N 
ATOM     12  H53 UNL     1      83.719  97.002 -44.579  1.00  0.00     0.275 HD
ATOM     13  H52 UNL     1      84.603  96.288 -43.528  1.00  0.00     0.275 HD
ATOM     14  H51 UNL     1      84.517  97.972 -43.452  1.00  0.00     0.275 HD
ENDBRANCH  10  11
BRANCH  10  15
HETATM   15  C12 UNL     1      86.697  98.238 -44.336  1.00  0.00    -0.011 A 
HETATM   16  C13 UNL     1      86.155  99.322 -43.636  1.00  0.00     0.012 A 
HETATM   17  C14 UNL     1      87.029 100.200 -43.057  1.00  0.00     0.018 A 
HETATM   18  C15 UNL     1      88.379 100.016 -43.165  1.00  0.00     0.090 A 
HETATM   19  N6  UNL     1      88.922  98.974 -43.838  1.00  0.00    -0.362 N 
HETATM   20  C23 UNL     1      88.061  98.117 -44.402  1.00  0.00     0.100 A 
BRANCH  19  21
HETATM   21  C16 UNL     1      90.363  98.865 -43.878  1.00  0.00     0.166 C 
BRANCH  21  22
HETATM   22  C17 UNL     1      90.766  97.510 -43.425  1.00  0.00    -0.040 A 
HETATM   23  C18 UNL     1      91.031  97.230 -42.104  1.00  0.00     0.010 A 
HETATM   24  C19 UNL     1      91.415  95.970 -41.679  1.00  0.00     0.019 A 
HETATM   25  C20 UNL     1      91.551  94.930 -42.569  1.00  0.00     0.011 A 
HETATM   26 BR1  UNL     1      92.092  93.185 -42.002  1.00  0.00    -0.051 Br
HETATM   27  C21 UNL     1      91.285  95.207 -43.897  1.00  0.00     0.019 A 
HETATM   28  C22 UNL     1      90.904  96.463 -44.316  1.00  0.00     0.010 A 
ENDBRANCH  21  22
ENDBRANCH  19  21
ENDBRANCH  10  15
ENDBRANCH   9  10
ENDBRANCH   4   9
BRANCH   1  29
HETATM   29  C6  UNL     1      88.519  95.402 -50.391  1.00  0.00    -0.020 A 
HETATM   30  C5  UNL     1      89.257  96.226 -51.204  1.00  0.00     0.013 A 
HETATM   31  C4  UNL     1      90.042  95.622 -52.196  1.00  0.00     0.019 A 
HETATM   32  C3  UNL     1      90.079  94.264 -52.359  1.00  0.00     0.046 A 
HETATM   33  C26 UNL     1      89.323  93.490 -51.520  1.00  0.00     0.019 A 
HETATM   34  C25 UNL     1      88.530  94.037 -50.523  1.00  0.00     0.013 A 
BRANCH  32  35
HETATM   35  C2  UNL     1      90.935  93.652 -53.433  1.00  0.00     0.328 C 
HETATM   36  N3  UNL     1      92.270  93.717 -53.408  1.00  0.00    -0.334 NA
HETATM   37  C1  UNL     1      93.642  93.784 -53.382  1.00  0.00     0.264 C 
HETATM   38  N1  UNL     1      94.143  94.452 -52.327  1.00  0.00    -0.362 N 
HETATM   39  N2  UNL     1      94.584  93.256 -54.298  1.00  0.00    -0.049 NA
ATOM     40  H12 UNL     1      95.161  94.503 -52.307  1.00  0.00     0.159 HD
ATOM     41  H11 UNL     1      93.465  94.833 -51.667  1.00  0.00     0.159 HD
HETATM   42  O1  UNL     1      90.202  93.093 -54.319  1.00  0.00    -0.251 OA
ENDBRANCH  32  35
ENDBRANCH   1  29
TORSDOF 8
ENDMDL
MODEL 3
REMARK VINA RESULT: -6.654622203      4.280      8.946
REMARK  8 active torsions:
REMARK  status: ('A' for Active; 'I' for Inactive)
REMARK       I    between atoms: C1_4  and  N3_6 
REMARK       I    between atoms: N3_6  and  C2_7 
REMARK    1  A    between atoms: C2_7  and  C3_9 
REMARK    2  A    between atoms: C6_12  and  C7_13 
REMARK    3  A    between atoms: N4_16  and  C10_17 
REMARK    4  A    between atoms: C10_17  and  C11_18 
REMARK    5  A    between atoms: C11_18  and  N5_19 
REMARK    6  A    between atoms: C11_18  and  C12_23 
REMARK    7  A    between atoms: N6_27  and  C16_28 
REMARK    8  A    between atoms: C16_28  and  C17_29 
ROOT
HETATM    1  C7  UNL     1      88.889 101.753 -42.272  1.00  0.00     0.045 A 
HETATM    2  C8  UNL     1      88.076 100.686 -41.969  1.00  0.00     0.037 A 
HETATM    3  C9  UNL     1      86.878 100.617 -42.660  1.00  0.00     0.111 A 
HETATM    4  N4  UNL     1      86.477 101.510 -43.581  1.00  0.00    -0.298 N 
HETATM    5  N7  UNL     1      87.300 102.522 -43.838  1.00  0.00    -0.264 N 
ATOM      6  H7  UNL     1      87.026 103.215 -44.534  1.00  0.00     0.190 HD
HETATM    7  C24 UNL     1      88.492 102.665 -43.208  1.00  0.00     0.271 A 
HETATM    8  O2  UNL     1      89.220 103.675 -43.523  1.00  0.00    -0.266 OA
ENDROOT
BRANCH   4   9
HETATM    9  C10 UNL     1      85.186 101.359 -44.247  1.00  0.00     0.186 C 
BRANCH   9  10
HETATM   10  C11 UNL     1      85.370 101.034 -45.708  1.00  0.00     0.237 C 
BRANCH  10  11
HETATM   11  N5  UNL     1      84.084 100.994 -46.400  1.00  0.00    -0.069 N 
ATOM     12  H53 UNL     1      83.324 101.317 -45.802  1.00  0.00     0.275 HD
ATOM     13  H52 UNL     1      84.023 101.708 -47.126  1.00  0.00     0.275 HD
ATOM     14  H51 UNL     1      83.900 100.062 -46.772  1.00  0.00     0.275 HD
ENDBRANCH  10  11
BRANCH  10  15
HETATM   15  C12 UNL     1      86.023  99.696 -45.885  1.00  0.00    -0.011 A 
HETATM   16  C13 UNL     1      85.188  98.572 -45.901  1.00  0.00     0.012 A 
HETATM   17  C14 UNL     1      85.777  97.351 -46.078  1.00  0.00     0.018 A 
HETATM   18  C15 UNL     1      87.131  97.244 -46.232  1.00  0.00     0.090 A 
HETATM   19  N6  UNL     1      87.955  98.320 -46.220  1.00  0.00    -0.362 N 
HETATM   20  C23 UNL     1      87.371  99.513 -46.046  1.00  0.00     0.100 A 
BRANCH  19  21
HETATM   21  C16 UNL     1      89.371  98.096 -46.407  1.00  0.00     0.166 C 
BRANCH  21  22
HETATM   22  C17 UNL     1      89.954  97.559 -45.152  1.00  0.00    -0.040 A 
HETATM   23  C18 UNL     1      89.987  98.294 -43.989  1.00  0.00     0.010 A 
HETATM   24  C19 UNL     1      90.537  97.800 -42.819  1.00  0.00     0.019 A 
HETATM   25  C20 UNL     1      91.081  96.538 -42.767  1.00  0.00     0.011 A 
HETATM   26 BR1  UNL     1      91.856  95.842 -41.163  1.00  0.00    -0.051 Br
HETATM   27  C21 UNL     1      91.048  95.796 -43.932  1.00  0.00     0.019 A 
HETATM   28  C22 UNL     1      90.501  96.293 -45.096  1.00  0.00     0.010 A 
ENDBRANCH  21  22
ENDBRANCH  19  21
ENDBRANCH  10  15
ENDBRANCH   9  10
ENDBRANCH   4   9
BRANCH   1  29
HETATM   29  C6  UNL     1      90.155 101.889 -41.555  1.00  0.00    -0.020 A 
HETATM   30  C5  UNL     1      90.155 102.595 -40.378  1.00  0.00     0.013 A 
HETATM   31  C4  UNL     1      91.371 102.703 -39.689  1.00  0.00     0.019 A 
HETATM   32  C3  UNL     1      92.520 102.132 -40.161  1.00  0.00     0.046 A 
HETATM   33  C26 UNL     1      92.463 101.439 -41.341  1.00  0.00     0.019 A 
HETATM   34  C25 UNL     1      91.286 101.302 -42.061  1.00  0.00     0.013 A 
BRANCH  32  35
HETATM   35  C2  UNL     1      93.807 102.268 -39.393  1.00  0.00     0.328 C 
HETATM   36  N3  UNL     1      93.845 102.728 -38.139  1.00  0.00    -0.334 NA
HETATM   37  C1  UNL     1      93.884 103.201 -36.849  1.00  0.00     0.264 C 
HETATM   38  N1  UNL     1      92.683 103.541 -36.348  1.00  0.00    -0.362 N 
HETATM   39  N2  UNL     1      94.997 103.378 -35.992  1.00  0.00    -0.049 NA
ATOM     40  H12 UNL     1      92.711 103.893 -35.392  1.00  0.00     0.159 HD
ATOM     41  H11 UNL     1      91.881 103.415 -36.965  1.00  0.00     0.159 HD
HETATM   42  O1  UNL     1      94.794 101.887 -40.111  1.00  0.00    -0.251 OA
ENDBRANCH  32  35
ENDBRANCH   1  29
TORSDOF 8
ENDMDL
MODEL 4
REMARK VINA RESULT: -6.642336084      2.528      3.843
REMARK  8 active torsions:
REMARK  status: ('A' for Active; 'I' for Inactive)
REMARK       I    between atoms: C1_4  and  N3_6 
REMARK       I    between atoms: N3_6  and  C2_7 
REMARK    1  A    between atoms: C2_7  and  C3_9 
REMARK    2  A    between atoms: C6_12  and  C7_13 
REMARK    3  A    between atoms: N4_16  and  C10_17 
REMARK    4  A    between atoms: C10_17  and  C11_18 
REMARK    5  A    between atoms: C11_18  and  N5_19 
REMARK    6  A    between atoms: C11_18  and  C12_23 
REMARK    7  A    between atoms: N6_27  and  C16_28 
REMARK    8  A    between atoms: C16_28  and  C17_29 
ROOT
HETATM    1  C7  UNL     1      90.080 100.045 -42.953  1.00  0.00     0.045 A 
HETATM    2  C8  UNL     1      91.151 100.907 -43.006  1.00  0.00     0.037 A 
HETATM    3  C9  UNL     1      91.055 102.046 -42.226  1.00  0.00     0.111 A 
HETATM    4  N4  UNL     1      90.004 102.349 -41.444  1.00  0.00    -0.298 N 
HETATM    5  N7  UNL     1      88.996 101.482 -41.427  1.00  0.00    -0.264 N 
ATOM      6  H7  UNL     1      88.185 101.683 -40.842  1.00  0.00     0.190 HD
HETATM    7  C24 UNL     1      89.008 100.342 -42.160  1.00  0.00     0.271 A 
HETATM    8  O2  UNL     1      87.987  99.566 -42.079  1.00  0.00    -0.266 OA
ENDROOT
BRANCH   4   9
HETATM    9  C10 UNL     1      89.990 103.586 -40.667  1.00  0.00     0.186 C 
BRANCH   9  10
HETATM   10  C11 UNL     1      89.576 104.755 -41.524  1.00  0.00     0.237 C 
BRANCH  10  11
HETATM   11  N5  UNL     1      90.033 106.016 -40.945  1.00  0.00    -0.069 N 
ATOM     12  H53 UNL     1      89.262 106.667 -40.802  1.00  0.00     0.275 HD
ATOM     13  H52 UNL     1      90.320 105.901 -39.972  1.00  0.00     0.275 HD
ATOM     14  H51 UNL     1      90.775 106.428 -41.510  1.00  0.00     0.275 HD
ENDBRANCH  10  11
BRANCH  10  15
HETATM   15  C12 UNL     1      88.084 104.829 -41.650  1.00  0.00    -0.011 A 
HETATM   16  C13 UNL     1      87.377 105.402 -40.586  1.00  0.00     0.012 A 
HETATM   17  C14 UNL     1      86.017 105.486 -40.704  1.00  0.00     0.018 A 
HETATM   18  C15 UNL     1      85.382 105.024 -41.823  1.00  0.00     0.090 A 
HETATM   19  N6  UNL     1      86.049 104.467 -42.862  1.00  0.00    -0.362 N 
HETATM   20  C23 UNL     1      87.380 104.388 -42.741  1.00  0.00     0.100 A 
BRANCH  19  21
HETATM   21  C16 UNL     1      85.282 104.025 -44.005  1.00  0.00     0.166 C 
BRANCH  21  22
HETATM   22  C17 UNL     1      85.401 102.551 -44.137  1.00  0.00    -0.040 A 
HETATM   23  C18 UNL     1      86.191 101.965 -45.100  1.00  0.00     0.010 A 
HETATM   24  C19 UNL     1      86.298 100.592 -45.231  1.00  0.00     0.019 A 
HETATM   25  C20 UNL     1      85.613  99.742 -44.394  1.00  0.00     0.011 A 
HETATM   26 BR1  UNL     1      85.740  97.841 -44.568  1.00  0.00    -0.051 Br
HETATM   27  C21 UNL     1      84.821 100.326 -43.425  1.00  0.00     0.019 A 
HETATM   28  C22 UNL     1      84.715 101.694 -43.299  1.00  0.00     0.010 A 
ENDBRANCH  21  22
ENDBRANCH  19  21
ENDBRANCH  10  15
ENDBRANCH   9  10
ENDBRANCH   4   9
BRANCH   1  29
HETATM   29  C6  UNL     1      90.116  98.839 -43.775  1.00  0.00    -0.020 A 
HETATM   30  C5  UNL     1      89.459  98.861 -44.980  1.00  0.00     0.013 A 
HETATM   31  C4  UNL     1      89.516  97.704 -45.770  1.00  0.00     0.019 A 
HETATM   32  C3  UNL     1      90.196  96.589 -45.366  1.00  0.00     0.046 A 
HETATM   33  C26 UNL     1      90.834  96.621 -44.155  1.00  0.00     0.019 A 
HETATM   34  C25 UNL     1      90.808  97.739 -43.336  1.00  0.00     0.013 A 
BRANCH  32  35
HETATM   35  C2  UNL     1      90.237  95.366 -46.242  1.00  0.00     0.328 C 
HETATM   36  N3  UNL     1      90.842  94.235 -45.862  1.00  0.00    -0.334 NA
HETATM   37  C1  UNL     1      91.463  93.074 -45.473  1.00  0.00     0.264 C 
HETATM   38  N1  UNL     1      92.037  93.135 -44.257  1.00  0.00    -0.362 N 
HETATM   39  N2  UNL     1      91.581  91.844 -46.164  1.00  0.00    -0.049 NA
ATOM     40  H12 UNL     1      92.499  92.273 -43.968  1.00  0.00     0.159 HD
ATOM     41  H11 UNL     1      91.953  94.020 -43.759  1.00  0.00     0.159 HD
HETATM   42  O1  UNL     1      89.628  95.588 -47.343  1.00  0.00    -0.251 OA
ENDBRANCH  32  35
ENDBRANCH   1  29
TORSDOF 8
ENDMDL
MODEL 5
REMARK VINA RESULT: -6.592520611      4.281      6.570
REMARK  8 active torsions:
REMARK  status: ('A' for Active; 'I' for Inactive)
REMARK       I    between atoms: C1_4  and  N3_6 
REMARK       I    between atoms: N3_6  and  C2_7 
REMARK    1  A    between atoms: C2_7  and  C3_9 
REMARK    2  A    between atoms: C6_12  and  C7_13 
REMARK    3  A    between atoms: N4_16  and  C10_17 
REMARK    4  A    between atoms: C10_17  and  C11_18 
REMARK    5  A    between atoms: C11_18  and  N5_19 
REMARK    6  A    between atoms: C11_18  and  C12_23 
REMARK    7  A    between atoms: N6_27  and  C16_28 
REMARK    8  A    between atoms: C16_28  and  C17_29 
ROOT
HETATM    1  C7  UNL     1      90.793  97.550 -44.348  1.00  0.00     0.045 A 
HETATM    2  C8  UNL     1      89.949  97.825 -43.298  1.00  0.00     0.037 A 
HETATM    3  C9  UNL     1      89.853  99.156 -42.927  1.00  0.00     0.111 A 
HETATM    4  N4  UNL     1      90.521 100.162 -43.517  1.00  0.00    -0.298 N 
HETATM    5  N7  UNL     1      91.323  99.842 -44.529  1.00  0.00    -0.264 N 
ATOM      6  H7  UNL     1      91.841 100.584 -44.999  1.00  0.00     0.190 HD
HETATM    7  C24 UNL     1      91.474  98.565 -44.957  1.00  0.00     0.271 A 
HETATM    8  O2  UNL     1      92.271  98.353 -45.942  1.00  0.00    -0.266 OA
ENDROOT
BRANCH   4   9
HETATM    9  C10 UNL     1      90.364 101.535 -43.043  1.00  0.00     0.186 C 
BRANCH   9  10
HETATM   10  C11 UNL     1      90.306 101.580 -41.536  1.00  0.00     0.237 C 
BRANCH  10  11
HETATM   11  N5  UNL     1      89.278 102.513 -41.082  1.00  0.00    -0.069 N 
ATOM     12  H53 UNL     1      89.686 103.339 -40.644  1.00  0.00     0.275 HD
ATOM     13  H52 UNL     1      88.809 102.969 -41.865  1.00  0.00     0.275 HD
ATOM     14  H51 UNL     1      88.613 102.048 -40.463  1.00  0.00     0.275 HD
ENDBRANCH  10  11
BRANCH  10  15
HETATM   15  C12 UNL     1      91.614 102.030 -40.960  1.00  0.00    -0.011 A 
HETATM   16  C13 UNL     1      92.381 101.074 -40.283  1.00  0.00     0.012 A 
HETATM   17  C14 UNL     1      93.582 101.477 -39.769  1.00  0.00     0.018 A 
HETATM   18  C15 UNL     1      94.008 102.767 -39.916  1.00  0.00     0.090 A 
HETATM   19  N6  UNL     1      93.281 103.706 -40.568  1.00  0.00    -0.362 N 
HETATM   20  C23 UNL     1      92.105 103.305 -41.069  1.00  0.00     0.100 A 
BRANCH  19  21
HETATM   21  C16 UNL     1      93.831 105.038 -40.679  1.00  0.00     0.166 C 
BRANCH  21  22
HETATM   22  C17 UNL     1      95.039 105.000 -41.541  1.00  0.00    -0.040 A 
HETATM   23  C18 UNL     1      96.278 105.384 -41.080  1.00  0.00     0.010 A 
HETATM   24  C19 UNL     1      97.405 105.357 -41.883  1.00  0.00     0.019 A 
HETATM   25  C20 UNL     1      97.335 104.943 -43.193  1.00  0.00     0.011 A 
HETATM   26 BR1  UNL     1      98.880 104.911 -44.321  1.00  0.00    -0.051 Br
HETATM   27  C21 UNL     1      96.093 104.556 -43.659  1.00  0.00     0.019 A 
HETATM   28  C22 UNL     1      94.973 104.584 -42.856  1.00  0.00     0.010 A 
ENDBRANCH  21  22
ENDBRANCH  19  21
ENDBRANCH  10  15
ENDBRANCH   9  10
ENDBRANCH   4   9
BRANCH   1  29
HETATM   29  C6  UNL     1      90.951  96.159 -44.767  1.00  0.00    -0.020 A 
HETATM   30  C5  UNL     1      90.504  95.807 -46.016  1.00  0.00     0.013 A 
HETATM   31  C4  UNL     1      90.679  94.475 -46.414  1.00  0.00     0.019 A 
HETATM   32  C3  UNL     1      91.269  93.550 -45.598  1.00  0.00     0.046 A 
HETATM   33  C26 UNL     1      91.697  93.955 -44.362  1.00  0.00     0.019 A 
HETATM   34  C25 UNL     1      91.548  95.260 -43.920  1.00  0.00     0.013 A 
BRANCH  32  35
HETATM   35  C2  UNL     1      91.441  92.129 -46.060  1.00  0.00     0.328 C 
HETATM   36  N3  UNL     1      91.099  91.731 -47.290  1.00  0.00    -0.334 NA
HETATM   37  C1  UNL     1      90.748  91.322 -48.554  1.00  0.00     0.264 C 
HETATM   38  N1  UNL     1      90.229  92.295 -49.325  1.00  0.00    -0.362 N 
HETATM   39  N2  UNL     1      90.854  90.039 -49.144  1.00  0.00    -0.049 NA
ATOM     40  H12 UNL     1      89.967  91.992 -50.263  1.00  0.00     0.159 HD
ATOM     41  H11 UNL     1      90.152  93.219 -48.901  1.00  0.00     0.159 HD
HETATM   42  O1  UNL     1      91.941  91.416 -45.125  1.00  0.00    -0.251 OA
ENDBRANCH  32  35
ENDBRANCH   1  29
TORSDOF 8
ENDMDL
