MODEL 1
REMARK VINA RESULT: -7.051240354      0.000      0.000
REMARK  9 active torsions:
REMARK  status: ('A' for Active; 'I' for Inactive)
REMARK    1  A    between atoms: C3_3  and  S1_4 
REMARK    2  A    between atoms: C8_10  and  S2_11 
REMARK    3  A    between atoms: S2_11  and  N1_14 
REMARK    4  A    between atoms: N1_14  and  C9_16 
REMARK    5  A    between atoms: C10_19  and  C11_20 
REMARK    6  A    between atoms: C11_20  and  C12_21 
REMARK    7  A    between atoms: C12_21  and  C13_22 
REMARK    8  A    between atoms: C17_29  and  C18_30 
REMARK    9  A    between atoms: C22_36  and  N5_37 
ROOT
HETATM    1  C9  UNL     1      91.082  99.592 -44.783  1.00  0.00     0.160 A 
HETATM    2  N2  UNL     1      90.076 100.316 -44.299  1.00  0.00    -0.337 N 
ATOM      3  H2  UNL     1      89.142 100.114 -44.654  1.00  0.00     0.167 HD
HETATM    4  C10 UNL     1      90.191 101.307 -43.362  1.00  0.00     0.057 A 
HETATM    5  C17 UNL     1      91.455 101.579 -42.882  1.00  0.00     0.060 A 
HETATM    6  N4  UNL     1      92.514 100.831 -43.380  1.00  0.00    -0.338 N 
ATOM      7  H4  UNL     1      93.457 101.016 -43.038  1.00  0.00     0.167 HD
HETATM    8  C22 UNL     1      92.328  99.872 -44.299  1.00  0.00     0.145 A 
ENDROOT
BRANCH   1   9
HETATM    9  N1  UNL     1      90.986  98.660 -45.647  1.00  0.00    -0.263 N 
ATOM     10  H1  UNL     1      91.698  98.646 -46.378  1.00  0.00     0.180 HD
BRANCH   9  11
HETATM   11  S2  UNL     1      89.800  97.435 -45.719  1.00  0.00     0.264 S 
HETATM   12  O2  UNL     1      89.244  97.300 -47.108  1.00  0.00    -0.200 OA
HETATM   13  O3  UNL     1      88.687  97.801 -44.780  1.00  0.00    -0.200 OA
BRANCH  11  14
HETATM   14  C8  UNL     1      90.534  95.921 -45.224  1.00  0.00     0.087 A 
HETATM   15  C2  UNL     1      90.981  95.825 -43.909  1.00  0.00    -0.020 A 
HETATM   16  C1  UNL     1      90.835  96.965 -42.976  1.00  0.00     0.051 C 
HETATM   17  C3  UNL     1      91.556  94.629 -43.533  1.00  0.00     0.038 A 
HETATM   18  C5  UNL     1      91.697  93.557 -44.396  1.00  0.00     0.021 A 
HETATM   19  C6  UNL     1      91.240  93.693 -45.694  1.00  0.00     0.003 A 
HETATM   20  C7  UNL     1      90.661  94.884 -46.091  1.00  0.00     0.026 A 
BRANCH  17  21
HETATM   21  S1  UNL     1      92.118  94.527 -41.858  1.00  0.00     0.046 S 
HETATM   22  C4  UNL     1      93.171  93.096 -41.663  1.00  0.00     0.133 C 
HETATM   23  O1  UNL     1      90.764  94.392 -40.880  1.00  0.00    -0.253 OA
ENDBRANCH  17  21
ENDBRANCH  11  14
ENDBRANCH   9  11
ENDBRANCH   1   9
BRANCH   8  24
HETATM   24  N5  UNL     1      93.356  99.227 -44.708  1.00  0.00    -0.382 N 
ATOM     25  H52 UNL     1      93.270  98.217 -44.827  1.00  0.00     0.157 HD
ATOM     26  H51 UNL     1      94.233  99.708 -44.909  1.00  0.00     0.157 HD
ENDBRANCH   8  24
BRANCH   4  27
HETATM   27  C11 UNL     1      89.092 101.924 -42.979  1.00  0.00     0.011 C 
BRANCH  27  28
HETATM   28  C12 UNL     1      88.118 101.234 -42.103  1.00  0.00     0.086 C 
BRANCH  28  29
HETATM   29  C13 UNL     1      87.009 100.591 -42.833  1.00  0.00     0.013 A 
HETATM   30  C14 UNL     1      86.036 101.254 -43.531  1.00  0.00     0.028 A 
HETATM   31  C15 UNL     1      85.164 100.336 -44.088  1.00  0.00     0.039 A 
HETATM   32  C16 UNL     1      85.624  99.097 -43.715  1.00  0.00     0.080 A 
HETATM   33 BR1  UNL     1      84.786  97.447 -44.216  1.00  0.00    -0.031 Br
HETATM   34  N3  UNL     1      86.722  99.283 -42.970  1.00  0.00    -0.354 N 
ATOM     35  H3  UNL     1      87.271  98.529 -42.559  1.00  0.00     0.166 HD
ENDBRANCH  28  29
ENDBRANCH  27  28
ENDBRANCH   4  27
BRANCH   5  36
HETATM   36  C18 UNL     1      91.788 102.464 -42.000  1.00  0.00     0.034 C 
HETATM   37  C19 UNL     1      92.021 102.663 -40.592  1.00  0.00    -0.085 C 
HETATM   38  C20 UNL     1      90.823 102.621 -39.691  1.00  0.00     0.043 C 
HETATM   39  C21 UNL     1      93.217 102.031 -39.962  1.00  0.00     0.043 C 
ENDBRANCH   5  36
TORSDOF 9
ENDMDL
MODEL 2
REMARK VINA RESULT: -7.037238798      3.305      6.053
REMARK  9 active torsions:
REMARK  status: ('A' for Active; 'I' for Inactive)
REMARK    1  A    between atoms: C3_3  and  S1_4 
REMARK    2  A    between atoms: C8_10  and  S2_11 
REMARK    3  A    between atoms: S2_11  and  N1_14 
REMARK    4  A    between atoms: N1_14  and  C9_16 
REMARK    5  A    between atoms: C10_19  and  C11_20 
REMARK    6  A    between atoms: C11_20  and  C12_21 
REMARK    7  A    between atoms: C12_21  and  C13_22 
REMARK    8  A    between atoms: C17_29  and  C18_30 
REMARK    9  A    between atoms: C22_36  and  N5_37 
ROOT
HETATM    1  C9  UNL     1      87.782  98.349 -44.355  1.00  0.00     0.160 A 
HETATM    2  N2  UNL     1      87.208  97.629 -45.315  1.00  0.00    -0.337 N 
ATOM      3  H2  UNL     1      87.818  97.227 -46.026  1.00  0.00     0.167 HD
HETATM    4  C10 UNL     1      85.866  97.381 -45.427  1.00  0.00     0.057 A 
HETATM    5  C17 UNL     1      85.041  97.924 -44.464  1.00  0.00     0.060 A 
HETATM    6  N4  UNL     1      85.628  98.679 -43.457  1.00  0.00    -0.338 N 
ATOM      7  H4  UNL     1      85.035  99.089 -42.735  1.00  0.00     0.167 HD
HETATM    8  C22 UNL     1      86.952  98.882 -43.409  1.00  0.00     0.145 A 
ENDROOT
BRANCH   1   9
HETATM    9  N1  UNL     1      89.029  98.579 -44.235  1.00  0.00    -0.263 N 
ATOM     10  H1  UNL     1      89.316  99.094 -43.403  1.00  0.00     0.180 HD
BRANCH   9  11
HETATM   11  S2  UNL     1      90.273  98.122 -45.311  1.00  0.00     0.264 S 
HETATM   12  O2  UNL     1      91.473  99.012 -45.161  1.00  0.00    -0.200 OA
HETATM   13  O3  UNL     1      89.749  98.241 -46.713  1.00  0.00    -0.200 OA
BRANCH  11  14
HETATM   14  C8  UNL     1      90.719  96.461 -44.972  1.00  0.00     0.087 A 
HETATM   15  C2  UNL     1      91.152  96.164 -43.683  1.00  0.00    -0.020 A 
HETATM   16  C1  UNL     1      91.227  97.219 -42.649  1.00  0.00     0.051 C 
HETATM   17  C3  UNL     1      91.500  94.852 -43.430  1.00  0.00     0.038 A 
HETATM   18  C5  UNL     1      91.433  93.858 -44.388  1.00  0.00     0.021 A 
HETATM   19  C6  UNL     1      90.998  94.194 -45.657  1.00  0.00     0.003 A 
HETATM   20  C7  UNL     1      90.645  95.503 -45.931  1.00  0.00     0.026 A 
BRANCH  17  21
HETATM   21  S1  UNL     1      92.047  94.495 -41.786  1.00  0.00     0.046 S 
HETATM   22  C4  UNL     1      92.914  92.932 -41.767  1.00  0.00     0.133 C 
HETATM   23  O1  UNL     1      90.689  94.421 -40.807  1.00  0.00    -0.253 OA
ENDBRANCH  17  21
ENDBRANCH  11  14
ENDBRANCH   9  11
ENDBRANCH   1   9
BRANCH   8  24
HETATM   24  N5  UNL     1      87.415  99.590 -42.448  1.00  0.00    -0.382 N 
ATOM     25  H52 UNL     1      87.997  99.126 -41.750  1.00  0.00     0.157 HD
ATOM     26  H51 UNL     1      87.209 100.587 -42.383  1.00  0.00     0.157 HD
ENDBRANCH   8  24
BRANCH   4  27
HETATM   27  C11 UNL     1      85.458  96.637 -46.434  1.00  0.00     0.011 C 
BRANCH  27  28
HETATM   28  C12 UNL     1      85.399  97.202 -47.802  1.00  0.00     0.086 C 
BRANCH  28  29
HETATM   29  C13 UNL     1      86.643  97.027 -48.575  1.00  0.00     0.013 A 
HETATM   30  C14 UNL     1      87.443  95.918 -48.539  1.00  0.00     0.028 A 
HETATM   31  C15 UNL     1      88.520  96.100 -49.389  1.00  0.00     0.039 A 
HETATM   32  C16 UNL     1      88.361  97.346 -49.945  1.00  0.00     0.080 A 
HETATM   33 BR1  UNL     1      89.578  98.118 -51.209  1.00  0.00    -0.031 Br
HETATM   34  N3  UNL     1      87.236  97.871 -49.441  1.00  0.00    -0.354 N 
ATOM     35  H3  UNL     1      86.875  98.793 -49.683  1.00  0.00     0.166 HD
ENDBRANCH  28  29
ENDBRANCH  27  28
ENDBRANCH   4  27
BRANCH   5  36
HETATM   36  C18 UNL     1      83.756  97.814 -44.377  1.00  0.00     0.034 C 
HETATM   37  C19 UNL     1      82.513  98.363 -44.856  1.00  0.00    -0.085 C 
HETATM   38  C20 UNL     1      82.148  99.739 -44.382  1.00  0.00     0.043 C 
HETATM   39  C21 UNL     1      82.129  98.143 -46.281  1.00  0.00     0.043 C 
ENDBRANCH   5  36
TORSDOF 9
ENDMDL
MODEL 3
REMARK VINA RESULT: -6.896373218      3.579      7.118
REMARK  9 active torsions:
REMARK  status: ('A' for Active; 'I' for Inactive)
REMARK    1  A    between atoms: C3_3  and  S1_4 
REMARK    2  A    between atoms: C8_10  and  S2_11 
REMARK    3  A    between atoms: S2_11  and  N1_14 
REMARK    4  A    between atoms: N1_14  and  C9_16 
REMARK    5  A    between atoms: C10_19  and  C11_20 
REMARK    6  A    between atoms: C11_20  and  C12_21 
REMARK    7  A    between atoms: C12_21  and  C13_22 
REMARK    8  A    between atoms: C17_29  and  C18_30 
REMARK    9  A    between atoms: C22_36  and  N5_37 
ROOT
HETATM    1  C9  UNL     1      91.220  98.111 -43.120  1.00  0.00     0.160 A 
HETATM    2  N2  UNL     1      91.018  96.951 -43.739  1.00  0.00    -0.337 N 
ATOM      3  H2  UNL     1      90.696  96.987 -44.706  1.00  0.00     0.167 HD
HETATM    4  C10 UNL     1      91.206  95.713 -43.186  1.00  0.00     0.057 A 
HETATM    5  C17 UNL     1      91.643  95.665 -41.879  1.00  0.00     0.060 A 
HETATM    6  N4  UNL     1      91.857  96.869 -41.221  1.00  0.00    -0.338 N 
ATOM      7  H4  UNL     1      92.180  96.856 -40.253  1.00  0.00     0.167 HD
HETATM    8  C22 UNL     1      91.651  98.048 -41.825  1.00  0.00     0.145 A 
ENDROOT
BRANCH   1   9
HETATM    9  N1  UNL     1      91.057  99.268 -43.627  1.00  0.00    -0.263 N 
ATOM     10  H1  UNL     1      91.893  99.723 -43.993  1.00  0.00     0.180 HD
BRANCH   9  11
HETATM   11  S2  UNL     1      89.597 100.142 -43.760  1.00  0.00     0.264 S 
HETATM   12  O2  UNL     1      89.784 101.388 -44.578  1.00  0.00    -0.200 OA
HETATM   13  O3  UNL     1      89.150 100.526 -42.380  1.00  0.00    -0.200 OA
BRANCH  11  14
HETATM   14  C8  UNL     1      88.398  99.110 -44.517  1.00  0.00     0.087 A 
HETATM   15  C2  UNL     1      88.663  98.659 -45.807  1.00  0.00    -0.020 A 
HETATM   16  C1  UNL     1      89.912  99.044 -46.501  1.00  0.00     0.051 C 
HETATM   17  C3  UNL     1      87.711  97.847 -46.391  1.00  0.00     0.038 A 
HETATM   18  C5  UNL     1      86.541  97.481 -45.752  1.00  0.00     0.021 A 
HETATM   19  C6  UNL     1      86.315  97.950 -44.471  1.00  0.00     0.003 A 
HETATM   20  C7  UNL     1      87.257  98.765 -43.868  1.00  0.00     0.026 A 
BRANCH  17  21
HETATM   21  S1  UNL     1      88.067  97.286 -48.030  1.00  0.00     0.046 S 
HETATM   22  C4  UNL     1      86.540  96.908 -48.880  1.00  0.00     0.133 C 
HETATM   23  O1  UNL     1      89.016  95.911 -47.897  1.00  0.00    -0.253 OA
ENDBRANCH  17  21
ENDBRANCH  11  14
ENDBRANCH   9  11
ENDBRANCH   1   9
BRANCH   8  24
HETATM   24  N5  UNL     1      91.872  99.114 -41.150  1.00  0.00    -0.382 N 
ATOM     25  H52 UNL     1      92.745  99.175 -40.625  1.00  0.00     0.157 HD
ATOM     26  H51 UNL     1      91.195  99.878 -41.138  1.00  0.00     0.157 HD
ENDBRANCH   8  24
BRANCH   4  27
HETATM   27  C11 UNL     1      90.970  94.658 -43.939  1.00  0.00     0.011 C 
BRANCH  27  28
HETATM   28  C12 UNL     1      90.965  94.783 -45.415  1.00  0.00     0.086 C 
BRANCH  28  29
HETATM   29  C13 UNL     1      91.140  93.500 -46.123  1.00  0.00     0.013 A 
HETATM   30  C14 UNL     1      91.716  92.379 -45.591  1.00  0.00     0.028 A 
HETATM   31  C15 UNL     1      91.710  91.367 -46.534  1.00  0.00     0.039 A 
HETATM   32  C16 UNL     1      91.116  91.894 -47.656  1.00  0.00     0.080 A 
HETATM   33 BR1  UNL     1      90.845  90.918 -49.283  1.00  0.00    -0.031 Br
HETATM   34  N3  UNL     1      90.789  93.163 -47.378  1.00  0.00    -0.354 N 
ATOM     35  H3  UNL     1      90.332  93.794 -48.036  1.00  0.00     0.166 HD
ENDBRANCH  28  29
ENDBRANCH  27  28
ENDBRANCH   4  27
BRANCH   5  36
HETATM   36  C18 UNL     1      91.887  94.611 -41.169  1.00  0.00     0.034 C 
HETATM   37  C19 UNL     1      92.579  93.348 -41.175  1.00  0.00    -0.085 C 
HETATM   38  C20 UNL     1      92.034  92.277 -42.072  1.00  0.00     0.043 C 
HETATM   39  C21 UNL     1      94.071  93.343 -41.141  1.00  0.00     0.043 C 
ENDBRANCH   5  36
TORSDOF 9
ENDMDL
MODEL 4
REMARK VINA RESULT: -6.735400115      1.754      2.528
REMARK  9 active torsions:
REMARK  status: ('A' for Active; 'I' for Inactive)
REMARK    1  A    between atoms: C3_3  and  S1_4 
REMARK    2  A    between atoms: C8_10  and  S2_11 
REMARK    3  A    between atoms: S2_11  and  N1_14 
REMARK    4  A    between atoms: N1_14  and  C9_16 
REMARK    5  A    between atoms: C10_19  and  C11_20 
REMARK    6  A    between atoms: C11_20  and  C12_21 
REMARK    7  A    between atoms: C12_21  and  C13_22 
REMARK    8  A    between atoms: C17_29  and  C18_30 
REMARK    9  A    between atoms: C22_36  and  N5_37 
ROOT
HETATM    1  C9  UNL     1      92.116  99.528 -45.308  1.00  0.00     0.160 A 
HETATM    2  N2  UNL     1      92.105  99.953 -44.048  1.00  0.00    -0.337 N 
ATOM      3  H2  UNL     1      91.899  99.264 -43.324  1.00  0.00     0.167 HD
HETATM    4  C10 UNL     1      92.349 101.237 -43.640  1.00  0.00     0.057 A 
HETATM    5  C17 UNL     1      92.629 102.167 -44.619  1.00  0.00     0.060 A 
HETATM    6  N4  UNL     1      92.643 101.737 -45.939  1.00  0.00    -0.338 N 
ATOM      7  H4  UNL     1      92.848 102.409 -46.679  1.00  0.00     0.167 HD
HETATM    8  C22 UNL     1      92.393 100.461 -46.267  1.00  0.00     0.145 A 
ENDROOT
BRANCH   1   9
HETATM    9  N1  UNL     1      91.900  98.335 -45.698  1.00  0.00    -0.263 N 
ATOM     10  H1  UNL     1      92.666  97.873 -46.188  1.00  0.00     0.180 HD
BRANCH   9  11
HETATM   11  S2  UNL     1      90.471  97.423 -45.494  1.00  0.00     0.264 S 
HETATM   12  O2  UNL     1      89.657  97.401 -46.756  1.00  0.00    -0.200 OA
HETATM   13  O3  UNL     1      89.661  98.056 -44.401  1.00  0.00    -0.200 OA
BRANCH  11  14
HETATM   14  C8  UNL     1      90.915  95.787 -45.046  1.00  0.00     0.087 A 
HETATM   15  C2  UNL     1      91.272  95.560 -43.720  1.00  0.00    -0.020 A 
HETATM   16  C1  UNL     1      91.273  96.666 -42.737  1.00  0.00     0.051 C 
HETATM   17  C3  UNL     1      91.619  94.268 -43.381  1.00  0.00     0.038 A 
HETATM   18  C5  UNL     1      91.622  93.226 -44.290  1.00  0.00     0.021 A 
HETATM   19  C6  UNL     1      91.262  93.493 -45.598  1.00  0.00     0.003 A 
HETATM   20  C7  UNL     1      90.911  94.782 -45.958  1.00  0.00     0.026 A 
BRANCH  17  21
HETATM   21  S1  UNL     1      92.070  94.001 -41.691  1.00  0.00     0.046 S 
HETATM   22  C4  UNL     1      92.561  92.297 -41.462  1.00  0.00     0.133 C 
HETATM   23  O1  UNL     1      90.729  94.353 -40.750  1.00  0.00    -0.253 OA
ENDBRANCH  17  21
ENDBRANCH  11  14
ENDBRANCH   9  11
ENDBRANCH   1   9
BRANCH   8  24
HETATM   24  N5  UNL     1      92.425 100.143 -47.508  1.00  0.00    -0.382 N 
ATOM     25  H52 UNL     1      92.221  99.176 -47.758  1.00  0.00     0.157 HD
ATOM     26  H51 UNL     1      92.646 100.837 -48.222  1.00  0.00     0.157 HD
ENDBRANCH   8  24
BRANCH   4  27
HETATM   27  C11 UNL     1      92.310 101.492 -42.349  1.00  0.00     0.011 C 
BRANCH  27  28
HETATM   28  C12 UNL     1      91.295 100.840 -41.490  1.00  0.00     0.086 C 
BRANCH  28  29
HETATM   29  C13 UNL     1      89.910 101.008 -41.971  1.00  0.00     0.013 A 
HETATM   30  C14 UNL     1      89.263 102.206 -42.105  1.00  0.00     0.028 A 
HETATM   31  C15 UNL     1      87.983 101.986 -42.581  1.00  0.00     0.039 A 
HETATM   32  C16 UNL     1      87.861 100.627 -42.734  1.00  0.00     0.080 A 
HETATM   33 BR1  UNL     1      86.275  99.759 -43.371  1.00  0.00    -0.031 Br
HETATM   34  N3  UNL     1      89.023 100.074 -42.363  1.00  0.00    -0.354 N 
ATOM     35  H3  UNL     1      89.212  99.072 -42.376  1.00  0.00     0.166 HD
ENDBRANCH  28  29
ENDBRANCH  27  28
ENDBRANCH   4  27
BRANCH   5  36
HETATM   36  C18 UNL     1      92.890 103.424 -44.459  1.00  0.00     0.034 C 
HETATM   37  C19 UNL     1      92.282 104.720 -44.305  1.00  0.00    -0.085 C 
HETATM   38  C20 UNL     1      91.602 105.302 -45.508  1.00  0.00     0.043 C 
HETATM   39  C21 UNL     1      91.545 105.026 -43.044  1.00  0.00     0.043 C 
ENDBRANCH   5  36
TORSDOF 9
ENDMDL
MODEL 5
REMARK VINA RESULT: -6.666643033      3.293      5.743
REMARK  9 active torsions:
REMARK  status: ('A' for Active; 'I' for Inactive)
REMARK    1  A    between atoms: C3_3  and  S1_4 
REMARK    2  A    between atoms: C8_10  and  S2_11 
REMARK    3  A    between atoms: S2_11  and  N1_14 
REMARK    4  A    between atoms: N1_14  and  C9_16 
REMARK    5  A    between atoms: C10_19  and  C11_20 
REMARK    6  A    between atoms: C11_20  and  C12_21 
REMARK    7  A    between atoms: C12_21  and  C13_22 
REMARK    8  A    between atoms: C17_29  and  C18_30 
REMARK    9  A    between atoms: C22_36  and  N5_37 
ROOT
HETATM    1  C9  UNL     1      88.028  98.409 -44.282  1.00  0.00     0.160 A 
HETATM    2  N2  UNL     1      87.175  97.903 -45.168  1.00  0.00    -0.337 N 
ATOM      3  H2  UNL     1      87.571  97.462 -45.999  1.00  0.00     0.167 HD
HETATM    4  C10 UNL     1      85.810  97.923 -45.059  1.00  0.00     0.057 A 
HETATM    5  C17 UNL     1      85.276  98.517 -43.935  1.00  0.00     0.060 A 
HETATM    6  N4  UNL     1      86.155  99.050 -43.002  1.00  0.00    -0.338 N 
ATOM      7  H4  UNL     1      85.780  99.495 -42.164  1.00  0.00     0.167 HD
HETATM    8  C22 UNL     1      87.484  98.996 -43.174  1.00  0.00     0.145 A 
ENDROOT
BRANCH   1   9
HETATM    9  N1  UNL     1      89.298  98.388 -44.368  1.00  0.00    -0.263 N 
ATOM     10  H1  UNL     1      89.811  98.827 -43.603  1.00  0.00     0.180 HD
BRANCH   9  11
HETATM   11  S2  UNL     1      90.239  97.709 -45.620  1.00  0.00     0.264 S 
HETATM   12  O2  UNL     1      91.443  98.556 -45.914  1.00  0.00    -0.200 OA
HETATM   13  O3  UNL     1      89.388  97.624 -46.854  1.00  0.00    -0.200 OA
BRANCH  11  14
HETATM   14  C8  UNL     1      90.746  96.105 -45.126  1.00  0.00     0.087 A 
HETATM   15  C2  UNL     1      91.163  95.942 -43.808  1.00  0.00    -0.020 A 
HETATM   16  C1  UNL     1      91.172  97.087 -42.871  1.00  0.00     0.051 C 
HETATM   17  C3  UNL     1      91.560  94.675 -43.433  1.00  0.00     0.038 A 
HETATM   18  C5  UNL     1      91.556  93.597 -44.299  1.00  0.00     0.021 A 
HETATM   19  C6  UNL     1      91.135  93.801 -45.601  1.00  0.00     0.003 A 
HETATM   20  C7  UNL     1      90.733  95.064 -45.997  1.00  0.00     0.026 A 
BRANCH  17  21
HETATM   21  S1  UNL     1      92.087  94.489 -41.754  1.00  0.00     0.046 S 
HETATM   22  C4  UNL     1      93.093  93.019 -41.599  1.00  0.00     0.133 C 
HETATM   23  O1  UNL     1      90.711  94.357 -40.806  1.00  0.00    -0.253 OA
ENDBRANCH  17  21
ENDBRANCH  11  14
ENDBRANCH   9  11
ENDBRANCH   1   9
BRANCH   8  24
HETATM   24  N5  UNL     1      88.227  99.511 -42.267  1.00  0.00    -0.382 N 
ATOM     25  H52 UNL     1      87.926 100.390 -41.845  1.00  0.00     0.157 HD
ATOM     26  H51 UNL     1      89.093  99.056 -41.976  1.00  0.00     0.157 HD
ENDBRANCH   8  24
BRANCH   4  27
HETATM   27  C11 UNL     1      85.106  97.366 -46.023  1.00  0.00     0.011 C 
BRANCH  27  28
HETATM   28  C12 UNL     1      85.772  96.913 -47.265  1.00  0.00     0.086 C 
BRANCH  28  29
HETATM   29  C13 UNL     1      85.224  95.655 -47.811  1.00  0.00     0.013 A 
HETATM   30  C14 UNL     1      84.142  94.985 -47.310  1.00  0.00     0.028 A 
HETATM   31  C15 UNL     1      83.912  93.851 -48.069  1.00  0.00     0.039 A 
HETATM   32  C16 UNL     1      84.879  93.843 -49.045  1.00  0.00     0.080 A 
HETATM   33 BR1  UNL     1      85.034  92.483 -50.387  1.00  0.00    -0.031 Br
HETATM   34  N3  UNL     1      85.642  94.929 -48.864  1.00  0.00    -0.354 N 
ATOM     35  H3  UNL     1      86.440  95.173 -49.450  1.00  0.00     0.166 HD
ENDBRANCH  28  29
ENDBRANCH  27  28
ENDBRANCH   4  27
BRANCH   5  36
HETATM   36  C18 UNL     1      84.025  98.643 -43.631  1.00  0.00     0.034 C 
HETATM   37  C19 UNL     1      82.843  99.422 -43.896  1.00  0.00    -0.085 C 
HETATM   38  C20 UNL     1      82.823 100.829 -43.376  1.00  0.00     0.043 C 
HETATM   39  C21 UNL     1      82.192  99.313 -45.234  1.00  0.00     0.043 C 
ENDBRANCH   5  36
TORSDOF 9
ENDMDL
