MODEL 1
REMARK VINA RESULT: -6.154064507      0.000      0.000
REMARK  10 active torsions:
REMARK  status: ('A' for Active; 'I' for Inactive)
REMARK    1  A    between atoms: C2_2  and  C3_3 
REMARK    2  A    between atoms: C3_3  and  N1_4 
REMARK    3  A    between atoms: N2_7  and  C6_8 
REMARK    4  A    between atoms: C6_8  and  C7_9 
REMARK    5  A    between atoms: N3_11  and  C9_12 
REMARK    6  A    between atoms: C9_12  and  O1_16 
REMARK    7  A    between atoms: N5_20  and  C12_21 
REMARK    8  A    between atoms: C12_21  and  C13_22 
REMARK    9  A    between atoms: C12_21  and  C21_31 
REMARK   10  A    between atoms: C14_23  and  C15_24 
ROOT
HETATM    1  C7  UNL     1      91.151  97.956 -43.471  1.00  0.00     0.124 C 
HETATM    2  C8  UNL     1      91.373  96.971 -42.377  1.00  0.00     0.153 C 
HETATM    3  N3  UNL     1      91.409  95.588 -42.743  1.00  0.00    -0.344 N 
HETATM    4  C10 UNL     1      90.914  95.216 -44.015  1.00  0.00     0.146 C 
HETATM    5  C11 UNL     1      91.383  96.141 -45.067  1.00  0.00     0.138 C 
HETATM    6  N5  UNL     1      91.373  97.524 -44.788  1.00  0.00    -0.388 N 
ENDROOT
BRANCH   6   7
HETATM    7  C12 UNL     1      90.710  98.318 -45.743  1.00  0.00     0.193 C 
BRANCH   7   8
HETATM    8  C13 UNL     1      89.285  98.610 -45.427  1.00  0.00     0.008 C 
HETATM    9  C14 UNL     1      88.284  97.839 -45.690  1.00  0.00     0.010 C 
BRANCH   9  10
HETATM   10  C15 UNL     1      86.924  98.194 -45.350  1.00  0.00    -0.036 A 
HETATM   11  C16 UNL     1      86.043  97.327 -44.759  1.00  0.00     0.012 A 
HETATM   12  C17 UNL     1      84.725  97.682 -44.434  1.00  0.00     0.020 A 
HETATM   13  C18 UNL     1      84.271  98.949 -44.710  1.00  0.00     0.011 A 
HETATM   14 BR1  UNL     1      82.482  99.429 -44.269  1.00  0.00    -0.051 Br
HETATM   15  C19 UNL     1      85.138  99.836 -45.303  1.00  0.00     0.020 A 
HETATM   16  C20 UNL     1      86.421  99.477 -45.615  1.00  0.00     0.012 A 
ENDBRANCH   9  10
ENDBRANCH   7   8
BRANCH   7  17
HETATM   17  C21 UNL     1      91.331  99.627 -46.070  1.00  0.00     0.257 C 
HETATM   18  N6  UNL     1      92.705  99.602 -46.530  1.00  0.00    -0.060 NA
HETATM   19  O2  UNL     1      90.824 100.743 -46.001  1.00  0.00    -0.274 OA
ENDBRANCH   7  17
ENDBRANCH   6   7
BRANCH   1  20
HETATM   20  C6  UNL     1      91.976  99.181 -43.175  1.00  0.00     0.264 C 
BRANCH  20  21
HETATM   21  N2  UNL     1      91.437 100.209 -42.392  1.00  0.00    -0.060 N 
HETATM   22  C5  UNL     1      90.012 100.427 -42.472  1.00  0.00     0.265 C 
HETATM   23  C4  UNL     1      89.624 101.431 -41.414  1.00  0.00     0.265 C 
HETATM   24  N1  UNL     1      90.729 102.399 -41.170  1.00  0.00    -0.062 N 
HETATM   25  C23 UNL     1      91.708 101.635 -40.419  1.00  0.00     0.265 C 
HETATM   26  C25 UNL     1      91.238 102.664 -42.470  1.00  0.00     0.265 C 
HETATM   27  C22 UNL     1      91.771 100.227 -40.986  1.00  0.00     0.265 C 
HETATM   28  C24 UNL     1      92.035 101.465 -42.914  1.00  0.00     0.265 C 
BRANCH  24  29
HETATM   29  C3  UNL     1      90.136 103.466 -40.455  1.00  0.00     0.237 C 
BRANCH  29  30
HETATM   30  C2  UNL     1      90.407 103.592 -39.006  1.00  0.00     0.023 C 
HETATM   31  C1  UNL     1      89.641 104.706 -38.374  1.00  0.00     0.007 C 
ENDBRANCH  29  30
ENDBRANCH  24  29
ENDBRANCH  20  21
ENDBRANCH   1  20
BRANCH   3  32
HETATM   32  C9  UNL     1      91.929  94.643 -41.839  1.00  0.00     0.212 C 
HETATM   33  N4  UNL     1      91.448  93.452 -41.794  1.00  0.00    -0.365 N 
ATOM     34  H42 UNL     1      90.685  93.216 -42.429  1.00  0.00     0.159 HD
ATOM     35  H41 UNL     1      91.825  92.767 -41.139  1.00  0.00     0.159 HD
BRANCH  32  36
HETATM   36  O1  UNL     1      92.963  94.962 -40.979  1.00  0.00    -0.333 OA
ATOM     37  H1  UNL     1      93.841  94.624 -41.114  1.00  0.00     0.220 HD
ENDBRANCH  32  36
ENDBRANCH   3  32
TORSDOF 10
ENDMDL
MODEL 2
REMARK VINA RESULT: -6.134663524      3.368      5.812
REMARK  10 active torsions:
REMARK  status: ('A' for Active; 'I' for Inactive)
REMARK    1  A    between atoms: C2_2  and  C3_3 
REMARK    2  A    between atoms: C3_3  and  N1_4 
REMARK    3  A    between atoms: N2_7  and  C6_8 
REMARK    4  A    between atoms: C6_8  and  C7_9 
REMARK    5  A    between atoms: N3_11  and  C9_12 
REMARK    6  A    between atoms: C9_12  and  O1_16 
REMARK    7  A    between atoms: N5_20  and  C12_21 
REMARK    8  A    between atoms: C12_21  and  C13_22 
REMARK    9  A    between atoms: C12_21  and  C21_31 
REMARK   10  A    between atoms: C14_23  and  C15_24 
ROOT
HETATM    1  C7  UNL     1      89.191 100.952 -42.746  1.00  0.00     0.124 C 
HETATM    2  C8  UNL     1      87.814 101.509 -42.650  1.00  0.00     0.153 C 
HETATM    3  N3  UNL     1      86.795 100.865 -43.420  1.00  0.00    -0.344 N 
HETATM    4  C10 UNL     1      87.189  99.982 -44.453  1.00  0.00     0.146 C 
HETATM    5  C11 UNL     1      88.281  99.089 -44.011  1.00  0.00     0.138 C 
HETATM    6  N5  UNL     1      89.329  99.649 -43.251  1.00  0.00    -0.388 N 
ENDROOT
BRANCH   6   7
HETATM    7  C12 UNL     1      90.623  99.387 -43.741  1.00  0.00     0.193 C 
BRANCH   7   8
HETATM    8  C13 UNL     1      90.800  98.033 -44.334  1.00  0.00     0.008 C 
HETATM    9  C14 UNL     1      91.103  96.961 -43.680  1.00  0.00     0.010 C 
BRANCH   9  10
HETATM   10  C15 UNL     1      91.258  95.678 -44.330  1.00  0.00    -0.036 A 
HETATM   11  C16 UNL     1      91.728  94.560 -43.691  1.00  0.00     0.012 A 
HETATM   12  C17 UNL     1      91.875  93.321 -44.331  1.00  0.00     0.020 A 
HETATM   13  C18 UNL     1      91.542  93.193 -45.657  1.00  0.00     0.011 A 
HETATM   14 BR1  UNL     1      91.743  91.510 -46.524  1.00  0.00    -0.051 Br
HETATM   15  C19 UNL     1      91.068  94.301 -46.319  1.00  0.00     0.020 A 
HETATM   16  C20 UNL     1      90.929  95.505 -45.683  1.00  0.00     0.012 A 
ENDBRANCH   9  10
ENDBRANCH   7   8
BRANCH   7  17
HETATM   17  C21 UNL     1      91.166 100.342 -44.741  1.00  0.00     0.257 C 
HETATM   18  N6  UNL     1      92.542 100.759 -44.565  1.00  0.00    -0.060 NA
HETATM   19  O2  UNL     1      90.592 100.831 -45.710  1.00  0.00    -0.274 OA
ENDBRANCH   7  17
ENDBRANCH   6   7
BRANCH   1  20
HETATM   20  C6  UNL     1      89.837 101.058 -41.389  1.00  0.00     0.264 C 
BRANCH  20  21
HETATM   21  N2  UNL     1      90.919 101.928 -41.202  1.00  0.00    -0.060 N 
HETATM   22  C5  UNL     1      92.223 101.336 -41.019  1.00  0.00     0.265 C 
HETATM   23  C4  UNL     1      93.253 102.439 -41.036  1.00  0.00     0.265 C 
HETATM   24  N1  UNL     1      92.688 103.701 -40.484  1.00  0.00    -0.062 N 
HETATM   25  C23 UNL     1      91.811 104.184 -41.534  1.00  0.00     0.265 C 
HETATM   26  C25 UNL     1      91.903 103.266 -39.381  1.00  0.00     0.265 C 
HETATM   27  C22 UNL     1      91.091 103.000 -42.156  1.00  0.00     0.265 C 
HETATM   28  C24 UNL     1      90.648 102.633 -39.922  1.00  0.00     0.265 C 
BRANCH  24  29
HETATM   29  C3  UNL     1      93.808 104.525 -40.222  1.00  0.00     0.237 C 
BRANCH  29  30
HETATM   30  C2  UNL     1      95.162 103.935 -40.298  1.00  0.00     0.023 C 
HETATM   31  C1  UNL     1      96.110 104.547 -39.322  1.00  0.00     0.007 C 
ENDBRANCH  29  30
ENDBRANCH  24  29
ENDBRANCH  20  21
ENDBRANCH   1  20
BRANCH   3  32
HETATM   32  C9  UNL     1      85.441 101.122 -43.136  1.00  0.00     0.212 C 
HETATM   33  N4  UNL     1      85.055 101.320 -41.926  1.00  0.00    -0.365 N 
ATOM     34  H42 UNL     1      85.756 101.285 -41.185  1.00  0.00     0.159 HD
ATOM     35  H41 UNL     1      84.074 101.507 -41.721  1.00  0.00     0.159 HD
BRANCH  32  36
HETATM   36  O1  UNL     1      84.491 101.170 -44.140  1.00  0.00    -0.333 OA
ATOM     37  H1  UNL     1      84.588 101.751 -44.885  1.00  0.00     0.220 HD
ENDBRANCH  32  36
ENDBRANCH   3  32
TORSDOF 10
ENDMDL
MODEL 3
REMARK VINA RESULT: -6.123432386      3.440      5.782
REMARK  10 active torsions:
REMARK  status: ('A' for Active; 'I' for Inactive)
REMARK    1  A    between atoms: C2_2  and  C3_3 
REMARK    2  A    between atoms: C3_3  and  N1_4 
REMARK    3  A    between atoms: N2_7  and  C6_8 
REMARK    4  A    between atoms: C6_8  and  C7_9 
REMARK    5  A    between atoms: N3_11  and  C9_12 
REMARK    6  A    between atoms: C9_12  and  O1_16 
REMARK    7  A    between atoms: N5_20  and  C12_21 
REMARK    8  A    between atoms: C12_21  and  C13_22 
REMARK    9  A    between atoms: C12_21  and  C21_31 
REMARK   10  A    between atoms: C14_23  and  C15_24 
ROOT
HETATM    1  C7  UNL     1      89.371 100.929 -42.592  1.00  0.00     0.124 C 
HETATM    2  C8  UNL     1      88.006 101.521 -42.554  1.00  0.00     0.153 C 
HETATM    3  N3  UNL     1      86.999 100.892 -43.352  1.00  0.00    -0.344 N 
HETATM    4  C10 UNL     1      87.408  99.985 -44.358  1.00  0.00     0.146 C 
HETATM    5  C11 UNL     1      88.460  99.071 -43.864  1.00  0.00     0.138 C 
HETATM    6  N5  UNL     1      89.494  99.616 -43.074  1.00  0.00    -0.388 N 
ENDROOT
BRANCH   6   7
HETATM    7  C12 UNL     1      90.798  99.315 -43.513  1.00  0.00     0.193 C 
BRANCH   7   8
HETATM    8  C13 UNL     1      90.943  97.982 -44.159  1.00  0.00     0.008 C 
HETATM    9  C14 UNL     1      91.189  96.873 -43.545  1.00  0.00     0.010 C 
BRANCH   9  10
HETATM   10  C15 UNL     1      91.316  95.614 -44.245  1.00  0.00    -0.036 A 
HETATM   11  C16 UNL     1      91.772  94.464 -43.654  1.00  0.00     0.012 A 
HETATM   12  C17 UNL     1      91.893  93.248 -44.343  1.00  0.00     0.020 A 
HETATM   13  C18 UNL     1      91.546  93.177 -45.670  1.00  0.00     0.011 A 
HETATM   14 BR1  UNL     1      91.711  91.526 -46.604  1.00  0.00    -0.051 Br
HETATM   15  C19 UNL     1      91.085  94.318 -46.284  1.00  0.00     0.020 A 
HETATM   16  C20 UNL     1      90.973  95.498 -45.601  1.00  0.00     0.012 A 
ENDBRANCH   9  10
ENDBRANCH   7   8
BRANCH   7  17
HETATM   17  C21 UNL     1      91.433 100.287 -44.440  1.00  0.00     0.257 C 
HETATM   18  N6  UNL     1      92.793 100.684 -44.138  1.00  0.00    -0.060 NA
HETATM   19  O2  UNL     1      90.948 100.804 -45.442  1.00  0.00    -0.274 OA
ENDBRANCH   7  17
ENDBRANCH   6   7
BRANCH   1  20
HETATM   20  C6  UNL     1      89.970 101.039 -41.214  1.00  0.00     0.264 C 
BRANCH  20  21
HETATM   21  N2  UNL     1      90.892 102.057 -40.938  1.00  0.00    -0.060 N 
HETATM   22  C5  UNL     1      91.221 102.964 -42.012  1.00  0.00     0.265 C 
HETATM   23  C4  UNL     1      92.063 104.083 -41.448  1.00  0.00     0.265 C 
HETATM   24  N1  UNL     1      92.897 103.599 -40.313  1.00  0.00    -0.062 N 
HETATM   25  C23 UNL     1      91.952 103.446 -39.222  1.00  0.00     0.265 C 
HETATM   26  C25 UNL     1      93.335 102.316 -40.738  1.00  0.00     0.265 C 
HETATM   27  C22 UNL     1      90.656 102.878 -39.772  1.00  0.00     0.265 C 
HETATM   28  C24 UNL     1      92.171 101.365 -40.631  1.00  0.00     0.265 C 
BRANCH  24  29
HETATM   29  C3  UNL     1      93.872 104.605 -40.115  1.00  0.00     0.237 C 
BRANCH  29  30
HETATM   30  C2  UNL     1      95.301 104.255 -40.268  1.00  0.00     0.023 C 
HETATM   31  C1  UNL     1      95.928 104.910 -41.453  1.00  0.00     0.007 C 
ENDBRANCH  29  30
ENDBRANCH  24  29
ENDBRANCH  20  21
ENDBRANCH   1  20
BRANCH   3  32
HETATM   32  C9  UNL     1      85.643 101.187 -43.121  1.00  0.00     0.212 C 
HETATM   33  N4  UNL     1      84.817 101.265 -44.103  1.00  0.00    -0.365 N 
ATOM     34  H42 UNL     1      85.173 101.108 -45.046  1.00  0.00     0.159 HD
ATOM     35  H41 UNL     1      83.834 101.479 -43.936  1.00  0.00     0.159 HD
BRANCH  32  36
HETATM   36  O1  UNL     1      85.160 101.401 -41.844  1.00  0.00    -0.333 OA
ATOM     37  H1  UNL     1      84.700 102.200 -41.616  1.00  0.00     0.220 HD
ENDBRANCH  32  36
ENDBRANCH   3  32
TORSDOF 10
ENDMDL
MODEL 4
REMARK VINA RESULT: -6.095296957      3.615      6.217
REMARK  10 active torsions:
REMARK  status: ('A' for Active; 'I' for Inactive)
REMARK    1  A    between atoms: C2_2  and  C3_3 
REMARK    2  A    between atoms: C3_3  and  N1_4 
REMARK    3  A    between atoms: N2_7  and  C6_8 
REMARK    4  A    between atoms: C6_8  and  C7_9 
REMARK    5  A    between atoms: N3_11  and  C9_12 
REMARK    6  A    between atoms: C9_12  and  O1_16 
REMARK    7  A    between atoms: N5_20  and  C12_21 
REMARK    8  A    between atoms: C12_21  and  C13_22 
REMARK    9  A    between atoms: C12_21  and  C21_31 
REMARK   10  A    between atoms: C14_23  and  C15_24 
ROOT
HETATM    1  C7  UNL     1      87.972 100.670 -43.279  1.00  0.00     0.124 C 
HETATM    2  C8  UNL     1      86.609 101.193 -42.991  1.00  0.00     0.153 C 
HETATM    3  N3  UNL     1      85.506 100.504 -43.588  1.00  0.00    -0.344 N 
HETATM    4  C10 UNL     1      85.769  99.607 -44.651  1.00  0.00     0.146 C 
HETATM    5  C11 UNL     1      86.940  98.754 -44.358  1.00  0.00     0.138 C 
HETATM    6  N5  UNL     1      88.073  99.360 -43.774  1.00  0.00    -0.388 N 
ENDROOT
BRANCH   6   7
HETATM    7  C12 UNL     1      89.287  99.121 -44.445  1.00  0.00     0.193 C 
BRANCH   7   8
HETATM    8  C13 UNL     1      89.981  97.866 -44.045  1.00  0.00     0.008 C 
HETATM    9  C14 UNL     1      90.611  97.679 -42.934  1.00  0.00     0.010 C 
BRANCH   9  10
HETATM   10  C15 UNL     1      91.262  96.427 -42.616  1.00  0.00    -0.036 A 
HETATM   11  C16 UNL     1      91.424  95.410 -43.521  1.00  0.00     0.012 A 
HETATM   12  C17 UNL     1      92.056  94.198 -43.202  1.00  0.00     0.020 A 
HETATM   13  C18 UNL     1      92.544  93.995 -41.935  1.00  0.00     0.011 A 
HETATM   14 BR1  UNL     1      93.402  92.351 -41.504  1.00  0.00    -0.051 Br
HETATM   15  C19 UNL     1      92.394  95.003 -41.010  1.00  0.00     0.020 A 
HETATM   16  C20 UNL     1      91.775  96.179 -41.334  1.00  0.00     0.012 A 
ENDBRANCH   9  10
ENDBRANCH   7   8
BRANCH   7  17
HETATM   17  C21 UNL     1      89.237  99.102 -45.930  1.00  0.00     0.257 C 
HETATM   18  N6  UNL     1      89.562  97.847 -46.577  1.00  0.00    -0.060 NA
HETATM   19  O2  UNL     1      88.953 100.023 -46.689  1.00  0.00    -0.274 OA
ENDBRANCH   7  17
ENDBRANCH   6   7
BRANCH   1  20
HETATM   20  C6  UNL     1      88.808 100.827 -42.037  1.00  0.00     0.264 C 
BRANCH  20  21
HETATM   21  N2  UNL     1      89.986 101.584 -42.083  1.00  0.00    -0.060 N 
HETATM   22  C5  UNL     1      91.222 100.911 -41.760  1.00  0.00     0.265 C 
HETATM   23  C4  UNL     1      92.366 101.846 -42.063  1.00  0.00     0.265 C 
HETATM   24  N1  UNL     1      91.964 103.264 -41.850  1.00  0.00    -0.062 N 
HETATM   25  C23 UNL     1      91.111 103.564 -42.985  1.00  0.00     0.265 C 
HETATM   26  C25 UNL     1      91.174 103.217 -40.669  1.00  0.00     0.265 C 
HETATM   27  C22 UNL     1      90.243 102.352 -43.280  1.00  0.00     0.265 C 
HETATM   28  C24 UNL     1      89.838 102.617 -41.024  1.00  0.00     0.265 C 
BRANCH  24  29
HETATM   29  C3  UNL     1      93.177 103.992 -41.813  1.00  0.00     0.237 C 
BRANCH  29  30
HETATM   30  C2  UNL     1      94.450 103.269 -42.026  1.00  0.00     0.023 C 
HETATM   31  C1  UNL     1      95.431 104.060 -42.825  1.00  0.00     0.007 C 
ENDBRANCH  29  30
ENDBRANCH  24  29
ENDBRANCH  20  21
ENDBRANCH   1  20
BRANCH   3  32
HETATM   32  C9  UNL     1      84.202 100.732 -43.111  1.00  0.00     0.212 C 
HETATM   33  N4  UNL     1      83.531 101.752 -43.513  1.00  0.00    -0.365 N 
ATOM     34  H42 UNL     1      83.969 102.384 -44.182  1.00  0.00     0.159 HD
ATOM     35  H41 UNL     1      82.586 101.917 -43.167  1.00  0.00     0.159 HD
BRANCH  32  36
HETATM   36  O1  UNL     1      83.607  99.875 -42.204  1.00  0.00    -0.333 OA
ATOM     37  H1  UNL     1      82.962 100.186 -41.579  1.00  0.00     0.220 HD
ENDBRANCH  32  36
ENDBRANCH   3  32
TORSDOF 10
ENDMDL
MODEL 5
REMARK VINA RESULT: -5.995199074      3.643      6.215
REMARK  10 active torsions:
REMARK  status: ('A' for Active; 'I' for Inactive)
REMARK    1  A    between atoms: C2_2  and  C3_3 
REMARK    2  A    between atoms: C3_3  and  N1_4 
REMARK    3  A    between atoms: N2_7  and  C6_8 
REMARK    4  A    between atoms: C6_8  and  C7_9 
REMARK    5  A    between atoms: N3_11  and  C9_12 
REMARK    6  A    between atoms: C9_12  and  O1_16 
REMARK    7  A    between atoms: N5_20  and  C12_21 
REMARK    8  A    between atoms: C12_21  and  C13_22 
REMARK    9  A    between atoms: C12_21  and  C21_31 
REMARK   10  A    between atoms: C14_23  and  C15_24 
ROOT
HETATM    1  C7  UNL     1      87.883 100.623 -43.333  1.00  0.00     0.124 C 
HETATM    2  C8  UNL     1      86.514 101.136 -43.052  1.00  0.00     0.153 C 
HETATM    3  N3  UNL     1      85.416 100.390 -43.585  1.00  0.00    -0.344 N 
HETATM    4  C10 UNL     1      85.680  99.434 -44.595  1.00  0.00     0.146 C 
HETATM    5  C11 UNL     1      86.873  98.624 -44.273  1.00  0.00     0.138 C 
HETATM    6  N5  UNL     1      88.002  99.287 -43.748  1.00  0.00    -0.388 N 
ENDROOT
BRANCH   6   7
HETATM    7  C12 UNL     1      89.210  99.030 -44.425  1.00  0.00     0.193 C 
BRANCH   7   8
HETATM    8  C13 UNL     1      89.913  97.792 -43.992  1.00  0.00     0.008 C 
HETATM    9  C14 UNL     1      90.627  97.669 -42.923  1.00  0.00     0.010 C 
BRANCH   9  10
HETATM   10  C15 UNL     1      91.281  96.429 -42.570  1.00  0.00    -0.036 A 
HETATM   11  C16 UNL     1      91.804  96.178 -41.328  1.00  0.00     0.012 A 
HETATM   12  C17 UNL     1      92.438  94.971 -40.996  1.00  0.00     0.020 A 
HETATM   13  C18 UNL     1      92.555  93.979 -41.938  1.00  0.00     0.011 A 
HETATM   14 BR1  UNL     1      93.416  92.342 -41.487  1.00  0.00    -0.051 Br
HETATM   15  C19 UNL     1      92.037  94.208 -43.192  1.00  0.00     0.020 A 
HETATM   16  C20 UNL     1      91.422  95.390 -43.503  1.00  0.00     0.012 A 
ENDBRANCH   9  10
ENDBRANCH   7   8
BRANCH   7  17
HETATM   17  C21 UNL     1      89.143  98.963 -45.908  1.00  0.00     0.257 C 
HETATM   18  N6  UNL     1      89.517  97.705 -46.521  1.00  0.00    -0.060 NA
HETATM   19  O2  UNL     1      88.806  99.846 -46.691  1.00  0.00    -0.274 OA
ENDBRANCH   7  17
ENDBRANCH   6   7
BRANCH   1  20
HETATM   20  C6  UNL     1      88.737 100.873 -42.118  1.00  0.00     0.264 C 
BRANCH  20  21
HETATM   21  N2  UNL     1      89.792 101.792 -42.188  1.00  0.00    -0.060 N 
HETATM   22  C5  UNL     1      90.098 102.354 -43.482  1.00  0.00     0.265 C 
HETATM   23  C4  UNL     1      91.117 103.451 -43.295  1.00  0.00     0.265 C 
HETATM   24  N1  UNL     1      92.015 103.151 -42.145  1.00  0.00    -0.062 N 
HETATM   25  C23 UNL     1      91.188 103.400 -40.978  1.00  0.00     0.265 C 
HETATM   26  C25 UNL     1      92.256 101.755 -42.260  1.00  0.00     0.265 C 
HETATM   27  C22 UNL     1      89.782 102.897 -41.257  1.00  0.00     0.265 C 
HETATM   28  C24 UNL     1      91.012 101.028 -41.818  1.00  0.00     0.265 C 
BRANCH  24  29
HETATM   29  C3  UNL     1      93.112 104.032 -42.291  1.00  0.00     0.237 C 
BRANCH  29  30
HETATM   30  C2  UNL     1      94.482 103.501 -42.117  1.00  0.00     0.023 C 
HETATM   31  C1  UNL     1      95.485 104.215 -42.959  1.00  0.00     0.007 C 
ENDBRANCH  29  30
ENDBRANCH  24  29
ENDBRANCH  20  21
ENDBRANCH   1  20
BRANCH   3  32
HETATM   32  C9  UNL     1      84.116 100.621 -43.099  1.00  0.00     0.212 C 
HETATM   33  N4  UNL     1      83.528 101.742 -43.322  1.00  0.00    -0.365 N 
ATOM     34  H42 UNL     1      84.029 102.452 -43.857  1.00  0.00     0.159 HD
ATOM     35  H41 UNL     1      82.586 101.910 -42.970  1.00  0.00     0.159 HD
BRANCH  32  36
HETATM   36  O1  UNL     1      83.437  99.660 -42.374  1.00  0.00    -0.333 OA
ATOM     37  H1  UNL     1      83.405  99.687 -41.425  1.00  0.00     0.220 HD
ENDBRANCH  32  36
ENDBRANCH   3  32
TORSDOF 10
ENDMDL
