MODEL 1
REMARK VINA RESULT: -6.261426261      0.000      0.000
REMARK  9 active torsions:
REMARK  status: ('A' for Active; 'I' for Inactive)
REMARK    1  A    between atoms: C2_2  and  C5_5 
REMARK    2  A    between atoms: C5_5  and  N1_6 
REMARK       I    between atoms: N2_9  and  C8_10 
REMARK    3  A    between atoms: C8_10  and  C9_12 
REMARK    4  A    between atoms: C10_13  and  C11_14 
REMARK    5  A    between atoms: N4_23  and  C18_25 
REMARK    6  A    between atoms: C18_25  and  C19_26 
REMARK    7  A    between atoms: C19_26  and  C20_27 
REMARK    8  A    between atoms: C20_27  and  C21_28 
REMARK    9  A    between atoms: C21_28  and  C22_29 
REMARK       I    between atoms: C22_29  and  N5_31 
REMARK       I    between atoms: N5_31  and  C23_33 
ROOT
HETATM    1  N1  UNL     1      86.918  99.813 -44.819  1.00  0.00     0.120 N 
HETATM    2  C6  UNL     1      86.642 100.337 -46.132  1.00  0.00     0.318 C 
HETATM    3  C7  UNL     1      88.103  99.014 -45.014  1.00  0.00     0.333 C 
HETATM    4  N2  UNL     1      88.950  98.813 -43.903  1.00  0.00    -0.300 N 
HETATM    5  C8  UNL     1      90.098  97.897 -44.003  1.00  0.00     0.248 C 
HETATM    6  O1  UNL     1      90.786  97.789 -42.981  1.00  0.00    -0.268 OA
HETATM    7  C15 UNL     1      88.732  99.470 -42.662  1.00  0.00     0.163 C 
HETATM    8  C16 UNL     1      87.678 100.513 -42.692  1.00  0.00     0.292 C 
HETATM    9  N4  UNL     1      87.275 100.928 -44.007  1.00  0.00     0.090 N 
HETATM   10  C17 UNL     1      86.147 101.826 -43.839  1.00  0.00     0.310 C 
ENDROOT
BRANCH   9  11
HETATM   11  C18 UNL     1      88.319 101.719 -44.580  1.00  0.00     0.272 C 
BRANCH  11  12
HETATM   12  C19 UNL     1      88.718 102.963 -43.899  1.00  0.00     0.031 C 
BRANCH  12  13
HETATM   13  C20 UNL     1      90.201 103.207 -44.072  1.00  0.00     0.011 C 
BRANCH  13  14
HETATM   14  C21 UNL     1      91.081 102.519 -43.091  1.00  0.00     0.103 C 
BRANCH  14  15
HETATM   15  C22 UNL     1      91.829 101.387 -43.699  1.00  0.00     0.225 C 
HETATM   16  O2  UNL     1      92.416 100.603 -42.923  1.00  0.00    -0.273 OA
HETATM   17  N5  UNL     1      91.902 101.162 -45.090  1.00  0.00    -0.282 N 
HETATM   18  C23 UNL     1      92.625 100.073 -45.626  1.00  0.00     0.335 C 
ATOM     19  H5  UNL     1      91.422 101.801 -45.724  1.00  0.00     0.173 HD
HETATM   20  N6  UNL     1      92.670  99.890 -47.025  1.00  0.00    -0.040 NA
HETATM   21  O3  UNL     1      93.243  99.240 -44.909  1.00  0.00    -0.251 OA
ENDBRANCH  14  15
ENDBRANCH  13  14
ENDBRANCH  12  13
ENDBRANCH  11  12
ENDBRANCH   9  11
BRANCH   1  22
HETATM   22  C5  UNL     1      85.938  99.076 -44.175  1.00  0.00     0.287 C 
BRANCH  22  23
HETATM   23  C2  UNL     1      85.031  98.111 -44.801  1.00  0.00    -0.025 C 
HETATM   24  C1  UNL     1      84.065  98.595 -45.822  1.00  0.00     0.016 C 
HETATM   25  C3  UNL     1      85.649  96.774 -45.162  1.00  0.00     0.016 C 
HETATM   26  C4  UNL     1      84.117  97.677 -43.607  1.00  0.00     0.016 C 
ENDBRANCH  22  23
ENDBRANCH   1  22
BRANCH   5  27
HETATM   27  C9  UNL     1      90.339  97.218 -45.213  1.00  0.00     0.077 C 
HETATM   28  C10 UNL     1      90.777  96.078 -45.601  1.00  0.00     0.035 C 
BRANCH  28  29
HETATM   29  C11 UNL     1      91.254  94.887 -44.970  1.00  0.00     0.033 A 
HETATM   30  C12 UNL     1      91.597  94.797 -43.606  1.00  0.00     0.050 A 
HETATM   31  C13 UNL     1      92.020  93.526 -43.300  1.00  0.00     0.028 A 
HETATM   32 BR1  UNL     1      92.579  92.952 -41.578  1.00  0.00    -0.050 Br
HETATM   33  C14 UNL     1      91.944  92.823 -44.464  1.00  0.00     0.107 A 
HETATM   34  N3  UNL     1      91.486  93.663 -45.431  1.00  0.00    -0.365 N 
ATOM     35  H3  UNL     1      91.337  93.384 -46.400  1.00  0.00     0.165 HD
ENDBRANCH  28  29
ENDBRANCH   5  27
TORSDOF 9
ENDMDL
MODEL 2
REMARK VINA RESULT: -6.065162922      2.519      5.431
REMARK  9 active torsions:
REMARK  status: ('A' for Active; 'I' for Inactive)
REMARK    1  A    between atoms: C2_2  and  C5_5 
REMARK    2  A    between atoms: C5_5  and  N1_6 
REMARK       I    between atoms: N2_9  and  C8_10 
REMARK    3  A    between atoms: C8_10  and  C9_12 
REMARK    4  A    between atoms: C10_13  and  C11_14 
REMARK    5  A    between atoms: N4_23  and  C18_25 
REMARK    6  A    between atoms: C18_25  and  C19_26 
REMARK    7  A    between atoms: C19_26  and  C20_27 
REMARK    8  A    between atoms: C20_27  and  C21_28 
REMARK    9  A    between atoms: C21_28  and  C22_29 
REMARK       I    between atoms: C22_29  and  N5_31 
REMARK       I    between atoms: N5_31  and  C23_33 
ROOT
HETATM    1  N1  UNL     1      90.934 101.483 -42.229  1.00  0.00     0.120 N 
HETATM    2  C6  UNL     1      90.147 102.002 -41.139  1.00  0.00     0.318 C 
HETATM    3  C7  UNL     1      90.937 100.059 -41.999  1.00  0.00     0.333 C 
HETATM    4  N2  UNL     1      91.121  99.213 -43.114  1.00  0.00    -0.300 N 
HETATM    5  C8  UNL     1      91.270  97.761 -42.926  1.00  0.00     0.248 C 
HETATM    6  O1  UNL     1      91.420  97.101 -43.961  1.00  0.00    -0.268 OA
HETATM    7  C15 UNL     1      91.172  99.719 -44.442  1.00  0.00     0.163 C 
HETATM    8  C16 UNL     1      90.828 101.156 -44.569  1.00  0.00     0.292 C 
HETATM    9  N4  UNL     1      90.187 101.729 -43.417  1.00  0.00     0.090 N 
HETATM   10  C17 UNL     1      90.068 103.153 -43.666  1.00  0.00     0.310 C 
ENDROOT
BRANCH   9  11
HETATM   11  C18 UNL     1      88.848 101.234 -43.343  1.00  0.00     0.272 C 
BRANCH  11  12
HETATM   12  C19 UNL     1      87.933 101.498 -44.467  1.00  0.00     0.031 C 
BRANCH  12  13
HETATM   13  C20 UNL     1      86.945 100.363 -44.621  1.00  0.00     0.011 C 
BRANCH  13  14
HETATM   14  C21 UNL     1      87.482  99.004 -44.340  1.00  0.00     0.103 C 
BRANCH  14  15
HETATM   15  C22 UNL     1      87.990  98.333 -45.565  1.00  0.00     0.225 C 
HETATM   16  O2  UNL     1      87.642  98.811 -46.667  1.00  0.00    -0.273 OA
HETATM   17  N5  UNL     1      88.833  97.203 -45.540  1.00  0.00    -0.282 N 
HETATM   18  C23 UNL     1      89.293  96.597 -46.730  1.00  0.00     0.335 C 
ATOM     19  H5  UNL     1      89.118  96.813 -44.641  1.00  0.00     0.173 HD
HETATM   20  N6  UNL     1      90.135  95.466 -46.653  1.00  0.00    -0.040 NA
HETATM   21  O3  UNL     1      88.987  97.019 -47.878  1.00  0.00    -0.251 OA
ENDBRANCH  14  15
ENDBRANCH  13  14
ENDBRANCH  12  13
ENDBRANCH  11  12
ENDBRANCH   9  11
BRANCH   1  22
HETATM   22  C5  UNL     1      92.227 101.948 -42.399  1.00  0.00     0.287 C 
BRANCH  22  23
HETATM   23  C2  UNL     1      92.999 102.731 -41.431  1.00  0.00    -0.025 C 
HETATM   24  C1  UNL     1      92.592 104.136 -41.161  1.00  0.00     0.016 C 
HETATM   25  C3  UNL     1      93.417 101.988 -40.177  1.00  0.00     0.016 C 
HETATM   26  C4  UNL     1      94.386 102.879 -42.139  1.00  0.00     0.016 C 
ENDBRANCH  22  23
ENDBRANCH   1  22
BRANCH   5  27
HETATM   27  C9  UNL     1      91.237  97.225 -41.624  1.00  0.00     0.077 C 
HETATM   28  C10 UNL     1      91.494  96.114 -41.039  1.00  0.00     0.035 C 
BRANCH  28  29
HETATM   29  C11 UNL     1      91.962  94.822 -41.436  1.00  0.00     0.033 A 
HETATM   30  C12 UNL     1      93.239  94.313 -41.126  1.00  0.00     0.050 A 
HETATM   31  C13 UNL     1      93.391  93.049 -41.645  1.00  0.00     0.028 A 
HETATM   32 BR1  UNL     1      94.953  91.985 -41.470  1.00  0.00    -0.050 Br
HETATM   33  C14 UNL     1      92.218  92.767 -42.276  1.00  0.00     0.107 A 
HETATM   34  N3  UNL     1      91.396  93.841 -42.130  1.00  0.00    -0.365 N 
ATOM     35  H3  UNL     1      90.451  93.889 -42.511  1.00  0.00     0.165 HD
ENDBRANCH  28  29
ENDBRANCH   5  27
TORSDOF 9
ENDMDL
MODEL 3
REMARK VINA RESULT: -6.001342201      1.914      2.445
REMARK  9 active torsions:
REMARK  status: ('A' for Active; 'I' for Inactive)
REMARK    1  A    between atoms: C2_2  and  C5_5 
REMARK    2  A    between atoms: C5_5  and  N1_6 
REMARK       I    between atoms: N2_9  and  C8_10 
REMARK    3  A    between atoms: C8_10  and  C9_12 
REMARK    4  A    between atoms: C10_13  and  C11_14 
REMARK    5  A    between atoms: N4_23  and  C18_25 
REMARK    6  A    between atoms: C18_25  and  C19_26 
REMARK    7  A    between atoms: C19_26  and  C20_27 
REMARK    8  A    between atoms: C20_27  and  C21_28 
REMARK    9  A    between atoms: C21_28  and  C22_29 
REMARK       I    between atoms: C22_29  and  N5_31 
REMARK       I    between atoms: N5_31  and  C23_33 
ROOT
HETATM    1  N1  UNL     1      87.901  98.921 -45.265  1.00  0.00     0.120 N 
HETATM    2  C6  UNL     1      87.755  98.922 -46.698  1.00  0.00     0.318 C 
HETATM    3  C7  UNL     1      88.992  98.007 -45.035  1.00  0.00     0.333 C 
HETATM    4  N2  UNL     1      89.752  98.174 -43.857  1.00  0.00    -0.300 N 
HETATM    5  C8  UNL     1      90.789  97.192 -43.498  1.00  0.00     0.248 C 
HETATM    6  O1  UNL     1      91.406  97.426 -42.453  1.00  0.00    -0.268 OA
HETATM    7  C15 UNL     1      89.550  99.275 -42.981  1.00  0.00     0.163 C 
HETATM    8  C16 UNL     1      88.628 100.315 -43.499  1.00  0.00     0.292 C 
HETATM    9  N4  UNL     1      88.344 100.226 -44.905  1.00  0.00     0.090 N 
HETATM   10  C17 UNL     1      87.323 101.216 -45.193  1.00  0.00     0.310 C 
ENDROOT
BRANCH   9  11
HETATM   11  C18 UNL     1      89.502 100.639 -45.635  1.00  0.00     0.272 C 
BRANCH  11  12
HETATM   12  C19 UNL     1      90.047 101.987 -45.393  1.00  0.00     0.031 C 
BRANCH  12  13
HETATM   13  C20 UNL     1      91.553 101.978 -45.526  1.00  0.00     0.011 C 
BRANCH  13  14
HETATM   14  C21 UNL     1      92.265 100.986 -44.677  1.00  0.00     0.103 C 
BRANCH  14  15
HETATM   15  C22 UNL     1      92.791 101.588 -43.424  1.00  0.00     0.225 C 
HETATM   16  O2  UNL     1      92.240 101.254 -42.352  1.00  0.00    -0.273 OA
HETATM   17  N5  UNL     1      93.864 102.503 -43.391  1.00  0.00    -0.282 N 
HETATM   18  C23 UNL     1      94.332 103.050 -42.175  1.00  0.00     0.335 C 
ATOM     19  H5  UNL     1      94.314 102.775 -44.265  1.00  0.00     0.173 HD
HETATM   20  N6  UNL     1      95.409 103.962 -42.193  1.00  0.00    -0.040 NA
HETATM   21  O3  UNL     1      93.829 102.764 -41.055  1.00  0.00    -0.251 OA
ENDBRANCH  14  15
ENDBRANCH  13  14
ENDBRANCH  12  13
ENDBRANCH  11  12
ENDBRANCH   9  11
BRANCH   1  22
HETATM   22  C5  UNL     1      86.810  98.579 -44.484  1.00  0.00     0.287 C 
BRANCH  22  23
HETATM   23  C2  UNL     1      85.579  97.935 -44.951  1.00  0.00    -0.025 C 
HETATM   24  C1  UNL     1      84.618  98.731 -45.758  1.00  0.00     0.016 C 
HETATM   25  C3  UNL     1      85.739  96.515 -45.458  1.00  0.00     0.016 C 
HETATM   26  C4  UNL     1      84.807  97.666 -43.618  1.00  0.00     0.016 C 
ENDBRANCH  22  23
ENDBRANCH   1  22
BRANCH   5  27
HETATM   27  C9  UNL     1      91.009  96.081 -44.335  1.00  0.00     0.077 C 
HETATM   28  C10 UNL     1      91.434  94.876 -44.236  1.00  0.00     0.035 C 
BRANCH  28  29
HETATM   29  C11 UNL     1      91.910  94.034 -43.183  1.00  0.00     0.033 A 
HETATM   30  C12 UNL     1      93.252  93.625 -43.042  1.00  0.00     0.050 A 
HETATM   31  C13 UNL     1      93.395  92.823 -41.935  1.00  0.00     0.028 A 
HETATM   32 BR1  UNL     1      95.031  92.046 -41.363  1.00  0.00    -0.050 Br
HETATM   33  C14 UNL     1      92.153  92.729 -41.386  1.00  0.00     0.107 A 
HETATM   34  N3  UNL     1      91.300  93.460 -42.152  1.00  0.00    -0.365 N 
ATOM     35  H3  UNL     1      90.304  93.557 -41.958  1.00  0.00     0.165 HD
ENDBRANCH  28  29
ENDBRANCH   5  27
TORSDOF 9
ENDMDL
MODEL 4
REMARK VINA RESULT: -5.984133319      3.413      6.589
REMARK  9 active torsions:
REMARK  status: ('A' for Active; 'I' for Inactive)
REMARK    1  A    between atoms: C2_2  and  C5_5 
REMARK    2  A    between atoms: C5_5  and  N1_6 
REMARK       I    between atoms: N2_9  and  C8_10 
REMARK    3  A    between atoms: C8_10  and  C9_12 
REMARK    4  A    between atoms: C10_13  and  C11_14 
REMARK    5  A    between atoms: N4_23  and  C18_25 
REMARK    6  A    between atoms: C18_25  and  C19_26 
REMARK    7  A    between atoms: C19_26  and  C20_27 
REMARK    8  A    between atoms: C20_27  and  C21_28 
REMARK    9  A    between atoms: C21_28  and  C22_29 
REMARK       I    between atoms: C22_29  and  N5_31 
REMARK       I    between atoms: N5_31  and  C23_33 
ROOT
HETATM    1  N1  UNL     1      88.409  99.284 -44.643  1.00  0.00     0.120 N 
HETATM    2  C6  UNL     1      87.512  98.414 -43.927  1.00  0.00     0.318 C 
HETATM    3  C7  UNL     1      89.377  99.669 -43.647  1.00  0.00     0.333 C 
HETATM    4  N2  UNL     1      90.664 100.045 -44.092  1.00  0.00    -0.300 N 
HETATM    5  C8  UNL     1      91.651 100.578 -43.138  1.00  0.00     0.248 C 
HETATM    6  O1  UNL     1      92.752 100.873 -43.619  1.00  0.00    -0.268 OA
HETATM    7  C15 UNL     1      91.053  99.930 -45.454  1.00  0.00     0.163 C 
HETATM    8  C16 UNL     1      90.080  99.215 -46.315  1.00  0.00     0.292 C 
HETATM    9  N4  UNL     1      89.075  98.472 -45.605  1.00  0.00     0.090 N 
HETATM   10  C17 UNL     1      88.139  97.974 -46.596  1.00  0.00     0.310 C 
ENDROOT
BRANCH   9  11
HETATM   11  C18 UNL     1      89.681  97.313 -45.028  1.00  0.00     0.272 C 
BRANCH  11  12
HETATM   12  C19 UNL     1      89.977  96.161 -45.898  1.00  0.00     0.031 C 
BRANCH  12  13
HETATM   13  C20 UNL     1      91.343  95.595 -45.579  1.00  0.00     0.011 C 
BRANCH  13  14
HETATM   14  C21 UNL     1      91.347  94.239 -44.969  1.00  0.00     0.103 C 
BRANCH  14  15
HETATM   15  C22 UNL     1      91.351  94.288 -43.484  1.00  0.00     0.225 C 
HETATM   16  O2  UNL     1      91.009  93.251 -42.874  1.00  0.00    -0.273 OA
HETATM   17  N5  UNL     1      91.717  95.432 -42.744  1.00  0.00    -0.282 N 
HETATM   18  C23 UNL     1      91.706  95.434 -41.331  1.00  0.00     0.335 C 
ATOM     19  H5  UNL     1      91.996  96.278 -43.241  1.00  0.00     0.173 HD
HETATM   20  N6  UNL     1      92.080  96.603 -40.636  1.00  0.00    -0.040 NA
HETATM   21  O3  UNL     1      91.374  94.429 -40.646  1.00  0.00    -0.251 OA
ENDBRANCH  14  15
ENDBRANCH  13  14
ENDBRANCH  12  13
ENDBRANCH  11  12
ENDBRANCH   9  11
BRANCH   1  22
HETATM   22  C5  UNL     1      87.891 100.404 -45.273  1.00  0.00     0.287 C 
BRANCH  22  23
HETATM   23  C2  UNL     1      86.583 101.012 -45.017  1.00  0.00    -0.025 C 
HETATM   24  C1  UNL     1      85.365 100.328 -45.524  1.00  0.00     0.016 C 
HETATM   25  C3  UNL     1      86.396 101.597 -43.630  1.00  0.00     0.016 C 
HETATM   26  C4  UNL     1      86.646 102.326 -45.863  1.00  0.00     0.016 C 
ENDBRANCH  22  23
ENDBRANCH   1  22
BRANCH   5  27
HETATM   27  C9  UNL     1      91.298 100.717 -41.782  1.00  0.00     0.077 C 
HETATM   28  C10 UNL     1      91.763 101.271 -40.723  1.00  0.00     0.035 C 
BRANCH  28  29
HETATM   29  C11 UNL     1      92.914 102.050 -40.387  1.00  0.00     0.033 A 
HETATM   30  C12 UNL     1      93.028 102.830 -39.218  1.00  0.00     0.050 A 
HETATM   31  C13 UNL     1      94.248 103.460 -39.179  1.00  0.00     0.028 A 
HETATM   32 BR1  UNL     1      94.831 104.611 -37.785  1.00  0.00    -0.050 Br
HETATM   33  C14 UNL     1      94.897 103.078 -40.314  1.00  0.00     0.107 A 
HETATM   34  N3  UNL     1      94.075 102.243 -41.004  1.00  0.00    -0.365 N 
ATOM     35  H3  UNL     1      94.321 101.812 -41.895  1.00  0.00     0.165 HD
ENDBRANCH  28  29
ENDBRANCH   5  27
TORSDOF 9
ENDMDL
MODEL 5
REMARK VINA RESULT: -5.969948785      2.116      2.575
REMARK  9 active torsions:
REMARK  status: ('A' for Active; 'I' for Inactive)
REMARK    1  A    between atoms: C2_2  and  C5_5 
REMARK    2  A    between atoms: C5_5  and  N1_6 
REMARK       I    between atoms: N2_9  and  C8_10 
REMARK    3  A    between atoms: C8_10  and  C9_12 
REMARK    4  A    between atoms: C10_13  and  C11_14 
REMARK    5  A    between atoms: N4_23  and  C18_25 
REMARK    6  A    between atoms: C18_25  and  C19_26 
REMARK    7  A    between atoms: C19_26  and  C20_27 
REMARK    8  A    between atoms: C20_27  and  C21_28 
REMARK    9  A    between atoms: C21_28  and  C22_29 
REMARK       I    between atoms: C22_29  and  N5_31 
REMARK       I    between atoms: N5_31  and  C23_33 
ROOT
HETATM    1  N1  UNL     1      87.930  98.814 -45.405  1.00  0.00     0.120 N 
HETATM    2  C6  UNL     1      87.755  98.761 -46.834  1.00  0.00     0.318 C 
HETATM    3  C7  UNL     1      89.017  97.898 -45.161  1.00  0.00     0.333 C 
HETATM    4  N2  UNL     1      89.802  98.103 -44.005  1.00  0.00    -0.300 N 
HETATM    5  C8  UNL     1      90.836  97.125 -43.629  1.00  0.00     0.248 C 
HETATM    6  O1  UNL     1      91.476  97.392 -42.605  1.00  0.00    -0.268 OA
HETATM    7  C15 UNL     1      89.628  99.239 -43.169  1.00  0.00     0.163 C 
HETATM    8  C16 UNL     1      88.706 100.267 -43.708  1.00  0.00     0.292 C 
HETATM    9  N4  UNL     1      88.393 100.127 -45.104  1.00  0.00     0.090 N 
HETATM   10  C17 UNL     1      87.375 101.115 -45.410  1.00  0.00     0.310 C 
ENDROOT
BRANCH   9  11
HETATM   11  C18 UNL     1      89.539 100.500 -45.872  1.00  0.00     0.272 C 
BRANCH  11  12
HETATM   12  C19 UNL     1      90.301 101.696 -45.472  1.00  0.00     0.031 C 
BRANCH  12  13
HETATM   13  C20 UNL     1      91.773 101.369 -45.353  1.00  0.00     0.011 C 
BRANCH  13  14
HETATM   14  C21 UNL     1      92.664 102.072 -46.314  1.00  0.00     0.103 C 
BRANCH  14  15
HETATM   15  C22 UNL     1      93.067 101.202 -47.449  1.00  0.00     0.225 C 
HETATM   16  O2  UNL     1      92.801  99.983 -47.361  1.00  0.00    -0.273 OA
HETATM   17  N5  UNL     1      93.724 101.681 -48.602  1.00  0.00    -0.282 N 
HETATM   18  C23 UNL     1      94.088 100.818 -49.659  1.00  0.00     0.335 C 
ATOM     19  H5  UNL     1      93.940 102.676 -48.675  1.00  0.00     0.173 HD
HETATM   20  N6  UNL     1      94.745 101.345 -50.792  1.00  0.00    -0.040 NA
HETATM   21  O3  UNL     1      93.855  99.578 -49.644  1.00  0.00    -0.251 OA
ENDBRANCH  14  15
ENDBRANCH  13  14
ENDBRANCH  12  13
ENDBRANCH  11  12
ENDBRANCH   9  11
BRANCH   1  22
HETATM   22  C5  UNL     1      86.851  98.513 -44.590  1.00  0.00     0.287 C 
BRANCH  22  23
HETATM   23  C2  UNL     1      85.601  97.875 -45.009  1.00  0.00    -0.025 C 
HETATM   24  C1  UNL     1      84.652  98.649 -45.852  1.00  0.00     0.016 C 
HETATM   25  C3  UNL     1      85.720  96.425 -45.436  1.00  0.00     0.016 C 
HETATM   26  C4  UNL     1      84.835  97.702 -43.657  1.00  0.00     0.016 C 
ENDBRANCH  22  23
ENDBRANCH   1  22
BRANCH   5  27
HETATM   27  C9  UNL     1      91.029  95.980 -44.427  1.00  0.00     0.077 C 
HETATM   28  C10 UNL     1      91.438  94.774 -44.287  1.00  0.00     0.035 C 
BRANCH  28  29
HETATM   29  C11 UNL     1      91.917  93.964 -43.210  1.00  0.00     0.033 A 
HETATM   30  C12 UNL     1      93.264  93.582 -43.045  1.00  0.00     0.050 A 
HETATM   31  C13 UNL     1      93.408  92.808 -41.918  1.00  0.00     0.028 A 
HETATM   32 BR1  UNL     1      95.050  92.073 -41.310  1.00  0.00    -0.050 Br
HETATM   33  C14 UNL     1      92.162  92.706 -41.380  1.00  0.00     0.107 A 
HETATM   34  N3  UNL     1      91.305  93.404 -42.172  1.00  0.00    -0.365 N 
ATOM     35  H3  UNL     1      90.305  93.489 -41.991  1.00  0.00     0.165 HD
ENDBRANCH  28  29
ENDBRANCH   5  27
TORSDOF 9
ENDMDL
