MODEL 1
REMARK VINA RESULT: -7.276953193      0.000      0.000
REMARK  8 active torsions:
REMARK  status: ('A' for Active; 'I' for Inactive)
REMARK    1  A    between atoms: N2_4  and  N3_6 
REMARK    2  A    between atoms: N3_6  and  C1_8 
REMARK       I    between atoms: N4_11  and  C4_12 
REMARK    3  A    between atoms: C4_12  and  C5_14 
REMARK    4  A    between atoms: C5_14  and  C6_15 
REMARK    5  A    between atoms: C7_16  and  C8_17 
REMARK    6  A    between atoms: C11_20  and  C12_21 
REMARK    7  A    between atoms: C12_21  and  C13_22 
REMARK       I    between atoms: N5_29  and  C19_30 
REMARK    8  A    between atoms: C19_30  and  C20_32 
ROOT
HETATM    1  C8  UNL     1      90.190  98.276 -45.467  1.00  0.00     0.115 C 
HETATM    2  C9  UNL     1      90.941  99.567 -45.946  1.00  0.00     0.035 C 
HETATM    3  C10 UNL     1      90.313 100.503 -44.879  1.00  0.00     0.055 C 
HETATM    4  C11 UNL     1      90.555  99.657 -43.634  1.00  0.00    -0.003 C 
HETATM    5  N5  UNL     1      90.511  98.310 -44.074  1.00  0.00    -0.316 N 
HETATM    6  C19 UNL     1      90.865  97.163 -43.296  1.00  0.00     0.228 C 
HETATM    7  O2  UNL     1      91.049  97.366 -42.039  1.00  0.00    -0.273 OA
ENDROOT
BRANCH   1   8
HETATM    8  C7  UNL     1      88.799  98.373 -45.906  1.00  0.00    -0.005 C 
HETATM    9  C6  UNL     1      87.791  97.828 -45.306  1.00  0.00    -0.019 C 
BRANCH   9  10
HETATM   10  C5  UNL     1      86.363  97.788 -45.553  1.00  0.00     0.130 C 
BRANCH  10  11
HETATM   11  C4  UNL     1      85.428  98.103 -44.486  1.00  0.00     0.223 C 
HETATM   12  N4  UNL     1      85.002  99.460 -44.322  1.00  0.00    -0.350 N 
HETATM   13  C3  UNL     1      85.420 100.563 -45.131  1.00  0.00     0.128 C 
HETATM   14  C26 UNL     1      84.087  99.946 -43.322  1.00  0.00     0.152 C 
HETATM   15  C2  UNL     1      85.457 101.744 -44.210  1.00  0.00     0.048 C 
HETATM   16  C1  UNL     1      84.431 101.419 -43.173  1.00  0.00     0.120 C 
HETATM   17  O1  UNL     1      84.971  97.265 -43.702  1.00  0.00    -0.273 OA
BRANCH  16  18
HETATM   18  N3  UNL     1      84.932 101.679 -41.837  1.00  0.00    -0.316 N 
ATOM     19  H3  UNL     1      85.893 101.999 -41.721  1.00  0.00     0.182 HD
BRANCH  18  20
HETATM   20  N2  UNL     1      84.134 101.504 -40.709  1.00  0.00    -0.253 N 
HETATM   21  N1  UNL     1      83.780 102.507 -39.995  1.00  0.00    -0.331 N 
ATOM     22  H12 UNL     1      84.095 103.437 -40.269  1.00  0.00     0.178 HD
ATOM     23  H11 UNL     1      83.195 102.378 -39.169  1.00  0.00     0.178 HD
ATOM     24  H2  UNL     1      83.827 100.566 -40.449  1.00  0.00     0.207 HD
ENDBRANCH  18  20
ENDBRANCH  16  18
ENDBRANCH  10  11
ENDBRANCH   9  10
ENDBRANCH   1   8
BRANCH   4  25
HETATM   25  C12 UNL     1      89.953 100.132 -42.403  1.00  0.00     0.091 C 
BRANCH  25  26
HETATM   26  C13 UNL     1      90.683 101.018 -41.505  1.00  0.00    -0.052 A 
HETATM   27  C14 UNL     1      91.994 100.749 -41.198  1.00  0.00     0.007 A 
HETATM   28  C15 UNL     1      92.702 101.557 -40.313  1.00  0.00     0.002 A 
HETATM   29  C16 UNL     1      92.040 102.630 -39.763  1.00  0.00     0.019 A 
HETATM   30  C17 UNL     1      90.730 102.947 -40.033  1.00  0.00     0.011 A 
HETATM   31 BR1  UNL     1      89.863 104.453 -39.236  1.00  0.00    -0.051 Br
HETATM   32  C18 UNL     1      90.077 102.102 -40.923  1.00  0.00     0.026 A 
ENDBRANCH  25  26
ENDBRANCH   4  25
BRANCH   6  33
HETATM   33  C20 UNL     1      91.042  95.798 -43.798  1.00  0.00     0.078 C 
HETATM   34  C21 UNL     1      91.687  94.812 -42.894  1.00  0.00     0.014 C 
HETATM   35  C22 UNL     1      92.368  93.690 -43.653  1.00  0.00     0.001 C 
HETATM   36  C23 UNL     1      91.653  93.394 -44.953  1.00  0.00     0.000 C 
HETATM   37  C24 UNL     1      91.633  94.587 -45.881  1.00  0.00     0.001 C 
HETATM   38  C25 UNL     1      91.855  95.866 -45.104  1.00  0.00     0.014 C 
ENDBRANCH   6  33
TORSDOF 8
ENDMDL
MODEL 2
REMARK VINA RESULT: -6.984279115      3.475      6.485
REMARK  8 active torsions:
REMARK  status: ('A' for Active; 'I' for Inactive)
REMARK    1  A    between atoms: N2_4  and  N3_6 
REMARK    2  A    between atoms: N3_6  and  C1_8 
REMARK       I    between atoms: N4_11  and  C4_12 
REMARK    3  A    between atoms: C4_12  and  C5_14 
REMARK    4  A    between atoms: C5_14  and  C6_15 
REMARK    5  A    between atoms: C7_16  and  C8_17 
REMARK    6  A    between atoms: C11_20  and  C12_21 
REMARK    7  A    between atoms: C12_21  and  C13_22 
REMARK       I    between atoms: N5_29  and  C19_30 
REMARK    8  A    between atoms: C19_30  and  C20_32 
ROOT
HETATM    1  C8  UNL     1      88.835  98.742 -43.538  1.00  0.00     0.115 C 
HETATM    2  C9  UNL     1      87.583  98.963 -44.455  1.00  0.00     0.035 C 
HETATM    3  C10 UNL     1      88.285  99.952 -45.423  1.00  0.00     0.055 C 
HETATM    4  C11 UNL     1      89.557  99.159 -45.707  1.00  0.00    -0.003 C 
HETATM    5  N5  UNL     1      89.809  98.409 -44.531  1.00  0.00    -0.316 N 
HETATM    6  C19 UNL     1      90.791  97.379 -44.389  1.00  0.00     0.228 C 
HETATM    7  O2  UNL     1      91.637  97.266 -45.352  1.00  0.00    -0.273 OA
ENDROOT
BRANCH   1   8
HETATM    8  C7  UNL     1      89.005  99.935 -42.709  1.00  0.00    -0.005 C 
HETATM    9  C6  UNL     1      90.132 100.355 -42.234  1.00  0.00    -0.019 C 
BRANCH   9  10
HETATM   10  C5  UNL     1      90.530 101.478 -41.408  1.00  0.00     0.130 C 
BRANCH  10  11
HETATM   11  C4  UNL     1      91.824 101.477 -40.747  1.00  0.00     0.223 C 
HETATM   12  N4  UNL     1      92.557 102.703 -40.665  1.00  0.00    -0.350 N 
HETATM   13  C3  UNL     1      92.124 103.964 -41.184  1.00  0.00     0.128 C 
HETATM   14  C26 UNL     1      93.847 102.880 -40.051  1.00  0.00     0.152 C 
HETATM   15  C2  UNL     1      93.371 104.665 -41.627  1.00  0.00     0.048 C 
HETATM   16  C1  UNL     1      94.431 104.107 -40.732  1.00  0.00     0.120 C 
HETATM   17  O1  UNL     1      92.339 100.472 -40.246  1.00  0.00    -0.273 OA
BRANCH  16  18
HETATM   18  N3  UNL     1      95.616 103.742 -41.483  1.00  0.00    -0.316 N 
ATOM     19  H3  UNL     1      96.487 103.568 -40.983  1.00  0.00     0.182 HD
BRANCH  18  20
HETATM   20  N2  UNL     1      95.595 103.624 -42.871  1.00  0.00    -0.253 N 
HETATM   21  N1  UNL     1      96.407 104.299 -43.597  1.00  0.00    -0.331 N 
ATOM     22  H12 UNL     1      97.069 104.924 -43.139  1.00  0.00     0.178 HD
ATOM     23  H11 UNL     1      96.391 104.212 -44.614  1.00  0.00     0.178 HD
ATOM     24  H2  UNL     1      94.926 102.994 -43.314  1.00  0.00     0.207 HD
ENDBRANCH  18  20
ENDBRANCH  16  18
ENDBRANCH  10  11
ENDBRANCH   9  10
ENDBRANCH   1   8
BRANCH   4  25
HETATM   25  C12 UNL     1      90.582  99.836 -46.477  1.00  0.00     0.091 C 
BRANCH  25  26
HETATM   26  C13 UNL     1      91.204 101.060 -45.986  1.00  0.00    -0.052 A 
HETATM   27  C14 UNL     1      92.104 100.999 -44.951  1.00  0.00     0.007 A 
HETATM   28  C15 UNL     1      92.684 102.156 -44.438  1.00  0.00     0.002 A 
HETATM   29  C16 UNL     1      92.322 103.355 -45.006  1.00  0.00     0.019 A 
HETATM   30  C17 UNL     1      91.427 103.476 -46.044  1.00  0.00     0.011 A 
HETATM   31 BR1  UNL     1      90.961 105.172 -46.793  1.00  0.00    -0.051 Br
HETATM   32  C18 UNL     1      90.882 102.285 -46.511  1.00  0.00     0.026 A 
ENDBRANCH  25  26
ENDBRANCH   4  25
BRANCH   6  33
HETATM   33  C20 UNL     1      90.912  96.448 -43.264  1.00  0.00     0.078 C 
HETATM   34  C21 UNL     1      91.492  96.969 -42.000  1.00  0.00     0.014 C 
HETATM   35  C22 UNL     1      92.132  95.879 -41.164  1.00  0.00     0.001 C 
HETATM   36  C23 UNL     1      91.429  94.554 -41.358  1.00  0.00     0.000 C 
HETATM   37  C24 UNL     1      91.484  94.080 -42.793  1.00  0.00     0.001 C 
HETATM   38  C25 UNL     1      91.752  95.243 -43.724  1.00  0.00     0.014 C 
ENDBRANCH   6  33
TORSDOF 8
ENDMDL
MODEL 3
REMARK VINA RESULT: -6.934939164      2.457      3.442
REMARK  8 active torsions:
REMARK  status: ('A' for Active; 'I' for Inactive)
REMARK    1  A    between atoms: N2_4  and  N3_6 
REMARK    2  A    between atoms: N3_6  and  C1_8 
REMARK       I    between atoms: N4_11  and  C4_12 
REMARK    3  A    between atoms: C4_12  and  C5_14 
REMARK    4  A    between atoms: C5_14  and  C6_15 
REMARK    5  A    between atoms: C7_16  and  C8_17 
REMARK    6  A    between atoms: C11_20  and  C12_21 
REMARK    7  A    between atoms: C12_21  and  C13_22 
REMARK       I    between atoms: N5_29  and  C19_30 
REMARK    8  A    between atoms: C19_30  and  C20_32 
ROOT
HETATM    1  C8  UNL     1      91.818  98.733 -45.108  1.00  0.00     0.115 C 
HETATM    2  C9  UNL     1      92.792  99.953 -44.960  1.00  0.00     0.035 C 
HETATM    3  C10 UNL     1      91.854 100.775 -44.037  1.00  0.00     0.055 C 
HETATM    4  C11 UNL     1      91.502  99.696 -43.018  1.00  0.00    -0.003 C 
HETATM    5  N5  UNL     1      91.543  98.471 -43.730  1.00  0.00    -0.316 N 
HETATM    6  C19 UNL     1      91.462  97.164 -43.154  1.00  0.00     0.228 C 
HETATM    7  O2  UNL     1      91.130  97.112 -41.912  1.00  0.00    -0.273 OA
ENDROOT
BRANCH   1   8
HETATM    8  C7  UNL     1      90.740  99.124 -46.015  1.00  0.00    -0.005 C 
HETATM    9  C6  UNL     1      89.535  98.655 -45.981  1.00  0.00    -0.019 C 
BRANCH   9  10
HETATM   10  C5  UNL     1      88.334  98.886 -46.760  1.00  0.00     0.130 C 
BRANCH  10  11
HETATM   11  C4  UNL     1      87.312  97.856 -46.850  1.00  0.00     0.223 C 
HETATM   12  N4  UNL     1      85.936  98.245 -46.804  1.00  0.00    -0.350 N 
HETATM   13  C3  UNL     1      85.458  99.587 -46.676  1.00  0.00     0.128 C 
HETATM   14  C26 UNL     1      84.802  97.361 -46.877  1.00  0.00     0.152 C 
HETATM   15  C2  UNL     1      84.195  99.488 -45.877  1.00  0.00     0.048 C 
HETATM   16  C1  UNL     1      83.677  98.123 -46.196  1.00  0.00     0.120 C 
HETATM   17  O1  UNL     1      87.559  96.651 -46.965  1.00  0.00    -0.273 OA
BRANCH  16  18
HETATM   18  N3  UNL     1      83.259  97.424 -44.996  1.00  0.00    -0.316 N 
ATOM     19  H3  UNL     1      82.271  97.211 -44.864  1.00  0.00     0.182 HD
BRANCH  18  20
HETATM   20  N2  UNL     1      84.173  97.039 -44.018  1.00  0.00    -0.253 N 
HETATM   21  N1  UNL     1      84.185  97.612 -42.872  1.00  0.00    -0.331 N 
ATOM     22  H12 UNL     1      83.512  98.355 -42.690  1.00  0.00     0.178 HD
ATOM     23  H11 UNL     1      84.855  97.329 -42.156  1.00  0.00     0.178 HD
ATOM     24  H2  UNL     1      84.840  96.293 -44.216  1.00  0.00     0.207 HD
ENDBRANCH  18  20
ENDBRANCH  16  18
ENDBRANCH  10  11
ENDBRANCH   9  10
ENDBRANCH   1   8
BRANCH   4  25
HETATM   25  C12 UNL     1      90.486 100.037 -42.041  1.00  0.00     0.091 C 
BRANCH  25  26
HETATM   26  C13 UNL     1      89.111 100.299 -42.448  1.00  0.00    -0.052 A 
HETATM   27  C14 UNL     1      88.309  99.258 -42.850  1.00  0.00     0.007 A 
HETATM   28  C15 UNL     1      87.005  99.486 -43.279  1.00  0.00     0.002 A 
HETATM   29  C16 UNL     1      86.554 100.784 -43.286  1.00  0.00     0.019 A 
HETATM   30  C17 UNL     1      87.311 101.864 -42.895  1.00  0.00     0.011 A 
HETATM   31 BR1  UNL     1      86.629 103.650 -42.926  1.00  0.00    -0.051 Br
HETATM   32  C18 UNL     1      88.605 101.573 -42.477  1.00  0.00     0.026 A 
ENDBRANCH  25  26
ENDBRANCH   4  25
BRANCH   6  33
HETATM   33  C20 UNL     1      91.727  95.898 -43.842  1.00  0.00     0.078 C 
HETATM   34  C21 UNL     1      90.924  95.593 -45.054  1.00  0.00     0.014 C 
HETATM   35  C22 UNL     1      90.809  94.104 -45.313  1.00  0.00     0.001 C 
HETATM   36  C23 UNL     1      92.039  93.366 -44.833  1.00  0.00     0.000 C 
HETATM   37  C24 UNL     1      92.261  93.526 -43.345  1.00  0.00     0.001 C 
HETATM   38  C25 UNL     1      91.537  94.752 -42.832  1.00  0.00     0.014 C 
ENDBRANCH   6  33
TORSDOF 8
ENDMDL
MODEL 4
REMARK VINA RESULT: -6.883297656      1.238      1.865
REMARK  8 active torsions:
REMARK  status: ('A' for Active; 'I' for Inactive)
REMARK    1  A    between atoms: N2_4  and  N3_6 
REMARK    2  A    between atoms: N3_6  and  C1_8 
REMARK       I    between atoms: N4_11  and  C4_12 
REMARK    3  A    between atoms: C4_12  and  C5_14 
REMARK    4  A    between atoms: C5_14  and  C6_15 
REMARK    5  A    between atoms: C7_16  and  C8_17 
REMARK    6  A    between atoms: C11_20  and  C12_21 
REMARK    7  A    between atoms: C12_21  and  C13_22 
REMARK       I    between atoms: N5_29  and  C19_30 
REMARK    8  A    between atoms: C19_30  and  C20_32 
ROOT
HETATM    1  C8  UNL     1      91.313  98.001 -44.911  1.00  0.00     0.115 C 
HETATM    2  C9  UNL     1      92.014  99.326 -45.371  1.00  0.00     0.035 C 
HETATM    3  C10 UNL     1      90.997 100.273 -44.681  1.00  0.00     0.055 C 
HETATM    4  C11 UNL     1      90.962  99.633 -43.297  1.00  0.00    -0.003 C 
HETATM    5  N5  UNL     1      91.207  98.253 -43.508  1.00  0.00    -0.316 N 
HETATM    6  C19 UNL     1      91.450  97.280 -42.489  1.00  0.00     0.228 C 
HETATM    7  O2  UNL     1      91.234  97.661 -41.279  1.00  0.00    -0.273 OA
ENDROOT
BRANCH   1   8
HETATM    8  C7  UNL     1      90.108  97.822 -45.722  1.00  0.00    -0.005 C 
HETATM    9  C6  UNL     1      88.936  97.537 -45.257  1.00  0.00    -0.019 C 
BRANCH   9  10
HETATM   10  C5  UNL     1      87.633  97.316 -45.854  1.00  0.00     0.130 C 
BRANCH  10  11
HETATM   11  C4  UNL     1      86.427  97.683 -45.132  1.00  0.00     0.223 C 
HETATM   12  N4  UNL     1      86.133  99.071 -44.941  1.00  0.00    -0.350 N 
HETATM   13  C3  UNL     1      86.936 100.159 -45.408  1.00  0.00     0.128 C 
HETATM   14  C26 UNL     1      84.990  99.609 -44.252  1.00  0.00     0.152 C 
HETATM   15  C2  UNL     1      86.786 101.238 -44.380  1.00  0.00     0.048 C 
HETATM   16  C1  UNL     1      85.430 100.992 -43.801  1.00  0.00     0.120 C 
HETATM   17  O1  UNL     1      85.628  96.864 -44.666  1.00  0.00    -0.273 OA
BRANCH  16  18
HETATM   18  N3  UNL     1      85.456 101.058 -42.352  1.00  0.00    -0.316 N 
ATOM     19  H3  UNL     1      86.355 101.110 -41.874  1.00  0.00     0.182 HD
BRANCH  18  20
HETATM   20  N2  UNL     1      84.286 101.051 -41.598  1.00  0.00    -0.253 N 
HETATM   21  N1  UNL     1      84.159 101.816 -40.578  1.00  0.00    -0.331 N 
ATOM     22  H12 UNL     1      84.934 102.430 -40.330  1.00  0.00     0.178 HD
ATOM     23  H11 UNL     1      83.301 101.810 -40.026  1.00  0.00     0.178 HD
ATOM     24  H2  UNL     1      83.520 100.429 -41.861  1.00  0.00     0.207 HD
ENDBRANCH  18  20
ENDBRANCH  16  18
ENDBRANCH  10  11
ENDBRANCH   9  10
ENDBRANCH   1   8
BRANCH   4  25
HETATM   25  C12 UNL     1      89.977 100.154 -42.369  1.00  0.00     0.091 C 
BRANCH  25  26
HETATM   26  C13 UNL     1      90.278 101.298 -41.517  1.00  0.00    -0.052 A 
HETATM   27  C14 UNL     1      89.383 102.335 -41.425  1.00  0.00     0.007 A 
HETATM   28  C15 UNL     1      89.664 103.455 -40.649  1.00  0.00     0.002 A 
HETATM   29  C16 UNL     1      90.865 103.482 -39.981  1.00  0.00     0.019 A 
HETATM   30  C17 UNL     1      91.799 102.473 -40.035  1.00  0.00     0.011 A 
HETATM   31 BR1  UNL     1      93.454 102.567 -39.084  1.00  0.00    -0.051 Br
HETATM   32  C18 UNL     1      91.461 101.382 -40.828  1.00  0.00     0.026 A 
ENDBRANCH  25  26
ENDBRANCH   4  25
BRANCH   6  33
HETATM   33  C20 UNL     1      91.924  95.910 -42.697  1.00  0.00     0.078 C 
HETATM   34  C21 UNL     1      91.328  95.139 -43.818  1.00  0.00     0.014 C 
HETATM   35  C22 UNL     1      91.387  93.642 -43.590  1.00  0.00     0.001 C 
HETATM   36  C23 UNL     1      92.603  93.260 -42.774  1.00  0.00     0.000 C 
HETATM   37  C24 UNL     1      92.601  93.902 -41.405  1.00  0.00     0.001 C 
HETATM   38  C25 UNL     1      91.703  95.120 -41.394  1.00  0.00     0.014 C 
ENDBRANCH   6  33
TORSDOF 8
ENDMDL
MODEL 5
REMARK VINA RESULT: -6.749863251      3.470      7.386
REMARK  8 active torsions:
REMARK  status: ('A' for Active; 'I' for Inactive)
REMARK    1  A    between atoms: N2_4  and  N3_6 
REMARK    2  A    between atoms: N3_6  and  C1_8 
REMARK       I    between atoms: N4_11  and  C4_12 
REMARK    3  A    between atoms: C4_12  and  C5_14 
REMARK    4  A    between atoms: C5_14  and  C6_15 
REMARK    5  A    between atoms: C7_16  and  C8_17 
REMARK    6  A    between atoms: C11_20  and  C12_21 
REMARK    7  A    between atoms: C12_21  and  C13_22 
REMARK       I    between atoms: N5_29  and  C19_30 
REMARK    8  A    between atoms: C19_30  and  C20_32 
ROOT
HETATM    1  C8  UNL     1      89.940 100.619 -45.746  1.00  0.00     0.115 C 
HETATM    2  C9  UNL     1      91.204 100.269 -46.606  1.00  0.00     0.035 C 
HETATM    3  C10 UNL     1      91.879  99.391 -45.520  1.00  0.00     0.055 C 
HETATM    4  C11 UNL     1      90.695  98.505 -45.146  1.00  0.00    -0.003 C 
HETATM    5  N5  UNL     1      89.542  99.304 -45.351  1.00  0.00    -0.316 N 
HETATM    6  C19 UNL     1      88.187  98.846 -45.308  1.00  0.00     0.228 C 
HETATM    7  O2  UNL     1      88.006  97.656 -44.856  1.00  0.00    -0.273 OA
ENDROOT
BRANCH   1   8
HETATM    8  C7  UNL     1      90.337 101.604 -44.740  1.00  0.00    -0.005 C 
HETATM    9  C6  UNL     1      89.637 102.634 -44.394  1.00  0.00    -0.019 C 
BRANCH   9  10
HETATM   10  C5  UNL     1      89.824 103.718 -43.448  1.00  0.00     0.130 C 
BRANCH  10  11
HETATM   11  C4  UNL     1      90.160 103.430 -42.064  1.00  0.00     0.223 C 
HETATM   12  N4  UNL     1      91.540 103.329 -41.697  1.00  0.00    -0.350 N 
HETATM   13  C3  UNL     1      92.648 103.491 -42.586  1.00  0.00     0.128 C 
HETATM   14  C26 UNL     1      92.048 103.049 -40.379  1.00  0.00     0.152 C 
HETATM   15  C2  UNL     1      93.706 102.557 -42.084  1.00  0.00     0.048 C 
HETATM   16  C1  UNL     1      93.429 102.460 -40.618  1.00  0.00     0.120 C 
HETATM   17  O1  UNL     1      89.321 103.263 -41.173  1.00  0.00    -0.273 OA
BRANCH  16  18
HETATM   18  N3  UNL     1      93.468 101.084 -40.164  1.00  0.00    -0.316 N 
ATOM     19  H3  UNL     1      94.329 100.720 -39.756  1.00  0.00     0.182 HD
BRANCH  18  20
HETATM   20  N2  UNL     1      92.361 100.246 -40.272  1.00  0.00    -0.253 N 
HETATM   21  N1  UNL     1      92.395  99.210 -41.025  1.00  0.00    -0.331 N 
ATOM     22  H12 UNL     1      93.250  99.010 -41.543  1.00  0.00     0.178 HD
ATOM     23  H11 UNL     1      91.584  98.596 -41.104  1.00  0.00     0.178 HD
ATOM     24  H2  UNL     1      91.513 100.460 -39.747  1.00  0.00     0.207 HD
ENDBRANCH  18  20
ENDBRANCH  16  18
ENDBRANCH  10  11
ENDBRANCH   9  10
ENDBRANCH   1   8
BRANCH   4  25
HETATM   25  C12 UNL     1      90.883  97.620 -44.013  1.00  0.00     0.091 C 
BRANCH  25  26
HETATM   26  C13 UNL     1      91.184  96.207 -44.207  1.00  0.00    -0.052 A 
HETATM   27  C14 UNL     1      91.075  95.652 -45.458  1.00  0.00     0.007 A 
HETATM   28  C15 UNL     1      91.321  94.297 -45.663  1.00  0.00     0.002 A 
HETATM   29  C16 UNL     1      91.675  93.542 -44.570  1.00  0.00     0.019 A 
HETATM   30  C17 UNL     1      91.800  94.044 -43.296  1.00  0.00     0.011 A 
HETATM   31 BR1  UNL     1      92.296  92.943 -41.813  1.00  0.00    -0.051 Br
HETATM   32  C18 UNL     1      91.541  95.402 -43.155  1.00  0.00     0.026 A 
ENDBRANCH  25  26
ENDBRANCH   4  25
BRANCH   6  33
HETATM   33  C20 UNL     1      87.006  99.599 -45.736  1.00  0.00     0.078 C 
HETATM   34  C21 UNL     1      86.444 100.594 -44.787  1.00  0.00     0.014 C 
HETATM   35  C22 UNL     1      84.967 100.845 -45.017  1.00  0.00     0.001 C 
HETATM   36  C23 UNL     1      84.604 100.681 -46.476  1.00  0.00     0.000 C 
HETATM   37  C24 UNL     1      84.885  99.285 -46.985  1.00  0.00     0.001 C 
HETATM   38  C25 UNL     1      85.898  98.594 -46.098  1.00  0.00     0.014 C 
ENDBRANCH   6  33
TORSDOF 8
ENDMDL
