MODEL 1
REMARK VINA RESULT: -5.911359623      0.000      0.000
REMARK  9 active torsions:
REMARK  status: ('A' for Active; 'I' for Inactive)
REMARK    1  A    between atoms: C2_2  and  C3_3 
REMARK    2  A    between atoms: C3_3  and  C4_4 
REMARK       I    between atoms: N2_11  and  C8_13 
REMARK    3  A    between atoms: C8_13  and  C9_15 
REMARK    4  A    between atoms: C10_16  and  C11_17 
REMARK    5  A    between atoms: C11_17  and  O2_18 
REMARK    6  A    between atoms: C11_17  and  N3_20 
REMARK    7  A    between atoms: N3_20  and  C12_21 
REMARK       I    between atoms: N3_20  and  C19_29 
REMARK    8  A    between atoms: C12_21  and  C13_22 
REMARK    9  A    between atoms: C13_22  and  N4_23 
ROOT
HETATM    1  C9  UNL     1      88.971 100.512 -44.316  1.00  0.00     0.120 C 
HETATM    2  C10 UNL     1      88.287 101.538 -43.487  1.00  0.00     0.003 C 
HETATM    3  C20 UNL     1      89.109 102.556 -43.337  1.00  0.00    -0.009 C 
HETATM    4  C21 UNL     1      90.419 102.315 -44.041  1.00  0.00     0.023 A 
HETATM    5  C22 UNL     1      90.418 100.884 -44.433  1.00  0.00     0.020 A 
HETATM    6  C23 UNL     1      91.268 101.295 -43.333  1.00  0.00    -0.035 A 
HETATM    7  C24 UNL     1      92.758 101.442 -43.681  1.00  0.00     0.016 C 
HETATM    8  C25 UNL     1      91.049 100.995 -41.893  1.00  0.00     0.016 C 
ENDROOT
BRANCH   2   9
HETATM    9  C11 UNL     1      86.976 101.422 -42.922  1.00  0.00     0.151 C 
BRANCH   9  10
HETATM   10  O2  UNL     1      86.863 100.794 -41.787  1.00  0.00    -0.345 OA
ATOM     11  H2  UNL     1      87.342  99.980 -41.686  1.00  0.00     0.219 HD
ENDBRANCH   9  10
BRANCH   9  12
HETATM   12  N3  UNL     1      85.741 101.893 -43.408  1.00  0.00    -0.300 N 
HETATM   13  C19 UNL     1      84.969 102.953 -42.904  1.00  0.00     0.190 C 
HETATM   14  N5  UNL     1      84.430 102.824 -41.712  1.00  0.00    -0.373 N 
HETATM   15  N6  UNL     1      84.742 104.169 -43.625  1.00  0.00    -0.063 NA
ATOM     16  H52 UNL     1      84.592 101.958 -41.199  1.00  0.00     0.158 HD
ATOM     17  H51 UNL     1      83.869 103.594 -41.347  1.00  0.00     0.158 HD
BRANCH  12  18
HETATM   18  C12 UNL     1      85.085 101.129 -44.519  1.00  0.00     0.161 C 
BRANCH  18  19
HETATM   19  C13 UNL     1      84.423  99.943 -43.889  1.00  0.00     0.257 C 
BRANCH  19  20
HETATM   20  N4  UNL     1      84.422  98.769 -44.691  1.00  0.00    -0.069 N 
HETATM   21  C14 UNL     1      83.118  98.199 -44.917  1.00  0.00     0.272 C 
HETATM   22  C15 UNL     1      85.221  97.762 -44.014  1.00  0.00     0.237 C 
HETATM   23  C16 UNL     1      85.502  96.691 -45.038  1.00  0.00     0.029 C 
HETATM   24  C17 UNL     1      85.594  97.508 -46.317  1.00  0.00     0.029 C 
HETATM   25  C18 UNL     1      85.128  98.908 -45.948  1.00  0.00     0.237 C 
ENDBRANCH  19  20
ENDBRANCH  18  19
ENDBRANCH  12  18
ENDBRANCH   9  12
ENDBRANCH   2   9
BRANCH   1  26
HETATM   26  C8  UNL     1      88.762  99.115 -43.976  1.00  0.00     0.230 C 
HETATM   27  N2  UNL     1      88.716  98.023 -44.864  1.00  0.00    -0.334 N 
HETATM   28  C2  UNL     1      89.769  97.333 -45.142  1.00  0.00    -0.009 C 
ATOM     29  H2  UNL     1      87.828  97.771 -45.297  1.00  0.00     0.168 HD
HETATM   30  C1  UNL     1      89.681  96.172 -46.096  1.00  0.00     0.064 C 
HETATM   31  O1  UNL     1      88.602  98.827 -42.740  1.00  0.00    -0.272 OA
BRANCH  28  32
HETATM   32  C3  UNL     1      91.113  97.603 -44.577  1.00  0.00     0.109 C 
BRANCH  32  33
HETATM   33  C4  UNL     1      91.326  96.754 -43.357  1.00  0.00     0.015 A 
HETATM   34  C5  UNL     1      91.688  95.421 -43.335  1.00  0.00     0.045 A 
HETATM   35  C6  UNL     1      91.782  95.010 -42.024  1.00  0.00     0.028 A 
HETATM   36 BR1  UNL     1      92.243  93.280 -41.389  1.00  0.00    -0.050 Br
HETATM   37  C7  UNL     1      91.466  96.135 -41.268  1.00  0.00     0.107 A 
HETATM   38  N1  UNL     1      91.197  97.168 -42.083  1.00  0.00    -0.368 N 
ATOM     39  H1  UNL     1      90.937  98.108 -41.786  1.00  0.00     0.165 HD
ENDBRANCH  32  33
ENDBRANCH  28  32
ENDBRANCH   1  26
TORSDOF 9
ENDMDL
MODEL 2
REMARK VINA RESULT: -5.798438167      2.756      6.117
REMARK  9 active torsions:
REMARK  status: ('A' for Active; 'I' for Inactive)
REMARK    1  A    between atoms: C2_2  and  C3_3 
REMARK    2  A    between atoms: C3_3  and  C4_4 
REMARK       I    between atoms: N2_11  and  C8_13 
REMARK    3  A    between atoms: C8_13  and  C9_15 
REMARK    4  A    between atoms: C10_16  and  C11_17 
REMARK    5  A    between atoms: C11_17  and  O2_18 
REMARK    6  A    between atoms: C11_17  and  N3_20 
REMARK    7  A    between atoms: N3_20  and  C12_21 
REMARK       I    between atoms: N3_20  and  C19_29 
REMARK    8  A    between atoms: C12_21  and  C13_22 
REMARK    9  A    between atoms: C13_22  and  N4_23 
ROOT
HETATM    1  C9  UNL     1      88.183  98.921 -44.112  1.00  0.00     0.120 C 
HETATM    2  C10 UNL     1      88.506  99.863 -43.010  1.00  0.00     0.003 C 
HETATM    3  C20 UNL     1      87.374 100.355 -42.549  1.00  0.00    -0.009 C 
HETATM    4  C21 UNL     1      86.188  99.798 -43.293  1.00  0.00     0.023 A 
HETATM    5  C22 UNL     1      86.739  99.089 -44.474  1.00  0.00     0.020 A 
HETATM    6  C23 UNL     1      86.072 100.360 -44.684  1.00  0.00    -0.035 A 
HETATM    7  C24 UNL     1      84.638 100.260 -45.229  1.00  0.00     0.016 C 
HETATM    8  C25 UNL     1      86.725 101.647 -45.038  1.00  0.00     0.016 C 
ENDROOT
BRANCH   2   9
HETATM    9  C11 UNL     1      89.820 100.204 -42.555  1.00  0.00     0.151 C 
BRANCH   9  10
HETATM   10  O2  UNL     1      90.531  99.260 -42.008  1.00  0.00    -0.345 OA
ATOM     11  H2  UNL     1      90.169  98.381 -42.007  1.00  0.00     0.219 HD
ENDBRANCH   9  10
BRANCH   9  12
HETATM   12  N3  UNL     1      90.498 101.437 -42.601  1.00  0.00    -0.300 N 
HETATM   13  C19 UNL     1      91.651 101.755 -43.338  1.00  0.00     0.190 C 
HETATM   14  N5  UNL     1      92.782 101.167 -43.016  1.00  0.00    -0.373 N 
HETATM   15  N6  UNL     1      91.655 102.688 -44.424  1.00  0.00    -0.063 NA
ATOM     16  H52 UNL     1      92.778 100.502 -42.242  1.00  0.00     0.158 HD
ATOM     17  H51 UNL     1      93.619 101.397 -43.551  1.00  0.00     0.158 HD
BRANCH  12  18
HETATM   18  C12 UNL     1      90.034 102.529 -41.685  1.00  0.00     0.161 C 
BRANCH  18  19
HETATM   19  C13 UNL     1      90.473 102.145 -40.306  1.00  0.00     0.257 C 
BRANCH  19  20
HETATM   20  N4  UNL     1      91.431 103.020 -39.723  1.00  0.00    -0.069 N 
HETATM   21  C14 UNL     1      91.763 104.166 -40.532  1.00  0.00     0.272 C 
HETATM   22  C15 UNL     1      92.657 102.269 -39.516  1.00  0.00     0.237 C 
HETATM   23  C16 UNL     1      93.503 103.098 -38.581  1.00  0.00     0.029 C 
HETATM   24  C17 UNL     1      92.443 103.758 -37.714  1.00  0.00     0.029 C 
HETATM   25  C18 UNL     1      91.111 103.440 -38.375  1.00  0.00     0.237 C 
ENDBRANCH  19  20
ENDBRANCH  18  19
ENDBRANCH  12  18
ENDBRANCH   9  12
ENDBRANCH   2   9
BRANCH   1  26
HETATM   26  C8  UNL     1      89.066  98.896 -45.265  1.00  0.00     0.230 C 
HETATM   27  N2  UNL     1      90.468  99.026 -45.265  1.00  0.00    -0.334 N 
HETATM   28  C2  UNL     1      91.242  97.997 -45.212  1.00  0.00    -0.009 C 
ATOM     29  H2  UNL     1      90.881  99.957 -45.307  1.00  0.00     0.168 HD
HETATM   30  C1  UNL     1      92.737  98.176 -45.213  1.00  0.00     0.064 C 
HETATM   31  O1  UNL     1      88.528  98.738 -46.415  1.00  0.00    -0.272 OA
BRANCH  28  32
HETATM   32  C3  UNL     1      90.760  96.596 -45.148  1.00  0.00     0.109 C 
BRANCH  32  33
HETATM   33  C4  UNL     1      91.167  95.983 -43.840  1.00  0.00     0.015 A 
HETATM   34  C5  UNL     1      91.611  94.690 -43.639  1.00  0.00     0.045 A 
HETATM   35  C6  UNL     1      91.882  94.519 -42.300  1.00  0.00     0.028 A 
HETATM   36 BR1  UNL     1      92.521  92.946 -41.447  1.00  0.00    -0.050 Br
HETATM   37  C7  UNL     1      91.588  95.744 -41.710  1.00  0.00     0.107 A 
HETATM   38  N1  UNL     1      91.161  96.606 -42.647  1.00  0.00    -0.368 N 
ATOM     39  H1  UNL     1      90.880  97.573 -42.482  1.00  0.00     0.165 HD
ENDBRANCH  32  33
ENDBRANCH  28  32
ENDBRANCH   1  26
TORSDOF 9
ENDMDL
MODEL 3
REMARK VINA RESULT: -5.685511898      1.924      5.605
REMARK  9 active torsions:
REMARK  status: ('A' for Active; 'I' for Inactive)
REMARK    1  A    between atoms: C2_2  and  C3_3 
REMARK    2  A    between atoms: C3_3  and  C4_4 
REMARK       I    between atoms: N2_11  and  C8_13 
REMARK    3  A    between atoms: C8_13  and  C9_15 
REMARK    4  A    between atoms: C10_16  and  C11_17 
REMARK    5  A    between atoms: C11_17  and  O2_18 
REMARK    6  A    between atoms: C11_17  and  N3_20 
REMARK    7  A    between atoms: N3_20  and  C12_21 
REMARK       I    between atoms: N3_20  and  C19_29 
REMARK    8  A    between atoms: C12_21  and  C13_22 
REMARK    9  A    between atoms: C13_22  and  N4_23 
ROOT
HETATM    1  C9  UNL     1      87.711  97.886 -44.772  1.00  0.00     0.120 C 
HETATM    2  C10 UNL     1      87.416  98.793 -43.633  1.00  0.00     0.003 C 
HETATM    3  C20 UNL     1      86.115  98.778 -43.424  1.00  0.00    -0.009 C 
HETATM    4  C21 UNL     1      85.413  97.867 -44.397  1.00  0.00     0.023 A 
HETATM    5  C22 UNL     1      86.417  97.515 -45.430  1.00  0.00     0.020 A 
HETATM    6  C23 UNL     1      85.362  98.445 -45.785  1.00  0.00    -0.035 A 
HETATM    7  C24 UNL     1      84.219  97.845 -46.619  1.00  0.00     0.016 C 
HETATM    8  C25 UNL     1      85.516  99.908 -46.002  1.00  0.00     0.016 C 
ENDROOT
BRANCH   2   9
HETATM    9  C11 UNL     1      88.375  99.576 -42.913  1.00  0.00     0.151 C 
BRANCH   9  10
HETATM   10  O2  UNL     1      89.308  98.938 -42.265  1.00  0.00    -0.345 OA
ATOM     11  H2  UNL     1      90.203  99.236 -42.377  1.00  0.00     0.219 HD
ENDBRANCH   9  10
BRANCH   9  12
HETATM   12  N3  UNL     1      88.483 100.974 -42.784  1.00  0.00    -0.300 N 
HETATM   13  C19 UNL     1      87.835 101.958 -43.550  1.00  0.00     0.190 C 
HETATM   14  N5  UNL     1      88.149 102.070 -44.821  1.00  0.00    -0.373 N 
HETATM   15  N6  UNL     1      86.846 102.845 -43.013  1.00  0.00    -0.063 NA
ATOM     16  H52 UNL     1      88.853 101.438 -45.203  1.00  0.00     0.158 HD
ATOM     17  H51 UNL     1      87.679 102.785 -45.377  1.00  0.00     0.158 HD
BRANCH  12  18
HETATM   18  C12 UNL     1      89.479 101.515 -41.804  1.00  0.00     0.161 C 
BRANCH  18  19
HETATM   19  C13 UNL     1      90.634 102.027 -42.608  1.00  0.00     0.257 C 
BRANCH  19  20
HETATM   20  N4  UNL     1      91.830 102.227 -41.865  1.00  0.00    -0.069 N 
HETATM   21  C14 UNL     1      93.032 102.247 -42.660  1.00  0.00     0.272 C 
HETATM   22  C15 UNL     1      91.959 101.133 -40.918  1.00  0.00     0.237 C 
HETATM   23  C16 UNL     1      93.006 101.562 -39.921  1.00  0.00     0.029 C 
HETATM   24  C17 UNL     1      92.775 103.063 -39.861  1.00  0.00     0.029 C 
HETATM   25  C18 UNL     1      91.799 103.376 -40.985  1.00  0.00     0.237 C 
ENDBRANCH  19  20
ENDBRANCH  18  19
ENDBRANCH  12  18
ENDBRANCH   9  12
ENDBRANCH   2   9
BRANCH   1  26
HETATM   26  C8  UNL     1      88.741  98.289 -45.713  1.00  0.00     0.230 C 
HETATM   27  N2  UNL     1      89.986  98.875 -45.411  1.00  0.00    -0.334 N 
HETATM   28  C2  UNL     1      91.045  98.161 -45.245  1.00  0.00    -0.009 C 
ATOM     29  H2  UNL     1      90.050  99.889 -45.320  1.00  0.00     0.168 HD
HETATM   30  C1  UNL     1      92.359  98.823 -44.923  1.00  0.00     0.064 C 
HETATM   31  O1  UNL     1      88.510  98.099 -46.956  1.00  0.00    -0.272 OA
BRANCH  28  32
HETATM   32  C3  UNL     1      91.077  96.682 -45.350  1.00  0.00     0.109 C 
BRANCH  32  33
HETATM   33  C4  UNL     1      91.316  96.086 -43.994  1.00  0.00     0.015 A 
HETATM   34  C5  UNL     1      91.723  94.793 -43.723  1.00  0.00     0.045 A 
HETATM   35  C6  UNL     1      91.827  94.640 -42.358  1.00  0.00     0.028 A 
HETATM   36 BR1  UNL     1      92.345  93.076 -41.412  1.00  0.00    -0.050 Br
HETATM   37  C7  UNL     1      91.472  95.875 -41.826  1.00  0.00     0.107 A 
HETATM   38  N1  UNL     1      91.170  96.726 -42.819  1.00  0.00    -0.368 N 
ATOM     39  H1  UNL     1      90.877  97.696 -42.703  1.00  0.00     0.165 HD
ENDBRANCH  32  33
ENDBRANCH  28  32
ENDBRANCH   1  26
TORSDOF 9
ENDMDL
MODEL 4
REMARK VINA RESULT: -5.668998691      3.839      7.128
REMARK  9 active torsions:
REMARK  status: ('A' for Active; 'I' for Inactive)
REMARK    1  A    between atoms: C2_2  and  C3_3 
REMARK    2  A    between atoms: C3_3  and  C4_4 
REMARK       I    between atoms: N2_11  and  C8_13 
REMARK    3  A    between atoms: C8_13  and  C9_15 
REMARK    4  A    between atoms: C10_16  and  C11_17 
REMARK    5  A    between atoms: C11_17  and  O2_18 
REMARK    6  A    between atoms: C11_17  and  N3_20 
REMARK    7  A    between atoms: N3_20  and  C12_21 
REMARK       I    between atoms: N3_20  and  C19_29 
REMARK    8  A    between atoms: C12_21  and  C13_22 
REMARK    9  A    between atoms: C13_22  and  N4_23 
ROOT
HETATM    1  C9  UNL     1      89.482  98.867 -43.434  1.00  0.00     0.120 C 
HETATM    2  C10 UNL     1      90.008 100.000 -42.630  1.00  0.00     0.003 C 
HETATM    3  C20 UNL     1      88.981 100.678 -42.159  1.00  0.00    -0.009 C 
HETATM    4  C21 UNL     1      87.674 100.073 -42.600  1.00  0.00     0.023 A 
HETATM    5  C22 UNL     1      88.013  99.074 -43.643  1.00  0.00     0.020 A 
HETATM    6  C23 UNL     1      87.394 100.318 -44.058  1.00  0.00    -0.035 A 
HETATM    7  C24 UNL     1      85.895 100.222 -44.383  1.00  0.00     0.016 C 
HETATM    8  C25 UNL     1      88.062 101.433 -44.781  1.00  0.00     0.016 C 
ENDROOT
BRANCH   2   9
HETATM    9  C11 UNL     1      91.390 100.319 -42.433  1.00  0.00     0.151 C 
BRANCH   9  10
HETATM   10  O2  UNL     1      92.051  99.619 -41.557  1.00  0.00    -0.345 OA
ATOM     11  H2  UNL     1      92.671  98.977 -41.884  1.00  0.00     0.219 HD
ENDBRANCH   9  10
BRANCH   9  12
HETATM   12  N3  UNL     1      92.184 101.304 -43.052  1.00  0.00    -0.300 N 
HETATM   13  C19 UNL     1      92.404 101.488 -44.428  1.00  0.00     0.190 C 
HETATM   14  N5  UNL     1      93.069 100.564 -45.085  1.00  0.00    -0.373 N 
HETATM   15  N6  UNL     1      91.936 102.633 -45.150  1.00  0.00    -0.063 NA
ATOM     16  H52 UNL     1      93.401  99.749 -44.571  1.00  0.00     0.158 HD
ATOM     17  H51 UNL     1      93.228 100.698 -46.084  1.00  0.00     0.158 HD
BRANCH  12  18
HETATM   18  C12 UNL     1      92.996 102.208 -42.174  1.00  0.00     0.161 C 
BRANCH  18  19
HETATM   19  C13 UNL     1      92.026 103.111 -41.478  1.00  0.00     0.257 C 
BRANCH  19  20
HETATM   20  N4  UNL     1      92.089 103.066 -40.058  1.00  0.00    -0.069 N 
HETATM   21  C14 UNL     1      90.887 102.594 -39.419  1.00  0.00     0.272 C 
HETATM   22  C15 UNL     1      92.331 104.415 -39.576  1.00  0.00     0.237 C 
HETATM   23  C16 UNL     1      92.755 104.277 -38.136  1.00  0.00     0.029 C 
HETATM   24  C17 UNL     1      93.506 102.955 -38.164  1.00  0.00     0.029 C 
HETATM   25  C18 UNL     1      93.239 102.357 -39.536  1.00  0.00     0.237 C 
ENDBRANCH  19  20
ENDBRANCH  18  19
ENDBRANCH  12  18
ENDBRANCH   9  12
ENDBRANCH   2   9
BRANCH   1  26
HETATM   26  C8  UNL     1      90.192  98.509 -44.649  1.00  0.00     0.230 C 
HETATM   27  N2  UNL     1      90.803  97.276 -44.946  1.00  0.00    -0.334 N 
HETATM   28  C2  UNL     1      90.172  96.343 -45.572  1.00  0.00    -0.009 C 
ATOM     29  H2  UNL     1      91.768  97.117 -44.657  1.00  0.00     0.168 HD
HETATM   30  C1  UNL     1      90.859  95.036 -45.871  1.00  0.00     0.064 C 
HETATM   31  O1  UNL     1      90.280  99.400 -45.563  1.00  0.00    -0.272 OA
BRANCH  28  32
HETATM   32  C3  UNL     1      88.771  96.456 -46.041  1.00  0.00     0.109 C 
BRANCH  32  33
HETATM   33  C4  UNL     1      88.753  96.766 -47.510  1.00  0.00     0.015 A 
HETATM   34  C5  UNL     1      88.521  95.872 -48.537  1.00  0.00     0.045 A 
HETATM   35  C6  UNL     1      88.590  96.548 -49.735  1.00  0.00     0.028 A 
HETATM   36 BR1  UNL     1      88.353  95.830 -51.478  1.00  0.00    -0.050 Br
HETATM   37  C7  UNL     1      88.870  97.867 -49.392  1.00  0.00     0.107 A 
HETATM   38  N1  UNL     1      88.964  97.977 -48.057  1.00  0.00    -0.368 N 
ATOM     39  H1  UNL     1      89.162  98.836 -47.543  1.00  0.00     0.165 HD
ENDBRANCH  32  33
ENDBRANCH  28  32
ENDBRANCH   1  26
TORSDOF 9
ENDMDL
MODEL 5
REMARK VINA RESULT: -5.665632992      1.477      2.120
REMARK  9 active torsions:
REMARK  status: ('A' for Active; 'I' for Inactive)
REMARK    1  A    between atoms: C2_2  and  C3_3 
REMARK    2  A    between atoms: C3_3  and  C4_4 
REMARK       I    between atoms: N2_11  and  C8_13 
REMARK    3  A    between atoms: C8_13  and  C9_15 
REMARK    4  A    between atoms: C10_16  and  C11_17 
REMARK    5  A    between atoms: C11_17  and  O2_18 
REMARK    6  A    between atoms: C11_17  and  N3_20 
REMARK    7  A    between atoms: N3_20  and  C12_21 
REMARK       I    between atoms: N3_20  and  C19_29 
REMARK    8  A    between atoms: C12_21  and  C13_22 
REMARK    9  A    between atoms: C13_22  and  N4_23 
ROOT
HETATM    1  C9  UNL     1      88.051 100.608 -44.158  1.00  0.00     0.120 C 
HETATM    2  C10 UNL     1      87.064 101.446 -43.429  1.00  0.00     0.003 C 
HETATM    3  C20 UNL     1      87.632 102.604 -43.159  1.00  0.00    -0.009 C 
HETATM    4  C21 UNL     1      89.048 102.656 -43.673  1.00  0.00     0.023 A 
HETATM    5  C22 UNL     1      89.393 101.268 -44.069  1.00  0.00     0.020 A 
HETATM    6  C23 UNL     1      89.982 101.805 -42.857  1.00  0.00    -0.035 A 
HETATM    7  C24 UNL     1      91.444 102.261 -42.992  1.00  0.00     0.016 C 
HETATM    8  C25 UNL     1      89.634 101.418 -41.465  1.00  0.00     0.016 C 
ENDROOT
BRANCH   2   9
HETATM    9  C11 UNL     1      85.740 101.050 -43.055  1.00  0.00     0.151 C 
BRANCH   9  10
HETATM   10  O2  UNL     1      85.380 101.244 -41.819  1.00  0.00    -0.345 OA
ATOM     11  H2  UNL     1      85.194 102.136 -41.550  1.00  0.00     0.219 HD
ENDBRANCH   9  10
BRANCH   9  12
HETATM   12  N3  UNL     1      84.723 100.462 -43.831  1.00  0.00    -0.300 N 
HETATM   13  C19 UNL     1      83.656  99.663 -43.384  1.00  0.00     0.190 C 
HETATM   14  N5  UNL     1      83.929  98.481 -42.878  1.00  0.00    -0.373 N 
HETATM   15  N6  UNL     1      82.287 100.075 -43.450  1.00  0.00    -0.063 NA
ATOM     16  H52 UNL     1      84.905  98.188 -42.831  1.00  0.00     0.158 HD
ATOM     17  H51 UNL     1      83.155  97.901 -42.554  1.00  0.00     0.158 HD
BRANCH  12  18
HETATM   18  C12 UNL     1      84.816 100.583 -45.322  1.00  0.00     0.161 C 
BRANCH  18  19
HETATM   19  C13 UNL     1      84.869  99.187 -45.861  1.00  0.00     0.257 C 
BRANCH  19  20
HETATM   20  N4  UNL     1      85.375  99.083 -47.186  1.00  0.00    -0.069 N 
HETATM   21  C14 UNL     1      84.408  99.351 -48.220  1.00  0.00     0.272 C 
HETATM   22  C15 UNL     1      85.848  97.723 -47.381  1.00  0.00     0.237 C 
HETATM   23  C16 UNL     1      86.696  97.747 -48.628  1.00  0.00     0.029 C 
HETATM   24  C17 UNL     1      87.308  99.137 -48.554  1.00  0.00     0.029 C 
HETATM   25  C18 UNL     1      86.581  99.849 -47.424  1.00  0.00     0.237 C 
ENDBRANCH  19  20
ENDBRANCH  18  19
ENDBRANCH  12  18
ENDBRANCH   9  12
ENDBRANCH   2   9
BRANCH   1  26
HETATM   26  C8  UNL     1      88.087  99.187 -43.859  1.00  0.00     0.230 C 
HETATM   27  N2  UNL     1      88.166  98.126 -44.781  1.00  0.00    -0.334 N 
HETATM   28  C2  UNL     1      89.298  97.624 -45.137  1.00  0.00    -0.009 C 
ATOM     29  H2  UNL     1      87.307  97.746 -45.176  1.00  0.00     0.168 HD
HETATM   30  C1  UNL     1      89.343  96.490 -46.127  1.00  0.00     0.064 C 
HETATM   31  O1  UNL     1      88.045  98.844 -42.627  1.00  0.00    -0.272 OA
BRANCH  28  32
HETATM   32  C3  UNL     1      90.611  98.091 -44.633  1.00  0.00     0.109 C 
BRANCH  32  33
HETATM   33  C4  UNL     1      91.012  97.276 -43.438  1.00  0.00     0.015 A 
HETATM   34  C5  UNL     1      91.375  95.943 -43.434  1.00  0.00     0.045 A 
HETATM   35  C6  UNL     1      91.670  95.570 -42.142  1.00  0.00     0.028 A 
HETATM   36 BR1  UNL     1      92.228  93.857 -41.537  1.00  0.00    -0.050 Br
HETATM   37  C7  UNL     1      91.472  96.715 -41.378  1.00  0.00     0.107 A 
HETATM   38  N1  UNL     1      91.078  97.725 -42.171  1.00  0.00    -0.368 N 
ATOM     39  H1  UNL     1      90.865  98.674 -41.864  1.00  0.00     0.165 HD
ENDBRANCH  32  33
ENDBRANCH  28  32
ENDBRANCH   1  26
TORSDOF 9
ENDMDL
