MODEL 1
REMARK VINA RESULT: -7.212563940      0.000      0.000
REMARK  9 active torsions:
REMARK  status: ('A' for Active; 'I' for Inactive)
REMARK    1  A    between atoms: C2_2  and  C3_3 
REMARK    2  A    between atoms: C3_3  and  C4_4 
REMARK    3  A    between atoms: C6_6  and  C7_7 
REMARK    4  A    between atoms: C7_7  and  C8_8 
REMARK    5  A    between atoms: C8_8  and  N5_27 
REMARK       I    between atoms: N1_9  and  C9_11 
REMARK    6  A    between atoms: C9_11  and  C10_13 
REMARK    7  A    between atoms: C10_13  and  C11_14 
REMARK    8  A    between atoms: C10_13  and  N2_17 
REMARK    9  A    between atoms: N5_27  and  C17_28 
ROOT
HETATM    1  C8  UNL     1      89.700  97.443 -46.154  1.00  0.00     0.164 C 
HETATM    2  N1  UNL     1      90.230  98.617 -45.997  1.00  0.00    -0.303 N 
ATOM      3  H1  UNL     1      89.690  99.409 -46.348  1.00  0.00     0.171 HD
HETATM    4  C9  UNL     1      91.454  98.920 -45.402  1.00  0.00     0.248 C 
HETATM    5  O1  UNL     1      92.466  98.630 -46.144  1.00  0.00    -0.271 OA
ENDROOT
BRANCH   1   6
HETATM    6  C7  UNL     1      88.351  97.516 -46.849  1.00  0.00     0.149 C 
BRANCH   6   7
HETATM    7  C6  UNL     1      87.310  98.074 -45.979  1.00  0.00     0.018 A 
HETATM    8  C5  UNL     1      86.387  97.322 -45.273  1.00  0.00     0.034 A 
HETATM    9  C4  UNL     1      85.567  98.180 -44.567  1.00  0.00    -0.031 A 
HETATM   10  C23 UNL     1      86.026  99.443 -44.872  1.00  0.00     0.012 A 
HETATM   11  N7  UNL     1      87.078  99.368 -45.724  1.00  0.00    -0.362 N 
HETATM   12  C24 UNL     1      85.433 100.712 -44.329  1.00  0.00     0.068 C 
ATOM     13  H7  UNL     1      87.600 100.157 -46.104  1.00  0.00     0.165 HD
BRANCH   9  14
HETATM   14  C3  UNL     1      84.434  97.835 -43.674  1.00  0.00     0.067 C 
BRANCH  14  15
HETATM   15  C2  UNL     1      83.227  97.447 -44.444  1.00  0.00    -0.032 C 
HETATM   16  C1  UNL     1      82.483  98.347 -45.074  1.00  0.00     0.007 C 
ENDBRANCH  14  15
ENDBRANCH   9  14
ENDBRANCH   6   7
ENDBRANCH   1   6
BRANCH   1  17
HETATM   17  N5  UNL     1      90.229  96.318 -45.776  1.00  0.00    -0.392 NA
BRANCH  17  18
HETATM   18  C17 UNL     1      90.706  95.287 -45.410  1.00  0.00     0.113 A 
HETATM   19  C18 UNL     1      90.929  94.139 -46.191  1.00  0.00     0.069 A 
HETATM   20  C19 UNL     1      91.492  92.995 -45.668  1.00  0.00     0.009 A 
HETATM   21  C20 UNL     1      91.730  91.781 -46.489  1.00  0.00     0.068 C 
HETATM   22  N6  UNL     1      91.847  92.950 -44.374  1.00  0.00    -0.354 N 
HETATM   23  C21 UNL     1      91.665  94.004 -43.569  1.00  0.00     0.083 A 
ATOM     24  H6  UNL     1      92.262  92.097 -43.997  1.00  0.00     0.166 HD
HETATM   25 BR1  UNL     1      92.191  93.873 -41.738  1.00  0.00    -0.031 Br
HETATM   26  C22 UNL     1      91.105  95.160 -44.063  1.00  0.00     0.082 A 
ENDBRANCH  17  18
ENDBRANCH   1  17
BRANCH   4  27
HETATM   27  C10 UNL     1      91.646  99.513 -44.062  1.00  0.00     0.207 C 
BRANCH  27  28
HETATM   28  C11 UNL     1      91.017  98.748 -42.938  1.00  0.00     0.010 C 
HETATM   29  C12 UNL     1      89.718  99.462 -42.558  1.00  0.00     0.012 C 
HETATM   30  C13 UNL     1      91.801  98.569 -41.703  1.00  0.00     0.012 C 
ENDBRANCH  27  28
BRANCH  27  31
HETATM   31  N2  UNL     1      91.446 100.931 -44.023  1.00  0.00    -0.132 N 
HETATM   32  C14 UNL     1      92.262 101.932 -43.360  1.00  0.00     0.681 A 
HETATM   33  N3  UNL     1      93.348 101.702 -42.677  1.00  0.00    -0.234 N 
HETATM   34  N4  UNL     1      91.700 103.217 -43.566  1.00  0.00    -0.197 N 
ATOM     35  H32 UNL     1      93.752 100.778 -42.528  1.00  0.00     0.174 HD
ATOM     36  H31 UNL     1      93.921 102.405 -42.211  1.00  0.00     0.174 HD
HETATM   37  C15 UNL     1      90.637 103.087 -44.280  1.00  0.00     0.181 A 
ATOM     38  H4  UNL     1      92.074 104.096 -43.209  1.00  0.00     0.183 HD
HETATM   39  C16 UNL     1      90.399 101.697 -44.614  1.00  0.00     0.278 A 
HETATM   40  O2  UNL     1      89.440 101.261 -45.299  1.00  0.00    -0.266 OA
ENDBRANCH  27  31
ENDBRANCH   4  27
TORSDOF 9
ENDMDL
MODEL 2
REMARK VINA RESULT: -7.109338301      1.050      1.537
REMARK  9 active torsions:
REMARK  status: ('A' for Active; 'I' for Inactive)
REMARK    1  A    between atoms: C2_2  and  C3_3 
REMARK    2  A    between atoms: C3_3  and  C4_4 
REMARK    3  A    between atoms: C6_6  and  C7_7 
REMARK    4  A    between atoms: C7_7  and  C8_8 
REMARK    5  A    between atoms: C8_8  and  N5_27 
REMARK       I    between atoms: N1_9  and  C9_11 
REMARK    6  A    between atoms: C9_11  and  C10_13 
REMARK    7  A    between atoms: C10_13  and  C11_14 
REMARK    8  A    between atoms: C10_13  and  N2_17 
REMARK    9  A    between atoms: N5_27  and  C17_28 
ROOT
HETATM    1  C8  UNL     1      89.696  97.411 -46.174  1.00  0.00     0.164 C 
HETATM    2  N1  UNL     1      90.189  98.609 -46.093  1.00  0.00    -0.303 N 
ATOM      3  H1  UNL     1      89.638  99.355 -46.518  1.00  0.00     0.171 HD
HETATM    4  C9  UNL     1      91.387  98.992 -45.490  1.00  0.00     0.248 C 
HETATM    5  O1  UNL     1      92.428  98.677 -46.180  1.00  0.00    -0.271 OA
ENDROOT
BRANCH   1   6
HETATM    6  C7  UNL     1      88.368  97.391 -46.909  1.00  0.00     0.149 C 
BRANCH   6   7
HETATM    7  C6  UNL     1      87.287  97.985 -46.114  1.00  0.00     0.018 A 
HETATM    8  C5  UNL     1      86.378  97.265 -45.358  1.00  0.00     0.034 A 
HETATM    9  C4  UNL     1      85.510  98.151 -44.750  1.00  0.00    -0.031 A 
HETATM   10  C23 UNL     1      85.928  99.397 -45.163  1.00  0.00     0.012 A 
HETATM   11  N7  UNL     1      87.000  99.286 -45.985  1.00  0.00    -0.362 N 
HETATM   12  C24 UNL     1      85.275 100.687 -44.752  1.00  0.00     0.068 C 
ATOM     13  H7  UNL     1      87.500 100.057 -46.427  1.00  0.00     0.165 HD
BRANCH   9  14
HETATM   14  C3  UNL     1      84.372  97.845 -43.850  1.00  0.00     0.067 C 
BRANCH  14  15
HETATM   15  C2  UNL     1      83.187  97.369 -44.605  1.00  0.00    -0.032 C 
HETATM   16  C1  UNL     1      82.373  98.212 -45.227  1.00  0.00     0.007 C 
ENDBRANCH  14  15
ENDBRANCH   9  14
ENDBRANCH   6   7
ENDBRANCH   1   6
BRANCH   1  17
HETATM   17  N5  UNL     1      90.245  96.334 -45.697  1.00  0.00    -0.392 NA
BRANCH  17  18
HETATM   18  C17 UNL     1      90.732  95.341 -45.247  1.00  0.00     0.113 A 
HETATM   19  C18 UNL     1      91.135  95.131 -43.916  1.00  0.00     0.069 A 
HETATM   20  C19 UNL     1      91.686  93.939 -43.497  1.00  0.00     0.009 A 
HETATM   21  C20 UNL     1      92.112  93.712 -42.093  1.00  0.00     0.068 C 
HETATM   22  N6  UNL     1      91.854  92.931 -44.368  1.00  0.00    -0.354 N 
HETATM   23  C21 UNL     1      91.493  93.058 -45.651  1.00  0.00     0.083 A 
ATOM     24  H6  UNL     1      92.263  92.053 -44.047  1.00  0.00     0.166 HD
HETATM   25 BR1  UNL     1      91.761  91.587 -46.839  1.00  0.00    -0.031 Br
HETATM   26  C22 UNL     1      90.941  94.237 -46.098  1.00  0.00     0.082 A 
ENDBRANCH  17  18
ENDBRANCH   1  17
BRANCH   4  27
HETATM   27  C10 UNL     1      91.523  99.690 -44.195  1.00  0.00     0.207 C 
BRANCH  27  28
HETATM   28  C11 UNL     1      90.781  99.058 -43.057  1.00  0.00     0.010 C 
HETATM   29  C12 UNL     1      90.166 100.183 -42.220  1.00  0.00     0.012 C 
HETATM   30  C13 UNL     1      91.538  98.189 -42.139  1.00  0.00     0.012 C 
ENDBRANCH  27  28
BRANCH  27  31
HETATM   31  N2  UNL     1      91.399 101.115 -44.289  1.00  0.00    -0.132 N 
HETATM   32  C14 UNL     1      92.317 102.127 -43.802  1.00  0.00     0.681 A 
HETATM   33  N3  UNL     1      93.444 101.904 -43.186  1.00  0.00    -0.234 N 
HETATM   34  N4  UNL     1      91.805 103.416 -44.098  1.00  0.00    -0.197 N 
ATOM     35  H32 UNL     1      93.812 100.977 -42.973  1.00  0.00     0.174 HD
ATOM     36  H31 UNL     1      94.089 102.616 -42.844  1.00  0.00     0.174 HD
HETATM   37  C15 UNL     1      90.680 103.277 -44.708  1.00  0.00     0.181 A 
ATOM     38  H4  UNL     1      92.252 104.303 -43.866  1.00  0.00     0.183 HD
HETATM   39  C16 UNL     1      90.345 101.877 -44.873  1.00  0.00     0.278 A 
HETATM   40  O2  UNL     1      89.311 101.432 -45.431  1.00  0.00    -0.266 OA
ENDBRANCH  27  31
ENDBRANCH   4  27
TORSDOF 9
ENDMDL
MODEL 3
REMARK VINA RESULT: -7.027230916      0.977      1.436
REMARK  9 active torsions:
REMARK  status: ('A' for Active; 'I' for Inactive)
REMARK    1  A    between atoms: C2_2  and  C3_3 
REMARK    2  A    between atoms: C3_3  and  C4_4 
REMARK    3  A    between atoms: C6_6  and  C7_7 
REMARK    4  A    between atoms: C7_7  and  C8_8 
REMARK    5  A    between atoms: C8_8  and  N5_27 
REMARK       I    between atoms: N1_9  and  C9_11 
REMARK    6  A    between atoms: C9_11  and  C10_13 
REMARK    7  A    between atoms: C10_13  and  C11_14 
REMARK    8  A    between atoms: C10_13  and  N2_17 
REMARK    9  A    between atoms: N5_27  and  C17_28 
ROOT
HETATM    1  C8  UNL     1      89.765  97.229 -46.481  1.00  0.00     0.164 C 
HETATM    2  N1  UNL     1      90.230  98.407 -46.196  1.00  0.00    -0.303 N 
ATOM      3  H1  UNL     1      89.734  99.200 -46.603  1.00  0.00     0.171 HD
HETATM    4  C9  UNL     1      91.330  98.710 -45.394  1.00  0.00     0.248 C 
HETATM    5  O1  UNL     1      92.459  98.471 -45.968  1.00  0.00    -0.271 OA
ENDROOT
BRANCH   1   6
HETATM    6  C7  UNL     1      88.549  97.303 -47.388  1.00  0.00     0.149 C 
BRANCH   6   7
HETATM    7  C6  UNL     1      87.292  97.212 -46.636  1.00  0.00     0.018 A 
HETATM    8  C5  UNL     1      87.102  97.705 -45.357  1.00  0.00     0.034 A 
HETATM    9  C4  UNL     1      85.804  97.440 -44.970  1.00  0.00    -0.031 A 
HETATM   10  C23 UNL     1      85.240  96.785 -46.043  1.00  0.00     0.012 A 
HETATM   11  N7  UNL     1      86.146  96.653 -47.042  1.00  0.00    -0.362 N 
HETATM   12  C24 UNL     1      83.821  96.293 -46.083  1.00  0.00     0.068 C 
ATOM     13  H7  UNL     1      85.983  96.206 -47.945  1.00  0.00     0.165 HD
BRANCH   9  14
HETATM   14  C3  UNL     1      85.145  97.777 -43.685  1.00  0.00     0.067 C 
BRANCH  14  15
HETATM   15  C2  UNL     1      84.430  99.075 -43.757  1.00  0.00    -0.032 C 
HETATM   16  C1  UNL     1      85.067 100.230 -43.611  1.00  0.00     0.007 C 
ENDBRANCH  14  15
ENDBRANCH   9  14
ENDBRANCH   6   7
ENDBRANCH   1   6
BRANCH   1  17
HETATM   17  N5  UNL     1      90.254  96.101 -46.061  1.00  0.00    -0.392 NA
BRANCH  17  18
HETATM   18  C17 UNL     1      90.723  95.072 -45.680  1.00  0.00     0.113 A 
HETATM   19  C18 UNL     1      90.950  93.915 -46.447  1.00  0.00     0.069 A 
HETATM   20  C19 UNL     1      91.503  92.774 -45.906  1.00  0.00     0.009 A 
HETATM   21  C20 UNL     1      91.744  91.551 -46.712  1.00  0.00     0.068 C 
HETATM   22  N6  UNL     1      91.845  92.741 -44.608  1.00  0.00    -0.354 N 
HETATM   23  C21 UNL     1      91.660  93.804 -43.817  1.00  0.00     0.083 A 
ATOM     24  H6  UNL     1      92.254  91.891 -44.218  1.00  0.00     0.166 HD
HETATM   25 BR1  UNL     1      92.168  93.691 -41.979  1.00  0.00    -0.031 Br
HETATM   26  C22 UNL     1      91.109  94.957 -44.328  1.00  0.00     0.082 A 
ENDBRANCH  17  18
ENDBRANCH   1  17
BRANCH   4  27
HETATM   27  C10 UNL     1      91.282  99.253 -44.021  1.00  0.00     0.207 C 
BRANCH  27  28
HETATM   28  C11 UNL     1      90.507  98.424 -43.043  1.00  0.00     0.010 C 
HETATM   29  C12 UNL     1      89.316  99.259 -42.565  1.00  0.00     0.012 C 
HETATM   30  C13 UNL     1      91.211  97.933 -41.845  1.00  0.00     0.012 C 
ENDBRANCH  27  28
BRANCH  27  31
HETATM   31  N2  UNL     1      91.028 100.662 -43.964  1.00  0.00    -0.132 N 
HETATM   32  C14 UNL     1      91.682 101.656 -43.133  1.00  0.00     0.681 A 
HETATM   33  N3  UNL     1      92.643 101.428 -42.283  1.00  0.00    -0.234 N 
HETATM   34  N4  UNL     1      91.119 102.933 -43.385  1.00  0.00    -0.197 N 
ATOM     35  H32 UNL     1      93.048 100.510 -42.101  1.00  0.00     0.174 HD
ATOM     36  H31 UNL     1      93.103 102.127 -41.699  1.00  0.00     0.174 HD
HETATM   37  C15 UNL     1      90.199 102.803 -44.276  1.00  0.00     0.181 A 
ATOM     38  H4  UNL     1      91.395 103.806 -42.937  1.00  0.00     0.183 HD
HETATM   39  C16 UNL     1      90.070 101.422 -44.697  1.00  0.00     0.278 A 
HETATM   40  O2  UNL     1      89.259 100.989 -45.553  1.00  0.00    -0.266 OA
ENDBRANCH  27  31
ENDBRANCH   4  27
TORSDOF 9
ENDMDL
MODEL 4
REMARK VINA RESULT: -6.941525033      2.549      4.350
REMARK  9 active torsions:
REMARK  status: ('A' for Active; 'I' for Inactive)
REMARK    1  A    between atoms: C2_2  and  C3_3 
REMARK    2  A    between atoms: C3_3  and  C4_4 
REMARK    3  A    between atoms: C6_6  and  C7_7 
REMARK    4  A    between atoms: C7_7  and  C8_8 
REMARK    5  A    between atoms: C8_8  and  N5_27 
REMARK       I    between atoms: N1_9  and  C9_11 
REMARK    6  A    between atoms: C9_11  and  C10_13 
REMARK    7  A    between atoms: C10_13  and  C11_14 
REMARK    8  A    between atoms: C10_13  and  N2_17 
REMARK    9  A    between atoms: N5_27  and  C17_28 
ROOT
HETATM    1  C8  UNL     1      89.659  97.377 -46.357  1.00  0.00     0.164 C 
HETATM    2  N1  UNL     1      90.107  98.592 -46.259  1.00  0.00    -0.303 N 
ATOM      3  H1  UNL     1      89.564  99.314 -46.733  1.00  0.00     0.171 HD
HETATM    4  C9  UNL     1      91.246  99.021 -45.579  1.00  0.00     0.248 C 
HETATM    5  O1  UNL     1      92.343  98.731 -46.189  1.00  0.00    -0.271 OA
ENDROOT
BRANCH   1   6
HETATM    6  C7  UNL     1      88.387  97.305 -47.183  1.00  0.00     0.149 C 
BRANCH   6   7
HETATM    7  C6  UNL     1      88.626  96.746 -48.518  1.00  0.00     0.018 A 
HETATM    8  C5  UNL     1      88.406  95.425 -48.870  1.00  0.00     0.034 A 
HETATM    9  C4  UNL     1      88.741  95.261 -50.200  1.00  0.00    -0.031 A 
HETATM   10  C23 UNL     1      89.159  96.506 -50.617  1.00  0.00     0.012 A 
HETATM   11  N7  UNL     1      89.086  97.394 -49.596  1.00  0.00    -0.362 N 
HETATM   12  C24 UNL     1      89.627  96.817 -52.011  1.00  0.00     0.068 C 
ATOM     13  H7  UNL     1      89.337  98.381 -49.640  1.00  0.00     0.165 HD
BRANCH   9  14
HETATM   14  C3  UNL     1      88.674  94.024 -51.015  1.00  0.00     0.067 C 
BRANCH  14  15
HETATM   15  C2  UNL     1      89.343  92.885 -50.340  1.00  0.00    -0.032 C 
HETATM   16  C1  UNL     1      90.400  92.283 -50.870  1.00  0.00     0.007 C 
ENDBRANCH  14  15
ENDBRANCH   9  14
ENDBRANCH   6   7
ENDBRANCH   1   6
BRANCH   1  17
HETATM   17  N5  UNL     1      90.207  96.325 -45.826  1.00  0.00    -0.392 NA
BRANCH  17  18
HETATM   18  C17 UNL     1      90.699  95.346 -45.352  1.00  0.00     0.113 A 
HETATM   19  C18 UNL     1      91.101  95.169 -44.017  1.00  0.00     0.069 A 
HETATM   20  C19 UNL     1      91.659  93.991 -43.569  1.00  0.00     0.009 A 
HETATM   21  C20 UNL     1      92.085  93.800 -42.160  1.00  0.00     0.068 C 
HETATM   22  N6  UNL     1      91.834  92.964 -44.417  1.00  0.00    -0.354 N 
HETATM   23  C21 UNL     1      91.475  93.059 -45.702  1.00  0.00     0.083 A 
ATOM     24  H6  UNL     1      92.249  92.096 -44.075  1.00  0.00     0.166 HD
HETATM   25 BR1  UNL     1      91.753  91.562 -46.855  1.00  0.00    -0.031 Br
HETATM   26  C22 UNL     1      90.916  94.223 -46.178  1.00  0.00     0.082 A 
ENDBRANCH  17  18
ENDBRANCH   1  17
BRANCH   4  27
HETATM   27  C10 UNL     1      91.268  99.740 -44.288  1.00  0.00     0.207 C 
BRANCH  27  28
HETATM   28  C11 UNL     1      90.303  99.225 -43.263  1.00  0.00     0.010 C 
HETATM   29  C12 UNL     1      89.994 100.370 -42.296  1.00  0.00     0.012 C 
HETATM   30  C13 UNL     1      90.712  98.062 -42.455  1.00  0.00     0.012 C 
ENDBRANCH  27  28
BRANCH  27  31
HETATM   31  N2  UNL     1      91.315 101.165 -44.419  1.00  0.00    -0.132 N 
HETATM   32  C14 UNL     1      92.320 102.078 -43.907  1.00  0.00     0.681 A 
HETATM   33  N3  UNL     1      93.382 101.744 -43.229  1.00  0.00    -0.234 N 
HETATM   34  N4  UNL     1      91.977 103.409 -44.257  1.00  0.00    -0.197 N 
ATOM     35  H32 UNL     1      93.628 100.787 -42.977  1.00  0.00     0.174 HD
ATOM     36  H31 UNL     1      94.088 102.386 -42.869  1.00  0.00     0.174 HD
HETATM   37  C15 UNL     1      90.875 103.384 -44.922  1.00  0.00     0.181 A 
ATOM     38  H4  UNL     1      92.513 104.245 -44.022  1.00  0.00     0.183 HD
HETATM   39  C16 UNL     1      90.388 102.028 -45.074  1.00  0.00     0.278 A 
HETATM   40  O2  UNL     1      89.338 101.690 -45.675  1.00  0.00    -0.266 OA
ENDBRANCH  27  31
ENDBRANCH   4  27
TORSDOF 9
ENDMDL
MODEL 5
REMARK VINA RESULT: -6.907148266      2.358      4.169
REMARK  9 active torsions:
REMARK  status: ('A' for Active; 'I' for Inactive)
REMARK    1  A    between atoms: C2_2  and  C3_3 
REMARK    2  A    between atoms: C3_3  and  C4_4 
REMARK    3  A    between atoms: C6_6  and  C7_7 
REMARK    4  A    between atoms: C7_7  and  C8_8 
REMARK    5  A    between atoms: C8_8  and  N5_27 
REMARK       I    between atoms: N1_9  and  C9_11 
REMARK    6  A    between atoms: C9_11  and  C10_13 
REMARK    7  A    between atoms: C10_13  and  C11_14 
REMARK    8  A    between atoms: C10_13  and  N2_17 
REMARK    9  A    between atoms: N5_27  and  C17_28 
ROOT
HETATM    1  C8  UNL     1      89.661  97.209 -46.541  1.00  0.00     0.164 C 
HETATM    2  N1  UNL     1      90.098  98.396 -46.252  1.00  0.00    -0.303 N 
ATOM      3  H1  UNL     1      89.573  99.179 -46.644  1.00  0.00     0.171 HD
HETATM    4  C9  UNL     1      91.203  98.723 -45.467  1.00  0.00     0.248 C 
HETATM    5  O1  UNL     1      92.327  98.520 -46.061  1.00  0.00    -0.271 OA
ENDROOT
BRANCH   1   6
HETATM    6  C7  UNL     1      88.428  97.256 -47.427  1.00  0.00     0.149 C 
BRANCH   6   7
HETATM    7  C6  UNL     1      88.656  96.615 -48.727  1.00  0.00     0.018 A 
HETATM    8  C5  UNL     1      88.365  95.293 -49.015  1.00  0.00     0.034 A 
HETATM    9  C4  UNL     1      88.711  95.041 -50.328  1.00  0.00    -0.031 A 
HETATM   10  C23 UNL     1      89.207  96.237 -50.800  1.00  0.00     0.012 A 
HETATM   11  N7  UNL     1      89.169  97.179 -49.827  1.00  0.00    -0.362 N 
HETATM   12  C24 UNL     1      89.715  96.448 -52.198  1.00  0.00     0.068 C 
ATOM     13  H7  UNL     1      89.478  98.147 -49.916  1.00  0.00     0.165 HD
BRANCH   9  14
HETATM   14  C3  UNL     1      88.586  93.769 -51.079  1.00  0.00     0.067 C 
BRANCH  14  15
HETATM   15  C2  UNL     1      89.275  92.652 -50.387  1.00  0.00    -0.032 C 
HETATM   16  C1  UNL     1      90.463  92.213 -50.783  1.00  0.00     0.007 C 
ENDBRANCH  14  15
ENDBRANCH   9  14
ENDBRANCH   6   7
ENDBRANCH   1   6
BRANCH   1  17
HETATM   17  N5  UNL     1      90.188  96.091 -46.140  1.00  0.00    -0.392 NA
BRANCH  17  18
HETATM   18  C17 UNL     1      90.673  95.071 -45.752  1.00  0.00     0.113 A 
HETATM   19  C18 UNL     1      90.914  93.912 -46.510  1.00  0.00     0.069 A 
HETATM   20  C19 UNL     1      91.484  92.783 -45.962  1.00  0.00     0.009 A 
HETATM   21  C20 UNL     1      91.740  91.557 -46.759  1.00  0.00     0.068 C 
HETATM   22  N6  UNL     1      91.830  92.765 -44.665  1.00  0.00    -0.354 N 
HETATM   23  C21 UNL     1      91.632  93.832 -43.881  1.00  0.00     0.083 A 
ATOM     24  H6  UNL     1      92.252  91.924 -44.270  1.00  0.00     0.166 HD
HETATM   25 BR1  UNL     1      92.146  93.740 -42.044  1.00  0.00    -0.031 Br
HETATM   26  C22 UNL     1      91.064  94.973 -44.400  1.00  0.00     0.082 A 
ENDBRANCH  17  18
ENDBRANCH   1  17
BRANCH   4  27
HETATM   27  C10 UNL     1      91.163  99.251 -44.087  1.00  0.00     0.207 C 
BRANCH  27  28
HETATM   28  C11 UNL     1      90.355  98.436 -43.123  1.00  0.00     0.010 C 
HETATM   29  C12 UNL     1      89.293  99.354 -42.512  1.00  0.00     0.012 C 
HETATM   30  C13 UNL     1      91.066  97.781 -42.011  1.00  0.00     0.012 C 
ENDBRANCH  27  28
BRANCH  27  31
HETATM   31  N2  UNL     1      90.953 100.667 -44.016  1.00  0.00    -0.132 N 
HETATM   32  C14 UNL     1      91.676 101.639 -43.216  1.00  0.00     0.681 A 
HETATM   33  N3  UNL     1      92.669 101.381 -42.414  1.00  0.00    -0.234 N 
HETATM   34  N4  UNL     1      91.138 102.932 -43.439  1.00  0.00    -0.197 N 
ATOM     35  H32 UNL     1      93.056 100.451 -42.254  1.00  0.00     0.174 HD
ATOM     36  H31 UNL     1      93.177 102.065 -41.853  1.00  0.00     0.174 HD
HETATM   37  C15 UNL     1      90.172 102.832 -44.284  1.00  0.00     0.181 A 
ATOM     38  H4  UNL     1      91.461 103.796 -43.003  1.00  0.00     0.183 HD
HETATM   39  C16 UNL     1      89.983 101.456 -44.700  1.00  0.00     0.278 A 
HETATM   40  O2  UNL     1      89.119 101.050 -45.517  1.00  0.00    -0.266 OA
ENDBRANCH  27  31
ENDBRANCH   4  27
TORSDOF 9
ENDMDL
