MODEL 1
REMARK VINA RESULT: -6.442461250      0.000      0.000
REMARK  11 active torsions:
REMARK  status: ('A' for Active; 'I' for Inactive)
REMARK    1  A    between atoms: C3_5  and  C4_6 
REMARK    2  A    between atoms: N2_8  and  C5_9 
REMARK    3  A    between atoms: C5_9  and  C6_10 
REMARK    4  A    between atoms: C9_13  and  C10_14 
REMARK    5  A    between atoms: C11_15  and  C12_16 
REMARK    6  A    between atoms: C16_23  and  C17_24 
REMARK    7  A    between atoms: C17_24  and  C18_25 
REMARK    8  A    between atoms: C19_28  and  C20_29 
REMARK    9  A    between atoms: C22_31  and  C23_32 
REMARK   10  A    between atoms: C23_32  and  C24_33 
REMARK   11  A    between atoms: C24_33  and  O3_34 
ROOT
HETATM    1  C1  UNL     1      88.327  97.189 -45.394  1.00  0.00     0.044 C 
HETATM    2  C2  UNL     1      88.790  98.382 -45.093  1.00  0.00     0.037 A 
HETATM    3  N1  UNL     1      87.909  99.385 -44.620  1.00  0.00    -0.344 N 
ATOM      4  H1  UNL     1      86.917  99.169 -44.524  1.00  0.00     0.167 HD
HETATM    5  C3  UNL     1      88.373 100.695 -44.271  1.00  0.00     0.114 A 
HETATM    6  N2  UNL     1      89.612 100.965 -44.392  1.00  0.00    -0.324 N 
HETATM    7  C15 UNL     1      90.556  99.981 -44.874  1.00  0.00     0.096 A 
HETATM    8 BR1  UNL     1      92.283 100.703 -45.293  1.00  0.00    -0.030 Br
HETATM    9  C16 UNL     1      90.259  98.749 -45.219  1.00  0.00     0.026 A 
ENDROOT
BRANCH   9  10
HETATM   10  C17 UNL     1      91.110  97.636 -45.437  1.00  0.00     0.046 C 
BRANCH  10  11
HETATM   11  C18 UNL     1      91.297  96.407 -45.028  1.00  0.00     0.040 A 
HETATM   12  N3  UNL     1      91.440  95.225 -45.614  1.00  0.00    -0.356 N 
HETATM   13  C19 UNL     1      91.518  94.184 -44.753  1.00  0.00     0.035 A 
ATOM     14  H3  UNL     1      91.487  95.111 -46.627  1.00  0.00     0.166 HD
HETATM   15  C22 UNL     1      91.423  94.699 -43.509  1.00  0.00    -0.022 A 
HETATM   16  C25 UNL     1      91.289  96.054 -43.645  1.00  0.00    -0.027 A 
HETATM   17  C26 UNL     1      91.163  96.964 -42.501  1.00  0.00     0.051 C 
BRANCH  13  18
HETATM   18  C20 UNL     1      91.664  92.903 -45.045  1.00  0.00    -0.001 C 
HETATM   19  C21 UNL     1      91.507  92.434 -46.451  1.00  0.00     0.038 C 
ENDBRANCH  13  18
BRANCH  15  20
HETATM   20  C23 UNL     1      91.455  93.898 -42.250  1.00  0.00     0.067 C 
BRANCH  20  21
HETATM   21  C24 UNL     1      92.903  93.616 -41.867  1.00  0.00     0.168 C 
BRANCH  21  22
HETATM   22  O3  UNL     1      93.316  94.560 -40.904  1.00  0.00    -0.401 OA
ATOM     23  H3  UNL     1      94.164  94.303 -40.561  1.00  0.00     0.209 HD
ENDBRANCH  21  22
ENDBRANCH  20  21
ENDBRANCH  15  20
ENDBRANCH  10  11
ENDBRANCH   9  10
BRANCH   6  24
HETATM   24  C5  UNL     1      90.067 102.294 -44.036  1.00  0.00     0.169 C 
BRANCH  24  25
HETATM   25  C6  UNL     1      90.818 102.326 -42.752  1.00  0.00    -0.040 A 
HETATM   26  C7  UNL     1      91.944 103.109 -42.645  1.00  0.00     0.009 A 
HETATM   27  C8  UNL     1      92.680 103.173 -41.470  1.00  0.00     0.012 A 
HETATM   28  C9  UNL     1      92.324 102.458 -40.350  1.00  0.00    -0.036 A 
HETATM   29  C13 UNL     1      91.173 101.665 -40.475  1.00  0.00     0.012 A 
HETATM   30  C14 UNL     1      90.454 101.610 -41.643  1.00  0.00     0.009 A 
BRANCH  28  31
HETATM   31  C10 UNL     1      93.060 102.487 -39.092  1.00  0.00     0.018 C 
HETATM   32  C11 UNL     1      93.184 103.599 -38.408  1.00  0.00     0.085 C 
BRANCH  32  33
HETATM   33  C12 UNL     1      93.928 103.575 -37.159  1.00  0.00     0.198 C 
HETATM   34  O1  UNL     1      93.357 103.235 -36.099  1.00  0.00    -0.645 OA
HETATM   35  O2  UNL     1      95.260 103.922 -37.122  1.00  0.00    -0.645 OA
ENDBRANCH  32  33
ENDBRANCH  28  31
ENDBRANCH  24  25
ENDBRANCH   6  24
BRANCH   5  36
HETATM   36  C4  UNL     1      87.399 101.664 -43.799  1.00  0.00     0.298 C 
HETATM   37  F1  UNL     1      87.070 101.483 -42.447  1.00  0.00    -0.247 F 
ENDBRANCH   5  36
TORSDOF 11
ENDMDL
MODEL 2
REMARK VINA RESULT: -6.254944622      3.223      9.204
REMARK  11 active torsions:
REMARK  status: ('A' for Active; 'I' for Inactive)
REMARK    1  A    between atoms: C3_5  and  C4_6 
REMARK    2  A    between atoms: N2_8  and  C5_9 
REMARK    3  A    between atoms: C5_9  and  C6_10 
REMARK    4  A    between atoms: C9_13  and  C10_14 
REMARK    5  A    between atoms: C11_15  and  C12_16 
REMARK    6  A    between atoms: C16_23  and  C17_24 
REMARK    7  A    between atoms: C17_24  and  C18_25 
REMARK    8  A    between atoms: C19_28  and  C20_29 
REMARK    9  A    between atoms: C22_31  and  C23_32 
REMARK   10  A    between atoms: C23_32  and  C24_33 
REMARK   11  A    between atoms: C24_33  and  O3_34 
ROOT
HETATM    1  C1  UNL     1      93.215 103.341 -41.906  1.00  0.00     0.044 C 
HETATM    2  C2  UNL     1      92.466 102.399 -42.435  1.00  0.00     0.037 A 
HETATM    3  N1  UNL     1      92.928 101.677 -43.562  1.00  0.00    -0.344 N 
ATOM      4  H1  UNL     1      93.840 101.904 -43.957  1.00  0.00     0.167 HD
HETATM    5  C3  UNL     1      92.148 100.636 -44.164  1.00  0.00     0.114 A 
HETATM    6  N2  UNL     1      91.008 100.355 -43.672  1.00  0.00    -0.324 N 
HETATM    7  C15 UNL     1      90.485 101.062 -42.524  1.00  0.00     0.096 A 
HETATM    8 BR1  UNL     1      88.632 100.707 -42.173  1.00  0.00    -0.030 Br
HETATM    9  C16 UNL     1      91.101 102.027 -41.881  1.00  0.00     0.026 A 
ENDROOT
BRANCH   9  10
HETATM   10  C17 UNL     1      90.824 102.594 -40.612  1.00  0.00     0.046 C 
BRANCH  10  11
HETATM   11  C18 UNL     1      90.080 103.515 -40.053  1.00  0.00     0.040 A 
HETATM   12  N3  UNL     1      88.985 104.183 -40.395  1.00  0.00    -0.356 N 
HETATM   13  C19 UNL     1      88.618 105.137 -39.508  1.00  0.00     0.035 A 
ATOM     14  H3  UNL     1      88.465 103.993 -41.251  1.00  0.00     0.166 HD
HETATM   15  C22 UNL     1      89.522 105.108 -38.506  1.00  0.00    -0.022 A 
HETATM   16  C25 UNL     1      90.426 104.126 -38.812  1.00  0.00    -0.027 A 
HETATM   17  C26 UNL     1      91.564 103.791 -37.948  1.00  0.00     0.051 C 
BRANCH  13  18
HETATM   18  C20 UNL     1      87.578 105.951 -39.580  1.00  0.00    -0.001 C 
HETATM   19  C21 UNL     1      86.690 105.924 -40.776  1.00  0.00     0.038 C 
ENDBRANCH  13  18
BRANCH  15  20
HETATM   20  C23 UNL     1      89.504 106.004 -37.314  1.00  0.00     0.067 C 
BRANCH  20  21
HETATM   21  C24 UNL     1      88.895 105.259 -36.130  1.00  0.00     0.168 C 
BRANCH  21  22
HETATM   22  O3  UNL     1      87.502 105.477 -36.118  1.00  0.00    -0.401 OA
ATOM     23  H3  UNL     1      87.191 105.440 -35.221  1.00  0.00     0.209 HD
ENDBRANCH  21  22
ENDBRANCH  20  21
ENDBRANCH  15  20
ENDBRANCH  10  11
ENDBRANCH   9  10
BRANCH   6  24
HETATM   24  C5  UNL     1      90.230  99.300 -44.291  1.00  0.00     0.169 C 
BRANCH  24  25
HETATM   25  C6  UNL     1      90.634  97.940 -43.842  1.00  0.00    -0.040 A 
HETATM   26  C7  UNL     1      90.677  96.910 -44.753  1.00  0.00     0.009 A 
HETATM   27  C8  UNL     1      91.045  95.624 -44.384  1.00  0.00     0.012 A 
HETATM   28  C9  UNL     1      91.388  95.309 -43.090  1.00  0.00    -0.036 A 
HETATM   29  C13 UNL     1      91.339  96.371 -42.173  1.00  0.00     0.012 A 
HETATM   30  C14 UNL     1      90.973  97.638 -42.550  1.00  0.00     0.009 A 
BRANCH  28  31
HETATM   31  C10 UNL     1      91.781  93.977 -42.648  1.00  0.00     0.018 C 
HETATM   32  C11 UNL     1      92.740  93.813 -41.768  1.00  0.00     0.085 C 
BRANCH  32  33
HETATM   33  C12 UNL     1      93.094  92.465 -41.360  1.00  0.00     0.198 C 
HETATM   34  O1  UNL     1      92.198  91.607 -41.192  1.00  0.00    -0.645 OA
HETATM   35  O2  UNL     1      94.408  92.110 -41.151  1.00  0.00    -0.645 OA
ENDBRANCH  32  33
ENDBRANCH  28  31
ENDBRANCH  24  25
ENDBRANCH   6  24
BRANCH   5  36
HETATM   36  C4  UNL     1      92.697  99.950 -45.321  1.00  0.00     0.298 C 
HETATM   37  F1  UNL     1      93.424  98.802 -44.973  1.00  0.00    -0.247 F 
ENDBRANCH   5  36
TORSDOF 11
ENDMDL
MODEL 3
REMARK VINA RESULT: -6.208361761      1.078      1.281
REMARK  11 active torsions:
REMARK  status: ('A' for Active; 'I' for Inactive)
REMARK    1  A    between atoms: C3_5  and  C4_6 
REMARK    2  A    between atoms: N2_8  and  C5_9 
REMARK    3  A    between atoms: C5_9  and  C6_10 
REMARK    4  A    between atoms: C9_13  and  C10_14 
REMARK    5  A    between atoms: C11_15  and  C12_16 
REMARK    6  A    between atoms: C16_23  and  C17_24 
REMARK    7  A    between atoms: C17_24  and  C18_25 
REMARK    8  A    between atoms: C19_28  and  C20_29 
REMARK    9  A    between atoms: C22_31  and  C23_32 
REMARK   10  A    between atoms: C23_32  and  C24_33 
REMARK   11  A    between atoms: C24_33  and  O3_34 
ROOT
HETATM    1  C1  UNL     1      86.893  97.183 -45.257  1.00  0.00     0.044 C 
HETATM    2  C2  UNL     1      87.593  98.291 -45.151  1.00  0.00     0.037 A 
HETATM    3  N1  UNL     1      87.057  99.404 -44.457  1.00  0.00    -0.344 N 
ATOM      4  H1  UNL     1      86.124  99.333 -44.052  1.00  0.00     0.167 HD
HETATM    5  C3  UNL     1      87.789 100.626 -44.310  1.00  0.00     0.114 A 
HETATM    6  N2  UNL     1      88.954 100.715 -44.818  1.00  0.00    -0.324 N 
HETATM    7  C15 UNL     1      89.549  99.612 -45.540  1.00  0.00     0.096 A 
HETATM    8 BR1  UNL     1      91.144 100.082 -46.497  1.00  0.00    -0.030 Br
HETATM    9  C16 UNL     1      88.986  98.442 -45.738  1.00  0.00     0.026 A 
ENDROOT
BRANCH   9  10
HETATM   10  C17 UNL     1      89.558  97.221 -46.177  1.00  0.00     0.046 C 
BRANCH  10  11
HETATM   11  C18 UNL     1      90.241  96.201 -45.723  1.00  0.00     0.040 A 
HETATM   12  N3  UNL     1      90.502  94.971 -46.148  1.00  0.00    -0.356 N 
HETATM   13  C19 UNL     1      91.201  94.216 -45.270  1.00  0.00     0.035 A 
ATOM     14  H3  UNL     1      90.201  94.625 -47.060  1.00  0.00     0.166 HD
HETATM   15  C22 UNL     1      91.426  94.988 -44.185  1.00  0.00    -0.022 A 
HETATM   16  C25 UNL     1      90.853  96.206 -44.434  1.00  0.00    -0.027 A 
HETATM   17  C26 UNL     1      90.897  97.320 -43.480  1.00  0.00     0.051 C 
BRANCH  13  18
HETATM   18  C20 UNL     1      91.603  92.966 -45.419  1.00  0.00    -0.001 C 
HETATM   19  C21 UNL     1      91.557  92.322 -46.762  1.00  0.00     0.038 C 
ENDBRANCH  13  18
BRANCH  15  20
HETATM   20  C23 UNL     1      92.161  94.548 -42.963  1.00  0.00     0.067 C 
BRANCH  20  21
HETATM   21  C24 UNL     1      91.184  93.895 -41.992  1.00  0.00     0.168 C 
BRANCH  21  22
HETATM   22  O3  UNL     1      91.164  94.636 -40.793  1.00  0.00    -0.401 OA
ATOM     23  H3  UNL     1      90.804  94.094 -40.100  1.00  0.00     0.209 HD
ENDBRANCH  21  22
ENDBRANCH  20  21
ENDBRANCH  15  20
ENDBRANCH  10  11
ENDBRANCH   9  10
BRANCH   6  24
HETATM   24  C5  UNL     1      89.683 101.958 -44.661  1.00  0.00     0.169 C 
BRANCH  24  25
HETATM   25  C6  UNL     1      90.377 102.062 -43.350  1.00  0.00    -0.040 A 
HETATM   26  C7  UNL     1      91.012 100.959 -42.829  1.00  0.00     0.009 A 
HETATM   27  C8  UNL     1      91.672 101.005 -41.609  1.00  0.00     0.012 A 
HETATM   28  C9  UNL     1      91.729 102.153 -40.855  1.00  0.00    -0.036 A 
HETATM   29  C13 UNL     1      91.076 103.271 -41.401  1.00  0.00     0.012 A 
HETATM   30  C14 UNL     1      90.426 103.213 -42.608  1.00  0.00     0.009 A 
BRANCH  28  31
HETATM   31  C10 UNL     1      92.406 102.257 -39.569  1.00  0.00     0.018 C 
HETATM   32  C11 UNL     1      92.434 103.392 -38.911  1.00  0.00     0.085 C 
BRANCH  32  33
HETATM   33  C12 UNL     1      93.122 103.442 -37.632  1.00  0.00     0.198 C 
HETATM   34  O1  UNL     1      92.488 103.728 -36.591  1.00  0.00    -0.645 OA
HETATM   35  O2  UNL     1      94.472 103.181 -37.543  1.00  0.00    -0.645 OA
ENDBRANCH  32  33
ENDBRANCH  28  31
ENDBRANCH  24  25
ENDBRANCH   6  24
BRANCH   5  36
HETATM   36  C4  UNL     1      87.161 101.719 -43.587  1.00  0.00     0.298 C 
HETATM   37  F1  UNL     1      87.310 101.603 -42.198  1.00  0.00    -0.247 F 
ENDBRANCH   5  36
TORSDOF 11
ENDMDL
MODEL 4
REMARK VINA RESULT: -6.193397126      4.846      7.947
REMARK  11 active torsions:
REMARK  status: ('A' for Active; 'I' for Inactive)
REMARK    1  A    between atoms: C3_5  and  C4_6 
REMARK    2  A    between atoms: N2_8  and  C5_9 
REMARK    3  A    between atoms: C5_9  and  C6_10 
REMARK    4  A    between atoms: C9_13  and  C10_14 
REMARK    5  A    between atoms: C11_15  and  C12_16 
REMARK    6  A    between atoms: C16_23  and  C17_24 
REMARK    7  A    between atoms: C17_24  and  C18_25 
REMARK    8  A    between atoms: C19_28  and  C20_29 
REMARK    9  A    between atoms: C22_31  and  C23_32 
REMARK   10  A    between atoms: C23_32  and  C24_33 
REMARK   11  A    between atoms: C24_33  and  O3_34 
ROOT
HETATM    1  C1  UNL     1      83.587  97.981 -44.462  1.00  0.00     0.044 C 
HETATM    2  C2  UNL     1      84.843  98.010 -44.849  1.00  0.00     0.037 A 
HETATM    3  N1  UNL     1      85.802  98.724 -44.090  1.00  0.00    -0.344 N 
ATOM      4  H1  UNL     1      85.502  99.216 -43.249  1.00  0.00     0.167 HD
HETATM    5  C3  UNL     1      87.182  98.773 -44.470  1.00  0.00     0.114 A 
HETATM    6  N2  UNL     1      87.557  98.160 -45.522  1.00  0.00    -0.324 N 
HETATM    7  C15 UNL     1      86.620  97.419 -46.337  1.00  0.00     0.096 A 
HETATM    8 BR1  UNL     1      87.334  96.869 -48.032  1.00  0.00    -0.030 Br
HETATM    9  C16 UNL     1      85.336  97.292 -46.095  1.00  0.00     0.026 A 
ENDROOT
BRANCH   9  10
HETATM   10  C17 UNL     1      84.391  96.390 -46.647  1.00  0.00     0.046 C 
BRANCH  10  11
HETATM   11  C18 UNL     1      84.091  95.117 -46.657  1.00  0.00     0.040 A 
HETATM   12  N3  UNL     1      83.850  94.193 -45.735  1.00  0.00    -0.356 N 
HETATM   13  C19 UNL     1      83.669  92.947 -46.231  1.00  0.00     0.035 A 
ATOM     14  H3  UNL     1      83.805  94.405 -44.738  1.00  0.00     0.166 HD
HETATM   15  C22 UNL     1      83.795  93.039 -47.572  1.00  0.00    -0.022 A 
HETATM   16  C25 UNL     1      84.051  94.352 -47.861  1.00  0.00    -0.027 A 
HETATM   17  C26 UNL     1      84.244  94.846 -49.230  1.00  0.00     0.051 C 
BRANCH  13  18
HETATM   18  C20 UNL     1      83.414  91.839 -45.558  1.00  0.00    -0.001 C 
HETATM   19  C21 UNL     1      82.429  91.854 -44.439  1.00  0.00     0.038 C 
ENDBRANCH  13  18
BRANCH  15  20
HETATM   20  C23 UNL     1      83.677  91.893 -48.520  1.00  0.00     0.067 C 
BRANCH  20  21
HETATM   21  C24 UNL     1      85.062  91.313 -48.788  1.00  0.00     0.168 C 
BRANCH  21  22
HETATM   22  O3  UNL     1      85.148  90.038 -48.192  1.00  0.00    -0.401 OA
ATOM     23  H3  UNL     1      85.668  90.101 -47.399  1.00  0.00     0.209 HD
ENDBRANCH  21  22
ENDBRANCH  20  21
ENDBRANCH  15  20
ENDBRANCH  10  11
ENDBRANCH   9  10
BRANCH   6  24
HETATM   24  C5  UNL     1      88.956  98.219 -45.894  1.00  0.00     0.169 C 
BRANCH  24  25
HETATM   25  C6  UNL     1      89.777  97.166 -45.238  1.00  0.00    -0.040 A 
HETATM   26  C7  UNL     1      89.930  95.945 -45.852  1.00  0.00     0.009 A 
HETATM   27  C8  UNL     1      90.685  94.930 -45.281  1.00  0.00     0.012 A 
HETATM   28  C9  UNL     1      91.319  95.088 -44.071  1.00  0.00    -0.036 A 
HETATM   29  C13 UNL     1      91.153  96.340 -43.457  1.00  0.00     0.012 A 
HETATM   30  C14 UNL     1      90.405  97.336 -44.032  1.00  0.00     0.009 A 
BRANCH  28  31
HETATM   31  C10 UNL     1      92.121  94.057 -43.425  1.00  0.00     0.018 C 
HETATM   32  C11 UNL     1      91.933  93.746 -42.165  1.00  0.00     0.085 C 
BRANCH  32  33
HETATM   33  C12 UNL     1      92.759  92.710 -41.568  1.00  0.00     0.198 C 
HETATM   34  O1  UNL     1      92.242  91.629 -41.205  1.00  0.00    -0.645 OA
HETATM   35  O2  UNL     1      94.112  92.897 -41.391  1.00  0.00    -0.645 OA
ENDBRANCH  32  33
ENDBRANCH  28  31
ENDBRANCH  24  25
ENDBRANCH   6  24
BRANCH   5  36
HETATM   36  C4  UNL     1      88.096  99.533 -43.635  1.00  0.00     0.298 C 
HETATM   37  F1  UNL     1      87.998  99.192 -42.278  1.00  0.00    -0.247 F 
ENDBRANCH   5  36
TORSDOF 11
ENDMDL
MODEL 5
REMARK VINA RESULT: -6.120978434      4.564      7.482
REMARK  11 active torsions:
REMARK  status: ('A' for Active; 'I' for Inactive)
REMARK    1  A    between atoms: C3_5  and  C4_6 
REMARK    2  A    between atoms: N2_8  and  C5_9 
REMARK    3  A    between atoms: C5_9  and  C6_10 
REMARK    4  A    between atoms: C9_13  and  C10_14 
REMARK    5  A    between atoms: C11_15  and  C12_16 
REMARK    6  A    between atoms: C16_23  and  C17_24 
REMARK    7  A    between atoms: C17_24  and  C18_25 
REMARK    8  A    between atoms: C19_28  and  C20_29 
REMARK    9  A    between atoms: C22_31  and  C23_32 
REMARK   10  A    between atoms: C23_32  and  C24_33 
REMARK   11  A    between atoms: C24_33  and  O3_34 
ROOT
HETATM    1  C1  UNL     1      83.977  98.987 -44.955  1.00  0.00     0.044 C 
HETATM    2  C2  UNL     1      85.277  98.925 -45.140  1.00  0.00     0.037 A 
HETATM    3  N1  UNL     1      86.155  99.531 -44.209  1.00  0.00    -0.344 N 
ATOM      4  H1  UNL     1      85.763 100.017 -43.402  1.00  0.00     0.167 HD
HETATM    5  C3  UNL     1      87.578  99.479 -44.367  1.00  0.00     0.114 A 
HETATM    6  N2  UNL     1      88.066  98.873 -45.376  1.00  0.00    -0.324 N 
HETATM    7  C15 UNL     1      87.217  98.241 -46.361  1.00  0.00     0.096 A 
HETATM    8 BR1  UNL     1      88.146  97.693 -47.948  1.00  0.00    -0.030 Br
HETATM    9  C16 UNL     1      85.904  98.212 -46.326  1.00  0.00     0.026 A 
ENDROOT
BRANCH   9  10
HETATM   10  C17 UNL     1      84.993  97.412 -47.061  1.00  0.00     0.046 C 
BRANCH  10  11
HETATM   11  C18 UNL     1      84.807  96.171 -47.435  1.00  0.00     0.040 A 
HETATM   12  N3  UNL     1      85.259  95.400 -48.416  1.00  0.00    -0.356 N 
HETATM   13  C19 UNL     1      84.696  94.170 -48.459  1.00  0.00     0.035 A 
ATOM     14  H3  UNL     1      85.970  95.708 -49.080  1.00  0.00     0.166 HD
HETATM   15  C22 UNL     1      83.811  94.110 -47.442  1.00  0.00    -0.022 A 
HETATM   16  C25 UNL     1      83.858  95.317 -46.798  1.00  0.00    -0.027 A 
HETATM   17  C26 UNL     1      83.033  95.631 -45.626  1.00  0.00     0.051 C 
BRANCH  13  18
HETATM   18  C20 UNL     1      84.948  93.196 -49.316  1.00  0.00    -0.001 C 
HETATM   19  C21 UNL     1      86.112  93.296 -50.240  1.00  0.00     0.038 C 
ENDBRANCH  13  18
BRANCH  15  20
HETATM   20  C23 UNL     1      82.956  92.929 -47.124  1.00  0.00     0.067 C 
BRANCH  20  21
HETATM   21  C24 UNL     1      83.782  91.897 -46.363  1.00  0.00     0.168 C 
BRANCH  21  22
HETATM   22  O3  UNL     1      83.949  92.333 -45.033  1.00  0.00    -0.401 OA
ATOM     23  H3  UNL     1      84.392  91.654 -44.538  1.00  0.00     0.209 HD
ENDBRANCH  21  22
ENDBRANCH  20  21
ENDBRANCH  15  20
ENDBRANCH  10  11
ENDBRANCH   9  10
BRANCH   6  24
HETATM   24  C5  UNL     1      89.507  98.829 -45.523  1.00  0.00     0.169 C 
BRANCH  24  25
HETATM   25  C6  UNL     1      90.115  97.611 -44.924  1.00  0.00    -0.040 A 
HETATM   26  C7  UNL     1      90.180  96.452 -45.662  1.00  0.00     0.009 A 
HETATM   27  C8  UNL     1      90.736  95.289 -45.148  1.00  0.00     0.012 A 
HETATM   28  C9  UNL     1      91.253  95.231 -43.875  1.00  0.00    -0.036 A 
HETATM   29  C13 UNL     1      91.180  96.422 -43.135  1.00  0.00     0.012 A 
HETATM   30  C14 UNL     1      90.627  97.565 -43.654  1.00  0.00     0.009 A 
BRANCH  28  31
HETATM   31  C10 UNL     1      91.847  94.038 -43.285  1.00  0.00     0.018 C 
HETATM   32  C11 UNL     1      92.243  94.029 -42.034  1.00  0.00     0.085 C 
BRANCH  32  33
HETATM   33  C12 UNL     1      92.828  92.814 -41.493  1.00  0.00     0.198 C 
HETATM   34  O1  UNL     1      94.064  92.742 -41.312  1.00  0.00    -0.645 OA
HETATM   35  O2  UNL     1      92.041  91.730 -41.175  1.00  0.00    -0.645 OA
ENDBRANCH  32  33
ENDBRANCH  28  31
ENDBRANCH  24  25
ENDBRANCH   6  24
BRANCH   5  36
HETATM   36  C4  UNL     1      88.403 100.132 -43.365  1.00  0.00     0.298 C 
HETATM   37  F1  UNL     1      88.322  99.510 -42.111  1.00  0.00    -0.247 F 
ENDBRANCH   5  36
TORSDOF 11
ENDMDL
