MODEL 1
REMARK VINA RESULT: -7.859596141      0.000      0.000
REMARK  10 active torsions:
REMARK  status: ('A' for Active; 'I' for Inactive)
REMARK    1  A    between atoms: C5_5  and  C6_6 
REMARK    2  A    between atoms: C6_6  and  C7_7 
REMARK    3  A    between atoms: C9_14  and  C10_15 
REMARK    4  A    between atoms: C10_15  and  C11_16 
REMARK    5  A    between atoms: C11_16  and  C12_17 
REMARK    6  A    between atoms: C12_17  and  C13_18 
REMARK    7  A    between atoms: C16_21  and  C17_22 
REMARK    8  A    between atoms: C17_22  and  C18_26 
REMARK    9  A    between atoms: C18_26  and  O2_27 
REMARK   10  A    between atoms: C18_26  and  N4_29 
REMARK       I    between atoms: C19_31  and  N6_33 
ROOT
HETATM    1  C13 UNL     1      91.527  92.913 -45.570  1.00  0.00    -0.058 A 
HETATM    2  C14 UNL     1      91.756  93.169 -44.236  1.00  0.00     0.008 A 
HETATM    3  C15 UNL     1      91.563  94.420 -43.665  1.00  0.00     0.014 A 
HETATM    4  C16 UNL     1      91.120  95.483 -44.444  1.00  0.00    -0.005 A 
HETATM    5  C23 UNL     1      90.888  95.236 -45.776  1.00  0.00     0.014 A 
HETATM    6  C24 UNL     1      91.094  93.959 -46.319  1.00  0.00     0.008 A 
ENDROOT
BRANCH   1   7
HETATM    7  C12 UNL     1      91.707  91.565 -46.129  1.00  0.00     0.039 C 
BRANCH   7   8
HETATM    8  C11 UNL     1      92.236  91.618 -47.506  1.00  0.00     0.011 C 
BRANCH   8   9
HETATM    9  C10 UNL     1      91.873  90.582 -48.487  1.00  0.00     0.060 C 
BRANCH   9  10
HETATM   10  C9  UNL     1      91.005  90.965 -49.601  1.00  0.00     0.040 A 
HETATM   11  C7  UNL     1      89.776  90.405 -49.960  1.00  0.00     0.061 A 
HETATM   12  N1  UNL     1      89.304  91.034 -51.078  1.00  0.00    -0.307 N 
HETATM   13  C8  UNL     1      90.199  91.952 -51.410  1.00  0.00     0.325 A 
ATOM     14  H1  UNL     1      88.429  90.834 -51.564  1.00  0.00     0.170 HD
HETATM   15  O1  UNL     1      90.071  92.717 -52.404  1.00  0.00    -0.247 OA
HETATM   16  N2  UNL     1      91.207  91.906 -50.528  1.00  0.00    -0.310 N 
ATOM     17  H2  UNL     1      92.026  92.513 -50.560  1.00  0.00     0.170 HD
BRANCH  11  18
HETATM   18  C6  UNL     1      89.087  89.322 -49.284  1.00  0.00     0.061 C 
BRANCH  18  19
HETATM   19  C5  UNL     1      89.384  88.055 -49.569  1.00  0.00     0.034 A 
HETATM   20  C4  UNL     1      89.153  87.430 -50.784  1.00  0.00     0.032 A 
HETATM   21  C3  UNL     1      89.582  86.112 -50.724  1.00  0.00     0.031 A 
HETATM   22  C2  UNL     1      90.079  85.942 -49.449  1.00  0.00     0.023 A 
HETATM   23  C1  UNL     1      90.593  84.822 -48.969  1.00  0.00     0.043 C 
HETATM   24  N7  UNL     1      89.944  87.129 -48.786  1.00  0.00    -0.357 N 
ATOM     25  H7  UNL     1      90.232  87.288 -47.820  1.00  0.00     0.166 HD
ENDBRANCH  18  19
ENDBRANCH  11  18
ENDBRANCH   9  10
ENDBRANCH   8   9
ENDBRANCH   7   8
ENDBRANCH   1   7
BRANCH   4  26
HETATM   26  C17 UNL     1      90.947  96.806 -43.811  1.00  0.00     0.100 C 
HETATM   27  N3  UNL     1      91.175  96.975 -42.619  1.00  0.00    -0.318 N 
HETATM   28 BR1  UNL     1      91.646  96.516 -41.004  1.00  0.00     0.047 Br
ATOM     29  H3  UNL     1      90.966  97.967 -42.504  1.00  0.00     0.174 HD
BRANCH  26  30
HETATM   30  C18 UNL     1      90.485  97.989 -44.549  1.00  0.00     0.171 C 
BRANCH  30  31
HETATM   31  O2  UNL     1      89.210  98.010 -44.808  1.00  0.00    -0.344 OA
ATOM     32  H2  UNL     1      88.678  98.464 -44.164  1.00  0.00     0.219 HD
ENDBRANCH  30  31
BRANCH  30  33
HETATM   33  N4  UNL     1      91.177  99.083 -45.019  1.00  0.00    -0.309 N 
HETATM   34  C19 UNL     1      91.396 100.180 -44.374  1.00  0.00     0.192 C 
HETATM   35  N5  UNL     1      92.142 101.225 -45.018  1.00  0.00    -0.063 NA
HETATM   36  N6  UNL     1      90.956 100.452 -43.059  1.00  0.00    -0.355 N 
HETATM   37  C20 UNL     1      89.687 100.409 -42.369  1.00  0.00     0.127 C 
HETATM   38  C22 UNL     1      91.568 100.893 -41.827  1.00  0.00     0.127 C 
HETATM   39  C21 UNL     1      90.227 101.542 -41.485  1.00  0.00     0.040 C 
ATOM     40  H4  UNL     1      91.551  99.020 -45.965  1.00  0.00     0.170 HD
ENDBRANCH  30  33
ENDBRANCH  26  30
ENDBRANCH   4  26
TORSDOF 10
ENDMDL
MODEL 2
REMARK VINA RESULT: -7.803657992      1.534      1.802
REMARK  10 active torsions:
REMARK  status: ('A' for Active; 'I' for Inactive)
REMARK    1  A    between atoms: C5_5  and  C6_6 
REMARK    2  A    between atoms: C6_6  and  C7_7 
REMARK    3  A    between atoms: C9_14  and  C10_15 
REMARK    4  A    between atoms: C10_15  and  C11_16 
REMARK    5  A    between atoms: C11_16  and  C12_17 
REMARK    6  A    between atoms: C12_17  and  C13_18 
REMARK    7  A    between atoms: C16_21  and  C17_22 
REMARK    8  A    between atoms: C17_22  and  C18_26 
REMARK    9  A    between atoms: C18_26  and  O2_27 
REMARK   10  A    between atoms: C18_26  and  N4_29 
REMARK       I    between atoms: C19_31  and  N6_33 
ROOT
HETATM    1  C13 UNL     1      91.444  93.702 -44.972  1.00  0.00    -0.058 A 
HETATM    2  C14 UNL     1      91.107  94.702 -45.856  1.00  0.00     0.008 A 
HETATM    3  C15 UNL     1      90.837  96.003 -45.453  1.00  0.00     0.014 A 
HETATM    4  C16 UNL     1      90.901  96.346 -44.107  1.00  0.00    -0.005 A 
HETATM    5  C23 UNL     1      91.238  95.354 -43.218  1.00  0.00     0.014 A 
HETATM    6  C24 UNL     1      91.504  94.049 -43.661  1.00  0.00     0.008 A 
ENDROOT
BRANCH   1   7
HETATM    7  C12 UNL     1      91.760  92.344 -45.441  1.00  0.00     0.039 C 
BRANCH   7   8
HETATM    8  C11 UNL     1      91.769  92.271 -46.916  1.00  0.00     0.011 C 
BRANCH   8   9
HETATM    9  C10 UNL     1      91.408  91.021 -47.604  1.00  0.00     0.060 C 
BRANCH   9  10
HETATM   10  C9  UNL     1      90.815  91.119 -48.939  1.00  0.00     0.040 A 
HETATM   11  C7  UNL     1      89.848  90.286 -49.508  1.00  0.00     0.061 A 
HETATM   12  N1  UNL     1      89.587  90.705 -50.783  1.00  0.00    -0.307 N 
HETATM   13  C8  UNL     1      90.358  91.758 -51.007  1.00  0.00     0.325 A 
ATOM     14  H1  UNL     1      88.925  90.286 -51.436  1.00  0.00     0.170 HD
HETATM   15  O1  UNL     1      90.366  92.392 -52.097  1.00  0.00    -0.247 OA
HETATM   16  N2  UNL     1      91.085  91.999 -49.907  1.00  0.00    -0.310 N 
ATOM     17  H2  UNL     1      91.761  92.758 -49.820  1.00  0.00     0.170 HD
BRANCH  11  18
HETATM   18  C6  UNL     1      89.209  89.144 -48.880  1.00  0.00     0.061 C 
BRANCH  18  19
HETATM   19  C5  UNL     1      89.473  87.910 -49.304  1.00  0.00     0.034 A 
HETATM   20  C4  UNL     1      89.206  87.422 -50.573  1.00  0.00     0.032 A 
HETATM   21  C3  UNL     1      89.606  86.097 -50.663  1.00  0.00     0.031 A 
HETATM   22  C2  UNL     1      90.124  85.783 -49.423  1.00  0.00     0.023 A 
HETATM   23  C1  UNL     1      90.622  84.608 -49.076  1.00  0.00     0.043 C 
HETATM   24  N7  UNL     1      90.027  86.895 -48.635  1.00  0.00    -0.357 N 
ATOM     25  H7  UNL     1      90.336  86.944 -47.665  1.00  0.00     0.166 HD
ENDBRANCH  18  19
ENDBRANCH  11  18
ENDBRANCH   9  10
ENDBRANCH   8   9
ENDBRANCH   7   8
ENDBRANCH   1   7
BRANCH   4  26
HETATM   26  C17 UNL     1      90.585  97.733 -43.710  1.00  0.00     0.100 C 
HETATM   27  N3  UNL     1      89.535  98.267 -44.047  1.00  0.00    -0.318 N 
HETATM   28 BR1  UNL     1      87.978  98.376 -44.826  1.00  0.00     0.047 Br
ATOM     29  H3  UNL     1      89.624  99.192 -43.623  1.00  0.00     0.174 HD
BRANCH  26  30
HETATM   30  C18 UNL     1      91.497  98.561 -42.910  1.00  0.00     0.171 C 
BRANCH  30  31
HETATM   31  O2  UNL     1      91.625  98.193 -41.668  1.00  0.00    -0.344 OA
ATOM     32  H2  UNL     1      91.183  98.749 -41.038  1.00  0.00     0.219 HD
ENDBRANCH  30  31
BRANCH  30  33
HETATM   33  N4  UNL     1      92.241  99.667 -43.252  1.00  0.00    -0.309 N 
HETATM   34  C19 UNL     1      92.028 100.880 -42.863  1.00  0.00     0.192 C 
HETATM   35  N5  UNL     1      92.908 101.919 -43.318  1.00  0.00    -0.063 NA
HETATM   36  N6  UNL     1      90.979 101.286 -42.008  1.00  0.00    -0.355 N 
HETATM   37  C20 UNL     1      89.542 101.127 -41.994  1.00  0.00     0.127 C 
HETATM   38  C22 UNL     1      90.868 102.037 -40.778  1.00  0.00     0.127 C 
HETATM   39  C21 UNL     1      89.486 102.475 -41.260  1.00  0.00     0.040 C 
ATOM     40  H4  UNL     1      93.036  99.515 -43.873  1.00  0.00     0.170 HD
ENDBRANCH  30  33
ENDBRANCH  26  30
ENDBRANCH   4  26
TORSDOF 10
ENDMDL
MODEL 3
REMARK VINA RESULT: -7.755374961      2.224      4.059
REMARK  10 active torsions:
REMARK  status: ('A' for Active; 'I' for Inactive)
REMARK    1  A    between atoms: C5_5  and  C6_6 
REMARK    2  A    between atoms: C6_6  and  C7_7 
REMARK    3  A    between atoms: C9_14  and  C10_15 
REMARK    4  A    between atoms: C10_15  and  C11_16 
REMARK    5  A    between atoms: C11_16  and  C12_17 
REMARK    6  A    between atoms: C12_17  and  C13_18 
REMARK    7  A    between atoms: C16_21  and  C17_22 
REMARK    8  A    between atoms: C17_22  and  C18_26 
REMARK    9  A    between atoms: C18_26  and  O2_27 
REMARK   10  A    between atoms: C18_26  and  N4_29 
REMARK       I    between atoms: C19_31  and  N6_33 
ROOT
HETATM    1  C13 UNL     1      91.433  93.766 -45.098  1.00  0.00    -0.058 A 
HETATM    2  C14 UNL     1      91.077  94.790 -45.948  1.00  0.00     0.008 A 
HETATM    3  C15 UNL     1      90.807  96.078 -45.504  1.00  0.00     0.014 A 
HETATM    4  C16 UNL     1      90.890  96.382 -44.149  1.00  0.00    -0.005 A 
HETATM    5  C23 UNL     1      91.244  95.366 -43.295  1.00  0.00     0.014 A 
HETATM    6  C24 UNL     1      91.510  94.076 -43.779  1.00  0.00     0.008 A 
ENDROOT
BRANCH   1   7
HETATM    7  C12 UNL     1      91.748  92.425 -45.612  1.00  0.00     0.039 C 
BRANCH   7   8
HETATM    8  C11 UNL     1      91.350  92.280 -47.026  1.00  0.00     0.011 C 
BRANCH   8   9
HETATM    9  C10 UNL     1      91.883  91.178 -47.843  1.00  0.00     0.060 C 
BRANCH   9  10
HETATM   10  C9  UNL     1      90.946  90.431 -48.684  1.00  0.00     0.040 A 
HETATM   11  C7  UNL     1      90.495  90.763 -49.964  1.00  0.00     0.061 A 
HETATM   12  N1  UNL     1      89.606  89.815 -50.388  1.00  0.00    -0.307 N 
HETATM   13  C8  UNL     1      89.502  88.923 -49.415  1.00  0.00     0.325 A 
ATOM     14  H1  UNL     1      89.116  89.798 -51.283  1.00  0.00     0.170 HD
HETATM   15  O1  UNL     1      88.756  87.908 -49.481  1.00  0.00    -0.247 OA
HETATM   16  N2  UNL     1      90.301  89.295 -48.405  1.00  0.00    -0.310 N 
ATOM     17  H2  UNL     1      90.404  88.776 -47.532  1.00  0.00     0.170 HD
BRANCH  11  18
HETATM   18  C6  UNL     1      90.878  91.925 -50.745  1.00  0.00     0.061 C 
BRANCH  18  19
HETATM   19  C5  UNL     1      90.009  92.914 -50.949  1.00  0.00     0.034 A 
HETATM   20  C4  UNL     1      89.877  93.637 -52.123  1.00  0.00     0.032 A 
HETATM   21  C3  UNL     1      88.880  94.590 -51.980  1.00  0.00     0.031 A 
HETATM   22  C2  UNL     1      88.403  94.436 -50.694  1.00  0.00     0.023 A 
HETATM   23  C1  UNL     1      87.438  95.153 -50.143  1.00  0.00     0.043 C 
HETATM   24  N7  UNL     1      89.105  93.421 -50.107  1.00  0.00    -0.357 N 
ATOM     25  H7  UNL     1      88.958  93.094 -49.152  1.00  0.00     0.166 HD
ENDBRANCH  18  19
ENDBRANCH  11  18
ENDBRANCH   9  10
ENDBRANCH   8   9
ENDBRANCH   7   8
ENDBRANCH   1   7
BRANCH   4  26
HETATM   26  C17 UNL     1      90.573  97.755 -43.708  1.00  0.00     0.100 C 
HETATM   27  N3  UNL     1      89.506  98.285 -43.993  1.00  0.00    -0.318 N 
HETATM   28 BR1  UNL     1      87.920  98.394 -44.713  1.00  0.00     0.047 Br
ATOM     29  H3  UNL     1      89.599  99.199 -43.551  1.00  0.00     0.174 HD
BRANCH  26  30
HETATM   30  C18 UNL     1      91.504  98.574 -42.920  1.00  0.00     0.171 C 
BRANCH  30  31
HETATM   31  O2  UNL     1      91.653  98.200 -41.684  1.00  0.00    -0.344 OA
ATOM     32  H2  UNL     1      91.219  98.751 -41.043  1.00  0.00     0.219 HD
ENDBRANCH  30  31
BRANCH  30  33
HETATM   33  N4  UNL     1      92.248  99.678 -43.272  1.00  0.00    -0.309 N 
HETATM   34  C19 UNL     1      92.052 100.889 -42.869  1.00  0.00     0.192 C 
HETATM   35  N5  UNL     1      92.928 101.926 -43.337  1.00  0.00    -0.063 NA
HETATM   36  N6  UNL     1      91.025 101.296 -41.988  1.00  0.00    -0.355 N 
HETATM   37  C20 UNL     1      89.588 101.146 -41.943  1.00  0.00     0.127 C 
HETATM   38  C22 UNL     1      90.947 102.039 -40.751  1.00  0.00     0.127 C 
HETATM   39  C21 UNL     1      89.557 102.489 -41.199  1.00  0.00     0.040 C 
ATOM     40  H4  UNL     1      93.027  99.525 -43.911  1.00  0.00     0.170 HD
ENDBRANCH  30  33
ENDBRANCH  26  30
ENDBRANCH   4  26
TORSDOF 10
ENDMDL
MODEL 4
REMARK VINA RESULT: -7.676509745      0.911      1.078
REMARK  10 active torsions:
REMARK  status: ('A' for Active; 'I' for Inactive)
REMARK    1  A    between atoms: C5_5  and  C6_6 
REMARK    2  A    between atoms: C6_6  and  C7_7 
REMARK    3  A    between atoms: C9_14  and  C10_15 
REMARK    4  A    between atoms: C10_15  and  C11_16 
REMARK    5  A    between atoms: C11_16  and  C12_17 
REMARK    6  A    between atoms: C12_17  and  C13_18 
REMARK    7  A    between atoms: C16_21  and  C17_22 
REMARK    8  A    between atoms: C17_22  and  C18_26 
REMARK    9  A    between atoms: C18_26  and  O2_27 
REMARK   10  A    between atoms: C18_26  and  N4_29 
REMARK       I    between atoms: C19_31  and  N6_33 
ROOT
HETATM    1  C13 UNL     1      91.515  92.865 -45.650  1.00  0.00    -0.058 A 
HETATM    2  C14 UNL     1      91.863  93.165 -44.352  1.00  0.00     0.008 A 
HETATM    3  C15 UNL     1      91.708  94.432 -43.805  1.00  0.00     0.014 A 
HETATM    4  C16 UNL     1      91.181  95.465 -44.572  1.00  0.00    -0.005 A 
HETATM    5  C23 UNL     1      90.830  95.173 -45.869  1.00  0.00     0.014 A 
HETATM    6  C24 UNL     1      91.001  93.881 -46.388  1.00  0.00     0.008 A 
ENDROOT
BRANCH   1   7
HETATM    7  C12 UNL     1      91.659  91.501 -46.182  1.00  0.00     0.039 C 
BRANCH   7   8
HETATM    8  C11 UNL     1      92.281  91.506 -47.521  1.00  0.00     0.011 C 
BRANCH   8   9
HETATM    9  C10 UNL     1      91.896  90.503 -48.527  1.00  0.00     0.060 C 
BRANCH   9  10
HETATM   10  C9  UNL     1      91.025  90.929 -49.623  1.00  0.00     0.040 A 
HETATM   11  C7  UNL     1      89.777  90.407 -49.976  1.00  0.00     0.061 A 
HETATM   12  N1  UNL     1      89.307  91.069 -51.076  1.00  0.00    -0.307 N 
HETATM   13  C8  UNL     1      90.222  91.969 -51.403  1.00  0.00     0.325 A 
ATOM     14  H1  UNL     1      88.422  90.900 -51.554  1.00  0.00     0.170 HD
HETATM   15  O1  UNL     1      90.102  92.755 -52.382  1.00  0.00    -0.247 OA
HETATM   16  N2  UNL     1      91.240  91.880 -50.535  1.00  0.00    -0.310 N 
ATOM     17  H2  UNL     1      92.075  92.466 -50.568  1.00  0.00     0.170 HD
BRANCH  11  18
HETATM   18  C6  UNL     1      89.068  89.331 -49.309  1.00  0.00     0.061 C 
BRANCH  18  19
HETATM   19  C5  UNL     1      89.356  88.061 -49.591  1.00  0.00     0.034 A 
HETATM   20  C4  UNL     1      89.073  87.420 -50.786  1.00  0.00     0.032 A 
HETATM   21  C3  UNL     1      89.509  86.104 -50.729  1.00  0.00     0.031 A 
HETATM   22  C2  UNL     1      90.064  85.953 -49.475  1.00  0.00     0.023 A 
HETATM   23  C1  UNL     1      90.603  84.840 -49.004  1.00  0.00     0.043 C 
HETATM   24  N7  UNL     1      89.954  87.148 -48.822  1.00  0.00    -0.357 N 
ATOM     25  H7  UNL     1      90.285  87.320 -47.872  1.00  0.00     0.166 HD
ENDBRANCH  18  19
ENDBRANCH  11  18
ENDBRANCH   9  10
ENDBRANCH   8   9
ENDBRANCH   7   8
ENDBRANCH   1   7
BRANCH   4  26
HETATM   26  C17 UNL     1      91.051  96.806 -43.968  1.00  0.00     0.100 C 
HETATM   27  N3  UNL     1      91.207  96.979 -42.765  1.00  0.00    -0.318 N 
HETATM   28 BR1  UNL     1      91.537  96.516 -41.115  1.00  0.00     0.047 Br
ATOM     29  H3  UNL     1      91.055  97.984 -42.675  1.00  0.00     0.174 HD
BRANCH  26  30
HETATM   30  C18 UNL     1      90.717  98.004 -44.749  1.00  0.00     0.171 C 
BRANCH  30  31
HETATM   31  O2  UNL     1      91.635  98.385 -45.588  1.00  0.00    -0.344 OA
ATOM     32  H2  UNL     1      91.938  97.710 -46.184  1.00  0.00     0.219 HD
ENDBRANCH  30  31
BRANCH  30  33
HETATM   33  N4  UNL     1      89.592  98.797 -44.742  1.00  0.00    -0.309 N 
HETATM   34  C19 UNL     1      89.490  99.971 -44.215  1.00  0.00     0.192 C 
HETATM   35  N5  UNL     1      88.234 100.664 -44.300  1.00  0.00    -0.063 NA
HETATM   36  N6  UNL     1      90.530 100.654 -43.544  1.00  0.00    -0.355 N 
HETATM   37  C20 UNL     1      91.429 100.344 -42.456  1.00  0.00     0.127 C 
HETATM   38  C22 UNL     1      91.154 101.953 -43.639  1.00  0.00     0.127 C 
HETATM   39  C21 UNL     1      91.425 101.847 -42.139  1.00  0.00     0.040 C 
ATOM     40  H4  UNL     1      88.759  98.422 -45.195  1.00  0.00     0.170 HD
ENDBRANCH  30  33
ENDBRANCH  26  30
ENDBRANCH   4  26
TORSDOF 10
ENDMDL
MODEL 5
REMARK VINA RESULT: -7.650512695      2.007      3.808
REMARK  10 active torsions:
REMARK  status: ('A' for Active; 'I' for Inactive)
REMARK    1  A    between atoms: C5_5  and  C6_6 
REMARK    2  A    between atoms: C6_6  and  C7_7 
REMARK    3  A    between atoms: C9_14  and  C10_15 
REMARK    4  A    between atoms: C10_15  and  C11_16 
REMARK    5  A    between atoms: C11_16  and  C12_17 
REMARK    6  A    between atoms: C12_17  and  C13_18 
REMARK    7  A    between atoms: C16_21  and  C17_22 
REMARK    8  A    between atoms: C17_22  and  C18_26 
REMARK    9  A    between atoms: C18_26  and  O2_27 
REMARK   10  A    between atoms: C18_26  and  N4_29 
REMARK       I    between atoms: C19_31  and  N6_33 
ROOT
HETATM    1  C13 UNL     1      91.512  92.856 -45.820  1.00  0.00    -0.058 A 
HETATM    2  C14 UNL     1      90.977  93.952 -46.461  1.00  0.00     0.008 A 
HETATM    3  C15 UNL     1      90.813  95.182 -45.838  1.00  0.00     0.014 A 
HETATM    4  C16 UNL     1      91.195  95.352 -44.512  1.00  0.00    -0.005 A 
HETATM    5  C23 UNL     1      91.731  94.263 -43.865  1.00  0.00     0.014 A 
HETATM    6  C24 UNL     1      91.882  93.035 -44.526  1.00  0.00     0.008 A 
ENDROOT
BRANCH   1   7
HETATM    7  C12 UNL     1      91.705  91.580 -46.525  1.00  0.00     0.039 C 
BRANCH   7   8
HETATM    8  C11 UNL     1      91.319  91.684 -47.946  1.00  0.00     0.011 C 
BRANCH   8   9
HETATM    9  C10 UNL     1      91.322  90.493 -48.810  1.00  0.00     0.060 C 
BRANCH   9  10
HETATM   10  C9  UNL     1      90.058  89.780 -49.000  1.00  0.00     0.040 A 
HETATM   11  C7  UNL     1      89.053  90.055 -49.931  1.00  0.00     0.061 A 
HETATM   12  N1  UNL     1      88.025  89.169 -49.760  1.00  0.00    -0.307 N 
HETATM   13  C8  UNL     1      88.369  88.370 -48.762  1.00  0.00     0.325 A 
ATOM     14  H1  UNL     1      87.160  89.132 -50.298  1.00  0.00     0.170 HD
HETATM   15  O1  UNL     1      87.639  87.432 -48.342  1.00  0.00    -0.247 OA
HETATM   16  N2  UNL     1      89.579  88.738 -48.315  1.00  0.00    -0.310 N 
ATOM     17  H2  UNL     1      90.071  88.281 -47.547  1.00  0.00     0.170 HD
BRANCH  11  18
HETATM   18  C6  UNL     1      89.060  91.109 -50.929  1.00  0.00     0.061 C 
BRANCH  18  19
HETATM   19  C5  UNL     1      88.491  92.285 -50.668  1.00  0.00     0.034 A 
HETATM   20  C4  UNL     1      89.168  93.450 -50.347  1.00  0.00     0.032 A 
HETATM   21  C3  UNL     1      88.261  94.478 -50.134  1.00  0.00     0.031 A 
HETATM   22  C2  UNL     1      87.015  93.918 -50.330  1.00  0.00     0.023 A 
HETATM   23  C1  UNL     1      85.862  94.557 -50.224  1.00  0.00     0.043 C 
HETATM   24  N7  UNL     1      87.194  92.601 -50.649  1.00  0.00    -0.357 N 
ATOM     25  H7  UNL     1      86.437  91.947 -50.847  1.00  0.00     0.166 HD
ENDBRANCH  18  19
ENDBRANCH  11  18
ENDBRANCH   9  10
ENDBRANCH   8   9
ENDBRANCH   7   8
ENDBRANCH   1   7
BRANCH   4  26
HETATM   26  C17 UNL     1      90.985  96.666 -43.873  1.00  0.00     0.100 C 
HETATM   27  N3  UNL     1      91.169  96.827 -42.672  1.00  0.00    -0.318 N 
HETATM   28 BR1  UNL     1      91.590  96.358 -41.046  1.00  0.00     0.047 Br
ATOM     29  H3  UNL     1      90.944  97.815 -42.555  1.00  0.00     0.174 HD
BRANCH  26  30
HETATM   30  C18 UNL     1      90.534  97.851 -44.616  1.00  0.00     0.171 C 
BRANCH  30  31
HETATM   31  O2  UNL     1      89.259  97.882 -44.876  1.00  0.00    -0.344 OA
ATOM     32  H2  UNL     1      89.041  98.014 -45.791  1.00  0.00     0.219 HD
ENDBRANCH  30  31
BRANCH  30  33
HETATM   33  N4  UNL     1      91.236  98.937 -45.087  1.00  0.00    -0.309 N 
HETATM   34  C19 UNL     1      91.447 100.041 -44.453  1.00  0.00     0.192 C 
HETATM   35  N5  UNL     1      92.206 101.077 -45.097  1.00  0.00    -0.063 NA
HETATM   36  N6  UNL     1      90.986 100.331 -43.148  1.00  0.00    -0.355 N 
HETATM   37  C20 UNL     1      89.706 100.299 -42.479  1.00  0.00     0.127 C 
HETATM   38  C22 UNL     1      91.578 100.786 -41.911  1.00  0.00     0.127 C 
HETATM   39  C21 UNL     1      90.234 101.441 -41.599  1.00  0.00     0.040 C 
ATOM     40  H4  UNL     1      91.626  98.863 -46.026  1.00  0.00     0.170 HD
ENDBRANCH  30  33
ENDBRANCH  26  30
ENDBRANCH   4  26
TORSDOF 10
ENDMDL
