MODEL 1
REMARK VINA RESULT: -5.605610813      0.000      0.000
REMARK  7 active torsions:
REMARK  status: ('A' for Active; 'I' for Inactive)
REMARK    1  A    between atoms: O1_2  and  C2_3 
REMARK    2  A    between atoms: C2_3  and  C3_4 
REMARK    3  A    between atoms: C6_10  and  C7_11 
REMARK    4  A    between atoms: N4_22  and  C14_23 
REMARK    5  A    between atoms: C15_24  and  C16_25 
REMARK       I    between atoms: N6_30  and  C19_32 
REMARK    6  A    between atoms: C19_32  and  C20_34 
REMARK    7  A    between atoms: C20_34  and  N7_35 
ROOT
HETATM    1  C7  UNL     1      90.976  99.344 -42.557  1.00  0.00     0.086 C 
HETATM    2  C8  UNL     1      91.483  99.826 -43.901  1.00  0.00     0.066 C 
HETATM    3  C9  UNL     1      91.117 101.278 -44.133  1.00  0.00     0.250 C 
HETATM    4  N2  UNL     1      90.885 101.904 -42.862  1.00  0.00    -0.011 N 
HETATM    5  C10 UNL     1      90.847 103.322 -42.873  1.00  0.00     0.283 C 
HETATM    6  C11 UNL     1      92.020 101.503 -42.022  1.00  0.00     0.250 C 
HETATM    7  C12 UNL     1      91.761 100.085 -41.497  1.00  0.00     0.066 C 
HETATM    8  C13 UNL     1      89.659 101.311 -42.284  1.00  0.00     0.280 C 
HETATM    9  N3  UNL     1      88.899 102.118 -41.726  1.00  0.00    -0.365 N 
ATOM     10  H31 UNL     1      88.054 101.710 -41.329  1.00  0.00     0.159 HD
ATOM     11  H32 UNL     1      88.944 103.128 -41.587  1.00  0.00     0.159 HD
HETATM   12  N4  UNL     1      89.597  99.914 -42.477  1.00  0.00    -0.307 N 
ENDROOT
BRANCH  12  13
HETATM   13  C14 UNL     1      88.445  99.130 -42.580  1.00  0.00     0.098 C 
HETATM   14  C15 UNL     1      87.335  99.318 -43.479  1.00  0.00     0.049 C 
BRANCH  14  15
HETATM   15  C16 UNL     1      87.313  99.043 -44.900  1.00  0.00     0.066 A 
HETATM   16  C17 UNL     1      86.167  98.469 -45.492  1.00  0.00     0.136 A 
HETATM   17  N5  UNL     1      86.432  98.201 -46.772  1.00  0.00    -0.199 N 
HETATM   18  C18 UNL     1      87.693  98.574 -47.029  1.00  0.00     0.685 A 
ATOM     19  H5  UNL     1      85.785  97.784 -47.441  1.00  0.00     0.183 HD
HETATM   20  N6  UNL     1      88.253  98.363 -48.201  1.00  0.00    -0.158 N 
HETATM   21  N8  UNL     1      88.210  99.081 -45.899  1.00  0.00    -0.190 N 
HETATM   22  C19 UNL     1      87.465  97.703 -49.230  1.00  0.00     0.262 C 
ATOM     23  H6  UNL     1      89.213  98.656 -48.382  1.00  0.00     0.187 HD
HETATM   24  O2  UNL     1      86.760  98.463 -49.932  1.00  0.00    -0.271 OA
ATOM     25  H8  UNL     1      89.159  99.446 -45.811  1.00  0.00     0.184 HD
BRANCH  22  26
HETATM   26  C20 UNL     1      87.567  96.253 -49.333  1.00  0.00     0.339 C 
BRANCH  26  27
HETATM   27  N7  UNL     1      88.218  95.739 -50.492  1.00  0.00    -0.070 N 
HETATM   28  C21 UNL     1      87.239  95.492 -51.569  1.00  0.00     0.272 C 
HETATM   29  C22 UNL     1      88.736  94.403 -50.157  1.00  0.00     0.272 C 
HETATM   30  C23 UNL     1      89.273  96.526 -51.046  1.00  0.00     0.272 C 
ENDBRANCH  26  27
ENDBRANCH  22  26
ENDBRANCH  14  15
ENDBRANCH  12  13
BRANCH   1  31
HETATM   31  C6  UNL     1      91.107  97.901 -42.459  1.00  0.00     0.048 A 
HETATM   32  C3  UNL     1      91.166  96.876 -43.351  1.00  0.00     0.009 A 
HETATM   33  C4  UNL     1      91.371  95.703 -42.691  1.00  0.00     0.036 A 
HETATM   34 BR1  UNL     1      91.532  93.943 -43.453  1.00  0.00    -0.049 Br
HETATM   35  C5  UNL     1      91.440  95.974 -41.365  1.00  0.00     0.108 A 
HETATM   36  N1  UNL     1      91.279  97.293 -41.233  1.00  0.00    -0.365 N 
ATOM     37  H1  UNL     1      91.283  97.787 -40.341  1.00  0.00     0.165 HD
BRANCH  32  38
HETATM   38  C2  UNL     1      91.118  96.930 -44.833  1.00  0.00     0.209 C 
BRANCH  38  39
HETATM   39  O1  UNL     1      89.900  96.531 -45.311  1.00  0.00    -0.391 OA
HETATM   40  C1  UNL     1      89.913  95.714 -46.395  1.00  0.00     0.201 C 
ENDBRANCH  38  39
ENDBRANCH  32  38
ENDBRANCH   1  31
TORSDOF 7
ENDMDL
MODEL 2
REMARK VINA RESULT: -5.499991359      3.206      8.190
REMARK  7 active torsions:
REMARK  status: ('A' for Active; 'I' for Inactive)
REMARK    1  A    between atoms: O1_2  and  C2_3 
REMARK    2  A    between atoms: C2_3  and  C3_4 
REMARK    3  A    between atoms: C6_10  and  C7_11 
REMARK    4  A    between atoms: N4_22  and  C14_23 
REMARK    5  A    between atoms: C15_24  and  C16_25 
REMARK       I    between atoms: N6_30  and  C19_32 
REMARK    6  A    between atoms: C19_32  and  C20_34 
REMARK    7  A    between atoms: C20_34  and  N7_35 
ROOT
HETATM    1  C7  UNL     1      88.456  99.288 -43.980  1.00  0.00     0.086 C 
HETATM    2  C8  UNL     1      88.371  99.742 -42.537  1.00  0.00     0.066 C 
HETATM    3  C9  UNL     1      87.623 101.055 -42.422  1.00  0.00     0.250 C 
HETATM    4  N2  UNL     1      86.785 101.211 -43.578  1.00  0.00    -0.011 N 
HETATM    5  C10 UNL     1      85.788 102.216 -43.483  1.00  0.00     0.283 C 
HETATM    6  C11 UNL     1      86.096  99.923 -43.731  1.00  0.00     0.250 C 
HETATM    7  C12 UNL     1      87.051  98.939 -44.418  1.00  0.00     0.066 C 
HETATM    8  C13 UNL     1      87.666 101.400 -44.751  1.00  0.00     0.280 C 
HETATM    9  N3  UNL     1      87.283 102.258 -45.561  1.00  0.00    -0.365 N 
ATOM     10  H31 UNL     1      87.890 102.388 -46.370  1.00  0.00     0.159 HD
ATOM     11  H32 UNL     1      86.473 102.878 -45.582  1.00  0.00     0.159 HD
HETATM   12  N4  UNL     1      88.787 100.541 -44.724  1.00  0.00    -0.307 N 
ENDROOT
BRANCH  12  13
HETATM   13  C14 UNL     1      90.041 100.778 -45.293  1.00  0.00     0.098 C 
HETATM   14  C15 UNL     1      90.926 101.883 -45.033  1.00  0.00     0.049 C 
BRANCH  14  15
HETATM   15  C16 UNL     1      91.735 102.087 -43.849  1.00  0.00     0.066 A 
HETATM   16  C17 UNL     1      91.898 101.042 -42.915  1.00  0.00     0.136 A 
HETATM   17  N5  UNL     1      92.576 101.505 -41.863  1.00  0.00    -0.199 N 
HETATM   18  C18 UNL     1      92.853 102.799 -42.078  1.00  0.00     0.685 A 
ATOM     19  H5  UNL     1      92.838 100.968 -41.038  1.00  0.00     0.183 HD
HETATM   20  N6  UNL     1      93.456 103.537 -41.172  1.00  0.00    -0.158 N 
HETATM   21  N8  UNL     1      92.347 103.136 -43.274  1.00  0.00    -0.190 N 
HETATM   22  C19 UNL     1      93.820 102.914 -39.908  1.00  0.00     0.262 C 
ATOM     23  H6  UNL     1      93.663 104.520 -41.351  1.00  0.00     0.187 HD
HETATM   24  O2  UNL     1      94.937 102.349 -39.894  1.00  0.00    -0.271 OA
ATOM     25  H8  UNL     1      92.417 104.064 -43.691  1.00  0.00     0.184 HD
BRANCH  22  26
HETATM   26  C20 UNL     1      92.865 103.003 -38.812  1.00  0.00     0.339 C 
BRANCH  26  27
HETATM   27  N7  UNL     1      93.153 103.952 -37.787  1.00  0.00    -0.070 N 
HETATM   28  C21 UNL     1      93.855 103.302 -36.663  1.00  0.00     0.272 C 
HETATM   29  C22 UNL     1      91.872 104.391 -37.213  1.00  0.00     0.272 C 
HETATM   30  C23 UNL     1      93.917 105.098 -38.162  1.00  0.00     0.272 C 
ENDBRANCH  26  27
ENDBRANCH  22  26
ENDBRANCH  14  15
ENDBRANCH  12  13
BRANCH   1  31
HETATM   31  C6  UNL     1      89.385  98.178 -44.102  1.00  0.00     0.048 A 
HETATM   32  C3  UNL     1      89.645  97.239 -45.051  1.00  0.00     0.009 A 
HETATM   33  C4  UNL     1      90.699  96.471 -44.661  1.00  0.00     0.036 A 
HETATM   34 BR1  UNL     1      91.490  94.997 -45.613  1.00  0.00    -0.049 Br
HETATM   35  C5  UNL     1      91.118  96.916 -43.451  1.00  0.00     0.108 A 
HETATM   36  N1  UNL     1      90.325  97.937 -43.122  1.00  0.00    -0.365 N 
ATOM     37  H1  UNL     1      90.403  98.471 -42.257  1.00  0.00     0.165 HD
BRANCH  32  38
HETATM   38  C2  UNL     1      89.003  97.053 -46.375  1.00  0.00     0.209 C 
BRANCH  38  39
HETATM   39  O1  UNL     1      89.413  98.004 -47.269  1.00  0.00    -0.391 OA
HETATM   40  C1  UNL     1      88.435  98.672 -47.933  1.00  0.00     0.201 C 
ENDBRANCH  38  39
ENDBRANCH  32  38
ENDBRANCH   1  31
TORSDOF 7
ENDMDL
MODEL 3
REMARK VINA RESULT: -5.454087146      2.992      7.956
REMARK  7 active torsions:
REMARK  status: ('A' for Active; 'I' for Inactive)
REMARK    1  A    between atoms: O1_2  and  C2_3 
REMARK    2  A    between atoms: C2_3  and  C3_4 
REMARK    3  A    between atoms: C6_10  and  C7_11 
REMARK    4  A    between atoms: N4_22  and  C14_23 
REMARK    5  A    between atoms: C15_24  and  C16_25 
REMARK       I    between atoms: N6_30  and  C19_32 
REMARK    6  A    between atoms: C19_32  and  C20_34 
REMARK    7  A    between atoms: C20_34  and  N7_35 
ROOT
HETATM    1  C7  UNL     1      88.352  99.402 -43.958  1.00  0.00     0.086 C 
HETATM    2  C8  UNL     1      88.267  99.929 -42.540  1.00  0.00     0.066 C 
HETATM    3  C9  UNL     1      87.456 101.207 -42.481  1.00  0.00     0.250 C 
HETATM    4  N2  UNL     1      86.591 101.258 -43.627  1.00  0.00    -0.011 N 
HETATM    5  C10 UNL     1      85.546 102.216 -43.566  1.00  0.00     0.283 C 
HETATM    6  C11 UNL     1      85.967  99.931 -43.698  1.00  0.00     0.250 C 
HETATM    7  C12 UNL     1      86.959  98.960 -44.350  1.00  0.00     0.066 C 
HETATM    8  C13 UNL     1      87.442 101.426 -44.826  1.00  0.00     0.280 C 
HETATM    9  N3  UNL     1      87.002 102.219 -45.673  1.00  0.00    -0.365 N 
ATOM     10  H31 UNL     1      87.589 102.335 -46.499  1.00  0.00     0.159 HD
ATOM     11  H32 UNL     1      86.161 102.796 -45.711  1.00  0.00     0.159 HD
HETATM   12  N4  UNL     1      88.606 100.628 -44.774  1.00  0.00    -0.307 N 
ENDROOT
BRANCH  12  13
HETATM   13  C14 UNL     1      89.836 100.896 -45.380  1.00  0.00     0.098 C 
HETATM   14  C15 UNL     1      90.763 101.948 -45.052  1.00  0.00     0.049 C 
BRANCH  14  15
HETATM   15  C16 UNL     1      91.634 102.009 -43.897  1.00  0.00     0.066 A 
HETATM   16  C17 UNL     1      91.085 102.161 -42.605  1.00  0.00     0.136 A 
HETATM   17  N5  UNL     1      92.081 102.313 -41.729  1.00  0.00    -0.199 N 
HETATM   18  C18 UNL     1      93.241 102.268 -42.398  1.00  0.00     0.685 A 
ATOM     19  H5  UNL     1      91.977 102.440 -40.723  1.00  0.00     0.183 HD
HETATM   20  N6  UNL     1      94.395 102.461 -41.797  1.00  0.00    -0.158 N 
HETATM   21  N8  UNL     1      92.960 102.082 -43.697  1.00  0.00    -0.190 N 
HETATM   22  C19 UNL     1      94.389 102.733 -40.368  1.00  0.00     0.262 C 
ATOM     23  H6  UNL     1      95.270 102.422 -42.320  1.00  0.00     0.187 HD
HETATM   24  O2  UNL     1      94.408 101.720 -39.632  1.00  0.00    -0.271 OA
ATOM     25  H8  UNL     1      93.660 102.007 -44.435  1.00  0.00     0.184 HD
BRANCH  22  26
HETATM   26  C20 UNL     1      94.354 104.127 -39.946  1.00  0.00     0.339 C 
BRANCH  26  27
HETATM   27  N7  UNL     1      93.225 104.533 -39.175  1.00  0.00    -0.070 N 
HETATM   28  C21 UNL     1      92.277 105.298 -40.009  1.00  0.00     0.272 C 
HETATM   29  C22 UNL     1      93.695 105.503 -38.174  1.00  0.00     0.272 C 
HETATM   30  C23 UNL     1      92.483 103.504 -38.520  1.00  0.00     0.272 C 
ENDBRANCH  26  27
ENDBRANCH  22  26
ENDBRANCH  14  15
ENDBRANCH  12  13
BRANCH   1  31
HETATM   31  C6  UNL     1      89.334  98.335 -44.039  1.00  0.00     0.048 A 
HETATM   32  C3  UNL     1      89.634  97.368 -44.947  1.00  0.00     0.009 A 
HETATM   33  C4  UNL     1      90.728  96.671 -44.532  1.00  0.00     0.036 A 
HETATM   34 BR1  UNL     1      91.585  95.197 -45.424  1.00  0.00    -0.049 Br
HETATM   35  C5  UNL     1      91.132  97.190 -43.347  1.00  0.00     0.108 A 
HETATM   36  N1  UNL     1      90.291  98.185 -43.057  1.00  0.00    -0.365 N 
ATOM     37  H1  UNL     1      90.349  98.761 -42.217  1.00  0.00     0.165 HD
BRANCH  32  38
HETATM   38  C2  UNL     1      88.993  97.091 -46.256  1.00  0.00     0.209 C 
BRANCH  38  39
HETATM   39  O1  UNL     1      89.413  97.970 -47.216  1.00  0.00    -0.391 OA
HETATM   40  C1  UNL     1      88.442  98.608 -47.918  1.00  0.00     0.201 C 
ENDBRANCH  38  39
ENDBRANCH  32  38
ENDBRANCH   1  31
TORSDOF 7
ENDMDL
MODEL 4
REMARK VINA RESULT: -5.444343509      3.351      8.415
REMARK  7 active torsions:
REMARK  status: ('A' for Active; 'I' for Inactive)
REMARK    1  A    between atoms: O1_2  and  C2_3 
REMARK    2  A    between atoms: C2_3  and  C3_4 
REMARK    3  A    between atoms: C6_10  and  C7_11 
REMARK    4  A    between atoms: N4_22  and  C14_23 
REMARK    5  A    between atoms: C15_24  and  C16_25 
REMARK       I    between atoms: N6_30  and  C19_32 
REMARK    6  A    between atoms: C19_32  and  C20_34 
REMARK    7  A    between atoms: C20_34  and  N7_35 
ROOT
HETATM    1  C7  UNL     1      90.098  97.855 -44.388  1.00  0.00     0.086 C 
HETATM    2  C8  UNL     1      88.988  98.677 -43.766  1.00  0.00     0.066 C 
HETATM    3  C9  UNL     1      88.481  99.728 -44.733  1.00  0.00     0.250 C 
HETATM    4  N2  UNL     1      88.800  99.316 -46.071  1.00  0.00    -0.011 N 
HETATM    5  C10 UNL     1      88.125 100.015 -47.106  1.00  0.00     0.283 C 
HETATM    6  C11 UNL     1      88.387  97.910 -46.150  1.00  0.00     0.250 C 
HETATM    7  C12 UNL     1      89.477  97.045 -45.505  1.00  0.00     0.066 C 
HETATM    8  C13 UNL     1      90.271  99.369 -46.221  1.00  0.00     0.280 C 
HETATM    9  N3  UNL     1      90.671  99.822 -47.304  1.00  0.00    -0.365 N 
ATOM     10  H31 UNL     1      91.685  99.858 -47.407  1.00  0.00     0.159 HD
ATOM     11  H32 UNL     1      90.185 100.180 -48.127  1.00  0.00     0.159 HD
HETATM   12  N4  UNL     1      90.944  98.874 -45.082  1.00  0.00    -0.307 N 
ENDROOT
BRANCH  12  13
HETATM   13  C14 UNL     1      92.212  99.244 -44.628  1.00  0.00     0.098 C 
HETATM   14  C15 UNL     1      92.642 100.550 -44.200  1.00  0.00     0.049 C 
BRANCH  14  15
HETATM   15  C16 UNL     1      92.310 101.208 -42.954  1.00  0.00     0.066 A 
HETATM   16  C17 UNL     1      91.729 102.495 -42.966  1.00  0.00     0.136 A 
HETATM   17  N5  UNL     1      91.630 102.935 -41.710  1.00  0.00    -0.199 N 
HETATM   18  C18 UNL     1      92.122 101.993 -40.894  1.00  0.00     0.685 A 
ATOM     19  H5  UNL     1      91.246 103.834 -41.421  1.00  0.00     0.183 HD
HETATM   20  N6  UNL     1      92.218 102.183 -39.596  1.00  0.00    -0.158 N 
HETATM   21  N8  UNL     1      92.524 100.961 -41.651  1.00  0.00    -0.190 N 
HETATM   22  C19 UNL     1      91.776 103.458 -39.053  1.00  0.00     0.262 C 
ATOM     23  H6  UNL     1      92.592 101.456 -38.987  1.00  0.00     0.187 HD
HETATM   24  O2  UNL     1      90.559 103.523 -38.766  1.00  0.00    -0.271 OA
ATOM     25  H8  UNL     1      92.936 100.102 -41.286  1.00  0.00     0.184 HD
BRANCH  22  26
HETATM   26  C20 UNL     1      92.772 104.512 -38.909  1.00  0.00     0.339 C 
BRANCH  26  27
HETATM   27  N7  UNL     1      93.299 104.719 -37.601  1.00  0.00    -0.070 N 
HETATM   28  C21 UNL     1      92.515 105.742 -36.882  1.00  0.00     0.272 C 
HETATM   29  C22 UNL     1      94.634 105.320 -37.749  1.00  0.00     0.272 C 
HETATM   30  C23 UNL     1      93.391 103.575 -36.751  1.00  0.00     0.272 C 
ENDBRANCH  26  27
ENDBRANCH  22  26
ENDBRANCH  14  15
ENDBRANCH  12  13
BRANCH   1  31
HETATM   31  C6  UNL     1      90.741  97.034 -43.377  1.00  0.00     0.048 A 
HETATM   32  C3  UNL     1      91.446  95.871 -43.385  1.00  0.00     0.009 A 
HETATM   33  C4  UNL     1      91.888  95.593 -42.128  1.00  0.00     0.036 A 
HETATM   34 BR1  UNL     1      92.930  94.077 -41.561  1.00  0.00    -0.049 Br
HETATM   35  C5  UNL     1      91.462  96.582 -41.304  1.00  0.00     0.108 A 
HETATM   36  N1  UNL     1      90.774  97.440 -42.059  1.00  0.00    -0.365 N 
ATOM     37  H1  UNL     1      90.329  98.288 -41.707  1.00  0.00     0.165 HD
BRANCH  32  38
HETATM   38  C2  UNL     1      91.812  95.014 -44.539  1.00  0.00     0.209 C 
BRANCH  38  39
HETATM   39  O1  UNL     1      91.141  93.822 -44.511  1.00  0.00    -0.391 OA
HETATM   40  C1  UNL     1      91.520  92.893 -45.424  1.00  0.00     0.201 C 
ENDBRANCH  38  39
ENDBRANCH  32  38
ENDBRANCH   1  31
TORSDOF 7
ENDMDL
MODEL 5
REMARK VINA RESULT: -5.441378751      1.172      1.578
REMARK  7 active torsions:
REMARK  status: ('A' for Active; 'I' for Inactive)
REMARK    1  A    between atoms: O1_2  and  C2_3 
REMARK    2  A    between atoms: C2_3  and  C3_4 
REMARK    3  A    between atoms: C6_10  and  C7_11 
REMARK    4  A    between atoms: N4_22  and  C14_23 
REMARK    5  A    between atoms: C15_24  and  C16_25 
REMARK       I    between atoms: N6_30  and  C19_32 
REMARK    6  A    between atoms: C19_32  and  C20_34 
REMARK    7  A    between atoms: C20_34  and  N7_35 
ROOT
HETATM    1  C7  UNL     1      91.073  99.344 -42.442  1.00  0.00     0.086 C 
HETATM    2  C8  UNL     1      91.662  99.826 -43.752  1.00  0.00     0.066 C 
HETATM    3  C9  UNL     1      91.293 101.272 -44.016  1.00  0.00     0.250 C 
HETATM    4  N2  UNL     1      90.970 101.901 -42.766  1.00  0.00    -0.011 N 
HETATM    5  C10 UNL     1      90.914 103.319 -42.787  1.00  0.00     0.283 C 
HETATM    6  C11 UNL     1      92.051 101.518 -41.850  1.00  0.00     0.250 C 
HETATM    7  C12 UNL     1      91.775 100.100 -41.336  1.00  0.00     0.066 C 
HETATM    8  C13 UNL     1      89.715 101.295 -42.268  1.00  0.00     0.280 C 
HETATM    9  N3  UNL     1      88.909 102.094 -41.766  1.00  0.00    -0.365 N 
ATOM     10  H31 UNL     1      88.045 101.676 -41.424  1.00  0.00     0.159 HD
ATOM     11  H32 UNL     1      88.932 103.105 -41.630  1.00  0.00     0.159 HD
HETATM   12  N4  UNL     1      89.684  99.895 -42.457  1.00  0.00    -0.307 N 
ENDROOT
BRANCH  12  13
HETATM   13  C14 UNL     1      88.551  99.096 -42.633  1.00  0.00     0.098 C 
HETATM   14  C15 UNL     1      87.617  99.131 -43.728  1.00  0.00     0.049 C 
BRANCH  14  15
HETATM   15  C16 UNL     1      87.833  98.634 -45.070  1.00  0.00     0.066 A 
HETATM   16  C17 UNL     1      88.624  99.371 -45.979  1.00  0.00     0.136 A 
HETATM   17  N5  UNL     1      88.574  98.777 -47.173  1.00  0.00    -0.199 N 
HETATM   18  C18 UNL     1      87.790  97.696 -47.074  1.00  0.00     0.685 A 
ATOM     19  H5  UNL     1      89.053  99.092 -48.017  1.00  0.00     0.183 HD
HETATM   20  N6  UNL     1      87.501  96.952 -48.119  1.00  0.00    -0.158 N 
HETATM   21  N8  UNL     1      87.354  97.618 -45.807  1.00  0.00    -0.190 N 
HETATM   22  C19 UNL     1      88.056  97.332 -49.409  1.00  0.00     0.262 C 
ATOM     23  H6  UNL     1      86.904  96.130 -48.028  1.00  0.00     0.187 HD
HETATM   24  O2  UNL     1      89.195  96.875 -49.655  1.00  0.00    -0.271 OA
ATOM     25  H8  UNL     1      86.739  96.886 -45.451  1.00  0.00     0.184 HD
BRANCH  22  26
HETATM   26  C20 UNL     1      87.251  98.195 -50.263  1.00  0.00     0.339 C 
BRANCH  26  27
HETATM   27  N7  UNL     1      86.681  97.595 -51.424  1.00  0.00    -0.070 N 
HETATM   28  C21 UNL     1      87.595  97.726 -52.576  1.00  0.00     0.272 C 
HETATM   29  C22 UNL     1      85.501  98.387 -51.802  1.00  0.00     0.272 C 
HETATM   30  C23 UNL     1      86.312  96.219 -51.327  1.00  0.00     0.272 C 
ENDBRANCH  26  27
ENDBRANCH  22  26
ENDBRANCH  14  15
ENDBRANCH  12  13
BRANCH   1  31
HETATM   31  C6  UNL     1      91.215  97.903 -42.328  1.00  0.00     0.048 A 
HETATM   32  C3  UNL     1      91.244  96.865 -43.207  1.00  0.00     0.009 A 
HETATM   33  C4  UNL     1      91.482  95.703 -42.538  1.00  0.00     0.036 A 
HETATM   34 BR1  UNL     1      91.623  93.933 -43.279  1.00  0.00    -0.049 Br
HETATM   35  C5  UNL     1      91.602  95.994 -41.220  1.00  0.00     0.108 A 
HETATM   36  N1  UNL     1      91.438  97.314 -41.101  1.00  0.00    -0.365 N 
ATOM     37  H1  UNL     1      91.474  97.821 -40.218  1.00  0.00     0.165 HD
BRANCH  32  38
HETATM   38  C2  UNL     1      91.139  96.896 -44.686  1.00  0.00     0.209 C 
BRANCH  38  39
HETATM   39  O1  UNL     1      90.094  96.133 -45.131  1.00  0.00    -0.391 OA
HETATM   40  C1  UNL     1      90.334  95.354 -46.216  1.00  0.00     0.201 C 
ENDBRANCH  38  39
ENDBRANCH  32  38
ENDBRANCH   1  31
TORSDOF 7
ENDMDL
