MODEL 1
REMARK VINA RESULT: -6.260159659      0.000      0.000
REMARK  3 active torsions:
REMARK  status: ('A' for Active; 'I' for Inactive)
REMARK    1  A    between atoms: C2_2  and  C4_4 
REMARK    2  A    between atoms: C4_4  and  N1_5 
REMARK    3  A    between atoms: C7_11  and  C8_12 
ROOT
HETATM    1  N1  UNL     1      16.957 -23.443  12.789  1.00  0.00    -0.349 N 
HETATM    2  C5  UNL     1      17.578 -23.202  14.065  1.00  0.00     0.186 C 
HETATM    3  N2  UNL     1      18.091 -24.108  15.013  1.00  0.00    -0.064 NA
HETATM    4  N3  UNL     1      17.614 -21.913  14.267  1.00  0.00    -0.363 N 
ATOM      5  H3  UNL     1      18.003 -21.459  15.095  1.00  0.00     0.162 HD
HETATM    6  C6  UNL     1      17.020 -21.222  13.139  1.00  0.00     0.148 C 
HETATM    7  C7  UNL     1      17.207 -22.255  12.054  1.00  0.00     0.108 C 
ENDROOT
BRANCH   1   8
HETATM    8  C4  UNL     1      16.268 -24.657  12.471  1.00  0.00     0.130 C 
BRANCH   8   9
HETATM    9  C2  UNL     1      17.140 -25.685  11.811  1.00  0.00    -0.005 C 
HETATM   10  C1  UNL     1      16.337 -26.361  10.717  1.00  0.00     0.011 C 
HETATM   11  C3  UNL     1      17.645 -26.743  12.733  1.00  0.00     0.011 C 
ENDBRANCH   8   9
ENDBRANCH   1   8
BRANCH   7  12
HETATM   12  C8  UNL     1      16.506 -22.026  10.797  1.00  0.00     0.010 C 
HETATM   13  C9  UNL     1      15.259 -22.750  10.450  1.00  0.00     0.007 C 
HETATM   14  C10 UNL     1      14.753 -21.431   9.849  1.00  0.00     0.001 C 
HETATM   15  C11 UNL     1      15.651 -20.754  10.898  1.00  0.00     0.007 C 
ENDBRANCH   7  12
TORSDOF 3
ENDMDL
MODEL 2
REMARK VINA RESULT: -6.062467679      1.521      2.352
REMARK  3 active torsions:
REMARK  status: ('A' for Active; 'I' for Inactive)
REMARK    1  A    between atoms: C2_2  and  C4_4 
REMARK    2  A    between atoms: C4_4  and  N1_5 
REMARK    3  A    between atoms: C7_11  and  C8_12 
ROOT
HETATM    1  N1  UNL     1      18.405 -25.110  13.187  1.00  0.00    -0.349 N 
HETATM    2  C5  UNL     1      18.587 -25.457  14.572  1.00  0.00     0.186 C 
HETATM    3  N2  UNL     1      19.229 -26.566  15.155  1.00  0.00    -0.064 NA
HETATM    4  N3  UNL     1      18.031 -24.531  15.304  1.00  0.00    -0.363 N 
ATOM      5  H3  UNL     1      18.010 -24.522  16.324  1.00  0.00     0.162 HD
HETATM    6  C6  UNL     1      17.446 -23.514  14.450  1.00  0.00     0.148 C 
HETATM    7  C7  UNL     1      18.272 -23.697  13.200  1.00  0.00     0.108 C 
ENDROOT
BRANCH   1   8
HETATM    8  C4  UNL     1      18.377 -26.080  12.134  1.00  0.00     0.130 C 
BRANCH   8   9
HETATM    9  C2  UNL     1      17.047 -26.759  11.981  1.00  0.00    -0.005 C 
HETATM   10  C1  UNL     1      17.280 -28.255  11.907  1.00  0.00     0.011 C 
HETATM   11  C3  UNL     1      16.287 -26.350  10.764  1.00  0.00     0.011 C 
ENDBRANCH   8   9
ENDBRANCH   1   8
BRANCH   7  12
HETATM   12  C8  UNL     1      17.816 -23.006  12.000  1.00  0.00     0.010 C 
HETATM   13  C9  UNL     1      16.377 -22.894  11.659  1.00  0.00     0.007 C 
HETATM   14  C10 UNL     1      16.681 -21.464  11.189  1.00  0.00     0.001 C 
HETATM   15  C11 UNL     1      17.800 -21.490  12.244  1.00  0.00     0.007 C 
ENDBRANCH   7  12
TORSDOF 3
ENDMDL
MODEL 3
REMARK VINA RESULT: -5.955953662      1.761      4.780
REMARK  3 active torsions:
REMARK  status: ('A' for Active; 'I' for Inactive)
REMARK    1  A    between atoms: C2_2  and  C4_4 
REMARK    2  A    between atoms: C4_4  and  N1_5 
REMARK    3  A    between atoms: C7_11  and  C8_12 
ROOT
HETATM    1  N1  UNL     1      17.364 -25.562  13.206  1.00  0.00    -0.349 N 
HETATM    2  C5  UNL     1      18.366 -25.074  14.117  1.00  0.00     0.186 C 
HETATM    3  N2  UNL     1      18.271 -24.121  15.148  1.00  0.00    -0.064 NA
HETATM    4  N3  UNL     1      19.492 -25.679  13.851  1.00  0.00    -0.363 N 
ATOM      5  H3  UNL     1      20.372 -25.525  14.344  1.00  0.00     0.162 HD
HETATM    6  C6  UNL     1      19.305 -26.602  12.747  1.00  0.00     0.148 C 
HETATM    7  C7  UNL     1      17.821 -26.858  12.852  1.00  0.00     0.108 C 
ENDROOT
BRANCH   1   8
HETATM    8  C4  UNL     1      16.215 -24.798  12.824  1.00  0.00     0.130 C 
BRANCH   8   9
HETATM    9  C2  UNL     1      16.352 -24.141  11.481  1.00  0.00    -0.005 C 
HETATM   10  C1  UNL     1      16.624 -22.666  11.697  1.00  0.00     0.011 C 
HETATM   11  C3  UNL     1      15.146 -24.266  10.612  1.00  0.00     0.011 C 
ENDBRANCH   8   9
ENDBRANCH   1   8
BRANCH   7  12
HETATM   12  C8  UNL     1      17.194 -27.564  11.741  1.00  0.00     0.010 C 
HETATM   13  C9  UNL     1      17.831 -27.646  10.404  1.00  0.00     0.007 C 
HETATM   14  C10 UNL     1      17.322 -29.094  10.339  1.00  0.00     0.001 C 
HETATM   15  C11 UNL     1      17.444 -29.074  11.872  1.00  0.00     0.007 C 
ENDBRANCH   7  12
TORSDOF 3
ENDMDL
MODEL 4
REMARK VINA RESULT: -5.950115623      1.446      1.990
REMARK  3 active torsions:
REMARK  status: ('A' for Active; 'I' for Inactive)
REMARK    1  A    between atoms: C2_2  and  C4_4 
REMARK    2  A    between atoms: C4_4  and  N1_5 
REMARK    3  A    between atoms: C7_11  and  C8_12 
ROOT
HETATM    1  N1  UNL     1      17.651 -25.260  13.208  1.00  0.00    -0.349 N 
HETATM    2  C5  UNL     1      18.107 -25.411  14.565  1.00  0.00     0.186 C 
HETATM    3  N2  UNL     1      18.562 -26.554  15.249  1.00  0.00    -0.064 NA
HETATM    4  N3  UNL     1      18.042 -24.247  15.152  1.00  0.00    -0.363 N 
ATOM      5  H3  UNL     1      18.306 -24.063  16.121  1.00  0.00     0.162 HD
HETATM    6  C6  UNL     1      17.539 -23.254  14.221  1.00  0.00     0.148 C 
HETATM    7  C7  UNL     1      17.911 -23.898  12.907  1.00  0.00     0.108 C 
ENDROOT
BRANCH   1   8
HETATM    8  C4  UNL     1      17.076 -26.330  12.451  1.00  0.00     0.130 C 
BRANCH   8   9
HETATM    9  C2  UNL     1      18.024 -26.936  11.457  1.00  0.00    -0.005 C 
HETATM   10  C1  UNL     1      17.218 -27.454  10.282  1.00  0.00     0.011 C 
HETATM   11  C3  UNL     1      18.834 -28.068  11.994  1.00  0.00     0.011 C 
ENDBRANCH   8   9
ENDBRANCH   1   8
BRANCH   7  12
HETATM   12  C8  UNL     1      17.345 -23.306  11.700  1.00  0.00     0.010 C 
HETATM   13  C9  UNL     1      15.896 -23.383  11.394  1.00  0.00     0.007 C 
HETATM   14  C10 UNL     1      16.011 -21.942  10.875  1.00  0.00     0.001 C 
HETATM   15  C11 UNL     1      17.148 -21.796  11.900  1.00  0.00     0.007 C 
ENDBRANCH   7  12
TORSDOF 3
ENDMDL
MODEL 5
REMARK VINA RESULT: -5.899050889      2.383      4.536
REMARK  3 active torsions:
REMARK  status: ('A' for Active; 'I' for Inactive)
REMARK    1  A    between atoms: C2_2  and  C4_4 
REMARK    2  A    between atoms: C4_4  and  N1_5 
REMARK    3  A    between atoms: C7_11  and  C8_12 
ROOT
HETATM    1  N1  UNL     1      16.783 -25.572  12.277  1.00  0.00    -0.349 N 
HETATM    2  C5  UNL     1      16.255 -24.426  11.583  1.00  0.00     0.186 C 
HETATM    3  N2  UNL     1      15.175 -24.324  10.685  1.00  0.00    -0.064 NA
HETATM    4  N3  UNL     1      16.966 -23.383  11.913  1.00  0.00    -0.363 N 
ATOM      5  H3  UNL     1      16.812 -22.435  11.569  1.00  0.00     0.162 HD
HETATM    6  C6  UNL     1      18.008 -23.773  12.845  1.00  0.00     0.148 C 
HETATM    7  C7  UNL     1      17.397 -25.023  13.432  1.00  0.00     0.108 C 
ENDROOT
BRANCH   1   8
HETATM    8  C4  UNL     1      16.649 -26.912  11.790  1.00  0.00     0.130 C 
BRANCH   8   9
HETATM    9  C2  UNL     1      17.764 -27.330  10.876  1.00  0.00    -0.005 C 
HETATM   10  C1  UNL     1      17.158 -27.827   9.579  1.00  0.00     0.011 C 
HETATM   11  C3  UNL     1      18.632 -28.413  11.424  1.00  0.00     0.011 C 
ENDBRANCH   8   9
ENDBRANCH   1   8
BRANCH   7  12
HETATM   12  C8  UNL     1      18.266 -25.859  14.251  1.00  0.00     0.010 C 
HETATM   13  C9  UNL     1      19.736 -25.887  14.060  1.00  0.00     0.007 C 
HETATM   14  C10 UNL     1      19.854 -25.955  15.590  1.00  0.00     0.001 C 
HETATM   15  C11 UNL     1      18.528 -25.176  15.602  1.00  0.00     0.007 C 
ENDBRANCH   7  12
TORSDOF 3
ENDMDL
