MODEL 1
REMARK VINA RESULT: -6.026923338      0.000      0.000
REMARK  4 active torsions:
REMARK  status: ('A' for Active; 'I' for Inactive)
REMARK    1  A    between atoms: O1_2  and  C2_3 
REMARK    2  A    between atoms: C2_3  and  C3_4 
REMARK    3  A    between atoms: C5_8  and  N2_9 
REMARK    4  A    between atoms: N2_9  and  C6_11 
ROOT
HETATM    1  C3  UNL     1      17.491 -21.196  11.862  1.00  0.00     0.034 C 
HETATM    2  C4  UNL     1      17.837 -20.881  13.268  1.00  0.00     0.128 C 
HETATM    3  N1  UNL     1      17.368 -22.023  14.020  1.00  0.00    -0.380 N 
ATOM      4  H1  UNL     1      17.190 -22.001  15.025  1.00  0.00     0.160 HD
HETATM    5  C5  UNL     1      17.197 -23.068  13.295  1.00  0.00     0.073 C 
HETATM    6  C11 UNL     1      17.552 -22.731  11.889  1.00  0.00     0.084 C 
ENDROOT
BRANCH   5   7
HETATM    7  N2  UNL     1      16.745 -24.347  13.727  1.00  0.00    -0.375 N 
ATOM      8  H2  UNL     1      15.778 -24.443  14.036  1.00  0.00     0.161 HD
BRANCH   7   9
HETATM    9  C6  UNL     1      17.597 -25.517  13.747  1.00  0.00     0.082 C 
HETATM   10  C7  UNL     1      17.576 -26.245  12.453  1.00  0.00     0.025 C 
HETATM   11  C8  UNL     1      18.994 -26.788  12.232  1.00  0.00     0.002 C 
HETATM   12  C9  UNL     1      19.815 -25.644  12.748  1.00  0.00     0.002 C 
HETATM   13  C10 UNL     1      19.034 -25.222  13.973  1.00  0.00     0.025 C 
ENDBRANCH   7   9
ENDBRANCH   5   7
BRANCH   1  14
HETATM   14  C2  UNL     1      16.084 -20.806  11.481  1.00  0.00     0.173 C 
BRANCH  14  15
HETATM   15  O1  UNL     1      15.541 -21.765  10.643  1.00  0.00    -0.396 OA
HETATM   16  C1  UNL     1      14.761 -21.179   9.653  1.00  0.00     0.201 C 
ENDBRANCH  14  15
ENDBRANCH   1  14
TORSDOF 4
ENDMDL
MODEL 2
REMARK VINA RESULT: -5.869728146      1.045      1.332
REMARK  4 active torsions:
REMARK  status: ('A' for Active; 'I' for Inactive)
REMARK    1  A    between atoms: O1_2  and  C2_3 
REMARK    2  A    between atoms: C2_3  and  C3_4 
REMARK    3  A    between atoms: C5_8  and  N2_9 
REMARK    4  A    between atoms: N2_9  and  C6_11 
ROOT
HETATM    1  C3  UNL     1      17.637 -21.206  11.632  1.00  0.00     0.034 C 
HETATM    2  C4  UNL     1      17.409 -20.501  12.916  1.00  0.00     0.128 C 
HETATM    3  N1  UNL     1      17.228 -21.561  13.882  1.00  0.00    -0.380 N 
ATOM      4  H1  UNL     1      16.774 -21.427  14.786  1.00  0.00     0.160 HD
HETATM    5  C5  UNL     1      17.698 -22.689  13.487  1.00  0.00     0.073 C 
HETATM    6  C11 UNL     1      18.283 -22.508  12.130  1.00  0.00     0.084 C 
ENDROOT
BRANCH   5   7
HETATM    7  N2  UNL     1      17.679 -23.921  14.197  1.00  0.00    -0.375 N 
ATOM      8  H2  UNL     1      18.131 -23.965  15.111  1.00  0.00     0.161 HD
BRANCH   7   9
HETATM    9  C6  UNL     1      17.047 -25.118  13.682  1.00  0.00     0.082 C 
HETATM   10  C7  UNL     1      16.344 -24.868  12.398  1.00  0.00     0.025 C 
HETATM   11  C8  UNL     1      16.521 -26.133  11.549  1.00  0.00     0.002 C 
HETATM   12  C9  UNL     1      17.936 -26.500  11.884  1.00  0.00     0.002 C 
HETATM   13  C10 UNL     1      17.990 -26.220  13.370  1.00  0.00     0.025 C 
ENDBRANCH   7   9
ENDBRANCH   5   7
BRANCH   1  14
HETATM   14  C2  UNL     1      16.365 -21.580  10.910  1.00  0.00     0.173 C 
BRANCH  14  15
HETATM   15  O1  UNL     1      15.363 -20.679  11.227  1.00  0.00    -0.396 OA
HETATM   16  C1  UNL     1      14.349 -20.706  10.277  1.00  0.00     0.201 C 
ENDBRANCH  14  15
ENDBRANCH   1  14
TORSDOF 4
ENDMDL
MODEL 3
REMARK VINA RESULT: -5.819958752      2.502      5.520
REMARK  4 active torsions:
REMARK  status: ('A' for Active; 'I' for Inactive)
REMARK    1  A    between atoms: O1_2  and  C2_3 
REMARK    2  A    between atoms: C2_3  and  C3_4 
REMARK    3  A    between atoms: C5_8  and  N2_9 
REMARK    4  A    between atoms: N2_9  and  C6_11 
ROOT
HETATM    1  C3  UNL     1      18.804 -26.339  14.292  1.00  0.00     0.034 C 
HETATM    2  C4  UNL     1      18.801 -25.938  15.719  1.00  0.00     0.128 C 
HETATM    3  N1  UNL     1      18.410 -24.546  15.701  1.00  0.00    -0.380 N 
ATOM      4  H1  UNL     1      18.588 -23.902  16.472  1.00  0.00     0.160 HD
HETATM    5  C5  UNL     1      17.816 -24.203  14.615  1.00  0.00     0.073 C 
HETATM    6  C11 UNL     1      17.735 -25.394  13.726  1.00  0.00     0.084 C 
ENDROOT
BRANCH   5   7
HETATM    7  N2  UNL     1      17.310 -22.915  14.285  1.00  0.00    -0.375 N 
ATOM      8  H2  UNL     1      16.650 -22.471  14.925  1.00  0.00     0.161 HD
BRANCH   7   9
HETATM    9  C6  UNL     1      17.690 -22.205  13.082  1.00  0.00     0.082 C 
HETATM   10  C7  UNL     1      16.751 -22.463  11.961  1.00  0.00     0.025 C 
HETATM   11  C8  UNL     1      16.640 -21.154  11.171  1.00  0.00     0.002 C 
HETATM   12  C9  UNL     1      16.647 -20.152  12.287  1.00  0.00     0.002 C 
HETATM   13  C10 UNL     1      17.691 -20.727  13.220  1.00  0.00     0.025 C 
ENDBRANCH   7   9
ENDBRANCH   5   7
BRANCH   1  14
HETATM   14  C2  UNL     1      20.100 -26.035  13.579  1.00  0.00     0.173 C 
BRANCH  14  15
HETATM   15  O1  UNL     1      21.051 -25.612  14.491  1.00  0.00    -0.396 OA
HETATM   16  C1  UNL     1      22.335 -25.780  13.987  1.00  0.00     0.201 C 
ENDBRANCH  14  15
ENDBRANCH   1  14
TORSDOF 4
ENDMDL
MODEL 4
REMARK VINA RESULT: -5.686826464      0.880      1.488
REMARK  4 active torsions:
REMARK  status: ('A' for Active; 'I' for Inactive)
REMARK    1  A    between atoms: O1_2  and  C2_3 
REMARK    2  A    between atoms: C2_3  and  C3_4 
REMARK    3  A    between atoms: C5_8  and  N2_9 
REMARK    4  A    between atoms: N2_9  and  C6_11 
ROOT
HETATM    1  C3  UNL     1      17.565 -20.920  12.061  1.00  0.00     0.034 C 
HETATM    2  C4  UNL     1      17.703 -20.835  13.534  1.00  0.00     0.128 C 
HETATM    3  N1  UNL     1      17.340 -22.152  14.007  1.00  0.00    -0.380 N 
ATOM      4  H1  UNL     1      17.053 -22.345  14.967  1.00  0.00     0.160 HD
HETATM    5  C5  UNL     1      17.415 -23.053  13.096  1.00  0.00     0.073 C 
HETATM    6  C11 UNL     1      17.862 -22.410  11.831  1.00  0.00     0.084 C 
ENDROOT
BRANCH   5   7
HETATM    7  N2  UNL     1      17.125 -24.439  13.236  1.00  0.00    -0.375 N 
ATOM      8  H2  UNL     1      16.413 -24.723  13.909  1.00  0.00     0.161 HD
BRANCH   7   9
HETATM    9  C6  UNL     1      17.795 -25.465  12.465  1.00  0.00     0.082 C 
HETATM   10  C7  UNL     1      18.398 -26.510  13.331  1.00  0.00     0.025 C 
HETATM   11  C8  UNL     1      18.246 -27.841  12.584  1.00  0.00     0.002 C 
HETATM   12  C9  UNL     1      16.880 -27.672  11.987  1.00  0.00     0.002 C 
HETATM   13  C10 UNL     1      16.904 -26.222  11.551  1.00  0.00     0.025 C 
ENDBRANCH   7   9
ENDBRANCH   5   7
BRANCH   1  14
HETATM   14  C2  UNL     1      16.164 -20.657  11.566  1.00  0.00     0.173 C 
BRANCH  14  15
HETATM   15  O1  UNL     1      15.901 -21.445  10.458  1.00  0.00    -0.396 OA
HETATM   16  C1  UNL     1      14.665 -21.131   9.905  1.00  0.00     0.201 C 
ENDBRANCH  14  15
ENDBRANCH   1  14
TORSDOF 4
ENDMDL
MODEL 5
REMARK VINA RESULT: -5.601973632      1.095      1.162
REMARK  4 active torsions:
REMARK  status: ('A' for Active; 'I' for Inactive)
REMARK    1  A    between atoms: O1_2  and  C2_3 
REMARK    2  A    between atoms: C2_3  and  C3_4 
REMARK    3  A    between atoms: C5_8  and  N2_9 
REMARK    4  A    between atoms: N2_9  and  C6_11 
ROOT
HETATM    1  C3  UNL     1      17.712 -22.280  12.110  1.00  0.00     0.034 C 
HETATM    2  C4  UNL     1      17.647 -21.677  13.462  1.00  0.00     0.128 C 
HETATM    3  N1  UNL     1      17.307 -22.780  14.333  1.00  0.00    -0.380 N 
ATOM      4  H1  UNL     1      16.908 -22.659  15.264  1.00  0.00     0.160 HD
HETATM    5  C5  UNL     1      17.560 -23.927  13.815  1.00  0.00     0.073 C 
HETATM    6  C11 UNL     1      18.130 -23.717  12.457  1.00  0.00     0.084 C 
ENDROOT
BRANCH   5   7
HETATM    7  N2  UNL     1      17.342 -25.202  14.409  1.00  0.00    -0.375 N 
ATOM      8  H2  UNL     1      16.421 -25.408  14.797  1.00  0.00     0.161 HD
BRANCH   7   9
HETATM    9  C6  UNL     1      18.369 -26.220  14.486  1.00  0.00     0.082 C 
HETATM   10  C7  UNL     1      18.524 -26.954  13.205  1.00  0.00     0.025 C 
HETATM   11  C8  UNL     1      20.018 -27.265  13.056  1.00  0.00     0.002 C 
HETATM   12  C9  UNL     1      20.622 -25.999  13.586  1.00  0.00     0.002 C 
HETATM   13  C10 UNL     1      19.728 -25.695  14.770  1.00  0.00     0.025 C 
ENDBRANCH   7   9
ENDBRANCH   5   7
BRANCH   1  14
HETATM   14  C2  UNL     1      16.375 -22.355  11.413  1.00  0.00     0.173 C 
BRANCH  14  15
HETATM   15  O1  UNL     1      16.011 -21.099  10.959  1.00  0.00    -0.396 OA
HETATM   16  C1  UNL     1      14.867 -21.165  10.172  1.00  0.00     0.201 C 
ENDBRANCH  14  15
ENDBRANCH   1  14
TORSDOF 4
ENDMDL
