MODEL 1
REMARK VINA RESULT: -5.992959256      0.000      0.000
REMARK  3 active torsions:
REMARK  status: ('A' for Active; 'I' for Inactive)
REMARK    1  A    between atoms: O1_2  and  C2_3 
REMARK    2  A    between atoms: C5_6  and  C6_7 
REMARK    3  A    between atoms: C6_7  and  C7_8 
ROOT
HETATM    1  C7  UNL     1      17.201 -25.021  13.347  1.00  0.00     0.188 C 
HETATM    2  C8  UNL     1      18.123 -26.118  13.805  1.00  0.00     0.033 C 
HETATM    3  C9  UNL     1      18.286 -27.198  12.744  1.00  0.00     0.004 C 
HETATM    4  C10 UNL     1      17.015 -27.450  11.982  1.00  0.00     0.027 C 
HETATM    5  C11 UNL     1      16.543 -26.168  11.338  1.00  0.00     0.232 C 
HETATM    6  N1  UNL     1      17.257 -25.033  11.873  1.00  0.00    -0.071 N 
ATOM      7  H11 UNL     1      18.218 -24.999  11.533  1.00  0.00     0.277 HD
ATOM      8  H12 UNL     1      16.921 -24.155  11.476  1.00  0.00     0.277 HD
ENDROOT
BRANCH   1   9
HETATM    9  C6  UNL     1      17.669 -23.686  13.760  1.00  0.00     0.065 C 
BRANCH   9  10
HETATM   10  C5  UNL     1      17.531 -22.532  12.893  1.00  0.00     0.126 C 
HETATM   11  C4  UNL     1      17.649 -21.161  13.442  1.00  0.00     0.037 C 
HETATM   12  C3  UNL     1      17.442 -20.357  12.139  1.00  0.00     0.063 C 
HETATM   13  C2  UNL     1      16.626 -21.345  11.339  1.00  0.00     0.259 C 
HETATM   14  O2  UNL     1      16.347 -22.436  12.171  1.00  0.00    -0.356 OA
BRANCH  13  15
HETATM   15  O1  UNL     1      15.463 -20.720  10.899  1.00  0.00    -0.366 OA
HETATM   16  C1  UNL     1      14.934 -21.385   9.794  1.00  0.00     0.204 C 
ENDBRANCH  13  15
ENDBRANCH   9  10
ENDBRANCH   1   9
TORSDOF 3
ENDMDL
MODEL 2
REMARK VINA RESULT: -5.907015330      1.227      1.893
REMARK  3 active torsions:
REMARK  status: ('A' for Active; 'I' for Inactive)
REMARK    1  A    between atoms: O1_2  and  C2_3 
REMARK    2  A    between atoms: C5_6  and  C6_7 
REMARK    3  A    between atoms: C6_7  and  C7_8 
ROOT
HETATM    1  C7  UNL     1      17.872 -26.131  12.492  1.00  0.00     0.188 C 
HETATM    2  C8  UNL     1      17.075 -26.818  11.416  1.00  0.00     0.033 C 
HETATM    3  C9  UNL     1      17.286 -28.326  11.433  1.00  0.00     0.004 C 
HETATM    4  C10 UNL     1      18.698 -28.703  11.786  1.00  0.00     0.027 C 
HETATM    5  C11 UNL     1      19.062 -28.122  13.130  1.00  0.00     0.232 C 
HETATM    6  N1  UNL     1      18.086 -27.142  13.546  1.00  0.00    -0.071 N 
ATOM      7  H11 UNL     1      17.210 -27.580  13.830  1.00  0.00     0.277 HD
ATOM      8  H12 UNL     1      18.340 -26.711  14.435  1.00  0.00     0.277 HD
ENDROOT
BRANCH   1   9
HETATM    9  C6  UNL     1      17.124 -25.034  13.130  1.00  0.00     0.065 C 
BRANCH   9  10
HETATM   10  C5  UNL     1      17.394 -23.645  12.811  1.00  0.00     0.126 C 
HETATM   11  C4  UNL     1      17.376 -22.612  13.873  1.00  0.00     0.037 C 
HETATM   12  C3  UNL     1      17.727 -21.375  13.018  1.00  0.00     0.063 C 
HETATM   13  C2  UNL     1      17.219 -21.826  11.669  1.00  0.00     0.259 C 
HETATM   14  O2  UNL     1      16.581 -23.060  11.847  1.00  0.00    -0.356 OA
BRANCH  13  15
HETATM   15  O1  UNL     1      16.348 -20.863  11.167  1.00  0.00    -0.366 OA
HETATM   16  C1  UNL     1      15.308 -21.461  10.458  1.00  0.00     0.204 C 
ENDBRANCH  13  15
ENDBRANCH   9  10
ENDBRANCH   1   9
TORSDOF 3
ENDMDL
MODEL 3
REMARK VINA RESULT: -5.850901920      1.792      2.946
REMARK  3 active torsions:
REMARK  status: ('A' for Active; 'I' for Inactive)
REMARK    1  A    between atoms: O1_2  and  C2_3 
REMARK    2  A    between atoms: C5_6  and  C6_7 
REMARK    3  A    between atoms: C6_7  and  C7_8 
ROOT
HETATM    1  C7  UNL     1      17.076 -26.474  11.404  1.00  0.00     0.188 C 
HETATM    2  C8  UNL     1      16.895 -27.242  10.122  1.00  0.00     0.033 C 
HETATM    3  C9  UNL     1      17.392 -28.676  10.248  1.00  0.00     0.004 C 
HETATM    4  C10 UNL     1      18.618 -28.785  11.111  1.00  0.00     0.027 C 
HETATM    5  C11 UNL     1      18.329 -28.222  12.482  1.00  0.00     0.232 C 
HETATM    6  N1  UNL     1      17.089 -27.482  12.482  1.00  0.00    -0.071 N 
ATOM      7  H11 UNL     1      16.281 -28.102  12.426  1.00  0.00     0.277 HD
ATOM      8  H12 UNL     1      16.900 -27.062  13.392  1.00  0.00     0.277 HD
ENDROOT
BRANCH   1   9
HETATM    9  C6  UNL     1      15.936 -25.587  11.692  1.00  0.00     0.065 C 
BRANCH   9  10
HETATM   10  C5  UNL     1      16.087 -24.145  11.732  1.00  0.00     0.126 C 
HETATM   11  C4  UNL     1      15.583 -23.305  10.620  1.00  0.00     0.037 C 
HETATM   12  C3  UNL     1      15.978 -21.915  11.166  1.00  0.00     0.063 C 
HETATM   13  C2  UNL     1      17.140 -22.293  12.053  1.00  0.00     0.259 C 
HETATM   14  O2  UNL     1      17.382 -23.661  11.875  1.00  0.00    -0.356 OA
BRANCH  13  15
HETATM   15  O1  UNL     1      18.246 -21.524  11.704  1.00  0.00    -0.366 OA
HETATM   16  C1  UNL     1      18.113 -20.223  12.183  1.00  0.00     0.204 C 
ENDBRANCH  13  15
ENDBRANCH   9  10
ENDBRANCH   1   9
TORSDOF 3
ENDMDL
MODEL 4
REMARK VINA RESULT: -5.782662833      1.467      2.666
REMARK  3 active torsions:
REMARK  status: ('A' for Active; 'I' for Inactive)
REMARK    1  A    between atoms: O1_2  and  C2_3 
REMARK    2  A    between atoms: C5_6  and  C6_7 
REMARK    3  A    between atoms: C6_7  and  C7_8 
ROOT
HETATM    1  C7  UNL     1      17.124 -25.873  11.628  1.00  0.00     0.188 C 
HETATM    2  C8  UNL     1      17.019 -27.307  11.182  1.00  0.00     0.033 C 
HETATM    3  C9  UNL     1      17.801 -28.241  12.096  1.00  0.00     0.004 C 
HETATM    4  C10 UNL     1      19.077 -27.621  12.594  1.00  0.00     0.027 C 
HETATM    5  C11 UNL     1      18.770 -26.334  13.321  1.00  0.00     0.232 C 
HETATM    6  N1  UNL     1      17.409 -25.919  13.075  1.00  0.00    -0.071 N 
ATOM      7  H11 UNL     1      16.740 -26.508  13.572  1.00  0.00     0.277 HD
ATOM      8  H12 UNL     1      17.199 -25.029  13.529  1.00  0.00     0.277 HD
ENDROOT
BRANCH   1   9
HETATM    9  C6  UNL     1      15.850 -25.148  11.488  1.00  0.00     0.065 C 
BRANCH   9  10
HETATM   10  C5  UNL     1      15.806 -23.701  11.400  1.00  0.00     0.126 C 
HETATM   11  C4  UNL     1      15.289 -23.037  10.181  1.00  0.00     0.037 C 
HETATM   12  C3  UNL     1      15.451 -21.564  10.617  1.00  0.00     0.063 C 
HETATM   13  C2  UNL     1      16.576 -21.700  11.615  1.00  0.00     0.259 C 
HETATM   14  O2  UNL     1      17.010 -23.031  11.587  1.00  0.00    -0.356 OA
BRANCH  13  15
HETATM   15  O1  UNL     1      17.596 -20.817  11.272  1.00  0.00    -0.366 OA
HETATM   16  C1  UNL     1      18.046 -20.124  12.393  1.00  0.00     0.204 C 
ENDBRANCH  13  15
ENDBRANCH   9  10
ENDBRANCH   1   9
TORSDOF 3
ENDMDL
MODEL 5
REMARK VINA RESULT: -5.700221323      2.231      5.659
REMARK  3 active torsions:
REMARK  status: ('A' for Active; 'I' for Inactive)
REMARK    1  A    between atoms: O1_2  and  C2_3 
REMARK    2  A    between atoms: C5_6  and  C6_7 
REMARK    3  A    between atoms: C6_7  and  C7_8 
ROOT
HETATM    1  C7  UNL     1      16.418 -23.353  12.181  1.00  0.00     0.188 C 
HETATM    2  C8  UNL     1      15.934 -22.454  11.075  1.00  0.00     0.033 C 
HETATM    3  C9  UNL     1      16.610 -21.091  11.118  1.00  0.00     0.004 C 
HETATM    4  C10 UNL     1      16.854 -20.615  12.523  1.00  0.00     0.027 C 
HETATM    5  C11 UNL     1      17.694 -21.626  13.266  1.00  0.00     0.232 C 
HETATM    6  N1  UNL     1      17.767 -22.869  12.535  1.00  0.00    -0.071 N 
ATOM      7  H11 UNL     1      18.365 -22.787  11.713  1.00  0.00     0.277 HD
ATOM      8  H12 UNL     1      18.299 -23.575  13.044  1.00  0.00     0.277 HD
ENDROOT
BRANCH   1   9
HETATM    9  C6  UNL     1      16.591 -24.746  11.736  1.00  0.00     0.065 C 
BRANCH   9  10
HETATM   10  C5  UNL     1      17.552 -25.631  12.367  1.00  0.00     0.126 C 
HETATM   11  C4  UNL     1      17.369 -27.100  12.315  1.00  0.00     0.037 C 
HETATM   12  C3  UNL     1      18.629 -27.532  13.097  1.00  0.00     0.063 C 
HETATM   13  C2  UNL     1      18.852 -26.304  13.948  1.00  0.00     0.259 C 
HETATM   14  O2  UNL     1      17.779 -25.432  13.725  1.00  0.00    -0.356 OA
BRANCH  13  15
HETATM   15  O1  UNL     1      18.935 -26.688  15.283  1.00  0.00    -0.366 OA
HETATM   16  C1  UNL     1      18.962 -25.571  16.116  1.00  0.00     0.204 C 
ENDBRANCH  13  15
ENDBRANCH   9  10
ENDBRANCH   1   9
TORSDOF 3
ENDMDL
