MODEL 1
REMARK VINA RESULT: -6.216890272      0.000      0.000
REMARK  3 active torsions:
REMARK  status: ('A' for Active; 'I' for Inactive)
REMARK    1  A    between atoms: C3_3  and  C4_4 
REMARK    2  A    between atoms: C4_4  and  O1_6 
REMARK    3  A    between atoms: O1_6  and  N1_7 
ROOT
HETATM    1  C1  UNL     1      16.993 -27.125  11.088  1.00  0.00     0.012 C 
HETATM    2  C2  UNL     1      17.667 -27.268  12.077  1.00  0.00    -0.115 C 
HETATM    3  C3  UNL     1      18.494 -27.444  13.272  1.00  0.00     0.127 C 
ENDROOT
BRANCH   3   4
HETATM    4  C4  UNL     1      18.882 -26.077  13.785  1.00  0.00     0.159 C 
HETATM    5  C5  UNL     1      19.733 -26.208  15.028  1.00  0.00     0.043 C 
BRANCH   4   6
HETATM    6  O1  UNL     1      17.712 -25.360  14.052  1.00  0.00    -0.273 OA
BRANCH   6   7
HETATM    7  N1  UNL     1      17.763 -24.032  14.380  1.00  0.00    -0.254 N 
HETATM    8  C6  UNL     1      17.407 -23.098  13.544  1.00  0.00     0.097 C 
HETATM    9  C7  UNL     1      16.959 -23.592  12.257  1.00  0.00     0.078 C 
HETATM   10  N2  UNL     1      17.517 -21.787  14.032  1.00  0.00    -0.378 N 
HETATM   11  C8  UNL     1      16.169 -22.635  11.425  1.00  0.00     0.007 C 
HETATM   12  C9  UNL     1      16.897 -21.365  11.116  1.00  0.00     0.002 C 
HETATM   13  C10 UNL     1      16.577 -20.393  12.240  1.00  0.00     0.020 C 
HETATM   14  C11 UNL     1      17.624 -20.573  13.295  1.00  0.00     0.121 C 
ATOM     15  H2  UNL     1      17.521 -21.691  15.048  1.00  0.00     0.160 HD
ATOM     16  H1  UNL     1      18.090 -23.765  15.308  1.00  0.00     0.195 HD
ENDBRANCH   6   7
ENDBRANCH   4   6
ENDBRANCH   3   4
TORSDOF 3
ENDMDL
MODEL 2
REMARK VINA RESULT: -6.054695319      0.914      1.186
REMARK  3 active torsions:
REMARK  status: ('A' for Active; 'I' for Inactive)
REMARK    1  A    between atoms: C3_3  and  C4_4 
REMARK    2  A    between atoms: C4_4  and  O1_6 
REMARK    3  A    between atoms: O1_6  and  N1_7 
ROOT
HETATM    1  C1  UNL     1      17.356 -27.846   9.418  1.00  0.00     0.012 C 
HETATM    2  C2  UNL     1      17.358 -27.884  10.623  1.00  0.00    -0.115 C 
HETATM    3  C3  UNL     1      17.369 -27.937  12.086  1.00  0.00     0.127 C 
ENDROOT
BRANCH   3   4
HETATM    4  C4  UNL     1      17.982 -26.656  12.601  1.00  0.00     0.159 C 
HETATM    5  C5  UNL     1      18.852 -26.941  13.805  1.00  0.00     0.043 C 
BRANCH   4   6
HETATM    6  O1  UNL     1      16.947 -25.774  12.928  1.00  0.00    -0.273 OA
BRANCH   6   7
HETATM    7  N1  UNL     1      17.202 -24.620  13.618  1.00  0.00    -0.254 N 
HETATM    8  C6  UNL     1      17.043 -23.443  13.083  1.00  0.00     0.097 C 
HETATM    9  C7  UNL     1      16.577 -23.473  11.710  1.00  0.00     0.078 C 
HETATM   10  N2  UNL     1      17.346 -22.360  13.921  1.00  0.00    -0.378 N 
HETATM   11  C8  UNL     1      15.994 -22.201  11.187  1.00  0.00     0.007 C 
HETATM   12  C9  UNL     1      16.934 -21.039  11.247  1.00  0.00     0.002 C 
HETATM   13  C10 UNL     1      16.729 -20.380  12.601  1.00  0.00     0.020 C 
HETATM   14  C11 UNL     1      17.685 -21.024  13.557  1.00  0.00     0.121 C 
ATOM     15  H2  UNL     1      17.322 -22.554  14.922  1.00  0.00     0.160 HD
ATOM     16  H1  UNL     1      17.528 -24.682  14.583  1.00  0.00     0.195 HD
ENDBRANCH   6   7
ENDBRANCH   4   6
ENDBRANCH   3   4
TORSDOF 3
ENDMDL
MODEL 3
REMARK VINA RESULT: -5.890456914      1.434      2.502
REMARK  3 active torsions:
REMARK  status: ('A' for Active; 'I' for Inactive)
REMARK    1  A    between atoms: C3_3  and  C4_4 
REMARK    2  A    between atoms: C4_4  and  O1_6 
REMARK    3  A    between atoms: O1_6  and  N1_7 
ROOT
HETATM    1  C1  UNL     1      21.806 -26.570  15.937  1.00  0.00     0.012 C 
HETATM    2  C2  UNL     1      20.678 -26.144  15.957  1.00  0.00    -0.115 C 
HETATM    3  C3  UNL     1      19.314 -25.615  15.980  1.00  0.00     0.127 C 
ENDROOT
BRANCH   3   4
HETATM    4  C4  UNL     1      18.639 -25.992  14.682  1.00  0.00     0.159 C 
HETATM    5  C5  UNL     1      19.613 -25.863  13.531  1.00  0.00     0.043 C 
BRANCH   4   6
HETATM    6  O1  UNL     1      17.535 -25.154  14.501  1.00  0.00    -0.273 OA
BRANCH   6   7
HETATM    7  N1  UNL     1      17.650 -23.798  14.661  1.00  0.00    -0.254 N 
HETATM    8  C6  UNL     1      17.343 -22.961  13.712  1.00  0.00     0.097 C 
HETATM    9  C7  UNL     1      16.875 -23.590  12.492  1.00  0.00     0.078 C 
HETATM   10  N2  UNL     1      17.516 -21.606  14.034  1.00  0.00    -0.378 N 
HETATM   11  C8  UNL     1      16.136 -22.707  11.541  1.00  0.00     0.007 C 
HETATM   12  C9  UNL     1      16.926 -21.522  11.082  1.00  0.00     0.002 C 
HETATM   13  C10 UNL     1      16.651 -20.403  12.072  1.00  0.00     0.020 C 
HETATM   14  C11 UNL     1      17.685 -20.500  13.152  1.00  0.00     0.121 C 
ATOM     15  H2  UNL     1      17.522 -21.384  15.029  1.00  0.00     0.160 HD
ATOM     16  H1  UNL     1      17.988 -23.433  15.551  1.00  0.00     0.195 HD
ENDBRANCH   6   7
ENDBRANCH   4   6
ENDBRANCH   3   4
TORSDOF 3
ENDMDL
MODEL 4
REMARK VINA RESULT: -5.871815126      1.597      5.175
REMARK  3 active torsions:
REMARK  status: ('A' for Active; 'I' for Inactive)
REMARK    1  A    between atoms: C3_3  and  C4_4 
REMARK    2  A    between atoms: C4_4  and  O1_6 
REMARK    3  A    between atoms: O1_6  and  N1_7 
ROOT
HETATM    1  C1  UNL     1      15.215 -21.523  10.228  1.00  0.00     0.012 C 
HETATM    2  C2  UNL     1      15.677 -20.884  11.140  1.00  0.00    -0.115 C 
HETATM    3  C3  UNL     1      16.228 -20.111  12.254  1.00  0.00     0.127 C 
ENDROOT
BRANCH   3   4
HETATM    4  C4  UNL     1      17.441 -20.843  12.782  1.00  0.00     0.159 C 
HETATM    5  C5  UNL     1      18.546 -20.834  11.749  1.00  0.00     0.043 C 
BRANCH   4   6
HETATM    6  O1  UNL     1      17.061 -22.150  13.100  1.00  0.00    -0.273 OA
BRANCH   6   7
HETATM    7  N1  UNL     1      17.989 -23.156  13.152  1.00  0.00    -0.254 N 
HETATM    8  C6  UNL     1      17.752 -24.341  12.667  1.00  0.00     0.097 C 
HETATM    9  C7  UNL     1      16.436 -24.490  12.077  1.00  0.00     0.078 C 
HETATM   10  N2  UNL     1      18.805 -25.260  12.798  1.00  0.00    -0.378 N 
HETATM   11  C8  UNL     1      16.256 -25.657  11.161  1.00  0.00     0.007 C 
HETATM   12  C9  UNL     1      16.538 -26.977  11.806  1.00  0.00     0.002 C 
HETATM   13  C10 UNL     1      18.017 -27.257  11.600  1.00  0.00     0.020 C 
HETATM   14  C11 UNL     1      18.746 -26.684  12.776  1.00  0.00     0.121 C 
ATOM     15  H2  UNL     1      19.732 -24.856  12.926  1.00  0.00     0.160 HD
ATOM     16  H1  UNL     1      18.894 -22.972  13.584  1.00  0.00     0.195 HD
ENDBRANCH   6   7
ENDBRANCH   4   6
ENDBRANCH   3   4
TORSDOF 3
ENDMDL
MODEL 5
REMARK VINA RESULT: -5.748248692      1.863      5.781
REMARK  3 active torsions:
REMARK  status: ('A' for Active; 'I' for Inactive)
REMARK    1  A    between atoms: C3_3  and  C4_4 
REMARK    2  A    between atoms: C4_4  and  O1_6 
REMARK    3  A    between atoms: O1_6  and  N1_7 
ROOT
HETATM    1  C1  UNL     1      18.524 -20.111  12.115  1.00  0.00     0.012 C 
HETATM    2  C2  UNL     1      17.360 -20.377  11.948  1.00  0.00    -0.115 C 
HETATM    3  C3  UNL     1      15.945 -20.689  11.741  1.00  0.00     0.127 C 
ENDROOT
BRANCH   3   4
HETATM    4  C4  UNL     1      15.841 -21.679  10.605  1.00  0.00     0.159 C 
HETATM    5  C5  UNL     1      14.683 -21.317   9.702  1.00  0.00     0.043 C 
BRANCH   4   6
HETATM    6  O1  UNL     1      15.672 -22.956  11.149  1.00  0.00    -0.273 OA
BRANCH   6   7
HETATM    7  N1  UNL     1      16.589 -23.471  12.026  1.00  0.00    -0.254 N 
HETATM    8  C6  UNL     1      16.896 -24.736  12.042  1.00  0.00     0.097 C 
HETATM    9  C7  UNL     1      16.187 -25.533  11.060  1.00  0.00     0.078 C 
HETATM   10  N2  UNL     1      17.854 -25.106  12.999  1.00  0.00    -0.378 N 
HETATM   11  C8  UNL     1      16.775 -26.871  10.752  1.00  0.00     0.007 C 
HETATM   12  C9  UNL     1      16.902 -27.762  11.947  1.00  0.00     0.002 C 
HETATM   13  C10 UNL     1      18.268 -27.487  12.554  1.00  0.00     0.020 C 
HETATM   14  C11 UNL     1      18.096 -26.392  13.561  1.00  0.00     0.121 C 
ATOM     15  H2  UNL     1      18.456 -24.354  13.337  1.00  0.00     0.160 HD
ATOM     16  H1  UNL     1      17.046 -22.844  12.687  1.00  0.00     0.195 HD
ENDBRANCH   6   7
ENDBRANCH   4   6
ENDBRANCH   3   4
TORSDOF 3
ENDMDL
