MODEL 1
REMARK VINA RESULT: -5.266080122      0.000      0.000
REMARK  1 active torsions:
REMARK  status: ('A' for Active; 'I' for Inactive)
REMARK    1  A    between atoms: N1_2  and  C2_4 
ROOT
HETATM    1  C2  UNL     1     -17.700  17.126 -13.191  1.00  0.00     0.028 C 
HETATM    2  C3  UNL     1     -16.801  15.915 -13.428  1.00  0.00     0.031 C 
HETATM    3  C4  UNL     1     -16.645  15.196 -12.119  1.00  0.00     0.002 C 
HETATM    4  C5  UNL     1     -15.805  16.047 -11.207  1.00  0.00     0.001 C 
HETATM    5  C6  UNL     1     -15.828  17.488 -11.689  1.00  0.00     0.007 C 
HETATM    6  C7  UNL     1     -17.281  17.863 -11.969  1.00  0.00     0.013 C 
HETATM    7  C8  UNL     1     -17.292  19.329 -12.298  1.00  0.00     0.007 C 
HETATM    8  C9  UNL     1     -17.812  19.448 -13.725  1.00  0.00     0.003 C 
HETATM    9  C10 UNL     1     -17.401  18.117 -14.294  1.00  0.00     0.031 C 
ENDROOT
BRANCH   1  10
HETATM   10  N1  UNL     1     -19.030  16.627 -13.204  1.00  0.00    -0.416 N 
HETATM   11  C1  UNL     1     -19.409  15.804 -14.294  1.00  0.00     0.140 C 
ATOM     12  H1  UNL     1     -19.687  16.852 -12.458  1.00  0.00     0.153 HD
ENDBRANCH   1  10
TORSDOF 1
ENDMDL
MODEL 2
REMARK VINA RESULT: -5.247743833      1.199      3.082
REMARK  1 active torsions:
REMARK  status: ('A' for Active; 'I' for Inactive)
REMARK    1  A    between atoms: N1_2  and  C2_4 
ROOT
HETATM    1  C2  UNL     1     -17.437  16.263 -13.357  1.00  0.00     0.028 C 
HETATM    2  C3  UNL     1     -18.484  17.372 -13.410  1.00  0.00     0.031 C 
HETATM    3  C4  UNL     1     -17.785  18.645 -13.795  1.00  0.00     0.002 C 
HETATM    4  C5  UNL     1     -16.917  19.076 -12.644  1.00  0.00     0.001 C 
HETATM    5  C6  UNL     1     -16.645  17.888 -11.737  1.00  0.00     0.007 C 
HETATM    6  C7  UNL     1     -16.227  16.714 -12.618  1.00  0.00     0.013 C 
HETATM    7  C8  UNL     1     -15.821  15.602 -11.692  1.00  0.00     0.007 C 
HETATM    8  C9  UNL     1     -16.774  14.445 -11.963  1.00  0.00     0.003 C 
HETATM    9  C10 UNL     1     -17.989  15.180 -12.457  1.00  0.00     0.031 C 
ENDROOT
BRANCH   1  10
HETATM   10  N1  UNL     1     -17.241  15.854 -14.703  1.00  0.00    -0.416 N 
HETATM   11  C1  UNL     1     -18.370  15.376 -15.413  1.00  0.00     0.140 C 
ATOM     12  H1  UNL     1     -16.321  15.902 -15.142  1.00  0.00     0.153 HD
ENDBRANCH   1  10
TORSDOF 1
ENDMDL
MODEL 3
REMARK VINA RESULT: -5.104534894      1.946      3.808
REMARK  1 active torsions:
REMARK  status: ('A' for Active; 'I' for Inactive)
REMARK    1  A    between atoms: N1_2  and  C2_4 
ROOT
HETATM    1  C2  UNL     1     -17.941  14.667 -13.038  1.00  0.00     0.028 C 
HETATM    2  C3  UNL     1     -17.886  16.157 -12.715  1.00  0.00     0.031 C 
HETATM    3  C4  UNL     1     -16.454  16.598 -12.826  1.00  0.00     0.002 C 
HETATM    4  C5  UNL     1     -15.681  15.993 -11.687  1.00  0.00     0.001 C 
HETATM    5  C6  UNL     1     -16.436  14.794 -11.138  1.00  0.00     0.007 C 
HETATM    6  C7  UNL     1     -16.865  13.931 -12.321  1.00  0.00     0.013 C 
HETATM    7  C8  UNL     1     -17.475  12.684 -11.747  1.00  0.00     0.007 C 
HETATM    8  C9  UNL     1     -18.925  12.656 -12.215  1.00  0.00     0.003 C 
HETATM    9  C10 UNL     1     -19.198  14.124 -12.395  1.00  0.00     0.031 C 
ENDROOT
BRANCH   1  10
HETATM   10  N1  UNL     1     -17.930  14.580 -14.456  1.00  0.00    -0.416 N 
HETATM   11  C1  UNL     1     -19.004  15.184 -15.156  1.00  0.00     0.140 C 
ATOM     12  H1  UNL     1     -17.179  14.100 -14.951  1.00  0.00     0.153 HD
ENDBRANCH   1  10
TORSDOF 1
ENDMDL
MODEL 4
REMARK VINA RESULT: -4.993460201      1.047      2.887
REMARK  1 active torsions:
REMARK  status: ('A' for Active; 'I' for Inactive)
REMARK    1  A    between atoms: N1_2  and  C2_4 
ROOT
HETATM    1  C2  UNL     1     -17.502  17.249 -13.266  1.00  0.00     0.028 C 
HETATM    2  C3  UNL     1     -17.264  17.875 -11.895  1.00  0.00     0.031 C 
HETATM    3  C4  UNL     1     -15.800  17.757 -11.584  1.00  0.00     0.002 C 
HETATM    4  C5  UNL     1     -15.482  16.308 -11.336  1.00  0.00     0.001 C 
HETATM    5  C6  UNL     1     -16.562  15.436 -11.955  1.00  0.00     0.007 C 
HETATM    6  C7  UNL     1     -16.809  15.937 -13.375  1.00  0.00     0.013 C 
HETATM    7  C8  UNL     1     -17.767  14.971 -14.013  1.00  0.00     0.007 C 
HETATM    8  C9  UNL     1     -19.019  15.768 -14.358  1.00  0.00     0.003 C 
HETATM    9  C10 UNL     1     -18.961  16.859 -13.324  1.00  0.00     0.031 C 
ENDROOT
BRANCH   1  10
HETATM   10  N1  UNL     1     -17.130  18.242 -14.212  1.00  0.00    -0.416 N 
HETATM   11  C1  UNL     1     -17.679  19.538 -14.050  1.00  0.00     0.140 C 
ATOM     12  H1  UNL     1     -16.492  18.030 -14.979  1.00  0.00     0.153 HD
ENDBRANCH   1  10
TORSDOF 1
ENDMDL
MODEL 5
REMARK VINA RESULT: -4.944109203      1.232      3.078
REMARK  1 active torsions:
REMARK  status: ('A' for Active; 'I' for Inactive)
REMARK    1  A    between atoms: N1_2  and  C2_4 
ROOT
HETATM    1  C2  UNL     1     -17.739  16.382 -13.350  1.00  0.00     0.028 C 
HETATM    2  C3  UNL     1     -17.288  17.086 -12.073  1.00  0.00     0.031 C 
HETATM    3  C4  UNL     1     -15.871  16.672 -11.796  1.00  0.00     0.002 C 
HETATM    4  C5  UNL     1     -15.871  15.226 -11.383  1.00  0.00     0.001 C 
HETATM    5  C6  UNL     1     -17.152  14.560 -11.857  1.00  0.00     0.007 C 
HETATM    6  C7  UNL     1     -17.363  14.942 -13.319  1.00  0.00     0.013 C 
HETATM    7  C8  UNL     1     -18.548  14.156 -13.804  1.00  0.00     0.007 C 
HETATM    8  C9  UNL     1     -19.609  15.174 -14.204  1.00  0.00     0.003 C 
HETATM    9  C10 UNL     1     -19.249  16.331 -13.313  1.00  0.00     0.031 C 
ENDROOT
BRANCH   1  10
HETATM   10  N1  UNL     1     -17.209  17.151 -14.421  1.00  0.00    -0.416 N 
HETATM   11  C1  UNL     1     -17.545  18.527 -14.466  1.00  0.00     0.140 C 
ATOM     12  H1  UNL     1     -16.611  16.728 -15.131  1.00  0.00     0.153 HD
ENDBRANCH   1  10
TORSDOF 1
ENDMDL
