MODEL 1
REMARK VINA RESULT: -4.333965240      0.000      0.000
REMARK  1 active torsions:
REMARK  status: ('A' for Active; 'I' for Inactive)
REMARK    1  A    between atoms: N1_1  and  C1_5 
ROOT
HETATM    1  C1  UNL     1     -17.736  15.513 -14.730  1.00  0.00     0.194 C 
HETATM    2  C2  UNL     1     -18.760  15.052 -13.682  1.00  0.00     0.107 C 
HETATM    3  S1  UNL     1     -19.140  16.712 -12.985  1.00  0.00    -0.157 SA
HETATM    4  C3  UNL     1     -17.494  17.459 -13.300  1.00  0.00     0.010 C 
HETATM    5  C4  UNL     1     -16.957  17.914 -11.987  1.00  0.00     0.020 C 
HETATM    6  C5  UNL     1     -16.917  19.414 -11.999  1.00  0.00     0.002 C 
HETATM    7  C6  UNL     1     -17.889  19.763 -13.095  1.00  0.00     0.002 C 
HETATM    8  C7  UNL     1     -17.569  18.677 -14.130  1.00  0.00     0.020 C 
HETATM    9  C8  UNL     1     -16.758  16.308 -13.905  1.00  0.00     0.054 C 
ENDROOT
BRANCH   1  10
HETATM   10  N1  UNL     1     -18.429  16.269 -15.714  1.00  0.00    -0.074 N 
ATOM     11  H13 UNL     1     -19.134  16.887 -15.312  1.00  0.00     0.274 HD
ATOM     12  H12 UNL     1     -17.846  16.987 -16.143  1.00  0.00     0.274 HD
ATOM     13  H11 UNL     1     -18.817  15.616 -16.394  1.00  0.00     0.274 HD
ENDBRANCH   1  10
TORSDOF 1
ENDMDL
MODEL 2
REMARK VINA RESULT: -4.246644784      1.911      2.572
REMARK  1 active torsions:
REMARK  status: ('A' for Active; 'I' for Inactive)
REMARK    1  A    between atoms: N1_1  and  C1_5 
ROOT
HETATM    1  C1  UNL     1     -18.803  15.470 -15.471  1.00  0.00     0.194 C 
HETATM    2  C2  UNL     1     -20.076  15.532 -14.614  1.00  0.00     0.107 C 
HETATM    3  S1  UNL     1     -19.289  16.172 -13.079  1.00  0.00    -0.157 SA
HETATM    4  C3  UNL     1     -17.647  15.394 -13.337  1.00  0.00     0.010 C 
HETATM    5  C4  UNL     1     -17.380  14.526 -12.157  1.00  0.00     0.020 C 
HETATM    6  C5  UNL     1     -16.245  15.134 -11.385  1.00  0.00     0.002 C 
HETATM    7  C6  UNL     1     -16.248  16.562 -11.859  1.00  0.00     0.002 C 
HETATM    8  C7  UNL     1     -16.547  16.377 -13.352  1.00  0.00     0.020 C 
HETATM    9  C8  UNL     1     -17.870  14.653 -14.616  1.00  0.00     0.054 C 
ENDROOT
BRANCH   1  10
HETATM   10  N1  UNL     1     -18.370  16.803 -15.706  1.00  0.00    -0.074 N 
ATOM     11  H13 UNL     1     -18.704  17.175 -16.595  1.00  0.00     0.274 HD
ATOM     12  H12 UNL     1     -18.827  17.481 -15.095  1.00  0.00     0.274 HD
ATOM     13  H11 UNL     1     -17.354  16.821 -15.626  1.00  0.00     0.274 HD
ENDBRANCH   1  10
TORSDOF 1
ENDMDL
MODEL 3
REMARK VINA RESULT: -4.101663675      1.703      3.740
REMARK  1 active torsions:
REMARK  status: ('A' for Active; 'I' for Inactive)
REMARK    1  A    between atoms: N1_1  and  C1_5 
ROOT
HETATM    1  C1  UNL     1     -17.914  18.865 -12.766  1.00  0.00     0.194 C 
HETATM    2  C2  UNL     1     -16.719  18.304 -11.980  1.00  0.00     0.107 C 
HETATM    3  S1  UNL     1     -16.474  16.784 -12.988  1.00  0.00    -0.157 SA
HETATM    4  C3  UNL     1     -18.228  16.565 -13.479  1.00  0.00     0.010 C 
HETATM    5  C4  UNL     1     -18.654  15.218 -13.006  1.00  0.00     0.020 C 
HETATM    6  C5  UNL     1     -18.887  14.358 -14.214  1.00  0.00     0.002 C 
HETATM    7  C6  UNL     1     -18.109  15.073 -15.286  1.00  0.00     0.002 C 
HETATM    8  C7  UNL     1     -18.411  16.537 -14.943  1.00  0.00     0.020 C 
HETATM    9  C8  UNL     1     -18.879  17.707 -12.767  1.00  0.00     0.054 C 
ENDROOT
BRANCH   1  10
HETATM   10  N1  UNL     1     -17.450  19.245 -14.054  1.00  0.00    -0.074 N 
ATOM     11  H13 UNL     1     -17.871  20.113 -14.385  1.00  0.00     0.274 HD
ATOM     12  H12 UNL     1     -16.479  19.560 -14.047  1.00  0.00     0.274 HD
ATOM     13  H11 UNL     1     -17.607  18.461 -14.687  1.00  0.00     0.274 HD
ENDBRANCH   1  10
TORSDOF 1
ENDMDL
MODEL 4
REMARK VINA RESULT: -4.037258006      2.196      3.921
REMARK  1 active torsions:
REMARK  status: ('A' for Active; 'I' for Inactive)
REMARK    1  A    between atoms: N1_1  and  C1_5 
ROOT
HETATM    1  C1  UNL     1     -17.366  20.097 -11.951  1.00  0.00     0.194 C 
HETATM    2  C2  UNL     1     -16.831  20.502 -13.333  1.00  0.00     0.107 C 
HETATM    3  S1  UNL     1     -17.527  19.081 -14.273  1.00  0.00    -0.157 SA
HETATM    4  C3  UNL     1     -17.471  17.865 -12.901  1.00  0.00     0.010 C 
HETATM    5  C4  UNL     1     -16.630  16.723 -13.357  1.00  0.00     0.020 C 
HETATM    6  C5  UNL     1     -17.523  15.527 -13.513  1.00  0.00     0.002 C 
HETATM    7  C6  UNL     1     -18.889  16.145 -13.633  1.00  0.00     0.002 C 
HETATM    8  C7  UNL     1     -18.792  17.278 -12.604  1.00  0.00     0.020 C 
HETATM    9  C8  UNL     1     -16.865  18.683 -11.806  1.00  0.00     0.054 C 
ENDROOT
BRANCH   1  10
HETATM   10  N1  UNL     1     -18.781  20.220 -11.976  1.00  0.00    -0.074 N 
ATOM     11  H13 UNL     1     -19.092  21.119 -12.346  1.00  0.00     0.274 HD
ATOM     12  H12 UNL     1     -19.217  19.625 -12.681  1.00  0.00     0.274 HD
ATOM     13  H11 UNL     1     -19.128  20.038 -11.035  1.00  0.00     0.274 HD
ENDBRANCH   1  10
TORSDOF 1
ENDMDL
MODEL 5
REMARK VINA RESULT: -4.028593577      1.902      2.795
REMARK  1 active torsions:
REMARK  status: ('A' for Active; 'I' for Inactive)
REMARK    1  A    between atoms: N1_1  and  C1_5 
ROOT
HETATM    1  C1  UNL     1     -20.177  14.509 -14.060  1.00  0.00     0.194 C 
HETATM    2  C2  UNL     1     -19.971  15.148 -15.442  1.00  0.00     0.107 C 
HETATM    3  S1  UNL     1     -18.285  15.818 -15.136  1.00  0.00    -0.157 SA
HETATM    4  C3  UNL     1     -18.484  16.089 -13.333  1.00  0.00     0.010 C 
HETATM    5  C4  UNL     1     -18.235  17.535 -13.074  1.00  0.00     0.020 C 
HETATM    6  C5  UNL     1     -16.960  17.651 -12.291  1.00  0.00     0.002 C 
HETATM    7  C6  UNL     1     -16.279  16.338 -12.569  1.00  0.00     0.002 C 
HETATM    8  C7  UNL     1     -17.471  15.373 -12.533  1.00  0.00     0.020 C 
HETATM    9  C8  UNL     1     -19.899  15.656 -13.123  1.00  0.00     0.054 C 
ENDROOT
BRANCH   1  10
HETATM   10  N1  UNL     1     -19.273  13.420 -13.944  1.00  0.00    -0.074 N 
ATOM     11  H13 UNL     1     -18.672  13.316 -14.762  1.00  0.00     0.274 HD
ATOM     12  H12 UNL     1     -18.538  13.589 -13.256  1.00  0.00     0.274 HD
ATOM     13  H11 UNL     1     -19.817  12.581 -13.743  1.00  0.00     0.274 HD
ENDBRANCH   1  10
TORSDOF 1
ENDMDL
