MODEL 1
REMARK VINA RESULT: -5.906262135      0.000      0.000
REMARK  2 active torsions:
REMARK  status: ('A' for Active; 'I' for Inactive)
REMARK    1  A    between atoms: C4_4  and  N1_5 
REMARK    2  A    between atoms: N1_5  and  C5_7 
ROOT
HETATM    1  C1  UNL     1     -17.585  20.634 -12.320  1.00  0.00     0.020 C 
HETATM    2  C2  UNL     1     -17.632  20.018 -13.677  1.00  0.00     0.009 C 
HETATM    3  C3  UNL     1     -17.864  18.529 -13.561  1.00  0.00     0.076 C 
HETATM    4  C4  UNL     1     -16.850  17.904 -12.669  1.00  0.00     0.073 C 
HETATM    5  N2  UNL     1     -16.313  18.603 -11.753  1.00  0.00    -0.380 N 
ATOM      6  H2  UNL     1     -15.624  18.131 -11.167  1.00  0.00     0.160 HD
HETATM    7  C10 UNL     1     -16.567  19.975 -11.455  1.00  0.00     0.121 C 
ENDROOT
BRANCH   4   8
HETATM    8  N1  UNL     1     -16.518  16.539 -12.875  1.00  0.00    -0.375 N 
ATOM      9  H1  UNL     1     -15.619  16.308 -13.299  1.00  0.00     0.161 HD
BRANCH   8  10
HETATM   10  C5  UNL     1     -17.419  15.461 -12.502  1.00  0.00     0.082 C 
HETATM   11  C6  UNL     1     -16.741  14.440 -11.655  1.00  0.00     0.025 C 
HETATM   12  C7  UNL     1     -17.206  13.083 -12.096  1.00  0.00     0.002 C 
HETATM   13  C8  UNL     1     -18.371  13.379 -13.017  1.00  0.00     0.002 C 
HETATM   14  C9  UNL     1     -17.869  14.656 -13.703  1.00  0.00     0.025 C 
ENDBRANCH   8  10
ENDBRANCH   4   8
TORSDOF 2
ENDMDL
MODEL 2
REMARK VINA RESULT: -5.748954672      0.863      5.235
REMARK  2 active torsions:
REMARK  status: ('A' for Active; 'I' for Inactive)
REMARK    1  A    between atoms: C4_4  and  N1_5 
REMARK    2  A    between atoms: N1_5  and  C5_7 
ROOT
HETATM    1  C1  UNL     1     -17.466  13.088 -11.510  1.00  0.00     0.020 C 
HETATM    2  C2  UNL     1     -18.454  13.841 -12.334  1.00  0.00     0.009 C 
HETATM    3  C3  UNL     1     -17.736  14.826 -13.229  1.00  0.00     0.076 C 
HETATM    4  C4  UNL     1     -16.843  15.710 -12.433  1.00  0.00     0.073 C 
HETATM    5  N2  UNL     1     -16.365  15.284 -11.336  1.00  0.00    -0.380 N 
ATOM      6  H2  UNL     1     -15.757  15.925 -10.826  1.00  0.00     0.160 HD
HETATM    7  C10 UNL     1     -16.584  14.006 -10.738  1.00  0.00     0.121 C 
ENDROOT
BRANCH   4   8
HETATM    8  N1  UNL     1     -16.554  17.007 -12.934  1.00  0.00    -0.375 N 
ATOM      9  H1  UNL     1     -15.691  17.153 -13.458  1.00  0.00     0.161 HD
BRANCH   8  10
HETATM   10  C5  UNL     1     -17.451  18.132 -12.723  1.00  0.00     0.082 C 
HETATM   11  C6  UNL     1     -17.667  18.910 -13.975  1.00  0.00     0.025 C 
HETATM   12  C7  UNL     1     -17.668  20.369 -13.624  1.00  0.00     0.002 C 
HETATM   13  C8  UNL     1     -17.731  20.380 -12.111  1.00  0.00     0.002 C 
HETATM   14  C9  UNL     1     -16.857  19.162 -11.785  1.00  0.00     0.025 C 
ENDBRANCH   8  10
ENDBRANCH   4   8
TORSDOF 2
ENDMDL
MODEL 3
REMARK VINA RESULT: -5.731350953      0.780      5.465
REMARK  2 active torsions:
REMARK  status: ('A' for Active; 'I' for Inactive)
REMARK    1  A    between atoms: C4_4  and  N1_5 
REMARK    2  A    between atoms: N1_5  and  C5_7 
ROOT
HETATM    1  C1  UNL     1     -18.204  13.088 -12.768  1.00  0.00     0.020 C 
HETATM    2  C2  UNL     1     -16.885  13.364 -12.128  1.00  0.00     0.009 C 
HETATM    3  C3  UNL     1     -16.828  14.801 -11.662  1.00  0.00     0.076 C 
HETATM    4  C4  UNL     1     -17.141  15.732 -12.780  1.00  0.00     0.073 C 
HETATM    5  N2  UNL     1     -17.885  15.332 -13.730  1.00  0.00    -0.380 N 
ATOM      6  H2  UNL     1     -18.072  16.005 -14.473  1.00  0.00     0.160 HD
HETATM    7  C10 UNL     1     -18.486  14.046 -13.873  1.00  0.00     0.121 C 
ENDROOT
BRANCH   4   8
HETATM    8  N1  UNL     1     -16.596  17.041 -12.742  1.00  0.00    -0.375 N 
ATOM      9  H1  UNL     1     -15.589  17.160 -12.855  1.00  0.00     0.161 HD
BRANCH   8  10
HETATM   10  C5  UNL     1     -17.427  18.219 -12.548  1.00  0.00     0.082 C 
HETATM   11  C6  UNL     1     -17.726  18.905 -13.836  1.00  0.00     0.025 C 
HETATM   12  C7  UNL     1     -17.643  20.385 -13.607  1.00  0.00     0.002 C 
HETATM   13  C8  UNL     1     -17.569  20.517 -12.100  1.00  0.00     0.002 C 
HETATM   14  C9  UNL     1     -16.714  19.291 -11.752  1.00  0.00     0.025 C 
ENDBRANCH   8  10
ENDBRANCH   4   8
TORSDOF 2
ENDMDL
MODEL 4
REMARK VINA RESULT: -5.605241855      2.041      5.518
REMARK  2 active torsions:
REMARK  status: ('A' for Active; 'I' for Inactive)
REMARK    1  A    between atoms: C4_4  and  N1_5 
REMARK    2  A    between atoms: N1_5  and  C5_7 
ROOT
HETATM    1  C1  UNL     1     -19.974  14.670 -15.403  1.00  0.00     0.020 C 
HETATM    2  C2  UNL     1     -19.151  14.715 -14.160  1.00  0.00     0.009 C 
HETATM    3  C3  UNL     1     -18.910  16.151 -13.752  1.00  0.00     0.076 C 
HETATM    4  C4  UNL     1     -18.317  16.926 -14.875  1.00  0.00     0.073 C 
HETATM    5  N2  UNL     1     -18.555  16.568 -16.071  1.00  0.00    -0.380 N 
ATOM      6  H2  UNL     1     -18.127  17.131 -16.807  1.00  0.00     0.160 HD
HETATM    7  C10 UNL     1     -19.354  15.466 -16.499  1.00  0.00     0.121 C 
ENDROOT
BRANCH   4   8
HETATM    8  N1  UNL     1     -17.502  18.047 -14.566  1.00  0.00    -0.375 N 
ATOM      9  H1  UNL     1     -16.737  18.290 -15.196  1.00  0.00     0.161 HD
BRANCH   8  10
HETATM   10  C5  UNL     1     -17.724  18.860 -13.381  1.00  0.00     0.082 C 
HETATM   11  C6  UNL     1     -17.647  20.316 -13.685  1.00  0.00     0.025 C 
HETATM   12  C7  UNL     1     -16.916  20.990 -12.560  1.00  0.00     0.002 C 
HETATM   13  C8  UNL     1     -16.836  19.923 -11.488  1.00  0.00     0.002 C 
HETATM   14  C9  UNL     1     -16.631  18.672 -12.351  1.00  0.00     0.025 C 
ENDBRANCH   8  10
ENDBRANCH   4   8
TORSDOF 2
ENDMDL
MODEL 5
REMARK VINA RESULT: -5.598870081      1.382      5.070
REMARK  2 active torsions:
REMARK  status: ('A' for Active; 'I' for Inactive)
REMARK    1  A    between atoms: C4_4  and  N1_5 
REMARK    2  A    between atoms: N1_5  and  C5_7 
ROOT
HETATM    1  C1  UNL     1     -16.296  14.811 -11.139  1.00  0.00     0.020 C 
HETATM    2  C2  UNL     1     -15.258  15.845 -11.420  1.00  0.00     0.009 C 
HETATM    3  C3  UNL     1     -15.912  17.104 -11.941  1.00  0.00     0.076 C 
HETATM    4  C4  UNL     1     -16.773  16.806 -13.117  1.00  0.00     0.073 C 
HETATM    5  N2  UNL     1     -17.289  15.650 -13.231  1.00  0.00    -0.380 N 
ATOM      6  H2  UNL     1     -17.872  15.492 -14.052  1.00  0.00     0.160 HD
HETATM    7  C10 UNL     1     -17.143  14.548 -12.335  1.00  0.00     0.121 C 
ENDROOT
BRANCH   4   8
HETATM    8  N1  UNL     1     -16.988  17.831 -14.074  1.00  0.00    -0.375 N 
ATOM      9  H1  UNL     1     -16.626  17.707 -15.020  1.00  0.00     0.161 HD
BRANCH   8  10
HETATM   10  C5  UNL     1     -17.709  19.052 -13.749  1.00  0.00     0.082 C 
HETATM   11  C6  UNL     1     -16.794  20.223 -13.640  1.00  0.00     0.025 C 
HETATM   12  C7  UNL     1     -17.239  21.057 -12.475  1.00  0.00     0.002 C 
HETATM   13  C8  UNL     1     -18.591  20.479 -12.109  1.00  0.00     0.002 C 
HETATM   14  C9  UNL     1     -18.341  18.989 -12.375  1.00  0.00     0.025 C 
ENDBRANCH   8  10
ENDBRANCH   4   8
TORSDOF 2
ENDMDL
