MODEL 1
REMARK VINA RESULT: -4.710890239      0.000      0.000
REMARK  2 active torsions:
REMARK  status: ('A' for Active; 'I' for Inactive)
REMARK    1  A    between atoms: C2_2  and  C3_3 
REMARK    2  A    between atoms: C5_5  and  O1_6 
ROOT
HETATM    1  C3  UNL     1     -17.266  17.298 -12.088  1.00  0.00     0.049 C 
HETATM    2  C4  UNL     1     -18.119  17.309 -13.308  1.00  0.00     0.046 C 
HETATM    3  C5  UNL     1     -17.640  18.196 -14.405  1.00  0.00     0.120 C 
HETATM    4  C6  UNL     1     -17.879  19.659 -14.158  1.00  0.00     0.046 C 
HETATM    5  C7  UNL     1     -17.260  20.183 -12.910  1.00  0.00     0.046 C 
HETATM    6  C8  UNL     1     -18.340  20.917 -12.122  1.00  0.00     0.021 C 
HETATM    7  S1  UNL     1     -16.561  18.927 -11.838  1.00  0.00    -0.160 SA
ENDROOT
BRANCH   1   8
HETATM    8  C2  UNL     1     -16.186  16.241 -12.136  1.00  0.00     0.011 C 
HETATM    9  C1  UNL     1     -15.203  16.459 -11.000  1.00  0.00     0.006 C 
ENDBRANCH   1   8
BRANCH   3  10
HETATM   10  O1  UNL     1     -16.314  18.019 -14.738  1.00  0.00    -0.396 OA
ATOM     11  H1  UNL     1     -16.087  18.321 -15.610  1.00  0.00     0.210 HD
ENDBRANCH   3  10
TORSDOF 2
ENDMDL
MODEL 2
REMARK VINA RESULT: -4.295350139      2.181      2.535
REMARK  2 active torsions:
REMARK  status: ('A' for Active; 'I' for Inactive)
REMARK    1  A    between atoms: C2_2  and  C3_3 
REMARK    2  A    between atoms: C5_5  and  O1_6 
ROOT
HETATM    1  C3  UNL     1     -17.834  15.196 -12.301  1.00  0.00     0.049 C 
HETATM    2  C4  UNL     1     -18.895  15.621 -13.255  1.00  0.00     0.046 C 
HETATM    3  C5  UNL     1     -18.401  16.312 -14.480  1.00  0.00     0.120 C 
HETATM    4  C6  UNL     1     -17.965  17.732 -14.248  1.00  0.00     0.046 C 
HETATM    5  C7  UNL     1     -16.891  17.888 -13.230  1.00  0.00     0.046 C 
HETATM    6  C8  UNL     1     -17.346  18.939 -12.223  1.00  0.00     0.021 C 
HETATM    7  S1  UNL     1     -16.500  16.392 -12.319  1.00  0.00    -0.160 SA
ENDROOT
BRANCH   1   8
HETATM    8  C2  UNL     1     -17.317  13.803 -12.579  1.00  0.00     0.011 C 
HETATM    9  C1  UNL     1     -17.329  12.984 -11.301  1.00  0.00     0.006 C 
ENDBRANCH   1   8
BRANCH   3  10
HETATM   10  O1  UNL     1     -17.390  15.645 -15.139  1.00  0.00    -0.396 OA
ATOM     11  H1  UNL     1     -17.691  15.058 -15.822  1.00  0.00     0.210 HD
ENDBRANCH   3  10
TORSDOF 2
ENDMDL
MODEL 3
REMARK VINA RESULT: -4.190359176      2.767      4.745
REMARK  2 active torsions:
REMARK  status: ('A' for Active; 'I' for Inactive)
REMARK    1  A    between atoms: C2_2  and  C3_3 
REMARK    2  A    between atoms: C5_5  and  O1_6 
ROOT
HETATM    1  C3  UNL     1     -18.989  15.841 -14.181  1.00  0.00     0.049 C 
HETATM    2  C4  UNL     1     -18.500  16.897 -13.253  1.00  0.00     0.046 C 
HETATM    3  C5  UNL     1     -17.045  16.835 -12.936  1.00  0.00     0.120 C 
HETATM    4  C6  UNL     1     -16.674  15.742 -11.973  1.00  0.00     0.046 C 
HETATM    5  C7  UNL     1     -17.053  14.373 -12.419  1.00  0.00     0.046 C 
HETATM    6  C8  UNL     1     -17.831  13.709 -11.287  1.00  0.00     0.021 C 
HETATM    7  S1  UNL     1     -18.080  14.323 -13.889  1.00  0.00    -0.160 SA
ENDROOT
BRANCH   1   8
HETATM    8  C2  UNL     1     -18.906  16.251 -15.633  1.00  0.00     0.011 C 
HETATM    9  C1  UNL     1     -19.927  15.475 -16.446  1.00  0.00     0.006 C 
ENDBRANCH   1   8
BRANCH   3  10
HETATM   10  O1  UNL     1     -16.228  16.741 -14.042  1.00  0.00    -0.396 OA
ATOM     11  H1  UNL     1     -16.039  15.850 -14.314  1.00  0.00     0.210 HD
ENDBRANCH   3  10
TORSDOF 2
ENDMDL
MODEL 4
REMARK VINA RESULT: -4.173877820      1.391      3.688
REMARK  2 active torsions:
REMARK  status: ('A' for Active; 'I' for Inactive)
REMARK    1  A    between atoms: C2_2  and  C3_3 
REMARK    2  A    between atoms: C5_5  and  O1_6 
ROOT
HETATM    1  C3  UNL     1     -16.929  18.778 -13.608  1.00  0.00     0.049 C 
HETATM    2  C4  UNL     1     -17.290  17.614 -14.464  1.00  0.00     0.046 C 
HETATM    3  C5  UNL     1     -18.154  16.593 -13.808  1.00  0.00     0.120 C 
HETATM    4  C6  UNL     1     -17.428  15.714 -12.828  1.00  0.00     0.046 C 
HETATM    5  C7  UNL     1     -16.756  16.450 -11.722  1.00  0.00     0.046 C 
HETATM    6  C8  UNL     1     -15.306  15.981 -11.658  1.00  0.00     0.021 C 
HETATM    7  S1  UNL     1     -16.744  18.234 -11.910  1.00  0.00    -0.160 SA
ENDROOT
BRANCH   1   8
HETATM    8  C2  UNL     1     -17.923  19.912 -13.709  1.00  0.00     0.011 C 
HETATM    9  C1  UNL     1     -17.860  20.764 -12.454  1.00  0.00     0.006 C 
ENDBRANCH   1   8
BRANCH   3  10
HETATM   10  O1  UNL     1     -19.273  17.109 -13.190  1.00  0.00    -0.396 OA
ATOM     11  H1  UNL     1     -19.864  16.452 -12.840  1.00  0.00     0.210 HD
ENDBRANCH   3  10
TORSDOF 2
ENDMDL
MODEL 5
REMARK VINA RESULT: -3.959130750      3.121      3.812
REMARK  2 active torsions:
REMARK  status: ('A' for Active; 'I' for Inactive)
REMARK    1  A    between atoms: C2_2  and  C3_3 
REMARK    2  A    between atoms: C5_5  and  O1_6 
ROOT
HETATM    1  C3  UNL     1     -18.621  14.183 -12.116  1.00  0.00     0.049 C 
HETATM    2  C4  UNL     1     -19.477  14.934 -13.075  1.00  0.00     0.046 C 
HETATM    3  C5  UNL     1     -18.798  15.352 -14.333  1.00  0.00     0.120 C 
HETATM    4  C6  UNL     1     -17.866  16.520 -14.167  1.00  0.00     0.046 C 
HETATM    5  C7  UNL     1     -16.781  16.306 -13.170  1.00  0.00     0.046 C 
HETATM    6  C8  UNL     1     -16.792  17.485 -12.203  1.00  0.00     0.021 C 
HETATM    7  S1  UNL     1     -16.942  14.805 -12.201  1.00  0.00    -0.160 SA
ENDROOT
BRANCH   1   8
HETATM    8  C2  UNL     1     -18.657  12.689 -12.341  1.00  0.00     0.011 C 
HETATM    9  C1  UNL     1     -17.273  12.103 -12.133  1.00  0.00     0.006 C 
ENDBRANCH   1   8
BRANCH   3  10
HETATM   10  O1  UNL     1     -18.120  14.338 -14.975  1.00  0.00    -0.396 OA
ATOM     11  H1  UNL     1     -18.569  13.988 -15.736  1.00  0.00     0.210 HD
ENDBRANCH   3  10
TORSDOF 2
ENDMDL
