MODEL 1
REMARK VINA RESULT: -4.973967530      0.000      0.000
REMARK  3 active torsions:
REMARK  status: ('A' for Active; 'I' for Inactive)
REMARK    1  A    between atoms: C2_2  and  N1_4 
REMARK    2  A    between atoms: C2_2  and  N2_8 
REMARK    3  A    between atoms: N2_8  and  C4_10 
ROOT
HETATM    1  N2  UNL     1     -16.777  17.658   0.258  1.00  0.00    -0.387 N 
ATOM      2  H2  UNL     1     -16.205  17.743  -0.583  1.00  0.00     0.156 HD
ENDROOT
BRANCH   1   3
HETATM    3  C2  UNL     1     -17.327  18.828   0.768  1.00  0.00     0.184 C 
HETATM    4  C1  UNL     1     -17.577  19.960  -0.186  1.00  0.00     0.070 C 
HETATM    5  C3  UNL     1     -16.617  19.415   1.972  1.00  0.00     0.070 C 
BRANCH   3   6
HETATM    6  N1  UNL     1     -18.645  18.442   1.304  1.00  0.00    -0.054 N 
ATOM      7  H13 UNL     1     -18.852  17.449   1.198  1.00  0.00     0.277 HD
ATOM      8  H12 UNL     1     -18.694  18.472   2.322  1.00  0.00     0.277 HD
ATOM      9  H11 UNL     1     -19.327  19.048   0.847  1.00  0.00     0.277 HD
ENDBRANCH   3   6
ENDBRANCH   1   3
BRANCH   1  10
HETATM   10  C4  UNL     1     -16.934  16.392   0.783  1.00  0.00     0.079 C 
HETATM   11  C5  UNL     1     -17.457  15.299  -0.126  1.00  0.00     0.024 C 
HETATM   12  C6  UNL     1     -17.884  14.087   0.627  1.00  0.00     0.002 C 
HETATM   13  C7  UNL     1     -17.177  13.759   1.871  1.00  0.00     0.000 C 
HETATM   14  C8  UNL     1     -16.298  14.789   2.476  1.00  0.00     0.002 C 
HETATM   15  C9  UNL     1     -15.735  15.775   1.457  1.00  0.00     0.024 C 
ENDBRANCH   1  10
TORSDOF 3
ENDMDL
MODEL 2
REMARK VINA RESULT: -4.911330944      0.847      1.226
REMARK  3 active torsions:
REMARK  status: ('A' for Active; 'I' for Inactive)
REMARK    1  A    between atoms: C2_2  and  N1_4 
REMARK    2  A    between atoms: C2_2  and  N2_8 
REMARK    3  A    between atoms: N2_8  and  C4_10 
ROOT
HETATM    1  N2  UNL     1     -16.662  17.674   0.387  1.00  0.00    -0.387 N 
ATOM      2  H2  UNL     1     -15.972  17.785  -0.357  1.00  0.00     0.156 HD
ENDROOT
BRANCH   1   3
HETATM    3  C2  UNL     1     -17.317  18.821   0.818  1.00  0.00     0.184 C 
HETATM    4  C1  UNL     1     -16.633  19.673   1.847  1.00  0.00     0.070 C 
HETATM    5  C3  UNL     1     -18.744  18.623   1.288  1.00  0.00     0.070 C 
BRANCH   3   6
HETATM    6  N1  UNL     1     -17.466  19.665  -0.382  1.00  0.00    -0.054 N 
ATOM      7  H13 UNL     1     -18.437  19.883  -0.606  1.00  0.00     0.277 HD
ATOM      8  H12 UNL     1     -17.151  20.626  -0.244  1.00  0.00     0.277 HD
ATOM      9  H11 UNL     1     -16.975  19.181  -1.133  1.00  0.00     0.277 HD
ENDBRANCH   3   6
ENDBRANCH   1   3
BRANCH   1  10
HETATM   10  C4  UNL     1     -16.860  16.398   0.872  1.00  0.00     0.079 C 
HETATM   11  C5  UNL     1     -17.386  15.343  -0.080  1.00  0.00     0.024 C 
HETATM   12  C6  UNL     1     -17.858  14.121   0.627  1.00  0.00     0.002 C 
HETATM   13  C7  UNL     1     -17.187  13.741   1.877  1.00  0.00     0.000 C 
HETATM   14  C8  UNL     1     -16.300  14.733   2.531  1.00  0.00     0.002 C 
HETATM   15  C9  UNL     1     -15.691  15.733   1.554  1.00  0.00     0.024 C 
ENDBRANCH   1  10
TORSDOF 3
ENDMDL
MODEL 3
REMARK VINA RESULT: -4.850405936      2.318      4.935
REMARK  3 active torsions:
REMARK  status: ('A' for Active; 'I' for Inactive)
REMARK    1  A    between atoms: C2_2  and  N1_4 
REMARK    2  A    between atoms: C2_2  and  N2_8 
REMARK    3  A    between atoms: N2_8  and  C4_10 
ROOT
HETATM    1  N2  UNL     1     -16.716  13.805   1.177  1.00  0.00    -0.387 N 
ATOM      2  H2  UNL     1     -16.062  13.425   0.492  1.00  0.00     0.156 HD
ENDROOT
BRANCH   1   3
HETATM    3  C2  UNL     1     -17.453  12.890   1.921  1.00  0.00     0.184 C 
HETATM    4  C1  UNL     1     -17.273  12.891   3.411  1.00  0.00     0.070 C 
HETATM    5  C3  UNL     1     -17.357  11.447   1.466  1.00  0.00     0.070 C 
BRANCH   3   6
HETATM    6  N1  UNL     1     -18.866  13.232   1.676  1.00  0.00    -0.054 N 
ATOM      7  H13 UNL     1     -19.518  12.698   2.251  1.00  0.00     0.277 HD
ATOM      8  H12 UNL     1     -19.126  14.157   2.021  1.00  0.00     0.277 HD
ATOM      9  H11 UNL     1     -19.018  13.115   0.675  1.00  0.00     0.277 HD
ENDBRANCH   3   6
ENDBRANCH   1   3
BRANCH   1  10
HETATM   10  C4  UNL     1     -16.788  15.178   1.282  1.00  0.00     0.079 C 
HETATM   11  C5  UNL     1     -15.578  15.921   1.812  1.00  0.00     0.024 C 
HETATM   12  C6  UNL     1     -15.890  17.330   2.178  1.00  0.00     0.002 C 
HETATM   13  C7  UNL     1     -16.929  18.031   1.414  1.00  0.00     0.000 C 
HETATM   14  C8  UNL     1     -17.821  17.233   0.539  1.00  0.00     0.002 C 
HETATM   15  C9  UNL     1     -17.179  15.942   0.042  1.00  0.00     0.024 C 
ENDBRANCH   1  10
TORSDOF 3
ENDMDL
MODEL 4
REMARK VINA RESULT: -4.849011168      2.421      4.824
REMARK  3 active torsions:
REMARK  status: ('A' for Active; 'I' for Inactive)
REMARK    1  A    between atoms: C2_2  and  N1_4 
REMARK    2  A    between atoms: C2_2  and  N2_8 
REMARK    3  A    between atoms: N2_8  and  C4_10 
ROOT
HETATM    1  N2  UNL     1     -16.633  13.929   1.190  1.00  0.00    -0.387 N 
ATOM      2  H2  UNL     1     -15.819  13.541   0.714  1.00  0.00     0.156 HD
ENDROOT
BRANCH   1   3
HETATM    3  C2  UNL     1     -17.583  13.026   1.655  1.00  0.00     0.184 C 
HETATM    4  C1  UNL     1     -19.031  13.389   1.495  1.00  0.00     0.070 C 
HETATM    5  C3  UNL     1     -17.401  12.562   3.087  1.00  0.00     0.070 C 
BRANCH   3   6
HETATM    6  N1  UNL     1     -17.377  11.797   0.868  1.00  0.00    -0.054 N 
ATOM      7  H13 UNL     1     -18.247  11.355   0.570  1.00  0.00     0.277 HD
ATOM      8  H12 UNL     1     -17.000  11.970  -0.064  1.00  0.00     0.277 HD
ATOM      9  H11 UNL     1     -16.788  11.190   1.437  1.00  0.00     0.277 HD
ENDBRANCH   3   6
ENDBRANCH   1   3
BRANCH   1  10
HETATM   10  C4  UNL     1     -16.691  15.301   1.316  1.00  0.00     0.079 C 
HETATM   11  C5  UNL     1     -15.498  16.017   1.914  1.00  0.00     0.024 C 
HETATM   12  C6  UNL     1     -15.806  17.424   2.290  1.00  0.00     0.002 C 
HETATM   13  C7  UNL     1     -16.800  18.153   1.493  1.00  0.00     0.000 C 
HETATM   14  C8  UNL     1     -17.662  17.383   0.564  1.00  0.00     0.002 C 
HETATM   15  C9  UNL     1     -17.015  16.092   0.073  1.00  0.00     0.024 C 
ENDBRANCH   1  10
TORSDOF 3
ENDMDL
MODEL 5
REMARK VINA RESULT: -4.831620037      1.616      4.513
REMARK  3 active torsions:
REMARK  status: ('A' for Active; 'I' for Inactive)
REMARK    1  A    between atoms: C2_2  and  N1_4 
REMARK    2  A    between atoms: C2_2  and  N2_8 
REMARK    3  A    between atoms: N2_8  and  C4_10 
ROOT
HETATM    1  N2  UNL     1     -17.088  15.970   0.813  1.00  0.00    -0.387 N 
ATOM      2  H2  UNL     1     -16.201  15.526   1.053  1.00  0.00     0.156 HD
ENDROOT
BRANCH   1   3
HETATM    3  C2  UNL     1     -18.131  15.133   0.433  1.00  0.00     0.184 C 
HETATM    4  C1  UNL     1     -19.509  15.723   0.355  1.00  0.00     0.070 C 
HETATM    5  C3  UNL     1     -18.250  13.839   1.214  1.00  0.00     0.070 C 
BRANCH   3   6
HETATM    6  N1  UNL     1     -17.798  14.682  -0.930  1.00  0.00    -0.054 N 
ATOM      7  H13 UNL     1     -18.015  13.699  -1.096  1.00  0.00     0.277 HD
ATOM      8  H12 UNL     1     -18.413  15.068  -1.647  1.00  0.00     0.277 HD
ATOM      9  H11 UNL     1     -16.814  14.910  -1.073  1.00  0.00     0.277 HD
ENDBRANCH   3   6
ENDBRANCH   1   3
BRANCH   1  10
HETATM   10  C4  UNL     1     -17.142  17.346   0.896  1.00  0.00     0.079 C 
HETATM   11  C5  UNL     1     -16.200  18.044   1.855  1.00  0.00     0.024 C 
HETATM   12  C6  UNL     1     -16.574  19.466   2.088  1.00  0.00     0.002 C 
HETATM   13  C7  UNL     1     -17.216  20.203   0.992  1.00  0.00     0.000 C 
HETATM   14  C8  UNL     1     -17.736  19.435  -0.165  1.00  0.00     0.002 C 
HETATM   15  C9  UNL     1     -17.001  18.117  -0.392  1.00  0.00     0.024 C 
ENDBRANCH   1  10
TORSDOF 3
ENDMDL
