MODEL 1
REMARK VINA RESULT: -5.265725363      0.000      0.000
REMARK  2 active torsions:
REMARK  status: ('A' for Active; 'I' for Inactive)
REMARK    1  A    between atoms: C6_6  and  N1_7 
REMARK    2  A    between atoms: C9_13  and  N2_14 
ROOT
HETATM    1  C1  UNL     1     -17.583  20.739   0.446  1.00  0.00     0.012 C 
HETATM    2  C2  UNL     1     -17.594  19.398   1.026  1.00  0.00     0.013 C 
HETATM    3  C3  UNL     1     -16.257  18.962   1.627  1.00  0.00     0.011 C 
HETATM    4  C4  UNL     1     -16.652  17.568   2.086  1.00  0.00    -0.006 C 
HETATM    5  C5  UNL     1     -15.508  16.627   2.177  1.00  0.00     0.037 C 
HETATM    6  C6  UNL     1     -15.916  15.415   1.380  1.00  0.00     0.184 C 
HETATM    7  C7  UNL     1     -16.917  15.937   0.338  1.00  0.00     0.039 C 
HETATM    8  C8  UNL     1     -17.556  17.087   0.960  1.00  0.00     0.022 C 
HETATM    9  C9  UNL     1     -17.891  18.257   0.119  1.00  0.00     0.191 C 
ENDROOT
BRANCH   6  10
HETATM   10  N1  UNL     1     -16.586  14.424   2.161  1.00  0.00    -0.075 N 
ATOM     11  H13 UNL     1     -17.582  14.405   1.944  1.00  0.00     0.274 HD
ATOM     12  H12 UNL     1     -16.328  13.486   1.854  1.00  0.00     0.274 HD
ATOM     13  H11 UNL     1     -16.437  14.531   3.164  1.00  0.00     0.274 HD
ENDBRANCH   6  10
BRANCH   9  14
HETATM   14  N2  UNL     1     -17.136  18.372  -1.099  1.00  0.00    -0.074 N 
ATOM     15  H23 UNL     1     -17.592  18.990  -1.771  1.00  0.00     0.274 HD
ATOM     16  H22 UNL     1     -16.276  18.904  -0.962  1.00  0.00     0.274 HD
ATOM     17  H21 UNL     1     -16.954  17.450  -1.495  1.00  0.00     0.274 HD
ENDBRANCH   9  14
TORSDOF 2
ENDMDL
MODEL 2
REMARK VINA RESULT: -5.123787130      1.942      4.559
REMARK  2 active torsions:
REMARK  status: ('A' for Active; 'I' for Inactive)
REMARK    1  A    between atoms: C6_6  and  N1_7 
REMARK    2  A    between atoms: C9_13  and  N2_14 
ROOT
HETATM    1  C1  UNL     1     -17.382  12.261   2.185  1.00  0.00     0.012 C 
HETATM    2  C2  UNL     1     -17.101  13.382   1.292  1.00  0.00     0.013 C 
HETATM    3  C3  UNL     1     -16.686  14.668   2.010  1.00  0.00     0.011 C 
HETATM    4  C4  UNL     1     -16.512  15.565   0.795  1.00  0.00    -0.006 C 
HETATM    5  C5  UNL     1     -16.691  17.008   1.094  1.00  0.00     0.037 C 
HETATM    6  C6  UNL     1     -17.702  17.506   0.094  1.00  0.00     0.184 C 
HETATM    7  C7  UNL     1     -18.550  16.277  -0.268  1.00  0.00     0.039 C 
HETATM    8  C8  UNL     1     -17.660  15.136  -0.107  1.00  0.00     0.022 C 
HETATM    9  C9  UNL     1     -18.212  13.874   0.434  1.00  0.00     0.191 C 
ENDROOT
BRANCH   6  10
HETATM   10  N1  UNL     1     -17.113  17.993  -1.113  1.00  0.00    -0.075 N 
ATOM     11  H13 UNL     1     -17.154  19.011  -1.151  1.00  0.00     0.274 HD
ATOM     12  H12 UNL     1     -16.101  17.866  -1.099  1.00  0.00     0.274 HD
ATOM     13  H11 UNL     1     -17.518  17.583  -1.954  1.00  0.00     0.274 HD
ENDBRANCH   6  10
BRANCH   9  14
HETATM   14  N2  UNL     1     -19.419  14.013   1.202  1.00  0.00    -0.074 N 
ATOM     15  H23 UNL     1     -19.887  13.117   1.338  1.00  0.00     0.274 HD
ATOM     16  H22 UNL     1     -19.223  14.232   2.179  1.00  0.00     0.274 HD
ATOM     17  H21 UNL     1     -20.037  14.703   0.775  1.00  0.00     0.274 HD
ENDBRANCH   9  14
TORSDOF 2
ENDMDL
MODEL 3
REMARK VINA RESULT: -4.864466845      1.429      1.899
REMARK  2 active torsions:
REMARK  status: ('A' for Active; 'I' for Inactive)
REMARK    1  A    between atoms: C6_6  and  N1_7 
REMARK    2  A    between atoms: C9_13  and  N2_14 
ROOT
HETATM    1  C1  UNL     1     -16.533  19.845   1.813  1.00  0.00     0.012 C 
HETATM    2  C2  UNL     1     -17.221  18.570   1.630  1.00  0.00     0.013 C 
HETATM    3  C3  UNL     1     -16.288  17.360   1.547  1.00  0.00     0.011 C 
HETATM    4  C4  UNL     1     -17.334  16.275   1.341  1.00  0.00    -0.006 C 
HETATM    5  C5  UNL     1     -16.812  15.075   0.640  1.00  0.00     0.037 C 
HETATM    6  C6  UNL     1     -17.757  14.835  -0.508  1.00  0.00     0.184 C 
HETATM    7  C7  UNL     1     -18.348  16.214  -0.839  1.00  0.00     0.039 C 
HETATM    8  C8  UNL     1     -18.338  16.948   0.418  1.00  0.00     0.022 C 
HETATM    9  C9  UNL     1     -18.032  18.396   0.395  1.00  0.00     0.191 C 
ENDROOT
BRANCH   6  10
HETATM   10  N1  UNL     1     -18.845  13.971  -0.175  1.00  0.00    -0.075 N 
ATOM     11  H13 UNL     1     -18.647  13.453   0.681  1.00  0.00     0.274 HD
ATOM     12  H12 UNL     1     -19.653  14.509   0.136  1.00  0.00     0.274 HD
ATOM     13  H11 UNL     1     -19.102  13.335  -0.930  1.00  0.00     0.274 HD
ENDBRANCH   6  10
BRANCH   9  14
HETATM   14  N2  UNL     1     -17.300  18.848  -0.757  1.00  0.00    -0.074 N 
ATOM     15  H23 UNL     1     -17.723  19.679  -1.172  1.00  0.00     0.274 HD
ATOM     16  H22 UNL     1     -16.398  19.249  -0.499  1.00  0.00     0.274 HD
ATOM     17  H21 UNL     1     -17.200  18.094  -1.436  1.00  0.00     0.274 HD
ENDBRANCH   9  14
TORSDOF 2
ENDMDL
MODEL 4
REMARK VINA RESULT: -4.710815451      1.854      2.847
REMARK  2 active torsions:
REMARK  status: ('A' for Active; 'I' for Inactive)
REMARK    1  A    between atoms: C6_6  and  N1_7 
REMARK    2  A    between atoms: C9_13  and  N2_14 
ROOT
HETATM    1  C1  UNL     1     -17.607  18.820  -0.195  1.00  0.00     0.012 C 
HETATM    2  C2  UNL     1     -17.459  17.367  -0.230  1.00  0.00     0.013 C 
HETATM    3  C3  UNL     1     -18.677  16.599   0.286  1.00  0.00     0.011 C 
HETATM    4  C4  UNL     1     -18.148  15.184   0.118  1.00  0.00    -0.006 C 
HETATM    5  C5  UNL     1     -18.778  14.203   1.036  1.00  0.00     0.037 C 
HETATM    6  C6  UNL     1     -17.637  13.499   1.722  1.00  0.00     0.184 C 
HETATM    7  C7  UNL     1     -16.477  14.507   1.711  1.00  0.00     0.039 C 
HETATM    8  C8  UNL     1     -16.687  15.322   0.523  1.00  0.00     0.022 C 
HETATM    9  C9  UNL     1     -16.370  16.766   0.585  1.00  0.00     0.191 C 
ENDROOT
BRANCH   6  10
HETATM   10  N1  UNL     1     -17.195  12.329   1.031  1.00  0.00    -0.075 N 
ATOM     11  H13 UNL     1     -16.282  12.030   1.372  1.00  0.00     0.274 HD
ATOM     12  H12 UNL     1     -17.750  11.517   1.302  1.00  0.00     0.274 HD
ATOM     13  H11 UNL     1     -17.184  12.438   0.017  1.00  0.00     0.274 HD
ENDBRANCH   6  10
BRANCH   9  14
HETATM   14  N2  UNL     1     -16.356  17.333   1.905  1.00  0.00    -0.074 N 
ATOM     15  H23 UNL     1     -17.262  17.732   2.156  1.00  0.00     0.274 HD
ATOM     16  H22 UNL     1     -16.301  16.614   2.627  1.00  0.00     0.274 HD
ATOM     17  H21 UNL     1     -15.604  18.017   1.993  1.00  0.00     0.274 HD
ENDBRANCH   9  14
TORSDOF 2
ENDMDL
MODEL 5
REMARK VINA RESULT: -4.659128315      1.612      4.196
REMARK  2 active torsions:
REMARK  status: ('A' for Active; 'I' for Inactive)
REMARK    1  A    between atoms: C6_6  and  N1_7 
REMARK    2  A    between atoms: C9_13  and  N2_14 
ROOT
HETATM    1  C1  UNL     1     -16.603  14.662   0.823  1.00  0.00     0.012 C 
HETATM    2  C2  UNL     1     -17.238  15.970   0.957  1.00  0.00     0.013 C 
HETATM    3  C3  UNL     1     -17.159  16.838  -0.300  1.00  0.00     0.011 C 
HETATM    4  C4  UNL     1     -17.879  18.071   0.224  1.00  0.00    -0.006 C 
HETATM    5  C5  UNL     1     -17.494  19.323  -0.474  1.00  0.00     0.037 C 
HETATM    6  C6  UNL     1     -17.109  20.291   0.614  1.00  0.00     0.184 C 
HETATM    7  C7  UNL     1     -16.633  19.414   1.783  1.00  0.00     0.039 C 
HETATM    8  C8  UNL     1     -17.377  18.169   1.657  1.00  0.00     0.022 C 
HETATM    9  C9  UNL     1     -16.696  16.897   1.986  1.00  0.00     0.191 C 
ENDROOT
BRANCH   6  10
HETATM   10  N1  UNL     1     -18.204  21.078   1.085  1.00  0.00    -0.075 N 
ATOM     11  H13 UNL     1     -18.508  21.739   0.371  1.00  0.00     0.274 HD
ATOM     12  H12 UNL     1     -19.049  20.513   1.163  1.00  0.00     0.274 HD
ATOM     13  H11 UNL     1     -18.008  21.559   1.963  1.00  0.00     0.274 HD
ENDBRANCH   6  10
BRANCH   9  14
HETATM   14  N2  UNL     1     -15.261  16.937   1.922  1.00  0.00    -0.074 N 
ATOM     15  H23 UNL     1     -14.929  17.649   1.271  1.00  0.00     0.274 HD
ATOM     16  H22 UNL     1     -14.853  17.312   2.779  1.00  0.00     0.274 HD
ATOM     17  H21 UNL     1     -14.887  16.015   1.697  1.00  0.00     0.274 HD
ENDBRANCH   9  14
TORSDOF 2
ENDMDL
