MODEL 1
REMARK VINA RESULT: -4.862626722      0.000      0.000
REMARK  0 active torsions:
REMARK  status: ('A' for Active; 'I' for Inactive)
ROOT
HETATM    1  O1  UNL     1      31.679 -19.035  -1.805  1.00  0.00    -0.226 OA
HETATM    2  S1  UNL     1      31.154 -20.450  -0.675  1.00  0.00     0.190 S 
HETATM    3  O2  UNL     1      30.912 -19.124   1.346  1.00  0.00    -0.281 OA
HETATM    4  C1  UNL     1      29.977 -20.164   1.458  1.00  0.00     0.211 C 
HETATM    5  C2  UNL     1      28.778 -19.859   2.261  1.00  0.00     0.037 C 
HETATM    6  C3  UNL     1      27.645 -20.441   1.943  1.00  0.00     0.174 C 
HETATM    7  O3  UNL     1      27.576 -21.340   0.857  1.00  0.00    -0.209 OA
HETATM    8  O4  UNL     1      28.715 -21.665   0.189  1.00  0.00    -0.212 OA
HETATM    9  C4  UNL     1      29.449 -20.511   0.058  1.00  0.00     0.315 C 
ENDROOT
TORSDOF 0
ENDMDL
MODEL 2
REMARK VINA RESULT: -4.654074023      1.936      4.016
REMARK  0 active torsions:
REMARK  status: ('A' for Active; 'I' for Inactive)
ROOT
HETATM    1  O1  UNL     1      26.089 -20.910   1.353  1.00  0.00    -0.226 OA
HETATM    2  S1  UNL     1      27.899 -20.868   1.883  1.00  0.00     0.190 S 
HETATM    3  O2  UNL     1      28.676 -22.608   0.376  1.00  0.00    -0.281 OA
HETATM    4  C1  UNL     1      29.762 -21.735   0.542  1.00  0.00     0.211 C 
HETATM    5  C2  UNL     1      30.703 -21.665  -0.591  1.00  0.00     0.037 C 
HETATM    6  C3  UNL     1      31.328 -20.534  -0.818  1.00  0.00     0.174 C 
HETATM    7  O3  UNL     1      31.106 -19.409   0.004  1.00  0.00    -0.209 OA
HETATM    8  O4  UNL     1      30.297 -19.528   1.090  1.00  0.00    -0.212 OA
HETATM    9  C4  UNL     1      29.228 -20.305   0.714  1.00  0.00     0.315 C 
ENDROOT
TORSDOF 0
ENDMDL
MODEL 3
REMARK VINA RESULT: -4.600860193      1.661      1.877
REMARK  0 active torsions:
REMARK  status: ('A' for Active; 'I' for Inactive)
ROOT
HETATM    1  O1  UNL     1      32.473 -20.564  -0.246  1.00  0.00    -0.226 OA
HETATM    2  S1  UNL     1      30.805 -21.299  -0.727  1.00  0.00     0.190 S 
HETATM    3  O2  UNL     1      30.393 -22.462   1.366  1.00  0.00    -0.281 OA
HETATM    4  C1  UNL     1      29.129 -22.110   0.871  1.00  0.00     0.211 C 
HETATM    5  C2  UNL     1      28.081 -21.901   1.888  1.00  0.00     0.037 C 
HETATM    6  C3  UNL     1      27.133 -21.028   1.642  1.00  0.00     0.174 C 
HETATM    7  O3  UNL     1      27.114 -20.304   0.431  1.00  0.00    -0.209 OA
HETATM    8  O4  UNL     1      28.045 -20.579  -0.522  1.00  0.00    -0.212 OA
HETATM    9  C4  UNL     1      29.242 -20.770   0.126  1.00  0.00     0.315 C 
ENDROOT
TORSDOF 0
ENDMDL
MODEL 4
REMARK VINA RESULT: -4.523896371      2.275      3.904
REMARK  0 active torsions:
REMARK  status: ('A' for Active; 'I' for Inactive)
ROOT
HETATM    1  O1  UNL     1      26.461 -21.669   1.911  1.00  0.00    -0.226 OA
HETATM    2  S1  UNL     1      28.014 -20.601   1.945  1.00  0.00     0.190 S 
HETATM    3  O2  UNL     1      29.568 -22.377   2.519  1.00  0.00    -0.281 OA
HETATM    4  C1  UNL     1      30.302 -21.464   1.748  1.00  0.00     0.211 C 
HETATM    5  C2  UNL     1      31.424 -22.035   0.979  1.00  0.00     0.037 C 
HETATM    6  C3  UNL     1      31.748 -21.480  -0.164  1.00  0.00     0.174 C 
HETATM    7  O3  UNL     1      31.040 -20.359  -0.649  1.00  0.00    -0.209 OA
HETATM    8  O4  UNL     1      30.067 -19.804   0.121  1.00  0.00    -0.212 OA
HETATM    9  C4  UNL     1      29.370 -20.838   0.698  1.00  0.00     0.315 C 
ENDROOT
TORSDOF 0
ENDMDL
MODEL 5
REMARK VINA RESULT: -4.481063016      2.326      2.953
REMARK  0 active torsions:
REMARK  status: ('A' for Active; 'I' for Inactive)
ROOT
HETATM    1  O1  UNL     1      30.751 -18.698   3.472  1.00  0.00    -0.226 OA
HETATM    2  S1  UNL     1      29.684 -19.292   2.034  1.00  0.00     0.190 S 
HETATM    3  O2  UNL     1      30.741 -21.463   1.774  1.00  0.00    -0.281 OA
HETATM    4  C1  UNL     1      29.405 -21.642   1.386  1.00  0.00     0.211 C 
HETATM    5  C2  UNL     1      28.859 -22.998   1.582  1.00  0.00     0.037 C 
HETATM    6  C3  UNL     1      27.581 -23.127   1.848  1.00  0.00     0.174 C 
HETATM    7  O3  UNL     1      26.745 -21.994   1.944  1.00  0.00    -0.209 OA
HETATM    8  O4  UNL     1      27.259 -20.764   1.675  1.00  0.00    -0.212 OA
HETATM    9  C4  UNL     1      28.514 -20.721   2.234  1.00  0.00     0.315 C 
ENDROOT
TORSDOF 0
ENDMDL
