MODEL 1
REMARK VINA RESULT: -4.984852116      0.000      0.000
REMARK  1 active torsions:
REMARK  status: ('A' for Active; 'I' for Inactive)
REMARK    1  A    between atoms: C4_7  and  O4_8 
ROOT
HETATM    1  O1  UNL     1      26.350 -21.366   2.150  1.00  0.00    -0.258 OA
HETATM    2  C1  UNL     1      27.501 -21.317   1.661  1.00  0.00     0.334 C 
HETATM    3  O2  UNL     1      28.045 -20.127   1.206  1.00  0.00    -0.313 OA
HETATM    4  C2  UNL     1      29.117 -20.255   0.288  1.00  0.00     0.222 C 
HETATM    5  C3  UNL     1      29.803 -21.609   0.462  1.00  0.00     0.218 C 
HETATM    6  O3  UNL     1      28.893 -22.615   0.236  1.00  0.00    -0.320 OA
HETATM    7  C4  UNL     1      28.354 -22.525   1.539  1.00  0.00     0.310 C 
HETATM    8  S1  UNL     1      29.991 -22.085   2.172  1.00  0.00    -0.057 SA
ENDROOT
BRANCH   7   9
HETATM    9  O4  UNL     1      27.816 -23.689   2.028  1.00  0.00    -0.349 OA
ATOM     10  H4  UNL     1      27.349 -24.226   1.398  1.00  0.00     0.214 HD
ENDBRANCH   7   9
TORSDOF 1
ENDMDL
MODEL 2
REMARK VINA RESULT: -4.943520062      1.619      2.626
REMARK  1 active torsions:
REMARK  status: ('A' for Active; 'I' for Inactive)
REMARK    1  A    between atoms: C4_7  and  O4_8 
ROOT
HETATM    1  O1  UNL     1      26.647 -21.950   1.956  1.00  0.00    -0.258 OA
HETATM    2  C1  UNL     1      27.806 -21.531   1.739  1.00  0.00     0.334 C 
HETATM    3  O2  UNL     1      28.922 -22.254   2.125  1.00  0.00    -0.313 OA
HETATM    4  C2  UNL     1      30.123 -21.509   2.247  1.00  0.00     0.222 C 
HETATM    5  C3  UNL     1      30.056 -20.254   1.379  1.00  0.00     0.218 C 
HETATM    6  O3  UNL     1      28.998 -19.474   1.783  1.00  0.00    -0.320 OA
HETATM    7  C4  UNL     1      28.057 -20.237   1.057  1.00  0.00     0.310 C 
HETATM    8  S1  UNL     1      29.308 -20.544  -0.216  1.00  0.00    -0.057 SA
ENDROOT
BRANCH   7   9
HETATM    9  O4  UNL     1      26.942 -19.550   0.647  1.00  0.00    -0.349 OA
ATOM     10  H4  UNL     1      27.065 -18.624   0.480  1.00  0.00     0.214 HD
ENDBRANCH   7   9
TORSDOF 1
ENDMDL
MODEL 3
REMARK VINA RESULT: -4.923985823      1.989      3.159
REMARK  1 active torsions:
REMARK  status: ('A' for Active; 'I' for Inactive)
REMARK    1  A    between atoms: C4_7  and  O4_8 
ROOT
HETATM    1  O1  UNL     1      30.677 -19.759  -0.639  1.00  0.00    -0.258 OA
HETATM    2  C1  UNL     1      30.098 -20.437   0.238  1.00  0.00     0.334 C 
HETATM    3  O2  UNL     1      30.758 -20.867   1.376  1.00  0.00    -0.313 OA
HETATM    4  C2  UNL     1      30.170 -21.970   2.046  1.00  0.00     0.222 C 
HETATM    5  C3  UNL     1      28.678 -22.048   1.725  1.00  0.00     0.218 C 
HETATM    6  O3  UNL     1      28.510 -22.202   0.369  1.00  0.00    -0.320 OA
HETATM    7  C4  UNL     1      28.669 -20.822   0.114  1.00  0.00     0.310 C 
HETATM    8  S1  UNL     1      27.882 -20.451   1.701  1.00  0.00    -0.057 SA
ENDROOT
BRANCH   7   9
HETATM    9  O4  UNL     1      28.019 -20.356  -1.001  1.00  0.00    -0.349 OA
ATOM     10  H4  UNL     1      27.390 -20.952  -1.392  1.00  0.00     0.214 HD
ENDBRANCH   7   9
TORSDOF 1
ENDMDL
MODEL 4
REMARK VINA RESULT: -4.773182539      1.898      2.330
REMARK  1 active torsions:
REMARK  status: ('A' for Active; 'I' for Inactive)
REMARK    1  A    between atoms: C4_7  and  O4_8 
ROOT
HETATM    1  O1  UNL     1      26.716 -20.367   0.506  1.00  0.00    -0.258 OA
HETATM    2  C1  UNL     1      27.875 -20.355   0.976  1.00  0.00     0.334 C 
HETATM    3  O2  UNL     1      28.125 -19.962   2.280  1.00  0.00    -0.313 OA
HETATM    4  C2  UNL     1      29.455 -19.555   2.554  1.00  0.00     0.222 C 
HETATM    5  C3  UNL     1      30.418 -20.187   1.550  1.00  0.00     0.218 C 
HETATM    6  O3  UNL     1      30.078 -19.791   0.278  1.00  0.00    -0.320 OA
HETATM    7  C4  UNL     1      29.053 -20.758   0.168  1.00  0.00     0.310 C 
HETATM    8  S1  UNL     1      30.031 -21.891   1.185  1.00  0.00    -0.057 SA
ENDROOT
BRANCH   7   9
HETATM    9  O4  UNL     1      28.786 -21.179  -1.111  1.00  0.00    -0.349 OA
ATOM     10  H4  UNL     1      29.283 -20.754  -1.799  1.00  0.00     0.214 HD
ENDBRANCH   7   9
TORSDOF 1
ENDMDL
MODEL 5
REMARK VINA RESULT: -4.491101273      1.249      2.253
REMARK  1 active torsions:
REMARK  status: ('A' for Active; 'I' for Inactive)
REMARK    1  A    between atoms: C4_7  and  O4_8 
ROOT
HETATM    1  O1  UNL     1      28.074 -23.716   2.030  1.00  0.00    -0.258 OA
HETATM    2  C1  UNL     1      27.951 -22.502   1.755  1.00  0.00     0.334 C 
HETATM    3  O2  UNL     1      26.767 -21.822   1.986  1.00  0.00    -0.313 OA
HETATM    4  C2  UNL     1      26.591 -20.628   1.242  1.00  0.00     0.222 C 
HETATM    5  C3  UNL     1      27.946 -20.062   0.822  1.00  0.00     0.218 C 
HETATM    6  O3  UNL     1      28.606 -20.984   0.045  1.00  0.00    -0.320 OA
HETATM    7  C4  UNL     1      29.063 -21.716   1.164  1.00  0.00     0.310 C 
HETATM    8  S1  UNL     1      29.181 -20.174   2.106  1.00  0.00    -0.057 SA
ENDROOT
BRANCH   7   9
HETATM    9  O4  UNL     1      30.241 -22.394   0.975  1.00  0.00    -0.349 OA
ATOM     10  H4  UNL     1      30.166 -23.244   0.557  1.00  0.00     0.214 HD
ENDBRANCH   7   9
TORSDOF 1
ENDMDL
