MODEL 1
REMARK VINA RESULT: -5.689496464      0.000      0.000
REMARK  0 active torsions:
REMARK  status: ('A' for Active; 'I' for Inactive)
ROOT
HETATM    1  C1  UNL     1      30.854 -22.041   1.463  1.00  0.00     0.067 C 
HETATM    2  C2  UNL     1      30.227 -21.189   0.392  1.00  0.00     0.153 C 
HETATM    3  C3  UNL     1      31.271 -21.148  -0.740  1.00  0.00     0.067 C 
HETATM    4  N1  UNL     1      29.081 -21.874  -0.147  1.00  0.00    -0.051 NA
HETATM    5  O1  UNL     1      28.055 -22.019   0.723  1.00  0.00    -0.180 OA
HETATM    6  C4  UNL     1      27.547 -21.103   1.628  1.00  0.00     0.427 C 
HETATM    7  O2  UNL     1      26.403 -21.311   2.114  1.00  0.00    -0.228 OA
HETATM    8  O3  UNL     1      28.152 -19.945   2.090  1.00  0.00    -0.271 OA
HETATM    9  C5  UNL     1      29.559 -19.665   2.012  1.00  0.00     0.353 C 
HETATM   10  O4  UNL     1      30.008 -19.892   0.747  1.00  0.00    -0.338 OA
ENDROOT
TORSDOF 0
ENDMDL
MODEL 2
REMARK VINA RESULT: -5.313062850      1.809      2.769
REMARK  0 active torsions:
REMARK  status: ('A' for Active; 'I' for Inactive)
ROOT
HETATM    1  C1  UNL     1      29.678 -20.328   0.455  1.00  0.00     0.067 C 
HETATM    2  C2  UNL     1      29.369 -20.440   1.924  1.00  0.00     0.153 C 
HETATM    3  C3  UNL     1      29.649 -19.037   2.494  1.00  0.00     0.067 C 
HETATM    4  N1  UNL     1      27.957 -20.665   2.094  1.00  0.00    -0.051 NA
HETATM    5  O1  UNL     1      27.520 -21.858   1.630  1.00  0.00    -0.180 OA
HETATM    6  C4  UNL     1      28.110 -23.105   1.746  1.00  0.00     0.427 C 
HETATM    7  O2  UNL     1      27.402 -24.126   1.532  1.00  0.00    -0.228 OA
HETATM    8  O3  UNL     1      29.425 -23.391   2.078  1.00  0.00    -0.271 OA
HETATM    9  C5  UNL     1      30.515 -22.459   1.998  1.00  0.00     0.353 C 
HETATM   10  O4  UNL     1      30.175 -21.293   2.614  1.00  0.00    -0.338 OA
ENDROOT
TORSDOF 0
ENDMDL
MODEL 3
REMARK VINA RESULT: -5.198248042      1.812      3.282
REMARK  0 active torsions:
REMARK  status: ('A' for Active; 'I' for Inactive)
ROOT
HETATM    1  C1  UNL     1      27.649 -21.020   1.823  1.00  0.00     0.067 C 
HETATM    2  C2  UNL     1      28.612 -22.121   1.467  1.00  0.00     0.153 C 
HETATM    3  C3  UNL     1      27.880 -23.422   1.847  1.00  0.00     0.067 C 
HETATM    4  N1  UNL     1      28.777 -22.161   0.037  1.00  0.00    -0.051 NA
HETATM    5  O1  UNL     1      29.395 -21.077  -0.485  1.00  0.00    -0.180 OA
HETATM    6  C4  UNL     1      30.495 -20.387  -0.004  1.00  0.00     0.427 C 
HETATM    7  O2  UNL     1      31.109 -19.615  -0.788  1.00  0.00    -0.228 OA
HETATM    8  O3  UNL     1      31.031 -20.435   1.273  1.00  0.00    -0.271 OA
HETATM    9  C5  UNL     1      30.338 -20.910   2.439  1.00  0.00     0.353 C 
HETATM   10  O4  UNL     1      29.771 -22.120   2.181  1.00  0.00    -0.338 OA
ENDROOT
TORSDOF 0
ENDMDL
MODEL 4
REMARK VINA RESULT: -5.101907658      1.612      2.547
REMARK  0 active torsions:
REMARK  status: ('A' for Active; 'I' for Inactive)
ROOT
HETATM    1  C1  UNL     1      30.129 -21.972   0.315  1.00  0.00     0.067 C 
HETATM    2  C2  UNL     1      29.989 -21.992   1.814  1.00  0.00     0.153 C 
HETATM    3  C3  UNL     1      31.429 -22.132   2.342  1.00  0.00     0.067 C 
HETATM    4  N1  UNL     1      29.524 -20.705   2.262  1.00  0.00    -0.051 NA
HETATM    5  O1  UNL     1      28.264 -20.398   1.874  1.00  0.00    -0.180 OA
HETATM    6  C4  UNL     1      27.143 -21.207   1.844  1.00  0.00     0.427 C 
HETATM    7  O2  UNL     1      26.010 -20.660   1.758  1.00  0.00    -0.228 OA
HETATM    8  O3  UNL     1      27.096 -22.592   1.897  1.00  0.00    -0.271 OA
HETATM    9  C5  UNL     1      28.203 -23.463   1.616  1.00  0.00     0.353 C 
HETATM   10  O4  UNL     1      29.301 -23.057   2.310  1.00  0.00    -0.338 OA
ENDROOT
TORSDOF 0
ENDMDL
MODEL 5
REMARK VINA RESULT: -5.035361142      1.993      3.229
REMARK  0 active torsions:
REMARK  status: ('A' for Active; 'I' for Inactive)
ROOT
HETATM    1  C1  UNL     1      29.085 -22.058   0.274  1.00  0.00     0.067 C 
HETATM    2  C2  UNL     1      28.688 -22.267   1.710  1.00  0.00     0.153 C 
HETATM    3  C3  UNL     1      27.900 -23.591   1.713  1.00  0.00     0.067 C 
HETATM    4  N1  UNL     1      29.869 -22.506   2.498  1.00  0.00    -0.051 NA
HETATM    5  O1  UNL     1      30.701 -21.443   2.596  1.00  0.00    -0.180 OA
HETATM    6  C4  UNL     1      30.387 -20.109   2.793  1.00  0.00     0.427 C 
HETATM    7  O2  UNL     1      31.300 -19.328   3.173  1.00  0.00    -0.228 OA
HETATM    8  O3  UNL     1      29.157 -19.495   2.620  1.00  0.00    -0.271 OA
HETATM    9  C5  UNL     1      28.069 -20.034   1.852  1.00  0.00     0.353 C 
HETATM   10  O4  UNL     1      27.841 -21.326   2.212  1.00  0.00    -0.338 OA
ENDROOT
TORSDOF 0
ENDMDL
