MODEL 1
REMARK VINA RESULT: -5.046935825      0.000      0.000
REMARK  9 active torsions:
REMARK  status: ('A' for Active; 'I' for Inactive)
REMARK    1  A    between atoms: C2_2  and  C3_3 
REMARK    2  A    between atoms: C3_3  and  O1_4 
REMARK    3  A    between atoms: O1_4  and  C4_5 
REMARK    4  A    between atoms: C10_11  and  O2_12 
REMARK    5  A    between atoms: C10_11  and  S1_15 
REMARK    6  A    between atoms: O2_12  and  O3_13 
REMARK    7  A    between atoms: C12_17  and  C14_19 
REMARK    8  A    between atoms: C15_20  and  C16_21 
REMARK    9  A    between atoms: C16_21  and  O4_22 
ROOT
HETATM    1  C4  UNL     1      13.957  -7.754   1.562  1.00  0.00     0.170 C 
HETATM    2  C5  UNL     1      13.615  -8.253   2.952  1.00  0.00     0.042 C 
HETATM    3  C6  UNL     1      14.216  -9.579   3.265  1.00  0.00     0.005 A 
HETATM    4  C7  UNL     1      15.650  -9.562   3.630  1.00  0.00     0.003 A 
HETATM    5  C8  UNL     1      16.295  -8.222   3.487  1.00  0.00     0.010 C 
HETATM    6  C9  UNL     1      16.393  -7.911   2.004  1.00  0.00     0.056 C 
HETATM    7  C10 UNL     1      15.271  -7.017   1.540  1.00  0.00     0.169 C 
HETATM    8  C12 UNL     1      14.677  -9.895   4.663  1.00  0.00    -0.018 A 
HETATM    9  C13 UNL     1      14.328  -8.980   5.791  1.00  0.00     0.020 C 
ENDROOT
BRANCH   8  10
HETATM   10  C14 UNL     1      14.544 -11.358   5.021  1.00  0.00    -0.019 C 
HETATM   11  C15 UNL     1      15.314 -11.933   5.904  1.00  0.00    -0.004 C 
BRANCH  11  12
HETATM   12  C16 UNL     1      15.144 -13.373   6.221  1.00  0.00     0.191 C 
BRANCH  12  13
HETATM   13  O4  UNL     1      16.177 -14.072   5.600  1.00  0.00    -0.397 OA
ATOM     14  H4  UNL     1      16.533 -14.688   6.230  1.00  0.00     0.209 HD
ENDBRANCH  12  13
ENDBRANCH  11  12
ENDBRANCH   8  10
BRANCH   1  15
HETATM   15  O1  UNL     1      12.959  -6.856   1.198  1.00  0.00    -0.382 OA
BRANCH  15  16
HETATM   16  C3  UNL     1      11.758  -7.510   1.012  1.00  0.00     0.168 C 
BRANCH  16  17
HETATM   17  C2  UNL     1      11.799  -8.425  -0.171  1.00  0.00     0.022 C 
HETATM   18  C1  UNL     1      11.128  -9.740   0.161  1.00  0.00     0.007 C 
ENDBRANCH  16  17
ENDBRANCH  15  16
ENDBRANCH   1  15
BRANCH   7  19
HETATM   19  O2  UNL     1      15.234  -5.923   2.407  1.00  0.00    -0.218 OA
BRANCH  19  20
HETATM   20  O3  UNL     1      15.017  -4.861   1.629  1.00  0.00    -0.249 OA
ATOM     21  H3  UNL     1      15.715  -4.249   1.835  1.00  0.00     0.253 HD
ENDBRANCH  19  20
ENDBRANCH   7  19
BRANCH   7  22
HETATM   22  S1  UNL     1      15.600  -6.485  -0.150  1.00  0.00    -0.130 SA
HETATM   23  C11 UNL     1      17.346  -6.462  -0.553  1.00  0.00     0.093 C 
ENDBRANCH   7  22
TORSDOF 9
ENDMDL
MODEL 2
REMARK VINA RESULT: -5.041525737      0.929      1.403
REMARK  9 active torsions:
REMARK  status: ('A' for Active; 'I' for Inactive)
REMARK    1  A    between atoms: C2_2  and  C3_3 
REMARK    2  A    between atoms: C3_3  and  O1_4 
REMARK    3  A    between atoms: O1_4  and  C4_5 
REMARK    4  A    between atoms: C10_11  and  O2_12 
REMARK    5  A    between atoms: C10_11  and  S1_15 
REMARK    6  A    between atoms: O2_12  and  O3_13 
REMARK    7  A    between atoms: C12_17  and  C14_19 
REMARK    8  A    between atoms: C15_20  and  C16_21 
REMARK    9  A    between atoms: C16_21  and  O4_22 
ROOT
HETATM    1  C4  UNL     1      13.962  -7.805   1.570  1.00  0.00     0.170 C 
HETATM    2  C5  UNL     1      13.583  -8.309   2.948  1.00  0.00     0.042 C 
HETATM    3  C6  UNL     1      14.194  -9.626   3.281  1.00  0.00     0.005 A 
HETATM    4  C7  UNL     1      15.615  -9.586   3.692  1.00  0.00     0.003 A 
HETATM    5  C8  UNL     1      16.244  -8.236   3.570  1.00  0.00     0.010 C 
HETATM    6  C9  UNL     1      16.385  -7.925   2.091  1.00  0.00     0.056 C 
HETATM    7  C10 UNL     1      15.264  -7.049   1.589  1.00  0.00     0.169 C 
HETATM    8  C12 UNL     1      14.614  -9.934   4.694  1.00  0.00    -0.018 A 
HETATM    9  C13 UNL     1      14.215  -9.024   5.810  1.00  0.00     0.020 C 
ENDROOT
BRANCH   8  10
HETATM   10  C14 UNL     1      14.492 -11.398   5.049  1.00  0.00    -0.019 C 
HETATM   11  C15 UNL     1      15.315 -11.988   5.872  1.00  0.00    -0.004 C 
BRANCH  11  12
HETATM   12  C16 UNL     1      15.154 -13.430   6.188  1.00  0.00     0.191 C 
BRANCH  12  13
HETATM   13  O4  UNL     1      16.187 -14.124   5.561  1.00  0.00    -0.397 OA
ATOM     14  H4  UNL     1      15.819 -14.579   4.812  1.00  0.00     0.209 HD
ENDBRANCH  12  13
ENDBRANCH  11  12
ENDBRANCH   8  10
BRANCH   1  15
HETATM   15  O1  UNL     1      12.963  -6.923   1.173  1.00  0.00    -0.382 OA
BRANCH  15  16
HETATM   16  C3  UNL     1      11.829  -7.092   1.942  1.00  0.00     0.168 C 
BRANCH  16  17
HETATM   17  C2  UNL     1      10.930  -5.897   1.882  1.00  0.00     0.022 C 
HETATM   18  C1  UNL     1      11.748  -4.637   1.694  1.00  0.00     0.007 C 
ENDBRANCH  16  17
ENDBRANCH  15  16
ENDBRANCH   1  15
BRANCH   7  19
HETATM   19  O2  UNL     1      15.183  -5.955   2.454  1.00  0.00    -0.218 OA
BRANCH  19  20
HETATM   20  O3  UNL     1      15.188  -4.878   1.665  1.00  0.00    -0.249 OA
ATOM     21  H3  UNL     1      14.278  -4.730   1.434  1.00  0.00     0.253 HD
ENDBRANCH  19  20
ENDBRANCH   7  19
BRANCH   7  22
HETATM   22  S1  UNL     1      15.640  -6.512  -0.090  1.00  0.00    -0.130 SA
HETATM   23  C11 UNL     1      17.387  -6.595  -0.481  1.00  0.00     0.093 C 
ENDBRANCH   7  22
TORSDOF 9
ENDMDL
MODEL 3
REMARK VINA RESULT: -4.987506063      2.861      3.915
REMARK  9 active torsions:
REMARK  status: ('A' for Active; 'I' for Inactive)
REMARK    1  A    between atoms: C2_2  and  C3_3 
REMARK    2  A    between atoms: C3_3  and  O1_4 
REMARK    3  A    between atoms: O1_4  and  C4_5 
REMARK    4  A    between atoms: C10_11  and  O2_12 
REMARK    5  A    between atoms: C10_11  and  S1_15 
REMARK    6  A    between atoms: O2_12  and  O3_13 
REMARK    7  A    between atoms: C12_17  and  C14_19 
REMARK    8  A    between atoms: C15_20  and  C16_21 
REMARK    9  A    between atoms: C16_21  and  O4_22 
ROOT
HETATM    1  C4  UNL     1      14.600  -5.502   0.235  1.00  0.00     0.170 C 
HETATM    2  C5  UNL     1      14.922  -6.118   1.582  1.00  0.00     0.042 C 
HETATM    3  C6  UNL     1      14.087  -7.310   1.898  1.00  0.00     0.005 A 
HETATM    4  C7  UNL     1      14.490  -8.568   1.233  1.00  0.00     0.003 A 
HETATM    5  C8  UNL     1      15.593  -8.402   0.239  1.00  0.00     0.010 C 
HETATM    6  C9  UNL     1      15.034  -7.640  -0.948  1.00  0.00     0.056 C 
HETATM    7  C10 UNL     1      15.362  -6.169  -0.881  1.00  0.00     0.169 C 
HETATM    8  C12 UNL     1      14.667  -8.461   2.676  1.00  0.00    -0.018 A 
HETATM    9  C13 UNL     1      16.001  -8.323   3.335  1.00  0.00     0.020 C 
ENDROOT
BRANCH   8  10
HETATM   10  C14 UNL     1      13.650  -9.174   3.538  1.00  0.00    -0.019 C 
HETATM   11  C15 UNL     1      13.919  -9.571   4.752  1.00  0.00    -0.004 C 
BRANCH  11  12
HETATM   12  C16 UNL     1      12.886 -10.268   5.558  1.00  0.00     0.191 C 
BRANCH  12  13
HETATM   13  O4  UNL     1      11.890  -9.344   5.869  1.00  0.00    -0.397 OA
ATOM     14  H4  UNL     1      12.026  -9.059   6.765  1.00  0.00     0.209 HD
ENDBRANCH  12  13
ENDBRANCH  11  12
ENDBRANCH   8  10
BRANCH   1  15
HETATM   15  O1  UNL     1      15.005  -4.173   0.291  1.00  0.00    -0.382 OA
BRANCH  15  16
HETATM   16  C3  UNL     1      14.043  -3.396   0.904  1.00  0.00     0.168 C 
BRANCH  16  17
HETATM   17  C2  UNL     1      12.768  -3.366   0.121  1.00  0.00     0.022 C 
HETATM   18  C1  UNL     1      12.882  -2.387  -1.027  1.00  0.00     0.007 C 
ENDBRANCH  16  17
ENDBRANCH  15  16
ENDBRANCH   1  15
BRANCH   7  19
HETATM   19  O2  UNL     1      16.738  -6.068  -0.664  1.00  0.00    -0.218 OA
BRANCH  19  20
HETATM   20  O3  UNL     1      17.134  -5.015  -1.383  1.00  0.00    -0.249 OA
ATOM     21  H3  UNL     1      17.947  -5.282  -1.795  1.00  0.00     0.253 HD
ENDBRANCH  19  20
ENDBRANCH   7  19
BRANCH   7  22
HETATM   22  S1  UNL     1      14.900  -5.388  -2.438  1.00  0.00    -0.130 SA
HETATM   23  C11 UNL     1      13.172  -5.620  -2.856  1.00  0.00     0.093 C 
ENDBRANCH   7  22
TORSDOF 9
ENDMDL
MODEL 4
REMARK VINA RESULT: -4.976913742      9.694     12.810
REMARK  9 active torsions:
REMARK  status: ('A' for Active; 'I' for Inactive)
REMARK    1  A    between atoms: C2_2  and  C3_3 
REMARK    2  A    between atoms: C3_3  and  O1_4 
REMARK    3  A    between atoms: O1_4  and  C4_5 
REMARK    4  A    between atoms: C10_11  and  O2_12 
REMARK    5  A    between atoms: C10_11  and  S1_15 
REMARK    6  A    between atoms: O2_12  and  O3_13 
REMARK    7  A    between atoms: C12_17  and  C14_19 
REMARK    8  A    between atoms: C15_20  and  C16_21 
REMARK    9  A    between atoms: C16_21  and  O4_22 
ROOT
HETATM    1  C4  UNL     1      25.692  -8.689  -5.056  1.00  0.00     0.170 C 
HETATM    2  C5  UNL     1      24.423  -8.679  -4.227  1.00  0.00     0.042 C 
HETATM    3  C6  UNL     1      24.502  -7.781  -3.041  1.00  0.00     0.005 A 
HETATM    4  C7  UNL     1      24.326  -6.338  -3.319  1.00  0.00     0.003 A 
HETATM    5  C8  UNL     1      24.235  -6.007  -4.773  1.00  0.00     0.010 C 
HETATM    6  C9  UNL     1      25.607  -6.231  -5.384  1.00  0.00     0.056 C 
HETATM    7  C10 UNL     1      25.709  -7.572  -6.067  1.00  0.00     0.169 C 
HETATM    8  C12 UNL     1      23.284  -7.031  -2.571  1.00  0.00    -0.018 A 
HETATM    9  C13 UNL     1      21.940  -7.355  -3.139  1.00  0.00     0.020 C 
ENDROOT
BRANCH   8  10
HETATM   10  C14 UNL     1      23.259  -6.806  -1.077  1.00  0.00    -0.019 C 
HETATM   11  C15 UNL     1      22.253  -6.233  -0.474  1.00  0.00    -0.004 C 
BRANCH  11  12
HETATM   12  C16 UNL     1      22.276  -6.034   0.997  1.00  0.00     0.191 C 
BRANCH  12  13
HETATM   13  O4  UNL     1      23.280  -5.113   1.288  1.00  0.00    -0.397 OA
ATOM     14  H4  UNL     1      23.322  -5.015   2.233  1.00  0.00     0.209 HD
ENDBRANCH  12  13
ENDBRANCH  11  12
ENDBRANCH   8  10
BRANCH   1  15
HETATM   15  O1  UNL     1      25.711  -9.893  -5.751  1.00  0.00    -0.382 OA
BRANCH  15  16
HETATM   16  C3  UNL     1      24.631 -10.678  -5.398  1.00  0.00     0.168 C 
BRANCH  16  17
HETATM   17  C2  UNL     1      24.277 -11.656  -6.473  1.00  0.00     0.022 C 
HETATM   18  C1  UNL     1      22.875 -12.184  -6.258  1.00  0.00     0.007 C 
ENDBRANCH  16  17
ENDBRANCH  15  16
ENDBRANCH   1  15
BRANCH   7  19
HETATM   19  O2  UNL     1      24.615  -7.676  -6.929  1.00  0.00    -0.218 OA
BRANCH  19  20
HETATM   20  O3  UNL     1      25.086  -8.264  -8.030  1.00  0.00    -0.249 OA
ATOM     21  H3  UNL     1      25.097  -9.194  -7.835  1.00  0.00     0.253 HD
ENDBRANCH  19  20
ENDBRANCH   7  19
BRANCH   7  22
HETATM   22  S1  UNL     1      27.258  -7.653  -6.984  1.00  0.00    -0.130 SA
HETATM   23  C11 UNL     1      27.848  -6.044  -7.511  1.00  0.00     0.093 C 
ENDBRANCH   7  22
TORSDOF 9
ENDMDL
MODEL 5
REMARK VINA RESULT: -4.934633180      7.373     11.191
REMARK  9 active torsions:
REMARK  status: ('A' for Active; 'I' for Inactive)
REMARK    1  A    between atoms: C2_2  and  C3_3 
REMARK    2  A    between atoms: C3_3  and  O1_4 
REMARK    3  A    between atoms: O1_4  and  C4_5 
REMARK    4  A    between atoms: C10_11  and  O2_12 
REMARK    5  A    between atoms: C10_11  and  S1_15 
REMARK    6  A    between atoms: O2_12  and  O3_13 
REMARK    7  A    between atoms: C12_17  and  C14_19 
REMARK    8  A    between atoms: C15_20  and  C16_21 
REMARK    9  A    between atoms: C16_21  and  O4_22 
ROOT
HETATM    1  C4  UNL     1      21.031  -6.908  -2.456  1.00  0.00     0.170 C 
HETATM    2  C5  UNL     1      21.968  -7.594  -3.429  1.00  0.00     0.042 C 
HETATM    3  C6  UNL     1      23.123  -6.745  -3.832  1.00  0.00     0.005 A 
HETATM    4  C7  UNL     1      24.223  -6.652  -2.847  1.00  0.00     0.003 A 
HETATM    5  C8  UNL     1      23.928  -7.320  -1.543  1.00  0.00     0.010 C 
HETATM    6  C9  UNL     1      22.864  -6.500  -0.835  1.00  0.00     0.056 C 
HETATM    7  C10 UNL     1      21.484  -7.076  -1.029  1.00  0.00     0.169 C 
HETATM    8  C12 UNL     1      24.470  -7.365  -4.094  1.00  0.00    -0.018 A 
HETATM    9  C13 UNL     1      24.607  -8.851  -4.179  1.00  0.00     0.020 C 
ENDROOT
BRANCH   8  10
HETATM   10  C14 UNL     1      25.273  -6.634  -5.145  1.00  0.00    -0.019 C 
HETATM   11  C15 UNL     1      26.142  -7.240  -5.907  1.00  0.00    -0.004 C 
BRANCH  11  12
HETATM   12  C16 UNL     1      26.906  -6.476  -6.925  1.00  0.00     0.191 C 
BRANCH  12  13
HETATM   13  O4  UNL     1      26.842  -5.126  -6.586  1.00  0.00    -0.397 OA
ATOM     14  H4  UNL     1      26.505  -4.652  -7.337  1.00  0.00     0.209 HD
ENDBRANCH  12  13
ENDBRANCH  11  12
ENDBRANCH   8  10
BRANCH   1  15
HETATM   15  O1  UNL     1      19.791  -7.525  -2.585  1.00  0.00    -0.382 OA
BRANCH  15  16
HETATM   16  C3  UNL     1      19.756  -8.317  -3.715  1.00  0.00     0.168 C 
BRANCH  16  17
HETATM   17  C2  UNL     1      18.421  -8.968  -3.899  1.00  0.00     0.022 C 
HETATM   18  C1  UNL     1      17.905  -9.484  -2.573  1.00  0.00     0.007 C 
ENDBRANCH  16  17
ENDBRANCH  15  16
ENDBRANCH   1  15
BRANCH   7  19
HETATM   19  O2  UNL     1      21.556  -8.430  -0.695  1.00  0.00    -0.218 OA
BRANCH  19  20
HETATM   20  O3  UNL     1      20.360  -8.734  -0.186  1.00  0.00    -0.249 OA
ATOM     21  H3  UNL     1      20.522  -9.429   0.442  1.00  0.00     0.253 HD
ENDBRANCH  19  20
ENDBRANCH   7  19
BRANCH   7  22
HETATM   22  S1  UNL     1      20.325  -6.211   0.046  1.00  0.00    -0.130 SA
HETATM   23  C11 UNL     1      21.132  -5.295   1.358  1.00  0.00     0.093 C 
ENDBRANCH   7  22
TORSDOF 9
ENDMDL
