MODEL 1
REMARK VINA RESULT: -5.951118540      0.000      0.000
REMARK  10 active torsions:
REMARK  status: ('A' for Active; 'I' for Inactive)
REMARK    1  A    between atoms: C2_2  and  C3_3 
REMARK    2  A    between atoms: C3_3  and  C4_4 
REMARK    3  A    between atoms: C4_4  and  C5_5 
REMARK    4  A    between atoms: C5_5  and  C6_6 
REMARK    5  A    between atoms: C6_6  and  C7_7 
REMARK    6  A    between atoms: C7_7  and  C8_8 
REMARK    7  A    between atoms: C9_9  and  O1_10 
REMARK    8  A    between atoms: N1_12  and  C10_13 
REMARK    9  A    between atoms: C14_17  and  N2_18 
REMARK   10  A    between atoms: N3_21  and  C15_22 
ROOT
HETATM    1  C8  UNL     1      14.396  -8.896   3.769  1.00  0.00     0.062 A 
HETATM    2  C9  UNL     1      15.379  -8.416   2.943  1.00  0.00     0.170 A 
HETATM    3  N1  UNL     1      15.084  -7.732   1.786  1.00  0.00    -0.153 N 
HETATM    4  C14 UNL     1      13.807  -7.552   1.495  1.00  0.00     0.685 A 
HETATM    5  N3  UNL     1      12.805  -8.028   2.315  1.00  0.00    -0.147 N 
HETATM    6  C17 UNL     1      13.079  -8.690   3.436  1.00  0.00     0.272 A 
HETATM    7  O2  UNL     1      12.132  -9.123   4.182  1.00  0.00    -0.267 OA
ENDROOT
BRANCH   1   8
HETATM    8  C7  UNL     1      14.700  -9.636   5.035  1.00  0.00     0.052 C 
BRANCH   8   9
HETATM    9  C6  UNL     1      14.968 -11.069   4.786  1.00  0.00     0.032 C 
BRANCH   9  10
HETATM   10  C5  UNL     1      14.887 -11.993   5.928  1.00  0.00    -0.030 C 
BRANCH  10  11
HETATM   11  C4  UNL     1      15.715 -13.186   6.052  1.00  0.00    -0.031 C 
BRANCH  11  12
HETATM   12  C3  UNL     1      15.486 -14.197   7.101  1.00  0.00     0.026 C 
BRANCH  12  13
HETATM   13  C2  UNL     1      15.838 -13.472   8.442  1.00  0.00    -0.001 C 
HETATM   14  C1  UNL     1      15.148 -14.206   9.571  1.00  0.00     0.005 C 
ENDBRANCH  12  13
ENDBRANCH  11  12
ENDBRANCH  10  11
ENDBRANCH   9  10
ENDBRANCH   8   9
ENDBRANCH   1   8
BRANCH   2  15
HETATM   15  O1  UNL     1      16.710  -8.651   3.327  1.00  0.00    -0.345 OA
ATOM     16  H1  UNL     1      17.356  -8.721   2.633  1.00  0.00     0.219 HD
ENDBRANCH   2  15
BRANCH   3  17
HETATM   17  C10 UNL     1      16.209  -7.313   1.060  1.00  0.00     0.046 C 
HETATM   18  C11 UNL     1      15.817  -5.972   0.399  1.00  0.00     0.039 C 
HETATM   19  C12 UNL     1      17.512  -7.089   1.679  1.00  0.00     0.039 C 
HETATM   20  C13 UNL     1      16.455  -8.274  -0.128  1.00  0.00     0.039 C 
ENDBRANCH   3  17
BRANCH   5  21
HETATM   21  C15 UNL     1      11.438  -7.786   1.920  1.00  0.00     0.146 C 
HETATM   22  C16 UNL     1      10.824  -6.619   2.661  1.00  0.00     0.027 C 
ENDBRANCH   5  21
BRANCH   4  23
HETATM   23  N2  UNL     1      13.447  -6.958   0.491  1.00  0.00    -0.234 N 
ATOM     24  H22 UNL     1      14.118  -6.304   0.089  1.00  0.00     0.174 HD
ATOM     25  H21 UNL     1      12.528  -7.105   0.074  1.00  0.00     0.174 HD
ENDBRANCH   4  23
TORSDOF 10
ENDMDL
MODEL 2
REMARK VINA RESULT: -5.932477775      3.075      6.594
REMARK  10 active torsions:
REMARK  status: ('A' for Active; 'I' for Inactive)
REMARK    1  A    between atoms: C2_2  and  C3_3 
REMARK    2  A    between atoms: C3_3  and  C4_4 
REMARK    3  A    between atoms: C4_4  and  C5_5 
REMARK    4  A    between atoms: C5_5  and  C6_6 
REMARK    5  A    between atoms: C6_6  and  C7_7 
REMARK    6  A    between atoms: C7_7  and  C8_8 
REMARK    7  A    between atoms: C9_9  and  O1_10 
REMARK    8  A    between atoms: N1_12  and  C10_13 
REMARK    9  A    between atoms: C14_17  and  N2_18 
REMARK   10  A    between atoms: N3_21  and  C15_22 
ROOT
HETATM    1  C8  UNL     1      16.135  -7.075   1.794  1.00  0.00     0.062 A 
HETATM    2  C9  UNL     1      15.299  -6.153   1.220  1.00  0.00     0.170 A 
HETATM    3  N1  UNL     1      13.930  -6.272   1.291  1.00  0.00    -0.153 N 
HETATM    4  C14 UNL     1      13.443  -7.317   1.939  1.00  0.00     0.685 A 
HETATM    5  N3  UNL     1      14.269  -8.255   2.522  1.00  0.00    -0.147 N 
HETATM    6  C17 UNL     1      15.595  -8.149   2.460  1.00  0.00     0.272 A 
HETATM    7  O2  UNL     1      16.343  -9.032   3.010  1.00  0.00    -0.267 OA
ENDROOT
BRANCH   1   8
HETATM    8  C7  UNL     1      17.626  -6.958   1.732  1.00  0.00     0.052 C 
BRANCH   8   9
HETATM    9  C6  UNL     1      18.168  -7.467   0.453  1.00  0.00     0.032 C 
BRANCH   9  10
HETATM   10  C5  UNL     1      19.191  -6.660  -0.231  1.00  0.00    -0.030 C 
BRANCH  10  11
HETATM   11  C4  UNL     1      20.489  -7.190  -0.632  1.00  0.00    -0.031 C 
BRANCH  11  12
HETATM   12  C3  UNL     1      21.757  -6.593  -0.172  1.00  0.00     0.026 C 
BRANCH  12  13
HETATM   13  C2  UNL     1      21.330  -5.418   0.769  1.00  0.00    -0.001 C 
HETATM   14  C1  UNL     1      22.583  -4.800   1.351  1.00  0.00     0.005 C 
ENDBRANCH  12  13
ENDBRANCH  11  12
ENDBRANCH  10  11
ENDBRANCH   9  10
ENDBRANCH   8   9
ENDBRANCH   1   8
BRANCH   2  15
HETATM   15  O1  UNL     1      15.899  -5.073   0.551  1.00  0.00    -0.345 OA
ATOM     16  H1  UNL     1      16.596  -5.276  -0.063  1.00  0.00     0.219 HD
ENDBRANCH   2  15
BRANCH   3  17
HETATM   17  C10 UNL     1      13.227  -5.242   0.649  1.00  0.00     0.046 C 
HETATM   18  C11 UNL     1      13.067  -4.115   1.696  1.00  0.00     0.039 C 
HETATM   19  C12 UNL     1      13.709  -4.594  -0.567  1.00  0.00     0.039 C 
HETATM   20  C13 UNL     1      11.780  -5.701   0.349  1.00  0.00     0.039 C 
ENDBRANCH   3  17
BRANCH   5  21
HETATM   21  C15 UNL     1      13.653  -9.364   3.210  1.00  0.00     0.146 C 
HETATM   22  C16 UNL     1      13.584  -9.147   4.705  1.00  0.00     0.027 C 
ENDBRANCH   5  21
BRANCH   4  23
HETATM   23  N2  UNL     1      12.243  -7.509   2.054  1.00  0.00    -0.234 N 
ATOM     24  H22 UNL     1      11.641  -6.698   1.913  1.00  0.00     0.174 HD
ATOM     25  H21 UNL     1      11.859  -8.426   2.280  1.00  0.00     0.174 HD
ENDBRANCH   4  23
TORSDOF 10
ENDMDL
MODEL 3
REMARK VINA RESULT: -5.887455911      2.568      6.603
REMARK  10 active torsions:
REMARK  status: ('A' for Active; 'I' for Inactive)
REMARK    1  A    between atoms: C2_2  and  C3_3 
REMARK    2  A    between atoms: C3_3  and  C4_4 
REMARK    3  A    between atoms: C4_4  and  C5_5 
REMARK    4  A    between atoms: C5_5  and  C6_6 
REMARK    5  A    between atoms: C6_6  and  C7_7 
REMARK    6  A    between atoms: C7_7  and  C8_8 
REMARK    7  A    between atoms: C9_9  and  O1_10 
REMARK    8  A    between atoms: N1_12  and  C10_13 
REMARK    9  A    between atoms: C14_17  and  N2_18 
REMARK   10  A    between atoms: N3_21  and  C15_22 
ROOT
HETATM    1  C8  UNL     1      15.935  -7.445   1.992  1.00  0.00     0.062 A 
HETATM    2  C9  UNL     1      15.663  -8.063   3.185  1.00  0.00     0.170 A 
HETATM    3  N1  UNL     1      14.449  -8.663   3.430  1.00  0.00    -0.153 N 
HETATM    4  C14 UNL     1      13.545  -8.622   2.467  1.00  0.00     0.685 A 
HETATM    5  N3  UNL     1      13.801  -8.004   1.260  1.00  0.00    -0.147 N 
HETATM    6  C17 UNL     1      14.972  -7.421   1.013  1.00  0.00     0.272 A 
HETATM    7  O2  UNL     1      15.188  -6.853  -0.115  1.00  0.00    -0.267 OA
ENDROOT
BRANCH   1   8
HETATM    8  C7  UNL     1      17.252  -6.792   1.706  1.00  0.00     0.052 C 
BRANCH   8   9
HETATM    9  C6  UNL     1      18.063  -7.581   0.753  1.00  0.00     0.032 C 
BRANCH   9  10
HETATM   10  C5  UNL     1      19.019  -6.857  -0.100  1.00  0.00    -0.030 C 
BRANCH  10  11
HETATM   11  C4  UNL     1      20.298  -7.416  -0.520  1.00  0.00    -0.031 C 
BRANCH  11  12
HETATM   12  C3  UNL     1      21.582  -6.756  -0.214  1.00  0.00     0.026 C 
BRANCH  12  13
HETATM   13  C2  UNL     1      21.199  -5.520   0.665  1.00  0.00    -0.001 C 
HETATM   14  C1  UNL     1      22.468  -4.955   1.265  1.00  0.00     0.005 C 
ENDBRANCH  12  13
ENDBRANCH  11  12
ENDBRANCH  10  11
ENDBRANCH   9  10
ENDBRANCH   8   9
ENDBRANCH   1   8
BRANCH   2  15
HETATM   15  O1  UNL     1      16.680  -8.061   4.155  1.00  0.00    -0.345 OA
ATOM     16  H1  UNL     1      16.482  -8.466   4.991  1.00  0.00     0.219 HD
ENDBRANCH   2  15
BRANCH   3  17
HETATM   17  C10 UNL     1      14.340  -9.247   4.701  1.00  0.00     0.046 C 
HETATM   18  C11 UNL     1      14.903 -10.681   4.563  1.00  0.00     0.039 C 
HETATM   19  C12 UNL     1      14.973  -8.681   5.889  1.00  0.00     0.039 C 
HETATM   20  C13 UNL     1      12.849  -9.449   5.061  1.00  0.00     0.039 C 
ENDBRANCH   3  17
BRANCH   5  21
HETATM   21  C15 UNL     1      12.757  -8.007   0.265  1.00  0.00     0.146 C 
HETATM   22  C16 UNL     1      11.945  -6.730   0.279  1.00  0.00     0.027 C 
ENDBRANCH   5  21
BRANCH   4  23
HETATM   23  N2  UNL     1      12.439  -9.126   2.591  1.00  0.00    -0.234 N 
ATOM     24  H22 UNL     1      11.835  -8.716   3.302  1.00  0.00     0.174 HD
ATOM     25  H21 UNL     1      12.134  -9.913   2.018  1.00  0.00     0.174 HD
ENDBRANCH   4  23
TORSDOF 10
ENDMDL
MODEL 4
REMARK VINA RESULT: -5.859099065      3.758      6.811
REMARK  10 active torsions:
REMARK  status: ('A' for Active; 'I' for Inactive)
REMARK    1  A    between atoms: C2_2  and  C3_3 
REMARK    2  A    between atoms: C3_3  and  C4_4 
REMARK    3  A    between atoms: C4_4  and  C5_5 
REMARK    4  A    between atoms: C5_5  and  C6_6 
REMARK    5  A    between atoms: C6_6  and  C7_7 
REMARK    6  A    between atoms: C7_7  and  C8_8 
REMARK    7  A    between atoms: C9_9  and  O1_10 
REMARK    8  A    between atoms: N1_12  and  C10_13 
REMARK    9  A    between atoms: C14_17  and  N2_18 
REMARK   10  A    between atoms: N3_21  and  C15_22 
ROOT
HETATM    1  C8  UNL     1      16.673  -6.849   0.936  1.00  0.00     0.062 A 
HETATM    2  C9  UNL     1      15.961  -5.891   0.263  1.00  0.00     0.170 A 
HETATM    3  N1  UNL     1      14.608  -5.726   0.454  1.00  0.00    -0.153 N 
HETATM    4  C14 UNL     1      14.013  -6.530   1.319  1.00  0.00     0.685 A 
HETATM    5  N3  UNL     1      14.715  -7.499   2.006  1.00  0.00    -0.147 N 
HETATM    6  C17 UNL     1      16.023  -7.667   1.828  1.00  0.00     0.272 A 
HETATM    7  O2  UNL     1      16.655  -8.573   2.478  1.00  0.00    -0.267 OA
ENDROOT
BRANCH   1   8
HETATM    8  C7  UNL     1      18.147  -7.038   0.745  1.00  0.00     0.052 C 
BRANCH   8   9
HETATM    9  C6  UNL     1      18.445  -7.925  -0.401  1.00  0.00     0.032 C 
BRANCH   9  10
HETATM   10  C5  UNL     1      19.850  -8.063  -0.817  1.00  0.00    -0.030 C 
BRANCH  10  11
HETATM   11  C4  UNL     1      20.747  -6.927  -0.987  1.00  0.00    -0.031 C 
BRANCH  11  12
HETATM   12  C3  UNL     1      21.895  -6.691  -0.090  1.00  0.00     0.026 C 
BRANCH  12  13
HETATM   13  C2  UNL     1      21.461  -5.486   0.808  1.00  0.00    -0.001 C 
HETATM   14  C1  UNL     1      22.709  -4.754   1.252  1.00  0.00     0.005 C 
ENDBRANCH  12  13
ENDBRANCH  11  12
ENDBRANCH  10  11
ENDBRANCH   9  10
ENDBRANCH   8   9
ENDBRANCH   1   8
BRANCH   2  15
HETATM   15  O1  UNL     1      16.670  -5.079  -0.638  1.00  0.00    -0.345 OA
ATOM     16  H1  UNL     1      16.231  -4.300  -0.958  1.00  0.00     0.219 HD
ENDBRANCH   2  15
BRANCH   3  17
HETATM   17  C10 UNL     1      14.037  -4.702  -0.316  1.00  0.00     0.046 C 
HETATM   18  C11 UNL     1      14.416  -5.008  -1.784  1.00  0.00     0.039 C 
HETATM   19  C12 UNL     1      12.605  -4.421  -0.322  1.00  0.00     0.039 C 
HETATM   20  C13 UNL     1      14.740  -3.358  -0.007  1.00  0.00     0.039 C 
ENDBRANCH   3  17
BRANCH   5  21
HETATM   21  C15 UNL     1      13.986  -8.332   2.931  1.00  0.00     0.146 C 
HETATM   22  C16 UNL     1      13.532  -9.630   2.301  1.00  0.00     0.027 C 
ENDBRANCH   5  21
BRANCH   4  23
HETATM   23  N2  UNL     1      12.817  -6.460   1.556  1.00  0.00    -0.234 N 
ATOM     24  H22 UNL     1      12.537  -5.779   2.261  1.00  0.00     0.174 HD
ATOM     25  H21 UNL     1      12.135  -7.047   1.078  1.00  0.00     0.174 HD
ENDBRANCH   4  23
TORSDOF 10
ENDMDL
MODEL 5
REMARK VINA RESULT: -5.763279740      2.479      7.277
REMARK  10 active torsions:
REMARK  status: ('A' for Active; 'I' for Inactive)
REMARK    1  A    between atoms: C2_2  and  C3_3 
REMARK    2  A    between atoms: C3_3  and  C4_4 
REMARK    3  A    between atoms: C4_4  and  C5_5 
REMARK    4  A    between atoms: C5_5  and  C6_6 
REMARK    5  A    between atoms: C6_6  and  C7_7 
REMARK    6  A    between atoms: C7_7  and  C8_8 
REMARK    7  A    between atoms: C9_9  and  O1_10 
REMARK    8  A    between atoms: N1_12  and  C10_13 
REMARK    9  A    between atoms: C14_17  and  N2_18 
REMARK   10  A    between atoms: N3_21  and  C15_22 
ROOT
HETATM    1  C8  UNL     1      13.304  -7.615   1.685  1.00  0.00     0.062 A 
HETATM    2  C9  UNL     1      13.253  -8.328   2.854  1.00  0.00     0.170 A 
HETATM    3  N1  UNL     1      14.387  -8.606   3.584  1.00  0.00    -0.153 N 
HETATM    4  C14 UNL     1      15.538  -8.157   3.113  1.00  0.00     0.685 A 
HETATM    5  N3  UNL     1      15.608  -7.438   1.939  1.00  0.00    -0.147 N 
HETATM    6  C17 UNL     1      14.518  -7.164   1.226  1.00  0.00     0.272 A 
HETATM    7  O2  UNL     1      14.606  -6.494   0.137  1.00  0.00    -0.267 OA
ENDROOT
BRANCH   1   8
HETATM    8  C7  UNL     1      12.080  -7.299   0.882  1.00  0.00     0.052 C 
BRANCH   8   9
HETATM    9  C6  UNL     1      11.434  -6.046   1.331  1.00  0.00     0.032 C 
BRANCH   9  10
HETATM   10  C5  UNL     1      11.462  -4.892   0.419  1.00  0.00    -0.030 C 
BRANCH  10  11
HETATM   11  C4  UNL     1      12.309  -3.725   0.632  1.00  0.00    -0.031 C 
BRANCH  11  12
HETATM   12  C3  UNL     1      13.244  -3.234  -0.398  1.00  0.00     0.026 C 
BRANCH  12  13
HETATM   13  C2  UNL     1      14.598  -3.021   0.356  1.00  0.00    -0.001 C 
HETATM   14  C1  UNL     1      14.395  -3.399   1.807  1.00  0.00     0.005 C 
ENDBRANCH  12  13
ENDBRANCH  11  12
ENDBRANCH  10  11
ENDBRANCH   9  10
ENDBRANCH   8   9
ENDBRANCH   1   8
BRANCH   2  15
HETATM   15  O1  UNL     1      11.989  -8.768   3.283  1.00  0.00    -0.345 OA
ATOM     16  H1  UNL     1      11.260  -8.168   3.172  1.00  0.00     0.219 HD
ENDBRANCH   2  15
BRANCH   3  17
HETATM   17  C10 UNL     1      14.154  -9.346   4.753  1.00  0.00     0.046 C 
HETATM   18  C11 UNL     1      14.952  -8.640   5.873  1.00  0.00     0.039 C 
HETATM   19  C12 UNL     1      12.817  -9.570   5.294  1.00  0.00     0.039 C 
HETATM   20  C13 UNL     1      14.810 -10.743   4.630  1.00  0.00     0.039 C 
ENDBRANCH   3  17
BRANCH   5  21
HETATM   21  C15 UNL     1      16.906  -6.987   1.499  1.00  0.00     0.146 C 
HETATM   22  C16 UNL     1      17.461  -7.836   0.377  1.00  0.00     0.027 C 
ENDBRANCH   5  21
BRANCH   4  23
HETATM   23  N2  UNL     1      16.596  -8.354   3.690  1.00  0.00    -0.234 N 
ATOM     24  H22 UNL     1      17.227  -9.028   3.257  1.00  0.00     0.174 HD
ATOM     25  H21 UNL     1      16.840  -7.873   4.555  1.00  0.00     0.174 HD
ENDBRANCH   4  23
TORSDOF 10
ENDMDL
