MODEL 1
REMARK VINA RESULT: -6.698266707      0.000      0.000
REMARK  8 active torsions:
REMARK  status: ('A' for Active; 'I' for Inactive)
REMARK    1  A    between atoms: C5_7  and  C6_8 
REMARK    2  A    between atoms: C6_8  and  N2_9 
REMARK    3  A    between atoms: N2_9  and  C7_12 
REMARK    4  A    between atoms: C7_12  and  C8_13 
REMARK    5  A    between atoms: C8_13  and  C9_14 
REMARK    6  A    between atoms: C9_14  and  C10_15 
REMARK    7  A    between atoms: C10_15  and  C11_16 
REMARK    8  A    between atoms: C11_16  and  C12_17 
ROOT
HETATM    1  C8  UNL     1      14.793 -10.960   4.949  1.00  0.00     0.027 C 
ENDROOT
BRANCH   1   2
HETATM    2  C7  UNL     1      14.756  -9.572   5.571  1.00  0.00     0.232 C 
BRANCH   2   3
HETATM    3  N2  UNL     1      14.614  -8.484   4.649  1.00  0.00    -0.071 N 
ATOM      4  H22 UNL     1      14.444  -7.603   5.133  1.00  0.00     0.277 HD
ATOM      5  H21 UNL     1      13.739  -8.547   4.128  1.00  0.00     0.277 HD
BRANCH   3   6
HETATM    6  C6  UNL     1      15.753  -8.394   3.765  1.00  0.00     0.272 C 
BRANCH   6   7
HETATM    7  C5  UNL     1      15.285  -8.371   2.356  1.00  0.00    -0.009 A 
HETATM    8  C2  UNL     1      16.014  -7.628   1.377  1.00  0.00     0.013 A 
HETATM    9  C1  UNL     1      17.400  -7.165   1.744  1.00  0.00     0.068 C 
HETATM   10  N1  UNL     1      15.320  -7.581   0.268  1.00  0.00    -0.369 N 
HETATM   11  C3  UNL     1      14.163  -8.230   0.415  1.00  0.00     0.089 A 
ATOM     12  H1  UNL     1      15.621  -7.114  -0.587  1.00  0.00     0.165 HD
HETATM   13  C4  UNL     1      14.152  -8.739   1.746  1.00  0.00     0.027 A 
ENDBRANCH   6   7
ENDBRANCH   3   6
ENDBRANCH   2   3
ENDBRANCH   1   2
BRANCH   1  14
HETATM   14  C9  UNL     1      15.129 -11.950   5.991  1.00  0.00     0.002 C 
BRANCH  14  15
HETATM   15  C10 UNL     1      16.056 -13.055   5.416  1.00  0.00     0.003 C 
BRANCH  15  16
HETATM   16  C11 UNL     1      15.684 -14.294   6.242  1.00  0.00     0.035 C 
BRANCH  16  17
HETATM   17  C12 UNL     1      14.525 -14.018   7.119  1.00  0.00     0.160 C 
HETATM   18  C13 UNL     1      14.961 -13.885   8.572  1.00  0.00     0.035 C 
HETATM   19  C14 UNL     1      14.039 -14.773   9.435  1.00  0.00     0.003 C 
HETATM   20  C15 UNL     1      12.624 -14.192   9.396  1.00  0.00     0.008 C 
HETATM   21  C16 UNL     1      11.752 -14.921   8.416  1.00  0.00     0.110 C 
HETATM   22  C17 UNL     1      11.614 -14.156   7.118  1.00  0.00     0.364 A 
HETATM   23  O1  UNL     1      12.583 -14.696   6.246  1.00  0.00    -0.166 OA
HETATM   24  O3  UNL     1      10.399 -13.783   6.684  1.00  0.00    -0.161 OA
HETATM   25  O4  UNL     1      11.324 -12.884   7.041  1.00  0.00    -0.161 OA
HETATM   26  O2  UNL     1      13.596 -15.041   6.995  1.00  0.00    -0.230 OA
ENDBRANCH  16  17
ENDBRANCH  15  16
ENDBRANCH  14  15
ENDBRANCH   1  14
TORSDOF 8
ENDMDL
MODEL 2
REMARK VINA RESULT: -6.648047634      4.270      7.310
REMARK  8 active torsions:
REMARK  status: ('A' for Active; 'I' for Inactive)
REMARK    1  A    between atoms: C5_7  and  C6_8 
REMARK    2  A    between atoms: C6_8  and  N2_9 
REMARK    3  A    between atoms: N2_9  and  C7_12 
REMARK    4  A    between atoms: C7_12  and  C8_13 
REMARK    5  A    between atoms: C8_13  and  C9_14 
REMARK    6  A    between atoms: C9_14  and  C10_15 
REMARK    7  A    between atoms: C10_15  and  C11_16 
REMARK    8  A    between atoms: C11_16  and  C12_17 
ROOT
HETATM    1  C8  UNL     1      17.979  -7.558   0.158  1.00  0.00     0.027 C 
ENDROOT
BRANCH   1   2
HETATM    2  C7  UNL     1      18.969  -8.145  -0.838  1.00  0.00     0.232 C 
BRANCH   2   3
HETATM    3  N2  UNL     1      20.308  -8.311  -0.355  1.00  0.00    -0.071 N 
ATOM      4  H22 UNL     1      20.563  -9.296  -0.292  1.00  0.00     0.277 HD
ATOM      5  H21 UNL     1      20.383  -8.066   0.632  1.00  0.00     0.277 HD
BRANCH   3   6
HETATM    6  C6  UNL     1      21.251  -7.569  -1.159  1.00  0.00     0.272 C 
BRANCH   6   7
HETATM    7  C5  UNL     1      21.838  -6.473  -0.347  1.00  0.00    -0.009 A 
HETATM    8  C2  UNL     1      23.242  -6.212  -0.415  1.00  0.00     0.013 A 
HETATM    9  C1  UNL     1      24.013  -6.843  -1.545  1.00  0.00     0.068 C 
HETATM   10  N1  UNL     1      23.566  -5.357   0.521  1.00  0.00    -0.369 N 
HETATM   11  C3  UNL     1      22.490  -5.016   1.233  1.00  0.00     0.089 A 
ATOM     12  H1  UNL     1      24.508  -5.001   0.682  1.00  0.00     0.165 HD
HETATM   13  C4  UNL     1      21.391  -5.725   0.669  1.00  0.00     0.027 A 
ENDBRANCH   6   7
ENDBRANCH   3   6
ENDBRANCH   2   3
ENDBRANCH   1   2
BRANCH   1  14
HETATM   14  C9  UNL     1      16.604  -7.821  -0.311  1.00  0.00     0.002 C 
BRANCH  14  15
HETATM   15  C10 UNL     1      15.570  -7.126   0.613  1.00  0.00     0.003 C 
BRANCH  15  16
HETATM   16  C11 UNL     1      14.715  -8.293   1.128  1.00  0.00     0.035 C 
BRANCH  16  17
HETATM   17  C12 UNL     1      14.567  -8.234   2.599  1.00  0.00     0.160 C 
HETATM   18  C13 UNL     1      15.632  -7.339   3.219  1.00  0.00     0.035 C 
HETATM   19  C14 UNL     1      16.282  -8.106   4.390  1.00  0.00     0.003 C 
HETATM   20  C15 UNL     1      15.237  -8.292   5.493  1.00  0.00     0.008 C 
HETATM   21  C16 UNL     1      14.627  -9.662   5.452  1.00  0.00     0.110 C 
HETATM   22  C17 UNL     1      13.266  -9.646   4.792  1.00  0.00     0.364 A 
HETATM   23  O1  UNL     1      13.487  -9.998   3.443  1.00  0.00    -0.166 OA
HETATM   24  O3  UNL     1      12.186 -10.071   5.468  1.00  0.00    -0.161 OA
HETATM   25  O4  UNL     1      12.318  -8.795   5.082  1.00  0.00    -0.161 OA
HETATM   26  O2  UNL     1      14.657  -9.514   3.126  1.00  0.00    -0.230 OA
ENDBRANCH  16  17
ENDBRANCH  15  16
ENDBRANCH  14  15
ENDBRANCH   1  14
TORSDOF 8
ENDMDL
MODEL 3
REMARK VINA RESULT: -6.552349873      4.553      7.796
REMARK  8 active torsions:
REMARK  status: ('A' for Active; 'I' for Inactive)
REMARK    1  A    between atoms: C5_7  and  C6_8 
REMARK    2  A    between atoms: C6_8  and  N2_9 
REMARK    3  A    between atoms: N2_9  and  C7_12 
REMARK    4  A    between atoms: C7_12  and  C8_13 
REMARK    5  A    between atoms: C8_13  and  C9_14 
REMARK    6  A    between atoms: C9_14  and  C10_15 
REMARK    7  A    between atoms: C10_15  and  C11_16 
REMARK    8  A    between atoms: C11_16  and  C12_17 
ROOT
HETATM    1  C8  UNL     1      17.708  -7.538  -1.275  1.00  0.00     0.027 C 
ENDROOT
BRANCH   1   2
HETATM    2  C7  UNL     1      18.933  -8.440  -1.270  1.00  0.00     0.232 C 
BRANCH   2   3
HETATM    3  N2  UNL     1      19.958  -8.085  -0.333  1.00  0.00    -0.071 N 
ATOM      4  H22 UNL     1      20.135  -8.838   0.331  1.00  0.00     0.277 HD
ATOM      5  H21 UNL     1      19.637  -7.371   0.320  1.00  0.00     0.277 HD
BRANCH   3   6
HETATM    6  C6  UNL     1      21.168  -7.680  -1.010  1.00  0.00     0.272 C 
BRANCH   6   7
HETATM    7  C5  UNL     1      21.785  -6.542  -0.282  1.00  0.00    -0.009 A 
HETATM    8  C2  UNL     1      23.183  -6.280  -0.424  1.00  0.00     0.013 A 
HETATM    9  C1  UNL     1      23.907  -6.966  -1.553  1.00  0.00     0.068 C 
HETATM   10  N1  UNL     1      23.542  -5.377   0.452  1.00  0.00    -0.369 N 
HETATM   11  C3  UNL     1      22.496  -5.003   1.192  1.00  0.00     0.089 A 
ATOM     12  H1  UNL     1      24.488  -5.010   0.554  1.00  0.00     0.165 HD
HETATM   13  C4  UNL     1      21.378  -5.744   0.713  1.00  0.00     0.027 A 
ENDBRANCH   6   7
ENDBRANCH   3   6
ENDBRANCH   2   3
ENDBRANCH   1   2
BRANCH   1  14
HETATM   14  C9  UNL     1      17.831  -6.545  -0.190  1.00  0.00     0.002 C 
BRANCH  14  15
HETATM   15  C10 UNL     1      16.537  -6.510   0.667  1.00  0.00     0.003 C 
BRANCH  15  16
HETATM   16  C11 UNL     1      16.906  -7.348   1.899  1.00  0.00     0.035 C 
BRANCH  16  17
HETATM   17  C12 UNL     1      15.819  -8.290   2.245  1.00  0.00     0.160 C 
HETATM   18  C13 UNL     1      14.819  -8.412   1.103  1.00  0.00     0.035 C 
HETATM   19  C14 UNL     1      13.399  -8.238   1.684  1.00  0.00     0.003 C 
HETATM   20  C15 UNL     1      13.097  -9.428   2.598  1.00  0.00     0.008 C 
HETATM   21  C16 UNL     1      13.305  -9.083   4.043  1.00  0.00     0.110 C 
HETATM   22  C17 UNL     1      14.628  -9.608   4.556  1.00  0.00     0.364 A 
HETATM   23  O1  UNL     1      15.537  -8.533   4.448  1.00  0.00    -0.166 OA
HETATM   24  O3  UNL     1      14.657 -10.459   5.594  1.00  0.00    -0.161 OA
HETATM   25  O4  UNL     1      15.058 -10.828   4.370  1.00  0.00    -0.161 OA
HETATM   26  O2  UNL     1      15.175  -7.853   3.394  1.00  0.00    -0.230 OA
ENDBRANCH  16  17
ENDBRANCH  15  16
ENDBRANCH  14  15
ENDBRANCH   1  14
TORSDOF 8
ENDMDL
MODEL 4
REMARK VINA RESULT: -6.462827256      4.537      9.008
REMARK  8 active torsions:
REMARK  status: ('A' for Active; 'I' for Inactive)
REMARK    1  A    between atoms: C5_7  and  C6_8 
REMARK    2  A    between atoms: C6_8  and  N2_9 
REMARK    3  A    between atoms: N2_9  and  C7_12 
REMARK    4  A    between atoms: C7_12  and  C8_13 
REMARK    5  A    between atoms: C8_13  and  C9_14 
REMARK    6  A    between atoms: C9_14  and  C10_15 
REMARK    7  A    between atoms: C10_15  and  C11_16 
REMARK    8  A    between atoms: C11_16  and  C12_17 
ROOT
HETATM    1  C8  UNL     1      14.818  -9.336   5.282  1.00  0.00     0.027 C 
ENDROOT
BRANCH   1   2
HETATM    2  C7  UNL     1      14.450 -10.797   5.493  1.00  0.00     0.232 C 
BRANCH   2   3
HETATM    3  N2  UNL     1      15.499 -11.631   6.001  1.00  0.00    -0.071 N 
ATOM      4  H22 UNL     1      15.739 -11.387   6.962  1.00  0.00     0.277 HD
ATOM      5  H21 UNL     1      16.393 -11.420   5.558  1.00  0.00     0.277 HD
BRANCH   3   6
HETATM    6  C6  UNL     1      15.162 -13.031   5.877  1.00  0.00     0.272 C 
BRANCH   6   7
HETATM    7  C5  UNL     1      15.082 -13.642   7.228  1.00  0.00    -0.009 A 
HETATM    8  C2  UNL     1      13.886 -14.310   7.636  1.00  0.00     0.013 A 
HETATM    9  C1  UNL     1      12.879 -14.648   6.567  1.00  0.00     0.068 C 
HETATM   10  N1  UNL     1      13.961 -14.586   8.913  1.00  0.00    -0.369 N 
HETATM   11  C3  UNL     1      15.118 -14.148   9.416  1.00  0.00     0.089 A 
ATOM     12  H1  UNL     1      13.239 -15.067   9.448  1.00  0.00     0.165 HD
HETATM   13  C4  UNL     1      15.830 -13.555   8.334  1.00  0.00     0.027 A 
ENDBRANCH   6   7
ENDBRANCH   3   6
ENDBRANCH   2   3
ENDBRANCH   1   2
BRANCH   1  14
HETATM   14  C9  UNL     1      14.708  -9.010   3.845  1.00  0.00     0.002 C 
BRANCH  14  15
HETATM   15  C10 UNL     1      13.449  -9.677   3.229  1.00  0.00     0.003 C 
BRANCH  15  16
HETATM   16  C11 UNL     1      13.549  -9.313   1.741  1.00  0.00     0.035 C 
BRANCH  16  17
HETATM   17  C12 UNL     1      14.397  -8.116   1.544  1.00  0.00     0.160 C 
HETATM   18  C13 UNL     1      13.544  -6.873   1.329  1.00  0.00     0.035 C 
HETATM   19  C14 UNL     1      14.075  -6.134   0.082  1.00  0.00     0.003 C 
HETATM   20  C15 UNL     1      15.476  -5.600   0.391  1.00  0.00     0.008 C 
HETATM   21  C16 UNL     1      16.544  -6.492  -0.169  1.00  0.00     0.110 C 
HETATM   22  C17 UNL     1      17.142  -7.381   0.899  1.00  0.00     0.364 A 
HETATM   23  O1  UNL     1      16.450  -8.607   0.812  1.00  0.00    -0.166 OA
HETATM   24  O3  UNL     1      18.459  -7.326   1.159  1.00  0.00    -0.161 OA
HETATM   25  O4  UNL     1      17.546  -6.957   2.067  1.00  0.00    -0.161 OA
HETATM   26  O2  UNL     1      15.230  -8.314   0.452  1.00  0.00    -0.230 OA
ENDBRANCH  16  17
ENDBRANCH  15  16
ENDBRANCH  14  15
ENDBRANCH   1  14
TORSDOF 8
ENDMDL
MODEL 5
REMARK VINA RESULT: -6.410395110      5.431      8.105
REMARK  8 active torsions:
REMARK  status: ('A' for Active; 'I' for Inactive)
REMARK    1  A    between atoms: C5_7  and  C6_8 
REMARK    2  A    between atoms: C6_8  and  N2_9 
REMARK    3  A    between atoms: N2_9  and  C7_12 
REMARK    4  A    between atoms: C7_12  and  C8_13 
REMARK    5  A    between atoms: C8_13  and  C9_14 
REMARK    6  A    between atoms: C9_14  and  C10_15 
REMARK    7  A    between atoms: C10_15  and  C11_16 
REMARK    8  A    between atoms: C11_16  and  C12_17 
ROOT
HETATM    1  C8  UNL     1      18.541  -7.242  -1.617  1.00  0.00     0.027 C 
ENDROOT
BRANCH   1   2
HETATM    2  C7  UNL     1      18.980  -8.291  -0.606  1.00  0.00     0.232 C 
BRANCH   2   3
HETATM    3  N2  UNL     1      20.390  -8.363  -0.361  1.00  0.00    -0.071 N 
ATOM      4  H22 UNL     1      20.738  -9.317  -0.460  1.00  0.00     0.277 HD
ATOM      5  H21 UNL     1      20.607  -8.219   0.624  1.00  0.00     0.277 HD
BRANCH   3   6
HETATM    6  C6  UNL     1      21.117  -7.443  -1.205  1.00  0.00     0.272 C 
BRANCH   6   7
HETATM    7  C5  UNL     1      21.755  -6.399  -0.364  1.00  0.00    -0.009 A 
HETATM    8  C2  UNL     1      23.171  -6.213  -0.414  1.00  0.00     0.013 A 
HETATM    9  C1  UNL     1      23.918  -6.860  -1.551  1.00  0.00     0.068 C 
HETATM   10  N1  UNL     1      23.532  -5.397   0.544  1.00  0.00    -0.369 N 
HETATM   11  C3  UNL     1      22.469  -5.014   1.254  1.00  0.00     0.089 A 
ATOM     12  H1  UNL     1      24.490  -5.097   0.722  1.00  0.00     0.165 HD
HETATM   13  C4  UNL     1      21.339  -5.650   0.665  1.00  0.00     0.027 A 
ENDBRANCH   6   7
ENDBRANCH   3   6
ENDBRANCH   2   3
ENDBRANCH   1   2
BRANCH   1  14
HETATM   14  C9  UNL     1      17.501  -6.388  -1.011  1.00  0.00     0.002 C 
BRANCH  14  15
HETATM   15  C10 UNL     1      17.228  -6.818   0.455  1.00  0.00     0.003 C 
BRANCH  15  16
HETATM   16  C11 UNL     1      15.836  -6.238   0.740  1.00  0.00     0.035 C 
BRANCH  16  17
HETATM   17  C12 UNL     1      15.143  -7.013   1.793  1.00  0.00     0.160 C 
HETATM   18  C13 UNL     1      16.031  -7.184   3.018  1.00  0.00     0.035 C 
HETATM   19  C14 UNL     1      16.023  -8.676   3.415  1.00  0.00     0.003 C 
HETATM   20  C15 UNL     1      14.617  -9.045   3.895  1.00  0.00     0.008 C 
HETATM   21  C16 UNL     1      13.828  -9.733   2.821  1.00  0.00     0.110 C 
HETATM   22  C17 UNL     1      12.857  -8.786   2.151  1.00  0.00     0.364 A 
HETATM   23  O1  UNL     1      13.513  -8.316   0.993  1.00  0.00    -0.166 OA
HETATM   24  O3  UNL     1      11.541  -9.054   2.161  1.00  0.00    -0.161 OA
HETATM   25  O4  UNL     1      12.046  -7.987   2.793  1.00  0.00    -0.161 OA
HETATM   26  O2  UNL     1      14.783  -8.256   1.291  1.00  0.00    -0.230 OA
ENDBRANCH  16  17
ENDBRANCH  15  16
ENDBRANCH  14  15
ENDBRANCH   1  14
TORSDOF 8
ENDMDL
