MODEL 1
REMARK VINA RESULT: -6.232226246      0.000      0.000
REMARK  10 active torsions:
REMARK  status: ('A' for Active; 'I' for Inactive)
REMARK    1  A    between atoms: C2_2  and  C3_3 
REMARK    2  A    between atoms: C3_3  and  C4_4 
REMARK    3  A    between atoms: C4_4  and  N1_5 
REMARK    4  A    between atoms: C5_6  and  N2_7 
REMARK    5  A    between atoms: N2_7  and  N3_9 
REMARK    6  A    between atoms: N3_9  and  N4_10 
REMARK    7  A    between atoms: C9_16  and  N5_17 
REMARK    8  A    between atoms: N5_17  and  N6_19 
REMARK    9  A    between atoms: N6_19  and  C10_21 
REMARK   10  A    between atoms: C10_21  and  C12_23 
ROOT
HETATM    1  N1  UNL     1      22.724  -6.828  -1.063  1.00  0.00    -0.316 N 
HETATM    2  C5  UNL     1      22.795  -6.003  -0.003  1.00  0.00     0.143 A 
HETATM    3  C6  UNL     1      21.517  -5.917   0.495  1.00  0.00     0.002 A 
HETATM    4  C7  UNL     1      21.075  -5.124   1.668  1.00  0.00     0.053 C 
HETATM    5  C8  UNL     1      20.650  -6.697  -0.263  1.00  0.00     0.063 A 
HETATM    6  C9  UNL     1      19.297  -6.962  -0.197  1.00  0.00     0.135 A 
HETATM    7  N7  UNL     1      18.759  -7.784  -1.104  1.00  0.00    -0.337 N 
ATOM      8  H7  UNL     1      17.762  -7.997  -1.076  1.00  0.00     0.168 HD
HETATM    9  C14 UNL     1      19.550  -8.332  -2.060  1.00  0.00     0.183 A 
HETATM   10  N8  UNL     1      20.861  -8.076  -2.129  1.00  0.00    -0.338 N 
ATOM     11  H8  UNL     1      21.424  -8.506  -2.863  1.00  0.00     0.168 HD
HETATM   12  C15 UNL     1      21.437  -7.262  -1.241  1.00  0.00     0.124 A 
ENDROOT
BRANCH   6  13
HETATM   13  N5  UNL     1      18.570  -6.431   0.708  1.00  0.00    -0.289 N 
ATOM     14  H5  UNL     1      19.045  -6.199   1.580  1.00  0.00     0.188 HD
BRANCH  13  15
HETATM   15  N6  UNL     1      17.234  -6.132   0.659  1.00  0.00    -0.330 N 
ATOM     16  H6  UNL     1      16.905  -5.379   0.054  1.00  0.00     0.180 HD
BRANCH  15  17
HETATM   17  C10 UNL     1      16.272  -6.889   1.474  1.00  0.00     0.095 C 
HETATM   18  C11 UNL     1      15.029  -6.039   1.544  1.00  0.00     0.033 C 
BRANCH  17  19
HETATM   19  C12 UNL     1      16.853  -7.152   2.846  1.00  0.00     0.022 C 
HETATM   20  C13 UNL     1      16.134  -8.254   3.551  1.00  0.00     0.007 C 
ENDBRANCH  17  19
ENDBRANCH  15  17
ENDBRANCH  13  15
ENDBRANCH   6  13
BRANCH   2  21
HETATM   21  N2  UNL     1      23.943  -5.350   0.505  1.00  0.00    -0.199 N 
ATOM     22  H2  UNL     1      24.574  -5.895   1.092  1.00  0.00     0.205 HD
BRANCH  21  23
HETATM   23  N3  UNL     1      24.235  -4.183   0.292  1.00  0.00    -0.242 NA
BRANCH  23  24
HETATM   24  N4  UNL     1      24.295  -2.963   0.218  1.00  0.00    -0.260 N 
ATOM     25  H42 UNL     1      23.278  -2.888   0.197  1.00  0.00     0.193 HD
ATOM     26  H41 UNL     1      24.572  -1.983   0.162  1.00  0.00     0.193 HD
ENDBRANCH  23  24
ENDBRANCH  21  23
ENDBRANCH   2  21
BRANCH   1  27
HETATM   27  C4  UNL     1      23.800  -7.231  -1.910  1.00  0.00     0.132 C 
BRANCH  27  28
HETATM   28  C3  UNL     1      23.957  -6.375  -3.140  1.00  0.00     0.020 C 
BRANCH  28  29
HETATM   29  C2  UNL     1      24.695  -7.146  -4.218  1.00  0.00    -0.003 C 
HETATM   30  C1  UNL     1      24.679  -8.605  -3.845  1.00  0.00     0.005 C 
ENDBRANCH  28  29
ENDBRANCH  27  28
ENDBRANCH   1  27
TORSDOF 10
ENDMDL
MODEL 2
REMARK VINA RESULT: -6.023300521      0.618      1.177
REMARK  10 active torsions:
REMARK  status: ('A' for Active; 'I' for Inactive)
REMARK    1  A    between atoms: C2_2  and  C3_3 
REMARK    2  A    between atoms: C3_3  and  C4_4 
REMARK    3  A    between atoms: C4_4  and  N1_5 
REMARK    4  A    between atoms: C5_6  and  N2_7 
REMARK    5  A    between atoms: N2_7  and  N3_9 
REMARK    6  A    between atoms: N3_9  and  N4_10 
REMARK    7  A    between atoms: C9_16  and  N5_17 
REMARK    8  A    between atoms: N5_17  and  N6_19 
REMARK    9  A    between atoms: N6_19  and  C10_21 
REMARK   10  A    between atoms: C10_21  and  C12_23 
ROOT
HETATM    1  N1  UNL     1      22.675  -6.820  -1.041  1.00  0.00    -0.316 N 
HETATM    2  C5  UNL     1      22.727  -6.002   0.025  1.00  0.00     0.143 A 
HETATM    3  C6  UNL     1      21.443  -5.928   0.508  1.00  0.00     0.002 A 
HETATM    4  C7  UNL     1      20.981  -5.147   1.682  1.00  0.00     0.053 C 
HETATM    5  C8  UNL     1      20.590  -6.709  -0.265  1.00  0.00     0.063 A 
HETATM    6  C9  UNL     1      19.239  -6.984  -0.217  1.00  0.00     0.135 A 
HETATM    7  N7  UNL     1      18.717  -7.804  -1.136  1.00  0.00    -0.337 N 
ATOM      8  H7  UNL     1      17.722  -8.024  -1.122  1.00  0.00     0.168 HD
HETATM    9  C14 UNL     1      19.524  -8.339  -2.086  1.00  0.00     0.183 A 
HETATM   10  N8  UNL     1      20.834  -8.074  -2.138  1.00  0.00    -0.338 N 
ATOM     11  H8  UNL     1      21.409  -8.494  -2.868  1.00  0.00     0.168 HD
HETATM   12  C15 UNL     1      21.393  -7.262  -1.237  1.00  0.00     0.124 A 
ENDROOT
BRANCH   6  13
HETATM   13  N5  UNL     1      18.497  -6.464   0.683  1.00  0.00    -0.289 N 
ATOM     14  H5  UNL     1      18.948  -6.285   1.580  1.00  0.00     0.188 HD
BRANCH  13  15
HETATM   15  N6  UNL     1      17.175  -6.117   0.599  1.00  0.00    -0.330 N 
ATOM     16  H6  UNL     1      16.880  -5.401  -0.064  1.00  0.00     0.180 HD
BRANCH  15  17
HETATM   17  C10 UNL     1      16.178  -6.771   1.461  1.00  0.00     0.095 C 
HETATM   18  C11 UNL     1      16.908  -7.152   2.723  1.00  0.00     0.033 C 
BRANCH  17  19
HETATM   19  C12 UNL     1      15.602  -7.979   0.757  1.00  0.00     0.022 C 
HETATM   20  C13 UNL     1      15.101  -7.640  -0.608  1.00  0.00     0.007 C 
ENDBRANCH  17  19
ENDBRANCH  15  17
ENDBRANCH  13  15
ENDBRANCH   6  13
BRANCH   2  21
HETATM   21  N2  UNL     1      23.865  -5.344   0.551  1.00  0.00    -0.199 N 
ATOM     22  H2  UNL     1      24.575  -5.920   1.004  1.00  0.00     0.205 HD
BRANCH  21  23
HETATM   23  N3  UNL     1      24.060  -4.139   0.503  1.00  0.00    -0.242 NA
BRANCH  23  24
HETATM   24  N4  UNL     1      23.980  -2.920   0.455  1.00  0.00    -0.260 N 
ATOM     25  H42 UNL     1      24.530  -2.823   1.308  1.00  0.00     0.193 HD
ATOM     26  H41 UNL     1      23.791  -1.944   0.223  1.00  0.00     0.193 HD
ENDBRANCH  23  24
ENDBRANCH  21  23
ENDBRANCH   2  21
BRANCH   1  27
HETATM   27  C4  UNL     1      23.764  -7.209  -1.878  1.00  0.00     0.132 C 
BRANCH  27  28
HETATM   28  C3  UNL     1      23.946  -6.327  -3.086  1.00  0.00     0.020 C 
BRANCH  28  29
HETATM   29  C2  UNL     1      24.646  -7.098  -4.190  1.00  0.00    -0.003 C 
HETATM   30  C1  UNL     1      24.728  -8.542  -3.773  1.00  0.00     0.005 C 
ENDBRANCH  28  29
ENDBRANCH  27  28
ENDBRANCH   1  27
TORSDOF 10
ENDMDL
MODEL 3
REMARK VINA RESULT: -5.776538088      3.259      7.828
REMARK  10 active torsions:
REMARK  status: ('A' for Active; 'I' for Inactive)
REMARK    1  A    between atoms: C2_2  and  C3_3 
REMARK    2  A    between atoms: C3_3  and  C4_4 
REMARK    3  A    between atoms: C4_4  and  N1_5 
REMARK    4  A    between atoms: C5_6  and  N2_7 
REMARK    5  A    between atoms: N2_7  and  N3_9 
REMARK    6  A    between atoms: N3_9  and  N4_10 
REMARK    7  A    between atoms: C9_16  and  N5_17 
REMARK    8  A    between atoms: N5_17  and  N6_19 
REMARK    9  A    between atoms: N6_19  and  C10_21 
REMARK   10  A    between atoms: C10_21  and  C12_23 
ROOT
HETATM    1  N1  UNL     1      15.154  -8.184   1.154  1.00  0.00    -0.316 N 
HETATM    2  C5  UNL     1      16.155  -7.439   1.654  1.00  0.00     0.143 A 
HETATM    3  C6  UNL     1      17.214  -7.601   0.792  1.00  0.00     0.002 A 
HETATM    4  C7  UNL     1      18.556  -6.980   0.910  1.00  0.00     0.053 C 
HETATM    5  C8  UNL     1      16.862  -8.453  -0.249  1.00  0.00     0.063 A 
HETATM    6  C9  UNL     1      17.530  -8.936  -1.356  1.00  0.00     0.135 A 
HETATM    7  N7  UNL     1      16.882  -9.759  -2.188  1.00  0.00    -0.337 N 
ATOM      8  H7  UNL     1      17.353 -10.129  -3.013  1.00  0.00     0.168 HD
HETATM    9  C14 UNL     1      15.595 -10.097  -1.924  1.00  0.00     0.183 A 
HETATM   10  N8  UNL     1      14.945  -9.633  -0.851  1.00  0.00    -0.338 N 
ATOM     11  H8  UNL     1      13.977  -9.910  -0.685  1.00  0.00     0.168 HD
HETATM   12  C15 UNL     1      15.556  -8.807   0.003  1.00  0.00     0.124 A 
ENDROOT
BRANCH   6  13
HETATM   13  N5  UNL     1      18.743  -8.610  -1.582  1.00  0.00    -0.289 N 
ATOM     14  H5  UNL     1      19.437  -9.029  -0.964  1.00  0.00     0.188 HD
BRANCH  13  15
HETATM   15  N6  UNL     1      19.232  -7.769  -2.546  1.00  0.00    -0.330 N 
ATOM     16  H6  UNL     1      18.630  -7.476  -3.316  1.00  0.00     0.180 HD
BRANCH  15  17
HETATM   17  C10 UNL     1      20.620  -7.287  -2.478  1.00  0.00     0.095 C 
HETATM   18  C11 UNL     1      21.276  -7.732  -3.760  1.00  0.00     0.033 C 
BRANCH  17  19
HETATM   19  C12 UNL     1      21.308  -7.865  -1.262  1.00  0.00     0.022 C 
HETATM   20  C13 UNL     1      22.245  -6.886  -0.637  1.00  0.00     0.007 C 
ENDBRANCH  17  19
ENDBRANCH  15  17
ENDBRANCH  13  15
ENDBRANCH   6  13
BRANCH   2  21
HETATM   21  N2  UNL     1      16.137  -6.646   2.826  1.00  0.00    -0.199 N 
ATOM     22  H2  UNL     1      15.916  -5.655   2.722  1.00  0.00     0.205 HD
BRANCH  21  23
HETATM   23  N3  UNL     1      16.366  -7.059   3.953  1.00  0.00    -0.242 NA
BRANCH  23  24
HETATM   24  N4  UNL     1      16.468  -7.700   4.990  1.00  0.00    -0.260 N 
ATOM     25  H42 UNL     1      15.540  -8.103   4.863  1.00  0.00     0.193 HD
ATOM     26  H41 UNL     1      16.760  -8.133   5.866  1.00  0.00     0.193 HD
ENDBRANCH  23  24
ENDBRANCH  21  23
ENDBRANCH   2  21
BRANCH   1  27
HETATM   27  C4  UNL     1      13.843  -8.336   1.699  1.00  0.00     0.132 C 
BRANCH  27  28
HETATM   28  C3  UNL     1      13.566  -9.716   2.238  1.00  0.00     0.020 C 
BRANCH  28  29
HETATM   29  C2  UNL     1      14.108  -9.839   3.650  1.00  0.00    -0.003 C 
HETATM   30  C1  UNL     1      13.044  -9.366   4.604  1.00  0.00     0.005 C 
ENDBRANCH  28  29
ENDBRANCH  27  28
ENDBRANCH   1  27
TORSDOF 10
ENDMDL
MODEL 4
REMARK VINA RESULT: -5.728594755      1.561      3.422
REMARK  10 active torsions:
REMARK  status: ('A' for Active; 'I' for Inactive)
REMARK    1  A    between atoms: C2_2  and  C3_3 
REMARK    2  A    between atoms: C3_3  and  C4_4 
REMARK    3  A    between atoms: C4_4  and  N1_5 
REMARK    4  A    between atoms: C5_6  and  N2_7 
REMARK    5  A    between atoms: N2_7  and  N3_9 
REMARK    6  A    between atoms: N3_9  and  N4_10 
REMARK    7  A    between atoms: C9_16  and  N5_17 
REMARK    8  A    between atoms: N5_17  and  N6_19 
REMARK    9  A    between atoms: N6_19  and  C10_21 
REMARK   10  A    between atoms: C10_21  and  C12_23 
ROOT
HETATM    1  N1  UNL     1      22.643  -7.255  -2.171  1.00  0.00    -0.316 N 
HETATM    2  C5  UNL     1      21.512  -7.676  -2.765  1.00  0.00     0.143 A 
HETATM    3  C6  UNL     1      20.485  -7.298  -1.933  1.00  0.00     0.002 A 
HETATM    4  C7  UNL     1      19.037  -7.536  -2.150  1.00  0.00     0.053 C 
HETATM    5  C8  UNL     1      20.986  -6.636  -0.818  1.00  0.00     0.063 A 
HETATM    6  C9  UNL     1      20.405  -6.063   0.295  1.00  0.00     0.135 A 
HETATM    7  N7  UNL     1      21.194  -5.486   1.207  1.00  0.00    -0.337 N 
ATOM      8  H7  UNL     1      20.789  -5.054   2.037  1.00  0.00     0.168 HD
HETATM    9  C14 UNL     1      22.538  -5.482   1.019  1.00  0.00     0.183 A 
HETATM   10  N8  UNL     1      23.106  -6.038  -0.057  1.00  0.00    -0.338 N 
ATOM     11  H8  UNL     1      24.120  -6.016  -0.164  1.00  0.00     0.168 HD
HETATM   12  C15 UNL     1      22.352  -6.622  -0.992  1.00  0.00     0.124 A 
ENDROOT
BRANCH   6  13
HETATM   13  N5  UNL     1      19.138  -6.084   0.455  1.00  0.00    -0.289 N 
ATOM     14  H5  UNL     1      18.584  -5.818  -0.359  1.00  0.00     0.188 HD
BRANCH  13  15
HETATM   15  N6  UNL     1      18.428  -6.417   1.577  1.00  0.00    -0.330 N 
ATOM     16  H6  UNL     1      18.793  -6.172   2.498  1.00  0.00     0.180 HD
BRANCH  15  17
HETATM   17  C10 UNL     1      17.144  -7.124   1.463  1.00  0.00     0.095 C 
HETATM   18  C11 UNL     1      16.386  -6.432   0.360  1.00  0.00     0.033 C 
BRANCH  17  19
HETATM   19  C12 UNL     1      16.403  -7.062   2.780  1.00  0.00     0.022 C 
HETATM   20  C13 UNL     1      16.115  -8.424   3.320  1.00  0.00     0.007 C 
ENDBRANCH  17  19
ENDBRANCH  15  17
ENDBRANCH  13  15
ENDBRANCH   6  13
BRANCH   2  21
HETATM   21  N2  UNL     1      21.391  -8.369  -3.993  1.00  0.00    -0.199 N 
ATOM     22  H2  UNL     1      21.316  -9.385  -3.956  1.00  0.00     0.205 HD
BRANCH  21  23
HETATM   23  N3  UNL     1      21.369  -7.840  -5.095  1.00  0.00    -0.242 NA
BRANCH  23  24
HETATM   24  N4  UNL     1      21.598  -7.221  -6.124  1.00  0.00    -0.260 N 
ATOM     25  H42 UNL     1      22.524  -7.640  -6.203  1.00  0.00     0.193 HD
ATOM     26  H41 UNL     1      21.577  -6.620  -6.949  1.00  0.00     0.193 HD
ENDBRANCH  23  24
ENDBRANCH  21  23
ENDBRANCH   2  21
BRANCH   1  27
HETATM   27  C4  UNL     1      23.976  -7.412  -2.656  1.00  0.00     0.132 C 
BRANCH  27  28
HETATM   28  C3  UNL     1      24.385  -6.364  -3.659  1.00  0.00     0.020 C 
BRANCH  28  29
HETATM   29  C2  UNL     1      25.091  -7.016  -4.832  1.00  0.00    -0.003 C 
HETATM   30  C1  UNL     1      25.010  -8.510  -4.657  1.00  0.00     0.005 C 
ENDBRANCH  28  29
ENDBRANCH  27  28
ENDBRANCH   1  27
TORSDOF 10
ENDMDL
MODEL 5
REMARK VINA RESULT: -5.612235706      1.806      3.776
REMARK  10 active torsions:
REMARK  status: ('A' for Active; 'I' for Inactive)
REMARK    1  A    between atoms: C2_2  and  C3_3 
REMARK    2  A    between atoms: C3_3  and  C4_4 
REMARK    3  A    between atoms: C4_4  and  N1_5 
REMARK    4  A    between atoms: C5_6  and  N2_7 
REMARK    5  A    between atoms: N2_7  and  N3_9 
REMARK    6  A    between atoms: N3_9  and  N4_10 
REMARK    7  A    between atoms: C9_16  and  N5_17 
REMARK    8  A    between atoms: N5_17  and  N6_19 
REMARK    9  A    between atoms: N6_19  and  C10_21 
REMARK   10  A    between atoms: C10_21  and  C12_23 
ROOT
HETATM    1  N1  UNL     1      22.528  -7.492  -2.370  1.00  0.00    -0.316 N 
HETATM    2  C5  UNL     1      21.441  -7.810  -3.096  1.00  0.00     0.143 A 
HETATM    3  C6  UNL     1      20.361  -7.346  -2.384  1.00  0.00     0.002 A 
HETATM    4  C7  UNL     1      18.933  -7.455  -2.770  1.00  0.00     0.053 C 
HETATM    5  C8  UNL     1      20.784  -6.734  -1.209  1.00  0.00     0.063 A 
HETATM    6  C9  UNL     1      20.130  -6.115  -0.164  1.00  0.00     0.135 A 
HETATM    7  N7  UNL     1      20.855  -5.613   0.841  1.00  0.00    -0.337 N 
ATOM      8  H7  UNL     1      20.395  -5.150   1.624  1.00  0.00     0.168 HD
HETATM    9  C14 UNL     1      22.206  -5.726   0.810  1.00  0.00     0.183 A 
HETATM   10  N8  UNL     1      22.845  -6.327  -0.200  1.00  0.00    -0.338 N 
ATOM     11  H8  UNL     1      23.863  -6.394  -0.189  1.00  0.00     0.168 HD
HETATM   12  C15 UNL     1      22.157  -6.840  -1.224  1.00  0.00     0.124 A 
ENDROOT
BRANCH   6  13
HETATM   13  N5  UNL     1      18.856  -6.025  -0.152  1.00  0.00    -0.289 N 
ATOM     14  H5  UNL     1      18.434  -5.597  -0.976  1.00  0.00     0.188 HD
BRANCH  13  15
HETATM   15  N6  UNL     1      17.984  -6.428   0.824  1.00  0.00    -0.330 N 
ATOM     16  H6  UNL     1      18.306  -6.508   1.789  1.00  0.00     0.180 HD
BRANCH  15  17
HETATM   17  C10 UNL     1      16.588  -6.746   0.489  1.00  0.00     0.095 C 
HETATM   18  C11 UNL     1      16.569  -8.212   0.141  1.00  0.00     0.033 C 
BRANCH  17  19
HETATM   19  C12 UNL     1      16.126  -5.886  -0.666  1.00  0.00     0.022 C 
HETATM   20  C13 UNL     1      15.301  -4.731  -0.203  1.00  0.00     0.007 C 
ENDBRANCH  17  19
ENDBRANCH  15  17
ENDBRANCH  13  15
ENDBRANCH   6  13
BRANCH   2  21
HETATM   21  N2  UNL     1      21.404  -8.486  -4.339  1.00  0.00    -0.199 N 
ATOM     22  H2  UNL     1      21.312  -9.501  -4.321  1.00  0.00     0.205 HD
BRANCH  21  23
HETATM   23  N3  UNL     1      21.474  -7.944  -5.432  1.00  0.00    -0.242 NA
BRANCH  23  24
HETATM   24  N4  UNL     1      21.809  -7.369  -6.458  1.00  0.00    -0.260 N 
ATOM     25  H42 UNL     1      22.756  -7.739  -6.388  1.00  0.00     0.193 HD
ATOM     26  H41 UNL     1      21.870  -6.816  -7.313  1.00  0.00     0.193 HD
ENDBRANCH  23  24
ENDBRANCH  21  23
ENDBRANCH   2  21
BRANCH   1  27
HETATM   27  C4  UNL     1      23.890  -7.764  -2.699  1.00  0.00     0.132 C 
BRANCH  27  28
HETATM   28  C3  UNL     1      24.491  -6.773  -3.661  1.00  0.00     0.020 C 
BRANCH  28  29
HETATM   29  C2  UNL     1      25.091  -7.501  -4.849  1.00  0.00    -0.003 C 
HETATM   30  C1  UNL     1      25.040  -8.980  -4.567  1.00  0.00     0.005 C 
ENDBRANCH  28  29
ENDBRANCH  27  28
ENDBRANCH   1  27
TORSDOF 10
ENDMDL
