MODEL 1
REMARK VINA RESULT: -6.530746778      0.000      0.000
REMARK  9 active torsions:
REMARK  status: ('A' for Active; 'I' for Inactive)
REMARK    1  A    between atoms: C2_2  and  O1_3 
REMARK    2  A    between atoms: O1_3  and  C3_4 
REMARK    3  A    between atoms: C4_5  and  O2_6 
REMARK    4  A    between atoms: C7_9  and  O3_10 
REMARK    5  A    between atoms: C8_12  and  C9_13 
REMARK    6  A    between atoms: C9_13  and  N1_14 
REMARK    7  A    between atoms: N1_14  and  C11_16 
REMARK    8  A    between atoms: C11_16  and  C12_17 
REMARK    9  A    between atoms: C18_23  and  O4_24 
ROOT
HETATM    1  C3  UNL     1      14.114  -8.392   2.638  1.00  0.00     0.136 A 
HETATM    2  C4  UNL     1      13.316  -7.400   2.088  1.00  0.00     0.107 A 
HETATM    3  C6  UNL     1      13.923  -6.367   1.404  1.00  0.00     0.077 A 
HETATM    4  C7  UNL     1      15.287  -6.299   1.257  1.00  0.00     0.082 A 
HETATM    5  C8  UNL     1      16.072  -7.323   1.829  1.00  0.00     0.043 A 
HETATM    6  C18 UNL     1      15.504  -8.367   2.516  1.00  0.00     0.116 A 
ENDROOT
BRANCH   5   7
HETATM    7  C9  UNL     1      17.516  -7.158   1.589  1.00  0.00     0.076 C 
BRANCH   7   8
HETATM    8  N1  UNL     1      18.050  -7.349   0.316  1.00  0.00    -0.295 NA
HETATM    9  C10 UNL     1      17.421  -8.392  -0.498  1.00  0.00     0.116 C 
BRANCH   8  10
HETATM   10  C11 UNL     1      19.456  -7.474   0.164  1.00  0.00     0.099 C 
BRANCH  10  11
HETATM   11  C12 UNL     1      20.148  -6.305  -0.502  1.00  0.00    -0.001 C 
HETATM   12  C13 UNL     1      20.894  -6.836  -1.684  1.00  0.00     0.006 C 
HETATM   13  C14 UNL     1      22.138  -7.558  -1.274  1.00  0.00     0.000 C 
HETATM   14  C15 UNL     1      23.031  -6.523  -0.636  1.00  0.00     0.000 C 
HETATM   15  C16 UNL     1      22.409  -5.931   0.574  1.00  0.00     0.000 C 
HETATM   16  C17 UNL     1      20.985  -5.575   0.490  1.00  0.00     0.006 C 
ENDBRANCH  10  11
ENDBRANCH   8  10
ENDBRANCH   7   8
ENDBRANCH   5   7
BRANCH   4  17
HETATM   17  O3  UNL     1      15.875  -5.239   0.554  1.00  0.00    -0.360 OA
ATOM     18  H3  UNL     1      16.112  -4.436   1.002  1.00  0.00     0.217 HD
ENDBRANCH   4  17
BRANCH   6  19
HETATM   19  O4  UNL     1      16.268  -9.381   3.074  1.00  0.00    -0.357 OA
ATOM     20  H4  UNL     1      17.213  -9.295   3.118  1.00  0.00     0.217 HD
ENDBRANCH   6  19
BRANCH   1  21
HETATM   21  O1  UNL     1      13.559  -9.441   3.327  1.00  0.00    -0.346 OA
BRANCH  21  22
HETATM   22  C2  UNL     1      13.329  -9.432   4.702  1.00  0.00     0.171 C 
HETATM   23  C1  UNL     1      14.003 -10.526   5.467  1.00  0.00     0.034 C 
ENDBRANCH  21  22
ENDBRANCH   1  21
BRANCH   2  24
HETATM   24  O2  UNL     1      11.942  -7.469   2.238  1.00  0.00    -0.353 OA
HETATM   25  C5  UNL     1      11.022  -7.948   1.313  1.00  0.00     0.210 C 
ENDBRANCH   2  24
TORSDOF 9
ENDMDL
MODEL 2
REMARK VINA RESULT: -6.102261139      0.855      1.377
REMARK  9 active torsions:
REMARK  status: ('A' for Active; 'I' for Inactive)
REMARK    1  A    between atoms: C2_2  and  O1_3 
REMARK    2  A    between atoms: O1_3  and  C3_4 
REMARK    3  A    between atoms: C4_5  and  O2_6 
REMARK    4  A    between atoms: C7_9  and  O3_10 
REMARK    5  A    between atoms: C8_12  and  C9_13 
REMARK    6  A    between atoms: C9_13  and  N1_14 
REMARK    7  A    between atoms: N1_14  and  C11_16 
REMARK    8  A    between atoms: C11_16  and  C12_17 
REMARK    9  A    between atoms: C18_23  and  O4_24 
ROOT
HETATM    1  C3  UNL     1      14.241  -8.030   2.332  1.00  0.00     0.136 A 
HETATM    2  C4  UNL     1      13.426  -7.005   1.874  1.00  0.00     0.107 A 
HETATM    3  C6  UNL     1      13.995  -5.991   1.130  1.00  0.00     0.077 A 
HETATM    4  C7  UNL     1      15.337  -5.974   0.836  1.00  0.00     0.082 A 
HETATM    5  C8  UNL     1      16.139  -7.031   1.317  1.00  0.00     0.043 A 
HETATM    6  C18 UNL     1      15.609  -8.056   2.059  1.00  0.00     0.116 A 
ENDROOT
BRANCH   5   7
HETATM    7  C9  UNL     1      17.554  -6.919   0.922  1.00  0.00     0.076 C 
BRANCH   7   8
HETATM    8  N1  UNL     1      17.945  -7.163  -0.394  1.00  0.00    -0.295 NA
HETATM    9  C10 UNL     1      17.707  -8.519  -0.896  1.00  0.00     0.116 C 
BRANCH   8  10
HETATM   10  C11 UNL     1      19.241  -6.768  -0.818  1.00  0.00     0.099 C 
BRANCH  10  11
HETATM   11  C12 UNL     1      20.173  -7.895  -1.203  1.00  0.00    -0.001 C 
HETATM   12  C13 UNL     1      21.284  -7.925  -0.203  1.00  0.00     0.006 C 
HETATM   13  C14 UNL     1      22.260  -6.813  -0.428  1.00  0.00     0.000 C 
HETATM   14  C15 UNL     1      22.890  -7.075  -1.772  1.00  0.00     0.000 C 
HETATM   15  C16 UNL     1      21.886  -7.049  -2.864  1.00  0.00     0.000 C 
HETATM   16  C17 UNL     1      20.609  -7.735  -2.619  1.00  0.00     0.006 C 
ENDBRANCH  10  11
ENDBRANCH   8  10
ENDBRANCH   7   8
ENDBRANCH   5   7
BRANCH   4  17
HETATM   17  O3  UNL     1      15.885  -4.933   0.075  1.00  0.00    -0.360 OA
ATOM     18  H3  UNL     1      16.823  -4.879  -0.064  1.00  0.00     0.217 HD
ENDBRANCH   4  17
BRANCH   6  19
HETATM   19  O4  UNL     1      16.389  -9.103   2.528  1.00  0.00    -0.357 OA
ATOM     20  H4  UNL     1      16.685  -9.780   1.931  1.00  0.00     0.217 HD
ENDBRANCH   6  19
BRANCH   1  21
HETATM   21  O1  UNL     1      13.724  -9.061   3.074  1.00  0.00    -0.346 OA
BRANCH  21  22
HETATM   22  C2  UNL     1      13.603  -9.034   4.463  1.00  0.00     0.171 C 
HETATM   23  C1  UNL     1      14.202 -10.204   5.177  1.00  0.00     0.034 C 
ENDBRANCH  21  22
ENDBRANCH   1  21
BRANCH   2  24
HETATM   24  O2  UNL     1      12.075  -7.022   2.173  1.00  0.00    -0.353 OA
HETATM   25  C5  UNL     1      11.045  -7.486   1.363  1.00  0.00     0.210 C 
ENDBRANCH   2  24
TORSDOF 9
ENDMDL
MODEL 3
REMARK VINA RESULT: -5.954998051      1.308      3.085
REMARK  9 active torsions:
REMARK  status: ('A' for Active; 'I' for Inactive)
REMARK    1  A    between atoms: C2_2  and  O1_3 
REMARK    2  A    between atoms: O1_3  and  C3_4 
REMARK    3  A    between atoms: C4_5  and  O2_6 
REMARK    4  A    between atoms: C7_9  and  O3_10 
REMARK    5  A    between atoms: C8_12  and  C9_13 
REMARK    6  A    between atoms: C9_13  and  N1_14 
REMARK    7  A    between atoms: N1_14  and  C11_16 
REMARK    8  A    between atoms: C11_16  and  C12_17 
REMARK    9  A    between atoms: C18_23  and  O4_24 
ROOT
HETATM    1  C3  UNL     1      14.192  -6.045   0.832  1.00  0.00     0.136 A 
HETATM    2  C4  UNL     1      13.519  -6.894   1.699  1.00  0.00     0.107 A 
HETATM    3  C6  UNL     1      14.236  -7.878   2.349  1.00  0.00     0.077 A 
HETATM    4  C7  UNL     1      15.587  -8.035   2.157  1.00  0.00     0.082 A 
HETATM    5  C8  UNL     1      16.242  -7.157   1.267  1.00  0.00     0.043 A 
HETATM    6  C18 UNL     1      15.563  -6.165   0.605  1.00  0.00     0.116 A 
ENDROOT
BRANCH   5   7
HETATM    7  C9  UNL     1      17.690  -7.405   1.159  1.00  0.00     0.076 C 
BRANCH   7   8
HETATM    8  N1  UNL     1      18.289  -7.584  -0.087  1.00  0.00    -0.295 NA
HETATM    9  C10 UNL     1      17.748  -8.667  -0.912  1.00  0.00     0.116 C 
BRANCH   8  10
HETATM   10  C11 UNL     1      19.705  -7.641  -0.176  1.00  0.00     0.099 C 
BRANCH  10  11
HETATM   11  C12 UNL     1      20.376  -6.395  -0.710  1.00  0.00    -0.001 C 
HETATM   12  C13 UNL     1      21.274  -6.811  -1.831  1.00  0.00     0.006 C 
HETATM   13  C14 UNL     1      22.518  -7.471  -1.327  1.00  0.00     0.000 C 
HETATM   14  C15 UNL     1      23.266  -6.417  -0.551  1.00  0.00     0.000 C 
HETATM   15  C16 UNL     1      22.484  -5.934   0.614  1.00  0.00     0.000 C 
HETATM   16  C17 UNL     1      21.055  -5.667   0.398  1.00  0.00     0.006 C 
ENDBRANCH  10  11
ENDBRANCH   8  10
ENDBRANCH   7   8
ENDBRANCH   5   7
BRANCH   4  17
HETATM   17  O3  UNL     1      16.289  -9.042   2.833  1.00  0.00    -0.360 OA
ATOM     18  H3  UNL     1      17.067  -9.429   2.449  1.00  0.00     0.217 HD
ENDBRANCH   4  17
BRANCH   6  19
HETATM   19  O4  UNL     1      16.201  -5.293  -0.265  1.00  0.00    -0.357 OA
ATOM     20  H4  UNL     1      16.568  -4.480   0.063  1.00  0.00     0.217 HD
ENDBRANCH   6  19
BRANCH   1  21
HETATM   21  O1  UNL     1      13.524  -5.050   0.164  1.00  0.00    -0.346 OA
BRANCH  21  22
HETATM   22  C2  UNL     1      13.160  -3.835   0.742  1.00  0.00     0.171 C 
HETATM   23  C1  UNL     1      14.155  -3.262   1.700  1.00  0.00     0.034 C 
ENDBRANCH  21  22
ENDBRANCH   1  21
BRANCH   2  24
HETATM   24  O2  UNL     1      12.158  -6.735   1.890  1.00  0.00    -0.353 OA
HETATM   25  C5  UNL     1      11.164  -7.677   1.648  1.00  0.00     0.210 C 
ENDBRANCH   2  24
TORSDOF 9
ENDMDL
MODEL 4
REMARK VINA RESULT: -5.911431611      3.837      8.283
REMARK  9 active torsions:
REMARK  status: ('A' for Active; 'I' for Inactive)
REMARK    1  A    between atoms: C2_2  and  O1_3 
REMARK    2  A    between atoms: O1_3  and  C3_4 
REMARK    3  A    between atoms: C4_5  and  O2_6 
REMARK    4  A    between atoms: C7_9  and  O3_10 
REMARK    5  A    between atoms: C8_12  and  C9_13 
REMARK    6  A    between atoms: C9_13  and  N1_14 
REMARK    7  A    between atoms: N1_14  and  C11_16 
REMARK    8  A    between atoms: C11_16  and  C12_17 
REMARK    9  A    between atoms: C18_23  and  O4_24 
ROOT
HETATM    1  C3  UNL     1      14.417  -8.511   2.494  1.00  0.00     0.136 A 
HETATM    2  C4  UNL     1      13.059  -8.231   2.536  1.00  0.00     0.107 A 
HETATM    3  C6  UNL     1      12.337  -8.629   3.644  1.00  0.00     0.077 A 
HETATM    4  C7  UNL     1      12.927  -9.288   4.694  1.00  0.00     0.082 A 
HETATM    5  C8  UNL     1      14.311  -9.558   4.620  1.00  0.00     0.043 A 
HETATM    6  C18 UNL     1      15.061  -9.178   3.536  1.00  0.00     0.116 A 
ENDROOT
BRANCH   5   7
HETATM    7  C9  UNL     1      14.838 -10.247   5.811  1.00  0.00     0.076 C 
BRANCH   7   8
HETATM    8  N1  UNL     1      15.082 -11.619   5.787  1.00  0.00    -0.295 NA
HETATM    9  C10 UNL     1      15.666 -12.149   4.552  1.00  0.00     0.116 C 
BRANCH   8  10
HETATM   10  C11 UNL     1      14.060 -12.514   6.199  1.00  0.00     0.099 C 
BRANCH  10  11
HETATM   11  C12 UNL     1      14.523 -13.900   6.588  1.00  0.00    -0.001 C 
HETATM   12  C13 UNL     1      13.306 -14.719   6.878  1.00  0.00     0.006 C 
HETATM   13  C14 UNL     1      12.702 -14.365   8.200  1.00  0.00     0.000 C 
HETATM   14  C15 UNL     1      13.726 -14.741   9.241  1.00  0.00     0.000 C 
HETATM   15  C16 UNL     1      14.985 -13.973   9.077  1.00  0.00     0.000 C 
HETATM   16  C17 UNL     1      15.501 -13.815   7.709  1.00  0.00     0.006 C 
ENDBRANCH  10  11
ENDBRANCH   8  10
ENDBRANCH   7   8
ENDBRANCH   5   7
BRANCH   4  17
HETATM   17  O3  UNL     1      12.169  -9.676   5.807  1.00  0.00    -0.360 OA
ATOM     18  H3  UNL     1      12.524 -10.285   6.444  1.00  0.00     0.217 HD
ENDBRANCH   4  17
BRANCH   6  19
HETATM   19  O4  UNL     1      16.423  -9.432   3.460  1.00  0.00    -0.357 OA
ATOM     20  H4  UNL     1      16.944  -9.468   4.253  1.00  0.00     0.217 HD
ENDBRANCH   6  19
BRANCH   1  21
HETATM   21  O1  UNL     1      15.179  -8.136   1.416  1.00  0.00    -0.346 OA
BRANCH  21  22
HETATM   22  C2  UNL     1      15.895  -6.942   1.349  1.00  0.00     0.171 C 
HETATM   23  C1  UNL     1      15.369  -5.938   0.373  1.00  0.00     0.034 C 
ENDBRANCH  21  22
ENDBRANCH   1  21
BRANCH   2  24
HETATM   24  O2  UNL     1      12.465  -7.569   1.477  1.00  0.00    -0.353 OA
HETATM   25  C5  UNL     1      11.257  -7.885   0.863  1.00  0.00     0.210 C 
ENDBRANCH   2  24
TORSDOF 9
ENDMDL
MODEL 5
REMARK VINA RESULT: -5.841262965      1.490      1.998
REMARK  9 active torsions:
REMARK  status: ('A' for Active; 'I' for Inactive)
REMARK    1  A    between atoms: C2_2  and  O1_3 
REMARK    2  A    between atoms: O1_3  and  C3_4 
REMARK    3  A    between atoms: C4_5  and  O2_6 
REMARK    4  A    between atoms: C7_9  and  O3_10 
REMARK    5  A    between atoms: C8_12  and  C9_13 
REMARK    6  A    between atoms: C9_13  and  N1_14 
REMARK    7  A    between atoms: N1_14  and  C11_16 
REMARK    8  A    between atoms: C11_16  and  C12_17 
REMARK    9  A    between atoms: C18_23  and  O4_24 
ROOT
HETATM    1  C3  UNL     1      14.700  -7.325   1.834  1.00  0.00     0.136 A 
HETATM    2  C4  UNL     1      14.240  -6.230   1.117  1.00  0.00     0.107 A 
HETATM    3  C6  UNL     1      15.100  -5.610   0.234  1.00  0.00     0.077 A 
HETATM    4  C7  UNL     1      16.389  -6.046   0.052  1.00  0.00     0.082 A 
HETATM    5  C8  UNL     1      16.828  -7.162   0.798  1.00  0.00     0.043 A 
HETATM    6  C18 UNL     1      16.001  -7.805   1.684  1.00  0.00     0.116 A 
ENDROOT
BRANCH   5   7
HETATM    7  C9  UNL     1      18.217  -7.553   0.503  1.00  0.00     0.076 C 
BRANCH   7   8
HETATM    8  N1  UNL     1      18.586  -7.954  -0.780  1.00  0.00    -0.295 NA
HETATM    9  C10 UNL     1      17.880  -9.120  -1.319  1.00  0.00     0.116 C 
BRANCH   8  10
HETATM   10  C11 UNL     1      19.962  -8.101  -1.094  1.00  0.00     0.099 C 
BRANCH  10  11
HETATM   11  C12 UNL     1      20.681  -6.830  -1.489  1.00  0.00    -0.001 C 
HETATM   12  C13 UNL     1      21.029  -6.940  -2.939  1.00  0.00     0.006 C 
HETATM   13  C14 UNL     1      22.183  -7.865  -3.163  1.00  0.00     0.000 C 
HETATM   14  C15 UNL     1      23.369  -7.223  -2.488  1.00  0.00     0.000 C 
HETATM   15  C16 UNL     1      23.158  -7.078  -1.027  1.00  0.00     0.000 C 
HETATM   16  C17 UNL     1      21.841  -6.597  -0.584  1.00  0.00     0.006 C 
ENDBRANCH  10  11
ENDBRANCH   8  10
ENDBRANCH   7   8
ENDBRANCH   5   7
BRANCH   4  17
HETATM   17  O3  UNL     1      17.239  -5.398  -0.854  1.00  0.00    -0.360 OA
ATOM     18  H3  UNL     1      17.721  -4.622  -0.593  1.00  0.00     0.217 HD
ENDBRANCH   4  17
BRANCH   6  19
HETATM   19  O4  UNL     1      16.422  -8.907   2.414  1.00  0.00    -0.357 OA
ATOM     20  H4  UNL     1      15.782  -9.474   2.828  1.00  0.00     0.217 HD
ENDBRANCH   6  19
BRANCH   1  21
HETATM   21  O1  UNL     1      13.884  -7.977   2.724  1.00  0.00    -0.346 OA
BRANCH  21  22
HETATM   22  C2  UNL     1      13.254  -9.191   2.453  1.00  0.00     0.171 C 
HETATM   23  C1  UNL     1      12.010  -9.093   1.628  1.00  0.00     0.034 C 
ENDBRANCH  21  22
ENDBRANCH   1  21
BRANCH   2  24
HETATM   24  O2  UNL     1      12.941  -5.790   1.303  1.00  0.00    -0.353 OA
HETATM   25  C5  UNL     1      12.534  -4.506   1.650  1.00  0.00     0.210 C 
ENDBRANCH   2  24
TORSDOF 9
ENDMDL
