MODEL 1
REMARK VINA RESULT: -6.178207802      0.000      0.000
REMARK  7 active torsions:
REMARK  status: ('A' for Active; 'I' for Inactive)
REMARK    1  A    between atoms: O1_2  and  C2_3 
REMARK    2  A    between atoms: C4_5  and  N1_6 
REMARK    3  A    between atoms: N1_6  and  C5_8 
REMARK    4  A    between atoms: C12_15  and  O2_16 
REMARK    5  A    between atoms: O2_16  and  C13_17 
REMARK    6  A    between atoms: C13_17  and  C14_18 
REMARK    7  A    between atoms: C17_24  and  O3_25 
ROOT
HETATM    1  C2  UNL     1      15.062  -5.210  -0.680  1.00  0.00     0.106 A 
HETATM    2  C3  UNL     1      16.330  -5.530  -1.181  1.00  0.00     0.069 A 
HETATM    3  C4  UNL     1      17.229  -6.250  -0.435  1.00  0.00     0.033 A 
HETATM    4  C11 UNL     1      16.856  -6.654   0.826  1.00  0.00     0.069 A 
HETATM    5  C12 UNL     1      15.616  -6.357   1.350  1.00  0.00     0.107 A 
HETATM    6  C17 UNL     1      14.727  -5.633   0.584  1.00  0.00     0.135 A 
ENDROOT
BRANCH   3   7
HETATM    7  N1  UNL     1      18.499  -6.580  -0.941  1.00  0.00    -0.385 N 
ATOM      8  H1  UNL     1      18.722  -6.420  -1.923  1.00  0.00     0.160 HD
BRANCH   7   9
HETATM    9  C5  UNL     1      19.487  -7.149  -0.051  1.00  0.00     0.081 C 
HETATM   10  C6  UNL     1      20.538  -6.097   0.213  1.00  0.00     0.025 C 
HETATM   11  C7  UNL     1      21.857  -6.582  -0.356  1.00  0.00     0.002 C 
HETATM   12  C8  UNL     1      21.666  -6.982  -1.791  1.00  0.00     0.000 C 
HETATM   13  C9  UNL     1      20.731  -8.145  -1.916  1.00  0.00     0.002 C 
HETATM   14  C10 UNL     1      20.063  -8.420  -0.614  1.00  0.00     0.025 C 
ENDBRANCH   7   9
ENDBRANCH   3   7
BRANCH   1  15
HETATM   15  O1  UNL     1      14.180  -4.482  -1.461  1.00  0.00    -0.353 OA
HETATM   16  C1  UNL     1      13.736  -4.989  -2.697  1.00  0.00     0.210 C 
ENDBRANCH   1  15
BRANCH   5  17
HETATM   17  O2  UNL     1      15.252  -6.762   2.603  1.00  0.00    -0.346 OA
BRANCH  17  18
HETATM   18  C13 UNL     1      14.926  -8.122   2.818  1.00  0.00     0.208 C 
BRANCH  18  19
HETATM   19  C14 UNL     1      15.745  -8.718   3.952  1.00  0.00     0.211 C 
HETATM   20  C15 UNL     1      14.913  -8.763   5.223  1.00  0.00     0.062 C 
HETATM   21  C16 UNL     1      14.445 -10.086   4.689  1.00  0.00     0.235 C 
HETATM   22  N2  UNL     1      15.660 -10.159   3.894  1.00  0.00    -0.069 N 
ATOM     23  H22 UNL     1      15.664 -10.644   2.997  1.00  0.00     0.277 HD
ATOM     24  H21 UNL     1      16.443 -10.738   4.198  1.00  0.00     0.277 HD
ENDBRANCH  18  19
ENDBRANCH  17  18
ENDBRANCH   5  17
BRANCH   6  25
HETATM   25  O3  UNL     1      13.466  -5.312   1.074  1.00  0.00    -0.351 OA
HETATM   26  C18 UNL     1      13.159  -4.101   1.704  1.00  0.00     0.210 C 
ENDBRANCH   6  25
TORSDOF 7
ENDMDL
MODEL 2
REMARK VINA RESULT: -6.165277938      1.092      1.271
REMARK  7 active torsions:
REMARK  status: ('A' for Active; 'I' for Inactive)
REMARK    1  A    between atoms: O1_2  and  C2_3 
REMARK    2  A    between atoms: C4_5  and  N1_6 
REMARK    3  A    between atoms: N1_6  and  C5_8 
REMARK    4  A    between atoms: C12_15  and  O2_16 
REMARK    5  A    between atoms: O2_16  and  C13_17 
REMARK    6  A    between atoms: C13_17  and  C14_18 
REMARK    7  A    between atoms: C17_24  and  O3_25 
ROOT
HETATM    1  C2  UNL     1      15.095  -6.052  -0.011  1.00  0.00     0.106 A 
HETATM    2  C3  UNL     1      16.365  -6.032  -0.602  1.00  0.00     0.069 A 
HETATM    3  C4  UNL     1      17.483  -6.402   0.101  1.00  0.00     0.033 A 
HETATM    4  C11 UNL     1      17.332  -6.796   1.410  1.00  0.00     0.069 A 
HETATM    5  C12 UNL     1      16.098  -6.829   2.024  1.00  0.00     0.107 A 
HETATM    6  C17 UNL     1      14.986  -6.454   1.300  1.00  0.00     0.135 A 
ENDROOT
BRANCH   3   7
HETATM    7  N1  UNL     1      18.758  -6.390  -0.495  1.00  0.00    -0.385 N 
ATOM      8  H1  UNL     1      18.916  -5.882  -1.364  1.00  0.00     0.160 HD
BRANCH   7   9
HETATM    9  C5  UNL     1      19.840  -7.108   0.139  1.00  0.00     0.081 C 
HETATM   10  C6  UNL     1      21.031  -6.183   0.218  1.00  0.00     0.025 C 
HETATM   11  C7  UNL     1      22.142  -6.758  -0.638  1.00  0.00     0.002 C 
HETATM   12  C8  UNL     1      21.616  -7.044  -2.015  1.00  0.00     0.000 C 
HETATM   13  C9  UNL     1      20.556  -8.100  -1.987  1.00  0.00     0.002 C 
HETATM   14  C10 UNL     1      20.146  -8.391  -0.586  1.00  0.00     0.025 C 
ENDBRANCH   7   9
ENDBRANCH   3   7
BRANCH   1  15
HETATM   15  O1  UNL     1      13.988  -5.673  -0.750  1.00  0.00    -0.353 OA
HETATM   16  C1  UNL     1      13.720  -4.311  -0.984  1.00  0.00     0.210 C 
ENDBRANCH   1  15
BRANCH   5  17
HETATM   17  O2  UNL     1      15.954  -7.222   3.324  1.00  0.00    -0.346 OA
BRANCH  17  18
HETATM   18  C13 UNL     1      15.719  -8.588   3.607  1.00  0.00     0.208 C 
BRANCH  18  19
HETATM   19  C14 UNL     1      14.708  -8.759   4.728  1.00  0.00     0.211 C 
HETATM   20  C15 UNL     1      13.728  -9.867   4.377  1.00  0.00     0.062 C 
HETATM   21  C16 UNL     1      14.759 -10.767   4.993  1.00  0.00     0.235 C 
HETATM   22  N2  UNL     1      15.262  -9.627   5.742  1.00  0.00    -0.069 N 
ATOM     23  H22 UNL     1      16.248  -9.566   5.994  1.00  0.00     0.277 HD
ATOM     24  H21 UNL     1      15.014  -9.502   6.723  1.00  0.00     0.277 HD
ENDBRANCH  18  19
ENDBRANCH  17  18
ENDBRANCH   5  17
BRANCH   6  25
HETATM   25  O3  UNL     1      13.722  -6.472   1.879  1.00  0.00    -0.351 OA
HETATM   26  C18 UNL     1      12.786  -7.492   1.675  1.00  0.00     0.210 C 
ENDBRANCH   6  25
TORSDOF 7
ENDMDL
MODEL 3
REMARK VINA RESULT: -6.006945969      1.407      1.479
REMARK  7 active torsions:
REMARK  status: ('A' for Active; 'I' for Inactive)
REMARK    1  A    between atoms: O1_2  and  C2_3 
REMARK    2  A    between atoms: C4_5  and  N1_6 
REMARK    3  A    between atoms: N1_6  and  C5_8 
REMARK    4  A    between atoms: C12_15  and  O2_16 
REMARK    5  A    between atoms: O2_16  and  C13_17 
REMARK    6  A    between atoms: C13_17  and  C14_18 
REMARK    7  A    between atoms: C17_24  and  O3_25 
ROOT
HETATM    1  C2  UNL     1      14.773  -6.819  -0.442  1.00  0.00     0.106 A 
HETATM    2  C3  UNL     1      16.079  -6.536  -0.862  1.00  0.00     0.069 A 
HETATM    3  C4  UNL     1      17.124  -6.517   0.026  1.00  0.00     0.033 A 
HETATM    4  C11 UNL     1      16.861  -6.784   1.350  1.00  0.00     0.069 A 
HETATM    5  C12 UNL     1      15.589  -7.067   1.799  1.00  0.00     0.107 A 
HETATM    6  C17 UNL     1      14.552  -7.081   0.890  1.00  0.00     0.135 A 
ENDROOT
BRANCH   3   7
HETATM    7  N1  UNL     1      18.437  -6.242  -0.396  1.00  0.00    -0.385 N 
ATOM      8  H1  UNL     1      18.620  -5.485  -1.054  1.00  0.00     0.160 HD
BRANCH   7   9
HETATM    9  C5  UNL     1      19.526  -7.047   0.112  1.00  0.00     0.081 C 
HETATM   10  C6  UNL     1      20.787  -6.217   0.052  1.00  0.00     0.025 C 
HETATM   11  C7  UNL     1      21.745  -6.871  -0.924  1.00  0.00     0.002 C 
HETATM   12  C8  UNL     1      21.044  -7.107  -2.231  1.00  0.00     0.000 C 
HETATM   13  C9  UNL     1      19.915  -8.077  -2.079  1.00  0.00     0.002 C 
HETATM   14  C10 UNL     1      19.646  -8.344  -0.640  1.00  0.00     0.025 C 
ENDBRANCH   7   9
ENDBRANCH   3   7
BRANCH   1  15
HETATM   15  O1  UNL     1      13.742  -6.829  -1.366  1.00  0.00    -0.353 OA
HETATM   16  C1  UNL     1      13.543  -7.945  -2.200  1.00  0.00     0.210 C 
ENDBRANCH   1  15
BRANCH   5  17
HETATM   17  O2  UNL     1      15.336  -7.332   3.114  1.00  0.00    -0.346 OA
BRANCH  17  18
HETATM   18  C13 UNL     1      15.741  -8.575   3.656  1.00  0.00     0.208 C 
BRANCH  18  19
HETATM   19  C14 UNL     1      14.619  -9.599   3.601  1.00  0.00     0.211 C 
HETATM   20  C15 UNL     1      14.597 -10.412   4.885  1.00  0.00     0.062 C 
HETATM   21  C16 UNL     1      13.731  -9.297   5.396  1.00  0.00     0.235 C 
HETATM   22  N2  UNL     1      13.385  -8.978   4.022  1.00  0.00    -0.069 N 
ATOM     23  H22 UNL     1      13.168  -8.018   3.751  1.00  0.00     0.277 HD
ATOM     24  H21 UNL     1      12.493  -9.278   3.629  1.00  0.00     0.277 HD
ENDBRANCH  18  19
ENDBRANCH  17  18
ENDBRANCH   5  17
BRANCH   6  25
HETATM   25  O3  UNL     1      13.253  -7.362   1.299  1.00  0.00    -0.351 OA
HETATM   26  C18 UNL     1      12.319  -6.383   1.654  1.00  0.00     0.210 C 
ENDBRANCH   6  25
TORSDOF 7
ENDMDL
MODEL 4
REMARK VINA RESULT: -5.935207826      1.310      1.785
REMARK  7 active torsions:
REMARK  status: ('A' for Active; 'I' for Inactive)
REMARK    1  A    between atoms: O1_2  and  C2_3 
REMARK    2  A    between atoms: C4_5  and  N1_6 
REMARK    3  A    between atoms: N1_6  and  C5_8 
REMARK    4  A    between atoms: C12_15  and  O2_16 
REMARK    5  A    between atoms: O2_16  and  C13_17 
REMARK    6  A    between atoms: C13_17  and  C14_18 
REMARK    7  A    between atoms: C17_24  and  O3_25 
ROOT
HETATM    1  C2  UNL     1      15.647  -6.137   0.122  1.00  0.00     0.106 A 
HETATM    2  C3  UNL     1      16.962  -6.405  -0.278  1.00  0.00     0.069 A 
HETATM    3  C4  UNL     1      17.875  -6.942   0.593  1.00  0.00     0.033 A 
HETATM    4  C11 UNL     1      17.470  -7.214   1.879  1.00  0.00     0.069 A 
HETATM    5  C12 UNL     1      16.184  -6.964   2.307  1.00  0.00     0.107 A 
HETATM    6  C17 UNL     1      15.281  -6.424   1.415  1.00  0.00     0.135 A 
ENDROOT
BRANCH   3   7
HETATM    7  N1  UNL     1      19.194  -7.220   0.190  1.00  0.00    -0.385 N 
ATOM      8  H1  UNL     1      19.690  -8.027   0.568  1.00  0.00     0.160 HD
BRANCH   7   9
HETATM    9  C5  UNL     1      19.840  -6.348  -0.765  1.00  0.00     0.081 C 
HETATM   10  C6  UNL     1      20.363  -7.200  -1.897  1.00  0.00     0.025 C 
HETATM   11  C7  UNL     1      21.875  -7.105  -1.910  1.00  0.00     0.002 C 
HETATM   12  C8  UNL     1      22.409  -7.419  -0.543  1.00  0.00     0.000 C 
HETATM   13  C9  UNL     1      21.960  -6.409   0.466  1.00  0.00     0.002 C 
HETATM   14  C10 UNL     1      20.915  -5.522  -0.113  1.00  0.00     0.025 C 
ENDBRANCH   7   9
ENDBRANCH   3   7
BRANCH   1  15
HETATM   15  O1  UNL     1      14.752  -5.595  -0.785  1.00  0.00    -0.353 OA
HETATM   16  C1  UNL     1      15.163  -5.285  -2.095  1.00  0.00     0.210 C 
ENDBRANCH   1  15
BRANCH   5  17
HETATM   17  O2  UNL     1      15.787  -7.238   3.585  1.00  0.00    -0.346 OA
BRANCH  17  18
HETATM   18  C13 UNL     1      15.641  -8.587   3.985  1.00  0.00     0.208 C 
BRANCH  18  19
HETATM   19  C14 UNL     1      14.848  -8.701   5.277  1.00  0.00     0.211 C 
HETATM   20  C15 UNL     1      13.532  -9.416   5.015  1.00  0.00     0.062 C 
HETATM   21  C16 UNL     1      14.338 -10.661   5.245  1.00  0.00     0.235 C 
HETATM   22  N2  UNL     1      15.289  -9.869   6.005  1.00  0.00    -0.069 N 
ATOM     23  H22 UNL     1      16.276 -10.123   6.028  1.00  0.00     0.277 HD
ATOM     24  H21 UNL     1      15.274  -9.880   7.025  1.00  0.00     0.277 HD
ENDBRANCH  18  19
ENDBRANCH  17  18
ENDBRANCH   5  17
BRANCH   6  25
HETATM   25  O3  UNL     1      13.973  -6.156   1.804  1.00  0.00    -0.351 OA
HETATM   26  C18 UNL     1      12.923  -7.074   1.691  1.00  0.00     0.210 C 
ENDBRANCH   6  25
TORSDOF 7
ENDMDL
MODEL 5
REMARK VINA RESULT: -5.894361723      1.953      4.505
REMARK  7 active torsions:
REMARK  status: ('A' for Active; 'I' for Inactive)
REMARK    1  A    between atoms: O1_2  and  C2_3 
REMARK    2  A    between atoms: C4_5  and  N1_6 
REMARK    3  A    between atoms: N1_6  and  C5_8 
REMARK    4  A    between atoms: C12_15  and  O2_16 
REMARK    5  A    between atoms: O2_16  and  C13_17 
REMARK    6  A    between atoms: C13_17  and  C14_18 
REMARK    7  A    between atoms: C17_24  and  O3_25 
ROOT
HETATM    1  C2  UNL     1      15.985  -6.784   1.922  1.00  0.00     0.106 A 
HETATM    2  C3  UNL     1      17.252  -6.754   1.325  1.00  0.00     0.069 A 
HETATM    3  C4  UNL     1      17.411  -6.398   0.010  1.00  0.00     0.033 A 
HETATM    4  C11 UNL     1      16.291  -6.068  -0.718  1.00  0.00     0.069 A 
HETATM    5  C12 UNL     1      15.029  -6.087  -0.163  1.00  0.00     0.107 A 
HETATM    6  C17 UNL     1      14.891  -6.447   1.161  1.00  0.00     0.135 A 
ENDROOT
BRANCH   3   7
HETATM    7  N1  UNL     1      18.684  -6.358  -0.588  1.00  0.00    -0.385 N 
ATOM      8  H1  UNL     1      18.844  -5.794  -1.422  1.00  0.00     0.160 HD
BRANCH   7   9
HETATM    9  C5  UNL     1      19.762  -7.125  -0.006  1.00  0.00     0.081 C 
HETATM   10  C6  UNL     1      20.986  -6.242   0.051  1.00  0.00     0.025 C 
HETATM   11  C7  UNL     1      22.047  -6.835  -0.854  1.00  0.00     0.002 C 
HETATM   12  C8  UNL     1      21.466  -7.074  -2.217  1.00  0.00     0.000 C 
HETATM   13  C9  UNL     1      20.371  -8.094  -2.175  1.00  0.00     0.002 C 
HETATM   14  C10 UNL     1      19.999  -8.401  -0.767  1.00  0.00     0.025 C 
ENDBRANCH   7   9
ENDBRANCH   3   7
BRANCH   1  15
HETATM   15  O1  UNL     1      15.862  -7.149   3.252  1.00  0.00    -0.353 OA
HETATM   16  C1  UNL     1      15.976  -8.498   3.635  1.00  0.00     0.210 C 
ENDBRANCH   1  15
BRANCH   5  17
HETATM   17  O2  UNL     1      13.921  -5.758  -0.891  1.00  0.00    -0.346 OA
BRANCH  17  18
HETATM   18  C13 UNL     1      13.853  -4.484  -1.502  1.00  0.00     0.208 C 
BRANCH  18  19
HETATM   19  C14 UNL     1      13.656  -3.382  -0.473  1.00  0.00     0.211 C 
HETATM   20  C15 UNL     1      12.834  -2.254  -1.074  1.00  0.00     0.062 C 
HETATM   21  C16 UNL     1      11.660  -3.071  -0.617  1.00  0.00     0.235 C 
HETATM   22  N2  UNL     1      12.523  -3.707   0.363  1.00  0.00    -0.069 N 
ATOM     23  H22 UNL     1      12.355  -4.670   0.656  1.00  0.00     0.277 HD
ATOM     24  H21 UNL     1      12.499  -3.418   1.340  1.00  0.00     0.277 HD
ENDBRANCH  18  19
ENDBRANCH  17  18
ENDBRANCH   5  17
BRANCH   6  25
HETATM   25  O3  UNL     1      13.636  -6.479   1.761  1.00  0.00    -0.351 OA
HETATM   26  C18 UNL     1      12.814  -7.611   1.789  1.00  0.00     0.210 C 
ENDBRANCH   6  25
TORSDOF 7
ENDMDL
