MODEL 1
REMARK VINA RESULT: -6.716228104      0.000      0.000
REMARK  5 active torsions:
REMARK  status: ('A' for Active; 'I' for Inactive)
REMARK    1  A    between atoms: N1_2  and  C2_3 
REMARK    2  A    between atoms: C2_3  and  C3_4 
REMARK    3  A    between atoms: C3_4  and  O1_5 
REMARK    4  A    between atoms: C4_7  and  C5_8 
REMARK    5  A    between atoms: C14_18  and  O2_19 
ROOT
HETATM    1  C5  UNL     1      12.664 -15.018   9.031  1.00  0.00     0.020 C 
HETATM    2  C6  UNL     1      11.873 -13.699   8.871  1.00  0.00     0.022 C 
HETATM    3  C7  UNL     1      11.412 -13.443   7.493  1.00  0.00    -0.011 C 
HETATM    4  C8  UNL     1      10.641 -14.641   6.932  1.00  0.00     0.012 C 
HETATM    5  C9  UNL     1      11.516 -15.834   7.036  1.00  0.00     0.018 C 
HETATM    6  C10 UNL     1      12.767 -15.664   6.192  1.00  0.00     0.033 C 
HETATM    7  C11 UNL     1      13.505 -14.477   6.727  1.00  0.00     0.039 C 
HETATM    8 CL1  UNL     1      15.004 -14.167   5.812  1.00  0.00    -0.119 Cl
HETATM    9  C12 UNL     1      12.613 -13.264   6.586  1.00  0.00     0.030 C 
HETATM   10  C13 UNL     1      13.922 -14.753   8.154  1.00  0.00     0.043 C 
HETATM   11  C14 UNL     1      11.907 -16.139   8.480  1.00  0.00     0.136 C 
ENDROOT
BRANCH   1  12
HETATM   12  C4  UNL     1      13.079 -14.997  10.455  1.00  0.00     0.075 C 
HETATM   13  N1  UNL     1      13.203 -16.094  11.255  1.00  0.00    -0.375 N 
HETATM   14  C1  UNL     1      12.055 -16.745  11.743  1.00  0.00     0.154 C 
BRANCH  13  15
HETATM   15  C2  UNL     1      14.428 -16.723  11.490  1.00  0.00     0.088 C 
BRANCH  15  16
HETATM   16  C3  UNL     1      15.632 -15.976  10.948  1.00  0.00     0.208 C 
BRANCH  16  17
HETATM   17  O1  UNL     1      16.591 -16.935  10.617  1.00  0.00    -0.396 OA
ATOM     18  H1  UNL     1      16.818 -16.796   9.705  1.00  0.00     0.209 HD
ENDBRANCH  16  17
ENDBRANCH  15  16
ENDBRANCH  13  15
ENDBRANCH   1  12
BRANCH  11  19
HETATM   19  O2  UNL     1      12.664 -17.344   8.437  1.00  0.00    -0.394 OA
ATOM     20  H2  UNL     1      12.167 -18.100   8.729  1.00  0.00     0.210 HD
ENDBRANCH  11  19
TORSDOF 5
ENDMDL
MODEL 2
REMARK VINA RESULT: -5.565835655      1.617      2.374
REMARK  5 active torsions:
REMARK  status: ('A' for Active; 'I' for Inactive)
REMARK    1  A    between atoms: N1_2  and  C2_3 
REMARK    2  A    between atoms: C2_3  and  C3_4 
REMARK    3  A    between atoms: C3_4  and  O1_5 
REMARK    4  A    between atoms: C4_7  and  C5_8 
REMARK    5  A    between atoms: C14_18  and  O2_19 
ROOT
HETATM    1  C5  UNL     1      13.000 -14.755   8.882  1.00  0.00     0.020 C 
HETATM    2  C6  UNL     1      12.163 -15.942   8.348  1.00  0.00     0.022 C 
HETATM    3  C7  UNL     1      11.921 -15.894   6.894  1.00  0.00    -0.011 C 
HETATM    4  C8  UNL     1      13.227 -15.723   6.116  1.00  0.00     0.012 C 
HETATM    5  C9  UNL     1      13.906 -14.509   6.628  1.00  0.00     0.018 C 
HETATM    6  C10 UNL     1      13.064 -13.270   6.376  1.00  0.00     0.033 C 
HETATM    7  C11 UNL     1      11.777 -13.451   7.118  1.00  0.00     0.039 C 
HETATM    8 CL1  UNL     1      10.689 -12.055   6.898  1.00  0.00    -0.119 Cl
HETATM    9  C12 UNL     1      11.082 -14.676   6.564  1.00  0.00     0.030 C 
HETATM   10  C13 UNL     1      12.065 -13.543   8.599  1.00  0.00     0.043 C 
HETATM   11  C14 UNL     1      14.234 -14.614   8.116  1.00  0.00     0.136 C 
ENDROOT
BRANCH   1  12
HETATM   12  C4  UNL     1      13.027 -14.988  10.347  1.00  0.00     0.075 C 
HETATM   13  N1  UNL     1      13.132 -16.207  10.948  1.00  0.00    -0.375 N 
HETATM   14  C1  UNL     1      12.030 -17.081  10.970  1.00  0.00     0.154 C 
BRANCH  13  15
HETATM   15  C2  UNL     1      14.347 -16.719  11.412  1.00  0.00     0.088 C 
BRANCH  15  16
HETATM   16  C3  UNL     1      15.570 -15.950  10.949  1.00  0.00     0.208 C 
BRANCH  16  17
HETATM   17  O1  UNL     1      16.540 -16.895  10.608  1.00  0.00    -0.396 OA
ATOM     18  H1  UNL     1      17.342 -16.417  10.432  1.00  0.00     0.209 HD
ENDBRANCH  16  17
ENDBRANCH  15  16
ENDBRANCH  13  15
ENDBRANCH   1  12
BRANCH  11  19
HETATM   19  O2  UNL     1      14.953 -13.430   8.445  1.00  0.00    -0.394 OA
ATOM     20  H2  UNL     1      14.640 -12.667   7.974  1.00  0.00     0.210 HD
ENDBRANCH  11  19
TORSDOF 5
ENDMDL
MODEL 3
REMARK VINA RESULT: -5.510711864      3.303      4.665
REMARK  5 active torsions:
REMARK  status: ('A' for Active; 'I' for Inactive)
REMARK    1  A    between atoms: N1_2  and  C2_3 
REMARK    2  A    between atoms: C2_3  and  C3_4 
REMARK    3  A    between atoms: C3_4  and  O1_5 
REMARK    4  A    between atoms: C4_7  and  C5_8 
REMARK    5  A    between atoms: C14_18  and  O2_19 
ROOT
HETATM    1  C5  UNL     1      13.039 -13.905   6.841  1.00  0.00     0.020 C 
HETATM    2  C6  UNL     1      13.212 -15.333   6.271  1.00  0.00     0.022 C 
HETATM    3  C7  UNL     1      12.264 -16.316   6.828  1.00  0.00    -0.011 C 
HETATM    4  C8  UNL     1      10.819 -15.827   6.708  1.00  0.00     0.012 C 
HETATM    5  C9  UNL     1      10.731 -14.502   7.369  1.00  0.00     0.018 C 
HETATM    6  C10 UNL     1      11.050 -14.612   8.850  1.00  0.00     0.033 C 
HETATM    7  C11 UNL     1      12.456 -15.115   8.963  1.00  0.00     0.039 C 
HETATM    8 CL1  UNL     1      12.954 -15.293  10.666  1.00  0.00    -0.119 Cl
HETATM    9  C12 UNL     1      12.522 -16.479   8.312  1.00  0.00     0.030 C 
HETATM   10  C13 UNL     1      13.396 -14.107   8.343  1.00  0.00     0.043 C 
HETATM   11  C14 UNL     1      11.651 -13.470   6.719  1.00  0.00     0.136 C 
ENDROOT
BRANCH   1  12
HETATM   12  C4  UNL     1      14.142 -13.146   6.201  1.00  0.00     0.075 C 
HETATM   13  N1  UNL     1      15.466 -13.460   6.285  1.00  0.00    -0.375 N 
HETATM   14  C1  UNL     1      16.175 -13.216   7.475  1.00  0.00     0.154 C 
BRANCH  13  15
HETATM   15  C2  UNL     1      16.137 -14.178   5.291  1.00  0.00     0.088 C 
BRANCH  15  16
HETATM   16  C3  UNL     1      17.102 -13.351   4.463  1.00  0.00     0.208 C 
BRANCH  16  17
HETATM   17  O1  UNL     1      17.958 -14.248   3.821  1.00  0.00    -0.396 OA
ATOM     18  H1  UNL     1      17.703 -14.266   2.905  1.00  0.00     0.209 HD
ENDBRANCH  16  17
ENDBRANCH  15  16
ENDBRANCH  13  15
ENDBRANCH   1  12
BRANCH  11  19
HETATM   19  O2  UNL     1      11.400 -12.240   7.391  1.00  0.00    -0.394 OA
ATOM     20  H2  UNL     1      10.495 -12.150   7.666  1.00  0.00     0.210 HD
ENDBRANCH  11  19
TORSDOF 5
ENDMDL
MODEL 4
REMARK VINA RESULT: -5.183195337      3.248      4.828
REMARK  5 active torsions:
REMARK  status: ('A' for Active; 'I' for Inactive)
REMARK    1  A    between atoms: N1_2  and  C2_3 
REMARK    2  A    between atoms: C2_3  and  C3_4 
REMARK    3  A    between atoms: C3_4  and  O1_5 
REMARK    4  A    between atoms: C4_7  and  C5_8 
REMARK    5  A    between atoms: C14_18  and  O2_19 
ROOT
HETATM    1  C5  UNL     1      13.803 -14.455   7.334  1.00  0.00     0.020 C 
HETATM    2  C6  UNL     1      12.446 -13.727   7.183  1.00  0.00     0.022 C 
HETATM    3  C7  UNL     1      11.595 -13.797   8.386  1.00  0.00    -0.011 C 
HETATM    4  C8  UNL     1      12.353 -13.336   9.633  1.00  0.00     0.012 C 
HETATM    5  C9  UNL     1      13.583 -14.156   9.748  1.00  0.00     0.018 C 
HETATM    6  C10 UNL     1      13.240 -15.623   9.943  1.00  0.00     0.033 C 
HETATM    7  C11 UNL     1      12.477 -16.064   8.733  1.00  0.00     0.039 C 
HETATM    8 CL1  UNL     1      12.009 -17.782   8.842  1.00  0.00    -0.119 Cl
HETATM    9  C12 UNL     1      11.212 -15.240   8.648  1.00  0.00     0.030 C 
HETATM   10  C13 UNL     1      13.361 -15.937   7.514  1.00  0.00     0.043 C 
HETATM   11  C14 UNL     1      14.497 -13.999   8.535  1.00  0.00     0.136 C 
ENDROOT
BRANCH   1  12
HETATM   12  C4  UNL     1      14.417 -14.314   5.991  1.00  0.00     0.075 C 
HETATM   13  N1  UNL     1      15.342 -13.374   5.644  1.00  0.00    -0.375 N 
HETATM   14  C1  UNL     1      14.953 -12.036   5.453  1.00  0.00     0.154 C 
BRANCH  13  15
HETATM   15  C2  UNL     1      16.715 -13.636   5.625  1.00  0.00     0.088 C 
BRANCH  15  16
HETATM   16  C3  UNL     1      17.387 -13.372   4.291  1.00  0.00     0.208 C 
BRANCH  16  17
HETATM   17  O1  UNL     1      17.929 -14.584   3.861  1.00  0.00    -0.396 OA
ATOM     18  H1  UNL     1      17.897 -14.580   2.911  1.00  0.00     0.209 HD
ENDBRANCH  16  17
ENDBRANCH  15  16
ENDBRANCH  13  15
ENDBRANCH   1  12
BRANCH  11  19
HETATM   19  O2  UNL     1      15.664 -14.764   8.819  1.00  0.00    -0.394 OA
ATOM     20  H2  UNL     1      16.187 -14.937   8.045  1.00  0.00     0.210 HD
ENDBRANCH  11  19
TORSDOF 5
ENDMDL
MODEL 5
REMARK VINA RESULT: -4.891449387      3.134      4.357
REMARK  5 active torsions:
REMARK  status: ('A' for Active; 'I' for Inactive)
REMARK    1  A    between atoms: N1_2  and  C2_3 
REMARK    2  A    between atoms: C2_3  and  C3_4 
REMARK    3  A    between atoms: C3_4  and  O1_5 
REMARK    4  A    between atoms: C4_7  and  C5_8 
REMARK    5  A    between atoms: C14_18  and  O2_19 
ROOT
HETATM    1  C5  UNL     1      13.174 -14.251   6.998  1.00  0.00     0.020 C 
HETATM    2  C6  UNL     1      12.657 -13.823   8.391  1.00  0.00     0.022 C 
HETATM    3  C7  UNL     1      11.553 -14.659   8.900  1.00  0.00    -0.011 C 
HETATM    4  C8  UNL     1      11.914 -16.145   8.859  1.00  0.00     0.012 C 
HETATM    5  C9  UNL     1      12.299 -16.482   7.466  1.00  0.00     0.018 C 
HETATM    6  C10 UNL     1      11.132 -16.273   6.516  1.00  0.00     0.033 C 
HETATM    7  C11 UNL     1      10.765 -14.823   6.578  1.00  0.00     0.039 C 
HETATM    8 CL1  UNL     1       9.395 -14.446   5.501  1.00  0.00    -0.119 Cl
HETATM    9  C12 UNL     1      10.346 -14.503   7.996  1.00  0.00     0.030 C 
HETATM   10  C13 UNL     1      11.932 -13.993   6.095  1.00  0.00     0.043 C 
HETATM   11  C14 UNL     1      13.503 -15.673   6.989  1.00  0.00     0.136 C 
ENDROOT
BRANCH   1  12
HETATM   12  C4  UNL     1      14.197 -13.223   6.683  1.00  0.00     0.075 C 
HETATM   13  N1  UNL     1      15.541 -13.369   6.866  1.00  0.00    -0.375 N 
HETATM   14  C1  UNL     1      16.087 -13.316   8.161  1.00  0.00     0.154 C 
BRANCH  13  15
HETATM   15  C2  UNL     1      16.408 -13.740   5.835  1.00  0.00     0.088 C 
BRANCH  15  16
HETATM   16  C3  UNL     1      16.276 -12.906   4.574  1.00  0.00     0.208 C 
BRANCH  16  17
HETATM   17  O1  UNL     1      17.524 -12.918   3.947  1.00  0.00    -0.396 OA
ATOM     18  H1  UNL     1      17.681 -13.810   3.661  1.00  0.00     0.209 HD
ENDBRANCH  16  17
ENDBRANCH  15  16
ENDBRANCH  13  15
ENDBRANCH   1  12
BRANCH  11  19
HETATM   19  O2  UNL     1      13.811 -16.157   5.685  1.00  0.00    -0.394 OA
ATOM     20  H2  UNL     1      13.382 -16.982   5.490  1.00  0.00     0.210 HD
ENDBRANCH  11  19
TORSDOF 5
ENDMDL
