MODEL 1
REMARK VINA RESULT: -6.859284056      0.000      0.000
REMARK  5 active torsions:
REMARK  status: ('A' for Active; 'I' for Inactive)
REMARK       I    between atoms: C2_2  and  N1_4 
REMARK    1  A    between atoms: N1_4  and  C3_6 
REMARK    2  A    between atoms: C3_6  and  C4_7 
REMARK    3  A    between atoms: C6_9  and  N2_10 
REMARK    4  A    between atoms: N3_15  and  C8_16 
REMARK    5  A    between atoms: C8_16  and  C9_17 
ROOT
HETATM    1  C4  UNL     1      12.021 -13.756   7.483  1.00  0.00     0.242 C 
HETATM    2  C5  UNL     1      10.725 -13.316   6.750  1.00  0.00     0.072 C 
HETATM    3  C6  UNL     1       9.959 -14.582   6.636  1.00  0.00     0.213 C 
HETATM    4  C7  UNL     1      10.671 -15.541   7.559  1.00  0.00     0.305 C 
HETATM    5  N3  UNL     1      11.539 -14.725   8.395  1.00  0.00     0.097 N 
ENDROOT
BRANCH   5   6
HETATM    6  C8  UNL     1      12.483 -15.620   8.994  1.00  0.00     0.280 C 
BRANCH   6   7
HETATM    7  C9  UNL     1      12.803 -15.151  10.403  1.00  0.00     0.048 C 
HETATM    8  C10 UNL     1      13.882 -14.113  10.435  1.00  0.00     0.009 C 
HETATM    9  C11 UNL     1      15.136 -14.588   9.758  1.00  0.00     0.001 C 
HETATM   10  C12 UNL     1      15.663 -15.765  10.543  1.00  0.00     0.003 C 
HETATM   11  C13 UNL     1      14.630 -16.842  10.741  1.00  0.00     0.037 C 
HETATM   12  C14 UNL     1      13.309 -16.337  11.219  1.00  0.00     0.175 C 
HETATM   13  F1  UNL     1      13.271 -16.085  12.564  1.00  0.00    -0.249 F 
ENDBRANCH   6   7
ENDBRANCH   5   6
BRANCH   1  14
HETATM   14  C3  UNL     1      12.932 -14.201   6.402  1.00  0.00     0.158 C 
BRANCH  14  15
HETATM   15  N1  UNL     1      14.217 -13.599   6.323  1.00  0.00    -0.359 N 
HETATM   16  C2  UNL     1      15.365 -14.251   5.806  1.00  0.00     0.213 C 
HETATM   17  C1  UNL     1      16.653 -13.522   5.774  1.00  0.00     0.117 C 
HETATM   18  O1  UNL     1      15.259 -15.431   5.388  1.00  0.00    -0.274 OA
ATOM     19  H1  UNL     1      14.320 -12.641   6.658  1.00  0.00     0.162 HD
ENDBRANCH  14  15
ENDBRANCH   1  14
BRANCH   3  20
HETATM   20  N2  UNL     1       9.892 -15.148   5.323  1.00  0.00    -0.073 N 
ATOM     21  H23 UNL     1      10.199 -14.464   4.632  1.00  0.00     0.274 HD
ATOM     22  H22 UNL     1      10.617 -15.857   5.211  1.00  0.00     0.274 HD
ATOM     23  H21 UNL     1       8.986 -15.530   5.054  1.00  0.00     0.274 HD
ENDBRANCH   3  20
TORSDOF 5
ENDMDL
MODEL 2
REMARK VINA RESULT: -5.694708472      3.038      5.143
REMARK  5 active torsions:
REMARK  status: ('A' for Active; 'I' for Inactive)
REMARK       I    between atoms: C2_2  and  N1_4 
REMARK    1  A    between atoms: N1_4  and  C3_6 
REMARK    2  A    between atoms: C3_6  and  C4_7 
REMARK    3  A    between atoms: C6_9  and  N2_10 
REMARK    4  A    between atoms: N3_15  and  C8_16 
REMARK    5  A    between atoms: C8_16  and  C9_17 
ROOT
HETATM    1  C4  UNL     1      15.478 -13.471   5.209  1.00  0.00     0.242 C 
HETATM    2  C5  UNL     1      16.908 -13.323   5.797  1.00  0.00     0.072 C 
HETATM    3  C6  UNL     1      16.678 -13.416   7.261  1.00  0.00     0.213 C 
HETATM    4  C7  UNL     1      15.262 -13.922   7.392  1.00  0.00     0.305 C 
HETATM    5  N3  UNL     1      14.891 -14.422   6.076  1.00  0.00     0.097 N 
ENDROOT
BRANCH   5   6
HETATM    6  C8  UNL     1      13.464 -14.546   6.078  1.00  0.00     0.280 C 
BRANCH   6   7
HETATM    7  C9  UNL     1      12.973 -14.731   7.505  1.00  0.00     0.048 C 
HETATM    8  C10 UNL     1      12.111 -15.945   7.666  1.00  0.00     0.009 C 
HETATM    9  C11 UNL     1      10.943 -15.931   6.722  1.00  0.00     0.001 C 
HETATM   10  C12 UNL     1      10.075 -14.750   7.083  1.00  0.00     0.003 C 
HETATM   11  C13 UNL     1      10.843 -13.455   7.124  1.00  0.00     0.037 C 
HETATM   12  C14 UNL     1      12.118 -13.529   7.896  1.00  0.00     0.175 C 
HETATM   13  F1  UNL     1      11.946 -13.444   9.251  1.00  0.00    -0.249 F 
ENDBRANCH   6   7
ENDBRANCH   5   6
BRANCH   1  14
HETATM   14  C3  UNL     1      14.930 -12.094   5.202  1.00  0.00     0.158 C 
BRANCH  14  15
HETATM   15  N1  UNL     1      15.560 -11.130   4.370  1.00  0.00    -0.359 N 
HETATM   16  C2  UNL     1      15.101  -9.797   4.217  1.00  0.00     0.213 C 
HETATM   17  C1  UNL     1      15.840  -8.880   3.320  1.00  0.00     0.117 C 
HETATM   18  O1  UNL     1      14.078  -9.428   4.847  1.00  0.00    -0.274 OA
ATOM     19  H1  UNL     1      16.392 -11.413   3.851  1.00  0.00     0.162 HD
ENDBRANCH  14  15
ENDBRANCH   1  14
BRANCH   3  20
HETATM   20  N2  UNL     1      16.813 -12.189   7.986  1.00  0.00    -0.073 N 
ATOM     21  H23 UNL     1      17.800 -11.956   8.097  1.00  0.00     0.274 HD
ATOM     22  H22 UNL     1      16.506 -11.406   7.408  1.00  0.00     0.274 HD
ATOM     23  H21 UNL     1      16.345 -12.159   8.891  1.00  0.00     0.274 HD
ENDBRANCH   3  20
TORSDOF 5
ENDMDL
MODEL 3
REMARK VINA RESULT: -5.617583470      2.008      4.190
REMARK  5 active torsions:
REMARK  status: ('A' for Active; 'I' for Inactive)
REMARK       I    between atoms: C2_2  and  N1_4 
REMARK    1  A    between atoms: N1_4  and  C3_6 
REMARK    2  A    between atoms: C3_6  and  C4_7 
REMARK    3  A    between atoms: C6_9  and  N2_10 
REMARK    4  A    between atoms: N3_15  and  C8_16 
REMARK    5  A    between atoms: C8_16  and  C9_17 
ROOT
HETATM    1  C4  UNL     1      14.146 -14.761   7.421  1.00  0.00     0.242 C 
HETATM    2  C5  UNL     1      15.367 -14.297   6.582  1.00  0.00     0.072 C 
HETATM    3  C6  UNL     1      16.107 -13.420   7.524  1.00  0.00     0.213 C 
HETATM    4  C7  UNL     1      15.482 -13.696   8.869  1.00  0.00     0.305 C 
HETATM    5  N3  UNL     1      14.708 -14.918   8.710  1.00  0.00     0.097 N 
ENDROOT
BRANCH   5   6
HETATM    6  C8  UNL     1      13.820 -14.984   9.832  1.00  0.00     0.280 C 
BRANCH   6   7
HETATM    7  C9  UNL     1      14.088 -16.258  10.617  1.00  0.00     0.048 C 
HETATM    8  C10 UNL     1      13.609 -17.486   9.905  1.00  0.00     0.009 C 
HETATM    9  C11 UNL     1      12.151 -17.398   9.557  1.00  0.00     0.001 C 
HETATM   10  C12 UNL     1      11.374 -17.333  10.849  1.00  0.00     0.003 C 
HETATM   11  C13 UNL     1      11.851 -16.233  11.761  1.00  0.00     0.037 C 
HETATM   12  C14 UNL     1      13.332 -16.194  11.941  1.00  0.00     0.175 C 
HETATM   13  F1  UNL     1      13.800 -17.113  12.841  1.00  0.00    -0.249 F 
ENDBRANCH   6   7
ENDBRANCH   5   6
BRANCH   1  14
HETATM   14  C3  UNL     1      13.129 -13.702   7.223  1.00  0.00     0.158 C 
BRANCH  14  15
HETATM   15  N1  UNL     1      12.001 -14.004   6.413  1.00  0.00    -0.359 N 
HETATM   16  C2  UNL     1      10.750 -14.431   6.928  1.00  0.00     0.213 C 
HETATM   17  C1  UNL     1       9.646 -14.718   5.985  1.00  0.00     0.117 C 
HETATM   18  O1  UNL     1      10.612 -14.555   8.170  1.00  0.00    -0.274 OA
ATOM     19  H1  UNL     1      12.096 -13.909   5.402  1.00  0.00     0.162 HD
ENDBRANCH  14  15
ENDBRANCH   1  14
BRANCH   3  20
HETATM   20  N2  UNL     1      16.039 -12.018   7.246  1.00  0.00    -0.073 N 
ATOM     21  H23 UNL     1      15.361 -11.842   6.506  1.00  0.00     0.274 HD
ATOM     22  H22 UNL     1      15.591 -11.530   8.023  1.00  0.00     0.274 HD
ATOM     23  H21 UNL     1      16.927 -11.571   7.019  1.00  0.00     0.274 HD
ENDBRANCH   3  20
TORSDOF 5
ENDMDL
MODEL 4
REMARK VINA RESULT: -5.591578816      2.862      4.885
REMARK  5 active torsions:
REMARK  status: ('A' for Active; 'I' for Inactive)
REMARK       I    between atoms: C2_2  and  N1_4 
REMARK    1  A    between atoms: N1_4  and  C3_6 
REMARK    2  A    between atoms: C3_6  and  C4_7 
REMARK    3  A    between atoms: C6_9  and  N2_10 
REMARK    4  A    between atoms: N3_15  and  C8_16 
REMARK    5  A    between atoms: C8_16  and  C9_17 
ROOT
HETATM    1  C4  UNL     1      12.799 -15.777   7.679  1.00  0.00     0.242 C 
HETATM    2  C5  UNL     1      11.490 -16.580   7.443  1.00  0.00     0.072 C 
HETATM    3  C6  UNL     1      10.585 -15.573   6.836  1.00  0.00     0.213 C 
HETATM    4  C7  UNL     1      11.489 -14.421   6.471  1.00  0.00     0.305 C 
HETATM    5  N3  UNL     1      12.848 -14.938   6.541  1.00  0.00     0.097 N 
ENDROOT
BRANCH   5   6
HETATM    6  C8  UNL     1      13.713 -13.797   6.577  1.00  0.00     0.280 C 
BRANCH   6   7
HETATM    7  C9  UNL     1      15.125 -14.220   6.205  1.00  0.00     0.048 C 
HETATM    8  C10 UNL     1      15.950 -14.593   7.397  1.00  0.00     0.009 C 
HETATM    9  C11 UNL     1      16.000 -13.485   8.411  1.00  0.00     0.001 C 
HETATM   10  C12 UNL     1      16.696 -12.309   7.771  1.00  0.00     0.003 C 
HETATM   11  C13 UNL     1      16.074 -11.908   6.459  1.00  0.00     0.037 C 
HETATM   12  C14 UNL     1      15.832 -13.049   5.528  1.00  0.00     0.175 C 
HETATM   13  F1  UNL     1      16.950 -13.451   4.850  1.00  0.00    -0.249 F 
ENDBRANCH   6   7
ENDBRANCH   5   6
BRANCH   1  14
HETATM   14  C3  UNL     1      12.619 -15.148   9.009  1.00  0.00     0.158 C 
BRANCH  14  15
HETATM   15  N1  UNL     1      12.087 -15.945  10.057  1.00  0.00    -0.359 N 
HETATM   16  C2  UNL     1      12.840 -16.905  10.781  1.00  0.00     0.213 C 
HETATM   17  C1  UNL     1      12.176 -17.678  11.854  1.00  0.00     0.117 C 
HETATM   18  O1  UNL     1      14.051 -17.073  10.492  1.00  0.00    -0.274 OA
ATOM     19  H1  UNL     1      11.105 -15.820  10.305  1.00  0.00     0.162 HD
ENDBRANCH  14  15
ENDBRANCH   1  14
BRANCH   3  20
HETATM   20  N2  UNL     1       9.530 -15.100   7.681  1.00  0.00    -0.073 N 
ATOM     21  H23 UNL     1       8.708 -14.877   7.121  1.00  0.00     0.274 HD
ATOM     22  H22 UNL     1       9.164 -15.869   8.243  1.00  0.00     0.274 HD
ATOM     23  H21 UNL     1       9.768 -14.312   8.281  1.00  0.00     0.274 HD
ENDBRANCH   3  20
TORSDOF 5
ENDMDL
MODEL 5
REMARK VINA RESULT: -5.485726851      4.486      7.303
REMARK  5 active torsions:
REMARK  status: ('A' for Active; 'I' for Inactive)
REMARK       I    between atoms: C2_2  and  N1_4 
REMARK    1  A    between atoms: N1_4  and  C3_6 
REMARK    2  A    between atoms: C3_6  and  C4_7 
REMARK    3  A    between atoms: C6_9  and  N2_10 
REMARK    4  A    between atoms: N3_15  and  C8_16 
REMARK    5  A    between atoms: C8_16  and  C9_17 
ROOT
HETATM    1  C4  UNL     1      14.831 -12.501   6.284  1.00  0.00     0.242 C 
HETATM    2  C5  UNL     1      15.791 -13.640   6.725  1.00  0.00     0.072 C 
HETATM    3  C6  UNL     1      16.384 -14.094   5.443  1.00  0.00     0.213 C 
HETATM    4  C7  UNL     1      16.005 -13.022   4.449  1.00  0.00     0.305 C 
HETATM    5  N3  UNL     1      15.556 -11.884   5.237  1.00  0.00     0.097 N 
ENDROOT
BRANCH   5   6
HETATM    6  C8  UNL     1      14.847 -11.024   4.338  1.00  0.00     0.280 C 
BRANCH   6   7
HETATM    7  C9  UNL     1      14.848  -9.606   4.886  1.00  0.00     0.048 C 
HETATM    8  C10 UNL     1      13.498  -8.960   4.819  1.00  0.00     0.009 C 
HETATM    9  C11 UNL     1      12.944  -8.968   3.423  1.00  0.00     0.001 C 
HETATM   10  C12 UNL     1      13.855  -8.126   2.563  1.00  0.00     0.003 C 
HETATM   11  C13 UNL     1      15.296  -8.554   2.649  1.00  0.00     0.037 C 
HETATM   12  C14 UNL     1      15.789  -8.749   4.044  1.00  0.00     0.175 C 
HETATM   13  F1  UNL     1      16.120  -7.582   4.678  1.00  0.00    -0.249 F 
ENDBRANCH   6   7
ENDBRANCH   5   6
BRANCH   1  14
HETATM   14  C3  UNL     1      13.561 -13.188   5.950  1.00  0.00     0.158 C 
BRANCH  14  15
HETATM   15  N1  UNL     1      12.883 -13.879   6.989  1.00  0.00    -0.359 N 
HETATM   16  C2  UNL     1      12.690 -15.284   7.009  1.00  0.00     0.213 C 
HETATM   17  C1  UNL     1      11.966 -15.895   8.147  1.00  0.00     0.117 C 
HETATM   18  O1  UNL     1      13.138 -15.975   6.060  1.00  0.00    -0.274 OA
ATOM     19  H1  UNL     1      12.514 -13.334   7.767  1.00  0.00     0.162 HD
ENDBRANCH  14  15
ENDBRANCH   1  14
BRANCH   3  20
HETATM   20  N2  UNL     1      15.929 -15.365   4.967  1.00  0.00    -0.073 N 
ATOM     21  H23 UNL     1      15.387 -15.835   5.692  1.00  0.00     0.274 HD
ATOM     22  H22 UNL     1      15.207 -15.234   4.258  1.00  0.00     0.274 HD
ATOM     23  H21 UNL     1      16.655 -15.988   4.616  1.00  0.00     0.274 HD
ENDBRANCH   3  20
TORSDOF 5
ENDMDL
