MODEL 1
REMARK VINA RESULT: -6.802998171      0.000      0.000
REMARK  5 active torsions:
REMARK  status: ('A' for Active; 'I' for Inactive)
REMARK    1  A    between atoms: C2_3  and  N2_4 
REMARK    2  A    between atoms: C3_6  and  N3_7 
REMARK    3  A    between atoms: C3_6  and  C11_16 
REMARK    4  A    between atoms: N3_7  and  C4_9 
REMARK    5  A    between atoms: C4_9  and  C5_10 
ROOT
HETATM    1  N1  UNL     1      10.608 -15.493   5.796  1.00  0.00    -0.196 NA
HETATM    2  C1  UNL     1      10.933 -14.482   6.285  1.00  0.00     0.078 C 
HETATM    3  C2  UNL     1      11.356 -13.220   6.896  1.00  0.00     0.245 C 
ENDROOT
BRANCH   3   4
HETATM    4  N2  UNL     1      12.706 -12.878   6.581  1.00  0.00    -0.367 N 
HETATM    5  C3  UNL     1      13.753 -13.415   7.111  1.00  0.00     0.079 C 
ATOM      6  H2  UNL     1      12.855 -12.151   5.882  1.00  0.00     0.161 HD
BRANCH   5   7
HETATM    7  N3  UNL     1      13.668 -14.437   8.095  1.00  0.00    -0.379 N 
ATOM      8  H3  UNL     1      13.570 -15.403   7.785  1.00  0.00     0.160 HD
BRANCH   7   9
HETATM    9  C4  UNL     1      13.714 -14.173   9.511  1.00  0.00     0.125 C 
BRANCH   9  10
HETATM   10  C5  UNL     1      13.014 -15.256  10.292  1.00  0.00     0.003 C 
HETATM   11  C6  UNL     1      12.297 -16.204   9.373  1.00  0.00     0.006 C 
HETATM   12  C7  UNL     1      11.900 -17.487   9.988  1.00  0.00     0.000 C 
HETATM   13  C8  UNL     1      12.026 -17.609  11.460  1.00  0.00     0.000 C 
HETATM   14  C9  UNL     1      13.095 -16.818  12.107  1.00  0.00     0.000 C 
HETATM   15  C10 UNL     1      13.989 -16.099  11.088  1.00  0.00     0.006 C 
ENDBRANCH   9  10
ENDBRANCH   7   9
ENDBRANCH   5   7
BRANCH   5  16
HETATM   16  C11 UNL     1      15.077 -12.925   6.653  1.00  0.00     0.081 C 
HETATM   17  C12 UNL     1      14.907 -12.421   5.240  1.00  0.00     0.244 C 
HETATM   18  N4  UNL     1      16.172 -12.281   4.555  1.00  0.00    -0.072 N 
HETATM   19  C13 UNL     1      16.896 -13.516   4.451  1.00  0.00     0.269 C 
ATOM     20  H42 UNL     1      16.043 -11.856   3.636  1.00  0.00     0.277 HD
ATOM     21  H41 UNL     1      16.745 -11.560   4.993  1.00  0.00     0.277 HD
HETATM   22  C14 UNL     1      16.421 -14.593   5.360  1.00  0.00     0.196 C 
HETATM   23  F1  UNL     1      15.372 -15.328   4.869  1.00  0.00    -0.248 F 
HETATM   24  C15 UNL     1      16.112 -13.999   6.723  1.00  0.00     0.052 C 
ENDBRANCH   5  16
ENDBRANCH   3   4
TORSDOF 5
ENDMDL
MODEL 2
REMARK VINA RESULT: -6.494910251      2.096      5.601
REMARK  5 active torsions:
REMARK  status: ('A' for Active; 'I' for Inactive)
REMARK    1  A    between atoms: C2_3  and  N2_4 
REMARK    2  A    between atoms: C3_6  and  N3_7 
REMARK    3  A    between atoms: C3_6  and  C11_16 
REMARK    4  A    between atoms: N3_7  and  C4_9 
REMARK    5  A    between atoms: C4_9  and  C5_10 
ROOT
HETATM    1  N1  UNL     1      12.368 -18.113  11.390  1.00  0.00    -0.196 NA
HETATM    2  C1  UNL     1      12.701 -17.008  11.206  1.00  0.00     0.078 C 
HETATM    3  C2  UNL     1      13.114 -15.625  10.960  1.00  0.00     0.245 C 
ENDROOT
BRANCH   3   4
HETATM    4  N2  UNL     1      12.620 -15.112   9.722  1.00  0.00    -0.367 N 
HETATM    5  C3  UNL     1      13.350 -14.649   8.763  1.00  0.00     0.079 C 
ATOM      6  H2  UNL     1      11.609 -15.112   9.584  1.00  0.00     0.161 HD
BRANCH   5   7
HETATM    7  N3  UNL     1      14.768 -14.599   8.842  1.00  0.00    -0.379 N 
ATOM      8  H3  UNL     1      15.274 -15.464   9.034  1.00  0.00     0.160 HD
BRANCH   7   9
HETATM    9  C4  UNL     1      15.525 -13.387   8.666  1.00  0.00     0.125 C 
BRANCH   9  10
HETATM   10  C5  UNL     1      15.977 -13.228   7.236  1.00  0.00     0.003 C 
HETATM   11  C6  UNL     1      16.134 -14.565   6.570  1.00  0.00     0.006 C 
HETATM   12  C7  UNL     1      16.206 -14.522   5.095  1.00  0.00     0.000 C 
HETATM   13  C8  UNL     1      16.357 -13.192   4.456  1.00  0.00     0.000 C 
HETATM   14  C9  UNL     1      15.767 -12.038   5.167  1.00  0.00     0.000 C 
HETATM   15  C10 UNL     1      14.968 -12.460   6.407  1.00  0.00     0.006 C 
ENDBRANCH   9  10
ENDBRANCH   7   9
ENDBRANCH   5   7
BRANCH   5  16
HETATM   16  C11 UNL     1      12.650 -14.159   7.549  1.00  0.00     0.081 C 
HETATM   17  C12 UNL     1      11.359 -13.519   8.001  1.00  0.00     0.244 C 
HETATM   18  N4  UNL     1      10.422 -13.353   6.913  1.00  0.00    -0.072 N 
HETATM   19  C13 UNL     1      10.054 -14.595   6.294  1.00  0.00     0.269 C 
ATOM     20  H42 UNL     1       9.596 -12.840   7.219  1.00  0.00     0.277 HD
ATOM     21  H41 UNL     1      10.781 -12.695   6.221  1.00  0.00     0.277 HD
HETATM   22  C14 UNL     1      10.951 -15.738   6.611  1.00  0.00     0.196 C 
HETATM   23  F1  UNL     1      10.647 -16.391   7.779  1.00  0.00    -0.248 F 
HETATM   24  C15 UNL     1      12.394 -15.266   6.581  1.00  0.00     0.052 C 
ENDBRANCH   5  16
ENDBRANCH   3   4
TORSDOF 5
ENDMDL
MODEL 3
REMARK VINA RESULT: -6.457620596      2.419      5.624
REMARK  5 active torsions:
REMARK  status: ('A' for Active; 'I' for Inactive)
REMARK    1  A    between atoms: C2_3  and  N2_4 
REMARK    2  A    between atoms: C3_6  and  N3_7 
REMARK    3  A    between atoms: C3_6  and  C11_16 
REMARK    4  A    between atoms: N3_7  and  C4_9 
REMARK    5  A    between atoms: C4_9  and  C5_10 
ROOT
HETATM    1  N1  UNL     1      12.002 -18.431  11.912  1.00  0.00    -0.196 NA
HETATM    2  C1  UNL     1      12.317 -17.342  11.625  1.00  0.00     0.078 C 
HETATM    3  C2  UNL     1      12.712 -15.982  11.251  1.00  0.00     0.245 C 
ENDROOT
BRANCH   3   4
HETATM    4  N2  UNL     1      12.403 -15.671   9.892  1.00  0.00    -0.367 N 
HETATM    5  C3  UNL     1      12.958 -14.737   9.197  1.00  0.00     0.079 C 
ATOM      6  H2  UNL     1      11.685 -16.233   9.433  1.00  0.00     0.161 HD
BRANCH   5   7
HETATM    7  N3  UNL     1      13.969 -13.892   9.729  1.00  0.00    -0.379 N 
ATOM      8  H3  UNL     1      13.718 -13.249  10.480  1.00  0.00     0.160 HD
BRANCH   7   9
HETATM    9  C4  UNL     1      15.332 -13.900   9.260  1.00  0.00     0.125 C 
BRANCH   9  10
HETATM   10  C5  UNL     1      15.400 -13.660   7.773  1.00  0.00     0.003 C 
HETATM   11  C6  UNL     1      16.329 -12.523   7.454  1.00  0.00     0.006 C 
HETATM   12  C7  UNL     1      16.755 -12.445   6.041  1.00  0.00     0.000 C 
HETATM   13  C8  UNL     1      16.054 -13.316   5.066  1.00  0.00     0.000 C 
HETATM   14  C9  UNL     1      15.530 -14.602   5.575  1.00  0.00     0.000 C 
HETATM   15  C10 UNL     1      15.937 -14.865   7.030  1.00  0.00     0.006 C 
ENDBRANCH   9  10
ENDBRANCH   7   9
ENDBRANCH   5   7
BRANCH   5  16
HETATM   16  C11 UNL     1      12.501 -14.566   7.794  1.00  0.00     0.081 C 
HETATM   17  C12 UNL     1      11.370 -13.567   7.809  1.00  0.00     0.244 C 
HETATM   18  N4  UNL     1      10.595 -13.604   6.589  1.00  0.00    -0.072 N 
HETATM   19  C13 UNL     1       9.991 -14.883   6.345  1.00  0.00     0.269 C 
ATOM     20  H42 UNL     1       9.893 -12.863   6.582  1.00  0.00     0.277 HD
ATOM     21  H41 UNL     1      11.158 -13.309   5.792  1.00  0.00     0.277 HD
HETATM   22  C14 UNL     1      10.557 -16.001   7.146  1.00  0.00     0.196 C 
HETATM   23  F1  UNL     1      10.008 -16.137   8.396  1.00  0.00    -0.248 F 
HETATM   24  C15 UNL     1      12.068 -15.864   7.198  1.00  0.00     0.052 C 
ENDBRANCH   5  16
ENDBRANCH   3   4
TORSDOF 5
ENDMDL
MODEL 4
REMARK VINA RESULT: -6.445136319      2.080      4.258
REMARK  5 active torsions:
REMARK  status: ('A' for Active; 'I' for Inactive)
REMARK    1  A    between atoms: C2_3  and  N2_4 
REMARK    2  A    between atoms: C3_6  and  N3_7 
REMARK    3  A    between atoms: C3_6  and  C11_16 
REMARK    4  A    between atoms: N3_7  and  C4_9 
REMARK    5  A    between atoms: C4_9  and  C5_10 
ROOT
HETATM    1  N1  UNL     1      17.259 -17.090  12.112  1.00  0.00    -0.196 NA
HETATM    2  C1  UNL     1      16.436 -16.525  11.504  1.00  0.00     0.078 C 
HETATM    3  C2  UNL     1      15.416 -15.808  10.735  1.00  0.00     0.245 C 
ENDROOT
BRANCH   3   4
HETATM    4  N2  UNL     1      15.959 -15.101   9.620  1.00  0.00    -0.367 N 
HETATM    5  C3  UNL     1      15.360 -14.158   8.973  1.00  0.00     0.079 C 
ATOM      6  H2  UNL     1      16.896 -15.361   9.310  1.00  0.00     0.161 HD
BRANCH   5   7
HETATM    7  N3  UNL     1      14.055 -13.713   9.314  1.00  0.00    -0.379 N 
ATOM      8  H3  UNL     1      13.895 -12.710   9.412  1.00  0.00     0.160 HD
BRANCH   7   9
HETATM    9  C4  UNL     1      12.946 -14.608   9.528  1.00  0.00     0.125 C 
BRANCH   9  10
HETATM   10  C5  UNL     1      12.155 -14.811   8.261  1.00  0.00     0.003 C 
HETATM   11  C6  UNL     1      11.114 -15.880   8.442  1.00  0.00     0.006 C 
HETATM   12  C7  UNL     1      10.056 -15.900   7.411  1.00  0.00     0.000 C 
HETATM   13  C8  UNL     1      10.256 -15.055   6.209  1.00  0.00     0.000 C 
HETATM   14  C9  UNL     1      11.043 -13.815   6.387  1.00  0.00     0.000 C 
HETATM   15  C10 UNL     1      11.407 -13.559   7.855  1.00  0.00     0.006 C 
ENDBRANCH   9  10
ENDBRANCH   7   9
ENDBRANCH   5   7
BRANCH   5  16
HETATM   16  C11 UNL     1      16.090 -13.540   7.837  1.00  0.00     0.081 C 
HETATM   17  C12 UNL     1      15.206 -12.455   7.272  1.00  0.00     0.244 C 
HETATM   18  N4  UNL     1      15.623 -12.048   5.949  1.00  0.00    -0.072 N 
HETATM   19  C13 UNL     1      15.594 -13.120   4.995  1.00  0.00     0.269 C 
ATOM     20  H42 UNL     1      15.070 -11.255   5.622  1.00  0.00     0.277 HD
ATOM     21  H41 UNL     1      16.543 -11.610   5.976  1.00  0.00     0.277 HD
HETATM   22  C14 UNL     1      15.517 -14.480   5.591  1.00  0.00     0.196 C 
HETATM   23  F1  UNL     1      14.245 -14.898   5.889  1.00  0.00    -0.248 F 
HETATM   24  C15 UNL     1      16.438 -14.552   6.796  1.00  0.00     0.052 C 
ENDBRANCH   5  16
ENDBRANCH   3   4
TORSDOF 5
ENDMDL
MODEL 5
REMARK VINA RESULT: -6.373716090      0.873      1.438
REMARK  5 active torsions:
REMARK  status: ('A' for Active; 'I' for Inactive)
REMARK    1  A    between atoms: C2_3  and  N2_4 
REMARK    2  A    between atoms: C3_6  and  N3_7 
REMARK    3  A    between atoms: C3_6  and  C11_16 
REMARK    4  A    between atoms: N3_7  and  C4_9 
REMARK    5  A    between atoms: C4_9  and  C5_10 
ROOT
HETATM    1  N1  UNL     1       9.762 -14.504   5.777  1.00  0.00    -0.196 NA
HETATM    2  C1  UNL     1      10.745 -14.987   6.187  1.00  0.00     0.078 C 
HETATM    3  C2  UNL     1      11.985 -15.581   6.690  1.00  0.00     0.245 C 
ENDROOT
BRANCH   3   4
HETATM    4  N2  UNL     1      13.126 -14.751   6.471  1.00  0.00    -0.367 N 
HETATM    5  C3  UNL     1      13.748 -14.084   7.383  1.00  0.00     0.079 C 
ATOM      6  H2  UNL     1      13.477 -14.679   5.515  1.00  0.00     0.161 HD
BRANCH   5   7
HETATM    7  N3  UNL     1      13.350 -14.107   8.747  1.00  0.00    -0.379 N 
ATOM      8  H3  UNL     1      12.484 -13.636   9.007  1.00  0.00     0.160 HD
BRANCH   7   9
HETATM    9  C4  UNL     1      14.111 -14.763   9.780  1.00  0.00     0.125 C 
BRANCH   9  10
HETATM   10  C5  UNL     1      13.438 -16.034  10.232  1.00  0.00     0.003 C 
HETATM   11  C6  UNL     1      13.561 -16.207  11.720  1.00  0.00     0.006 C 
HETATM   12  C7  UNL     1      12.637 -17.199  12.310  1.00  0.00     0.000 C 
HETATM   13  C8  UNL     1      11.880 -18.068  11.377  1.00  0.00     0.000 C 
HETATM   14  C9  UNL     1      11.553 -17.501  10.051  1.00  0.00     0.000 C 
HETATM   15  C10 UNL     1      11.954 -16.025   9.931  1.00  0.00     0.006 C 
ENDBRANCH   9  10
ENDBRANCH   7   9
ENDBRANCH   5   7
BRANCH   5  16
HETATM   16  C11 UNL     1      14.918 -13.274   6.958  1.00  0.00     0.081 C 
HETATM   17  C12 UNL     1      14.563 -12.629   5.640  1.00  0.00     0.244 C 
HETATM   18  N4  UNL     1      15.730 -12.140   4.941  1.00  0.00    -0.072 N 
HETATM   19  C13 UNL     1      16.677 -13.174   4.634  1.00  0.00     0.269 C 
ATOM     20  H42 UNL     1      15.462 -11.630   4.099  1.00  0.00     0.277 HD
ATOM     21  H41 UNL     1      16.174 -11.383   5.461  1.00  0.00     0.277 HD
HETATM   22  C14 UNL     1      16.483 -14.439   5.391  1.00  0.00     0.196 C 
HETATM   23  F1  UNL     1      15.572 -15.300   4.833  1.00  0.00    -0.248 F 
HETATM   24  C15 UNL     1      16.148 -14.112   6.836  1.00  0.00     0.052 C 
ENDBRANCH   5  16
ENDBRANCH   3   4
TORSDOF 5
ENDMDL
