MODEL 1
REMARK VINA RESULT: -7.094675925      0.000      0.000
REMARK  5 active torsions:
REMARK  status: ('A' for Active; 'I' for Inactive)
REMARK    1  A    between atoms: C5_7  and  N2_8 
REMARK    2  A    between atoms: N2_8  and  C6_10 
REMARK    3  A    between atoms: C6_10  and  C7_11 
REMARK    4  A    between atoms: C7_11  and  N3_12 
REMARK    5  A    between atoms: C9_15  and  C10_16 
ROOT
HETATM    1  N2  UNL     1      14.837 -13.935   9.860  1.00  0.00    -0.225 N 
ATOM      2  H2  UNL     1      14.548 -13.119  10.401  1.00  0.00     0.177 HD
ENDROOT
BRANCH   1   3
HETATM    3  C5  UNL     1      15.365 -13.683   8.567  1.00  0.00     0.670 C 
HETATM    4  N1  UNL     1      16.504 -12.926   8.196  1.00  0.00    -0.224 N 
HETATM    5  C4  UNL     1      16.883 -13.376   6.861  1.00  0.00     0.168 C 
ATOM      6  H1  UNL     1      16.968 -12.208   8.752  1.00  0.00     0.177 HD
HETATM    7  C2  UNL     1      15.516 -13.754   6.333  1.00  0.00     0.056 C 
HETATM    8  C1  UNL     1      14.859 -12.503   5.786  1.00  0.00     0.040 C 
HETATM    9  C3  UNL     1      15.599 -14.838   5.277  1.00  0.00     0.040 C 
HETATM   10  N4  UNL     1      14.796 -14.160   7.492  1.00  0.00    -0.216 N 
ATOM     11  H4  UNL     1      13.957 -14.740   7.485  1.00  0.00     0.178 HD
ENDBRANCH   1   3
BRANCH   1  12
HETATM   12  C6  UNL     1      14.665 -15.208  10.486  1.00  0.00     0.158 C 
BRANCH  12  13
HETATM   13  C7  UNL     1      13.256 -15.396  10.937  1.00  0.00     0.147 C 
BRANCH  13  14
HETATM   14  N3  UNL     1      12.456 -16.085   9.942  1.00  0.00    -0.335 N 
HETATM   15  C8  UNL     1      12.384 -17.355   9.174  1.00  0.00     0.244 A 
HETATM   16  O1  UNL     1      12.872 -18.474   8.907  1.00  0.00    -0.271 OA
HETATM   17  C9  UNL     1      11.373 -16.268   9.038  1.00  0.00     0.183 A 
BRANCH  17  18
HETATM   18  C10 UNL     1      11.358 -15.374   7.853  1.00  0.00     0.018 C 
HETATM   19  C11 UNL     1      10.032 -15.426   7.110  1.00  0.00     0.007 C 
HETATM   20  C12 UNL     1      10.309 -14.338   6.056  1.00  0.00     0.000 C 
HETATM   21  C13 UNL     1      11.181 -13.310   6.770  1.00  0.00     0.000 C 
HETATM   22  C14 UNL     1      11.459 -13.904   8.158  1.00  0.00     0.007 C 
ENDBRANCH  17  18
ENDBRANCH  13  14
ENDBRANCH  12  13
ENDBRANCH   1  12
TORSDOF 5
ENDMDL
MODEL 2
REMARK VINA RESULT: -6.728277072      1.181      1.732
REMARK  5 active torsions:
REMARK  status: ('A' for Active; 'I' for Inactive)
REMARK    1  A    between atoms: C5_7  and  N2_8 
REMARK    2  A    between atoms: N2_8  and  C6_10 
REMARK    3  A    between atoms: C6_10  and  C7_11 
REMARK    4  A    between atoms: C7_11  and  N3_12 
REMARK    5  A    between atoms: C9_15  and  C10_16 
ROOT
HETATM    1  N2  UNL     1      16.030 -13.607   8.903  1.00  0.00    -0.225 N 
ATOM      2  H2  UNL     1      16.988 -13.449   9.215  1.00  0.00     0.177 HD
ENDROOT
BRANCH   1   3
HETATM    3  C5  UNL     1      15.814 -13.614   7.500  1.00  0.00     0.670 C 
HETATM    4  N1  UNL     1      15.291 -14.644   6.678  1.00  0.00    -0.224 N 
HETATM    5  C4  UNL     1      14.827 -14.001   5.454  1.00  0.00     0.168 C 
ATOM      6  H1  UNL     1      15.247 -15.639   6.900  1.00  0.00     0.177 HD
HETATM    7  C2  UNL     1      15.811 -12.852   5.393  1.00  0.00     0.056 C 
HETATM    8  C1  UNL     1      17.074 -13.348   4.720  1.00  0.00     0.040 C 
HETATM    9  C3  UNL     1      15.235 -11.654   4.665  1.00  0.00     0.040 C 
HETATM   10  N4  UNL     1      16.113 -12.582   6.758  1.00  0.00    -0.216 N 
ATOM     11  H4  UNL     1      16.507 -11.707   7.106  1.00  0.00     0.178 HD
ENDBRANCH   1   3
BRANCH   1  12
HETATM   12  C6  UNL     1      15.049 -13.796   9.925  1.00  0.00     0.158 C 
BRANCH  12  13
HETATM   13  C7  UNL     1      14.981 -15.226  10.342  1.00  0.00     0.147 C 
BRANCH  13  14
HETATM   14  N3  UNL     1      13.675 -15.805  10.089  1.00  0.00    -0.335 N 
HETATM   15  C8  UNL     1      12.950 -17.101  10.095  1.00  0.00     0.244 A 
HETATM   16  O1  UNL     1      12.968 -18.338  10.279  1.00  0.00    -0.271 OA
HETATM   17  C9  UNL     1      12.295 -15.809   9.746  1.00  0.00     0.183 A 
BRANCH  17  18
HETATM   18  C10 UNL     1      11.975 -15.463   8.338  1.00  0.00     0.018 C 
HETATM   19  C11 UNL     1      10.580 -15.919   7.936  1.00  0.00     0.007 C 
HETATM   20  C12 UNL     1      10.535 -15.320   6.519  1.00  0.00     0.000 C 
HETATM   21  C13 UNL     1      11.331 -14.022   6.614  1.00  0.00     0.000 C 
HETATM   22  C14 UNL     1      11.891 -13.990   8.042  1.00  0.00     0.007 C 
ENDBRANCH  17  18
ENDBRANCH  13  14
ENDBRANCH  12  13
ENDBRANCH   1  12
TORSDOF 5
ENDMDL
MODEL 3
REMARK VINA RESULT: -6.710238765      2.911      4.491
REMARK  5 active torsions:
REMARK  status: ('A' for Active; 'I' for Inactive)
REMARK    1  A    between atoms: C5_7  and  N2_8 
REMARK    2  A    between atoms: N2_8  and  C6_10 
REMARK    3  A    between atoms: C6_10  and  C7_11 
REMARK    4  A    between atoms: C7_11  and  N3_12 
REMARK    5  A    between atoms: C9_15  and  C10_16 
ROOT
HETATM    1  N2  UNL     1      16.155 -12.510   4.146  1.00  0.00    -0.225 N 
ATOM      2  H2  UNL     1      16.266 -12.909   3.213  1.00  0.00     0.177 HD
ENDROOT
BRANCH   1   3
HETATM    3  C5  UNL     1      15.613 -11.200   4.214  1.00  0.00     0.670 C 
HETATM    4  N1  UNL     1      16.020 -10.024   3.535  1.00  0.00    -0.224 N 
HETATM    5  C4  UNL     1      14.882  -9.113   3.566  1.00  0.00     0.168 C 
ATOM      6  H1  UNL     1      16.931  -9.850   3.109  1.00  0.00     0.177 HD
HETATM    7  C2  UNL     1      14.260  -9.541   4.877  1.00  0.00     0.056 C 
HETATM    8  C1  UNL     1      14.958  -8.795   5.996  1.00  0.00     0.040 C 
HETATM    9  C3  UNL     1      12.765  -9.293   4.901  1.00  0.00     0.040 C 
HETATM   10  N4  UNL     1      14.597 -10.920   4.987  1.00  0.00    -0.216 N 
ATOM     11  H4  UNL     1      14.116 -11.593   5.584  1.00  0.00     0.178 HD
ENDBRANCH   1   3
BRANCH   1  12
HETATM   12  C6  UNL     1      16.560 -13.330   5.244  1.00  0.00     0.158 C 
BRANCH  12  13
HETATM   13  C7  UNL     1      15.589 -14.439   5.470  1.00  0.00     0.147 C 
BRANCH  13  14
HETATM   14  N3  UNL     1      14.692 -14.157   6.575  1.00  0.00    -0.335 N 
HETATM   15  C8  UNL     1      14.648 -14.097   8.058  1.00  0.00     0.244 A 
HETATM   16  O1  UNL     1      15.236 -14.227   9.154  1.00  0.00    -0.271 OA
HETATM   17  C9  UNL     1      13.469 -13.788   7.200  1.00  0.00     0.183 A 
BRANCH  17  18
HETATM   18  C10 UNL     1      12.349 -14.751   7.055  1.00  0.00     0.018 C 
HETATM   19  C11 UNL     1      11.747 -15.140   8.397  1.00  0.00     0.007 C 
HETATM   20  C12 UNL     1      10.587 -16.016   7.891  1.00  0.00     0.000 C 
HETATM   21  C13 UNL     1      10.144 -15.366   6.583  1.00  0.00     0.000 C 
HETATM   22  C14 UNL     1      11.136 -14.221   6.340  1.00  0.00     0.007 C 
ENDBRANCH  17  18
ENDBRANCH  13  14
ENDBRANCH  12  13
ENDBRANCH   1  12
TORSDOF 5
ENDMDL
MODEL 4
REMARK VINA RESULT: -6.706716391      3.074      4.616
REMARK  5 active torsions:
REMARK  status: ('A' for Active; 'I' for Inactive)
REMARK    1  A    between atoms: C5_7  and  N2_8 
REMARK    2  A    between atoms: N2_8  and  C6_10 
REMARK    3  A    between atoms: C6_10  and  C7_11 
REMARK    4  A    between atoms: C7_11  and  N3_12 
REMARK    5  A    between atoms: C9_15  and  C10_16 
ROOT
HETATM    1  N2  UNL     1      16.027 -12.509   4.123  1.00  0.00    -0.225 N 
ATOM      2  H2  UNL     1      16.054 -12.907   3.184  1.00  0.00     0.177 HD
ENDROOT
BRANCH   1   3
HETATM    3  C5  UNL     1      15.512 -11.191   4.237  1.00  0.00     0.670 C 
HETATM    4  N1  UNL     1      14.363 -10.733   4.929  1.00  0.00    -0.224 N 
HETATM    5  C4  UNL     1      14.551  -9.303   5.143  1.00  0.00     0.168 C 
ATOM      6  H1  UNL     1      13.562 -11.294   5.220  1.00  0.00     0.177 HD
HETATM    7  C2  UNL     1      15.374  -8.977   3.916  1.00  0.00     0.056 C 
HETATM    8  C1  UNL     1      14.424  -8.736   2.761  1.00  0.00     0.040 C 
HETATM    9  C3  UNL     1      16.278  -7.782   4.143  1.00  0.00     0.040 C 
HETATM   10  N4  UNL     1      16.095 -10.178   3.653  1.00  0.00    -0.216 N 
ATOM     11  H4  UNL     1      16.943 -10.237   3.090  1.00  0.00     0.178 HD
ENDBRANCH   1   3
BRANCH   1  12
HETATM   12  C6  UNL     1      16.510 -13.337   5.182  1.00  0.00     0.158 C 
BRANCH  12  13
HETATM   13  C7  UNL     1      15.587 -14.482   5.429  1.00  0.00     0.147 C 
BRANCH  13  14
HETATM   14  N3  UNL     1      14.722 -14.245   6.570  1.00  0.00    -0.335 N 
HETATM   15  C8  UNL     1      14.700 -14.313   8.053  1.00  0.00     0.244 A 
HETATM   16  O1  UNL     1      15.291 -14.575   9.123  1.00  0.00    -0.271 OA
HETATM   17  C9  UNL     1      13.532 -13.859   7.246  1.00  0.00     0.183 A 
BRANCH  17  18
HETATM   18  C10 UNL     1      12.352 -14.736   7.036  1.00  0.00     0.018 C 
HETATM   19  C11 UNL     1      11.737 -15.196   8.349  1.00  0.00     0.007 C 
HETATM   20  C12 UNL     1      10.521 -15.953   7.787  1.00  0.00     0.000 C 
HETATM   21  C13 UNL     1      10.110 -15.172   6.543  1.00  0.00     0.000 C 
HETATM   22  C14 UNL     1      11.170 -14.075   6.381  1.00  0.00     0.007 C 
ENDBRANCH  17  18
ENDBRANCH  13  14
ENDBRANCH  12  13
ENDBRANCH   1  12
TORSDOF 5
ENDMDL
MODEL 5
REMARK VINA RESULT: -6.513921087      4.277      5.681
REMARK  5 active torsions:
REMARK  status: ('A' for Active; 'I' for Inactive)
REMARK    1  A    between atoms: C5_7  and  N2_8 
REMARK    2  A    between atoms: N2_8  and  C6_10 
REMARK    3  A    between atoms: C6_10  and  C7_11 
REMARK    4  A    between atoms: C7_11  and  N3_12 
REMARK    5  A    between atoms: C9_15  and  C10_16 
ROOT
HETATM    1  N2  UNL     1      14.965 -10.720   3.637  1.00  0.00    -0.225 N 
ATOM      2  H2  UNL     1      14.060 -10.923   3.211  1.00  0.00     0.177 HD
ENDROOT
BRANCH   1   3
HETATM    3  C5  UNL     1      15.492  -9.421   3.414  1.00  0.00     0.670 C 
HETATM    4  N1  UNL     1      15.781  -8.397   4.351  1.00  0.00    -0.224 N 
HETATM    5  C4  UNL     1      16.727  -7.497   3.701  1.00  0.00     0.168 C 
ATOM      6  H1  UNL     1      15.403  -8.308   5.294  1.00  0.00     0.177 HD
HETATM    7  C2  UNL     1      16.279  -7.665   2.265  1.00  0.00     0.056 C 
HETATM    8  C1  UNL     1      15.122  -6.718   2.018  1.00  0.00     0.040 C 
HETATM    9  C3  UNL     1      17.410  -7.417   1.288  1.00  0.00     0.040 C 
HETATM   10  N4  UNL     1      15.779  -8.998   2.212  1.00  0.00    -0.216 N 
ATOM     11  H4  UNL     1      15.662  -9.543   1.358  1.00  0.00     0.178 HD
ENDBRANCH   1   3
BRANCH   1  12
HETATM   12  C6  UNL     1      15.565 -11.772   4.395  1.00  0.00     0.158 C 
BRANCH  12  13
HETATM   13  C7  UNL     1      14.960 -11.865   5.754  1.00  0.00     0.147 C 
BRANCH  13  14
HETATM   14  N3  UNL     1      14.705 -13.239   6.143  1.00  0.00    -0.335 N 
HETATM   15  C8  UNL     1      15.171 -14.628   5.899  1.00  0.00     0.244 A 
HETATM   16  O1  UNL     1      15.945 -15.410   5.306  1.00  0.00    -0.271 OA
HETATM   17  C9  UNL     1      14.069 -14.298   6.847  1.00  0.00     0.183 A 
BRANCH  17  18
HETATM   18  C10 UNL     1      12.649 -14.552   6.496  1.00  0.00     0.018 C 
HETATM   19  C11 UNL     1      12.038 -15.661   7.338  1.00  0.00     0.007 C 
HETATM   20  C12 UNL     1      10.591 -15.582   6.818  1.00  0.00     0.000 C 
HETATM   21  C13 UNL     1      10.356 -14.103   6.528  1.00  0.00     0.000 C 
HETATM   22  C14 UNL     1      11.705 -13.418   6.785  1.00  0.00     0.007 C 
ENDBRANCH  17  18
ENDBRANCH  13  14
ENDBRANCH  12  13
ENDBRANCH   1  12
TORSDOF 5
ENDMDL
