MODEL 1
REMARK VINA RESULT: -5.655223080      0.000      0.000
REMARK  7 active torsions:
REMARK  status: ('A' for Active; 'I' for Inactive)
REMARK    1  A    between atoms: C2_2  and  C3_3 
REMARK    2  A    between atoms: C3_3  and  O1_4 
REMARK    3  A    between atoms: C3_3  and  N1_6 
REMARK    4  A    between atoms: C3_3  and  C10_17 
REMARK    5  A    between atoms: N1_6  and  C4_9 
REMARK    6  A    between atoms: C4_9  and  C5_10 
REMARK    7  A    between atoms: C5_10  and  N2_11 
ROOT
HETATM    1  N1  UNL     1      12.484 -16.172   9.509  1.00  0.00    -0.041 N 
ATOM      2  H11 UNL     1      11.708 -16.728   9.870  1.00  0.00     0.280 HD
ATOM      3  H12 UNL     1      13.124 -16.920   9.243  1.00  0.00     0.280 HD
ENDROOT
BRANCH   1   4
HETATM    4  C3  UNL     1      13.070 -15.352  10.578  1.00  0.00     0.227 C 
BRANCH   4   5
HETATM    5  C2  UNL     1      14.522 -15.192  10.293  1.00  0.00     0.064 C 
HETATM    6  C1  UNL     1      14.981 -13.760  10.155  1.00  0.00     0.010 C 
ENDBRANCH   4   5
BRANCH   4   7
HETATM    7  O1  UNL     1      12.395 -14.105  10.427  1.00  0.00    -0.365 OA
ATOM      8  H1  UNL     1      11.755 -13.990  11.119  1.00  0.00     0.212 HD
ENDBRANCH   4   7
BRANCH   4   9
HETATM    9  C10 UNL     1      12.699 -15.900  11.910  1.00  0.00     0.049 A 
HETATM   10  C11 UNL     1      13.480 -16.882  12.684  1.00  0.00     0.010 A 
HETATM   11  C12 UNL     1      12.085 -17.227  12.121  1.00  0.00     0.010 A 
ENDBRANCH   4   9
ENDBRANCH   1   4
BRANCH   1  12
HETATM   12  C4  UNL     1      12.077 -15.439   8.368  1.00  0.00     0.255 C 
BRANCH  12  13
HETATM   13  C5  UNL     1      12.708 -15.962   7.082  1.00  0.00     0.149 C 
BRANCH  13  14
HETATM   14  N2  UNL     1      13.432 -14.902   6.480  1.00  0.00    -0.390 N 
HETATM   15  C6  UNL     1      14.719 -15.158   5.990  1.00  0.00     0.068 C 
HETATM   16  C7  UNL     1      15.855 -14.492   6.730  1.00  0.00     0.118 C 
HETATM   17  S1  UNL     1      15.613 -12.699   6.541  1.00  0.00    -0.162 SA
HETATM   18  C8  UNL     1      13.806 -12.510   6.252  1.00  0.00     0.094 C 
HETATM   19  C9  UNL     1      13.153 -13.621   7.014  1.00  0.00     0.132 C 
ENDBRANCH  13  14
ENDBRANCH  12  13
ENDBRANCH   1  12
TORSDOF 7
ENDMDL
MODEL 2
REMARK VINA RESULT: -5.523936720      1.869      2.873
REMARK  7 active torsions:
REMARK  status: ('A' for Active; 'I' for Inactive)
REMARK    1  A    between atoms: C2_2  and  C3_3 
REMARK    2  A    between atoms: C3_3  and  O1_4 
REMARK    3  A    between atoms: C3_3  and  N1_6 
REMARK    4  A    between atoms: C3_3  and  C10_17 
REMARK    5  A    between atoms: N1_6  and  C4_9 
REMARK    6  A    between atoms: C4_9  and  C5_10 
REMARK    7  A    between atoms: C5_10  and  N2_11 
ROOT
HETATM    1  N1  UNL     1      13.695 -16.027  10.318  1.00  0.00    -0.041 N 
ATOM      2  H11 UNL     1      14.619 -16.457  10.361  1.00  0.00     0.280 HD
ATOM      3  H12 UNL     1      13.601 -15.717  11.285  1.00  0.00     0.280 HD
ENDROOT
BRANCH   1   4
HETATM    4  C3  UNL     1      12.674 -17.037  10.002  1.00  0.00     0.227 C 
BRANCH   4   5
HETATM    5  C2  UNL     1      12.081 -16.694   8.680  1.00  0.00     0.064 C 
HETATM    6  C1  UNL     1      10.582 -16.860   8.603  1.00  0.00     0.010 C 
ENDBRANCH   4   5
BRANCH   4   7
HETATM    7  O1  UNL     1      13.435 -18.238   9.908  1.00  0.00    -0.365 OA
ATOM      8  H1  UNL     1      14.282 -18.127  10.324  1.00  0.00     0.212 HD
ENDBRANCH   4   7
BRANCH   4   9
HETATM    9  C10 UNL     1      11.734 -17.193  11.144  1.00  0.00     0.049 A 
HETATM   10  C11 UNL     1      11.904 -16.605  12.485  1.00  0.00     0.010 A 
HETATM   11  C12 UNL     1      11.938 -18.132  12.266  1.00  0.00     0.010 A 
ENDBRANCH   4   9
ENDBRANCH   1   4
BRANCH   1  12
HETATM   12  C4  UNL     1      13.706 -14.916   9.441  1.00  0.00     0.255 C 
BRANCH  12  13
HETATM   13  C5  UNL     1      14.970 -14.076   9.580  1.00  0.00     0.149 C 
BRANCH  13  14
HETATM   14  N2  UNL     1      15.577 -13.972   8.303  1.00  0.00    -0.390 N 
HETATM   15  C6  UNL     1      16.365 -12.849   8.019  1.00  0.00     0.068 C 
HETATM   16  C7  UNL     1      15.811 -11.896   6.985  1.00  0.00     0.118 C 
HETATM   17  S1  UNL     1      15.715 -12.825   5.425  1.00  0.00    -0.162 SA
HETATM   18  C8  UNL     1      15.577 -14.583   5.949  1.00  0.00     0.094 C 
HETATM   19  C9  UNL     1      14.838 -14.564   7.250  1.00  0.00     0.132 C 
ENDBRANCH  13  14
ENDBRANCH  12  13
ENDBRANCH   1  12
TORSDOF 7
ENDMDL
MODEL 3
REMARK VINA RESULT: -5.486429191      4.035      7.571
REMARK  7 active torsions:
REMARK  status: ('A' for Active; 'I' for Inactive)
REMARK    1  A    between atoms: C2_2  and  C3_3 
REMARK    2  A    between atoms: C3_3  and  O1_4 
REMARK    3  A    between atoms: C3_3  and  N1_6 
REMARK    4  A    between atoms: C3_3  and  C10_17 
REMARK    5  A    between atoms: N1_6  and  C4_9 
REMARK    6  A    between atoms: C4_9  and  C5_10 
REMARK    7  A    between atoms: C5_10  and  N2_11 
ROOT
HETATM    1  N1  UNL     1      15.779 -10.580   4.115  1.00  0.00    -0.041 N 
ATOM      2  H11 UNL     1      16.723 -10.401   4.459  1.00  0.00     0.280 HD
ATOM      3  H12 UNL     1      15.961 -10.602   3.112  1.00  0.00     0.280 HD
ENDROOT
BRANCH   1   4
HETATM    4  C3  UNL     1      14.890  -9.458   4.451  1.00  0.00     0.227 C 
BRANCH   4   5
HETATM    5  C2  UNL     1      13.484  -9.940   4.352  1.00  0.00     0.064 C 
HETATM    6  C1  UNL     1      12.598  -9.525   5.501  1.00  0.00     0.010 C 
ENDBRANCH   4   5
BRANCH   4   7
HETATM    7  O1  UNL     1      15.225  -9.183   5.808  1.00  0.00    -0.365 OA
ATOM      8  H1  UNL     1      14.572  -9.553   6.391  1.00  0.00     0.212 HD
ENDBRANCH   4   7
BRANCH   4   9
HETATM    9  C10 UNL     1      15.251  -8.258   3.651  1.00  0.00     0.049 A 
HETATM   10  C11 UNL     1      16.290  -8.201   2.607  1.00  0.00     0.010 A 
HETATM   11  C12 UNL     1      16.424  -7.401   3.920  1.00  0.00     0.010 A 
ENDBRANCH   4   9
ENDBRANCH   1   4
BRANCH   1  12
HETATM   12  C4  UNL     1      15.321 -11.842   4.564  1.00  0.00     0.255 C 
BRANCH  12  13
HETATM   13  C5  UNL     1      16.463 -12.809   4.854  1.00  0.00     0.149 C 
BRANCH  13  14
HETATM   14  N2  UNL     1      16.183 -13.473   6.075  1.00  0.00    -0.390 N 
HETATM   15  C6  UNL     1      15.512 -14.701   6.037  1.00  0.00     0.068 C 
HETATM   16  C7  UNL     1      14.109 -14.708   6.598  1.00  0.00     0.118 C 
HETATM   17  S1  UNL     1      14.257 -14.295   8.362  1.00  0.00    -0.162 SA
HETATM   18  C8  UNL     1      15.824 -13.338   8.477  1.00  0.00     0.094 C 
HETATM   19  C9  UNL     1      15.954 -12.611   7.175  1.00  0.00     0.132 C 
ENDBRANCH  13  14
ENDBRANCH  12  13
ENDBRANCH   1  12
TORSDOF 7
ENDMDL
MODEL 4
REMARK VINA RESULT: -5.455143404      1.874      2.747
REMARK  7 active torsions:
REMARK  status: ('A' for Active; 'I' for Inactive)
REMARK    1  A    between atoms: C2_2  and  C3_3 
REMARK    2  A    between atoms: C3_3  and  O1_4 
REMARK    3  A    between atoms: C3_3  and  N1_6 
REMARK    4  A    between atoms: C3_3  and  C10_17 
REMARK    5  A    between atoms: N1_6  and  C4_9 
REMARK    6  A    between atoms: C4_9  and  C5_10 
REMARK    7  A    between atoms: C5_10  and  N2_11 
ROOT
HETATM    1  N1  UNL     1      13.773 -16.163  10.467  1.00  0.00    -0.041 N 
ATOM      2  H11 UNL     1      14.688 -16.581  10.293  1.00  0.00     0.280 HD
ATOM      3  H12 UNL     1      13.808 -16.086  11.483  1.00  0.00     0.280 HD
ENDROOT
BRANCH   1   4
HETATM    4  C3  UNL     1      12.702 -17.084  10.059  1.00  0.00     0.227 C 
BRANCH   4   5
HETATM    5  C2  UNL     1      12.154 -16.606   8.759  1.00  0.00     0.064 C 
HETATM    6  C1  UNL     1      10.666 -16.799   8.598  1.00  0.00     0.010 C 
ENDBRANCH   4   5
BRANCH   4   7
HETATM    7  O1  UNL     1      13.395 -18.317   9.881  1.00  0.00    -0.365 OA
ATOM      8  H1  UNL     1      14.039 -18.436  10.569  1.00  0.00     0.212 HD
ENDBRANCH   4   7
BRANCH   4   9
HETATM    9  C10 UNL     1      11.734 -17.273  11.171  1.00  0.00     0.049 A 
HETATM   10  C11 UNL     1      11.813 -16.635  12.498  1.00  0.00     0.010 A 
HETATM   11  C12 UNL     1      11.961 -18.162  12.329  1.00  0.00     0.010 A 
ENDBRANCH   4   9
ENDBRANCH   1   4
BRANCH   1  12
HETATM   12  C4  UNL     1      13.696 -14.880   9.874  1.00  0.00     0.255 C 
BRANCH  12  13
HETATM   13  C5  UNL     1      15.070 -14.284   9.591  1.00  0.00     0.149 C 
BRANCH  13  14
HETATM   14  N2  UNL     1      15.023 -13.640   8.329  1.00  0.00    -0.390 N 
HETATM   15  C6  UNL     1      14.385 -14.288   7.264  1.00  0.00     0.068 C 
HETATM   16  C7  UNL     1      15.280 -14.750   6.137  1.00  0.00     0.118 C 
HETATM   17  S1  UNL     1      16.018 -13.252   5.418  1.00  0.00    -0.162 SA
HETATM   18  C8  UNL     1      15.982 -12.023   6.786  1.00  0.00     0.094 C 
HETATM   19  C9  UNL     1      16.137 -12.813   8.048  1.00  0.00     0.132 C 
ENDBRANCH  13  14
ENDBRANCH  12  13
ENDBRANCH   1  12
TORSDOF 7
ENDMDL
MODEL 5
REMARK VINA RESULT: -5.447393929      2.655      5.519
REMARK  7 active torsions:
REMARK  status: ('A' for Active; 'I' for Inactive)
REMARK    1  A    between atoms: C2_2  and  C3_3 
REMARK    2  A    between atoms: C3_3  and  O1_4 
REMARK    3  A    between atoms: C3_3  and  N1_6 
REMARK    4  A    between atoms: C3_3  and  C10_17 
REMARK    5  A    between atoms: N1_6  and  C4_9 
REMARK    6  A    between atoms: C4_9  and  C5_10 
REMARK    7  A    between atoms: C5_10  and  N2_11 
ROOT
HETATM    1  N1  UNL     1      14.138 -14.664   6.808  1.00  0.00    -0.041 N 
ATOM      2  H11 UNL     1      14.224 -15.516   7.363  1.00  0.00     0.280 HD
ATOM      3  H12 UNL     1      13.894 -15.069   5.904  1.00  0.00     0.280 HD
ENDROOT
BRANCH   1   4
HETATM    4  C3  UNL     1      15.432 -13.971   6.727  1.00  0.00     0.227 C 
BRANCH   4   5
HETATM    5  C2  UNL     1      15.375 -12.783   7.623  1.00  0.00     0.064 C 
HETATM    6  C1  UNL     1      16.707 -12.369   8.201  1.00  0.00     0.010 C 
ENDBRANCH   4   5
BRANCH   4   7
HETATM    7  O1  UNL     1      16.342 -14.939   7.244  1.00  0.00    -0.365 OA
ATOM      8  H1  UNL     1      17.036 -14.511   7.733  1.00  0.00     0.212 HD
ENDBRANCH   4   7
BRANCH   4   9
HETATM    9  C10 UNL     1      15.798 -13.729   5.307  1.00  0.00     0.049 A 
HETATM   10  C11 UNL     1      17.072 -13.157   4.833  1.00  0.00     0.010 A 
HETATM   11  C12 UNL     1      15.736 -12.409   4.645  1.00  0.00     0.010 A 
ENDBRANCH   4   9
ENDBRANCH   1   4
BRANCH   1  12
HETATM   12  C4  UNL     1      13.077 -13.862   7.294  1.00  0.00     0.255 C 
BRANCH  12  13
HETATM   13  C5  UNL     1      12.089 -14.654   8.143  1.00  0.00     0.149 C 
BRANCH  13  14
HETATM   14  N2  UNL     1      12.825 -15.439   9.066  1.00  0.00    -0.390 N 
HETATM   15  C6  UNL     1      12.417 -16.756   9.308  1.00  0.00     0.068 C 
HETATM   16  C7  UNL     1      11.863 -17.036  10.685  1.00  0.00     0.118 C 
HETATM   17  S1  UNL     1      13.217 -16.727  11.859  1.00  0.00    -0.162 SA
HETATM   18  C8  UNL     1      14.313 -15.533  10.987  1.00  0.00     0.094 C 
HETATM   19  C9  UNL     1      13.411 -14.706  10.126  1.00  0.00     0.132 C 
ENDBRANCH  13  14
ENDBRANCH  12  13
ENDBRANCH   1  12
TORSDOF 7
ENDMDL
