MODEL 1
REMARK VINA RESULT: -6.259548300      0.000      0.000
REMARK  9 active torsions:
REMARK  status: ('A' for Active; 'I' for Inactive)
REMARK    1  A    between atoms: S1_2  and  C2_3 
REMARK    2  A    between atoms: C2_3  and  N2_7 
REMARK    3  A    between atoms: N3_10  and  C5_11 
REMARK    4  A    between atoms: C5_11  and  C6_12 
REMARK    5  A    between atoms: C6_12  and  C7_13 
REMARK    6  A    between atoms: C7_13  and  C8_14 
REMARK    7  A    between atoms: C8_14  and  C9_15 
REMARK    8  A    between atoms: C9_15  and  C10_16 
REMARK    9  A    between atoms: C10_16  and  N4_17 
ROOT
HETATM    1  N2  UNL     1      15.643 -13.269   6.062  1.00  0.00    -0.359 N 
HETATM    2  C3  UNL     1      15.010 -14.547   5.866  1.00  0.00     0.144 C 
HETATM    3  C4  UNL     1      13.739 -14.672   6.719  1.00  0.00     0.141 C 
HETATM    4  N3  UNL     1      14.016 -14.273   8.026  1.00  0.00    -0.390 N 
HETATM    5  C11 UNL     1      15.325 -13.852   8.356  1.00  0.00     0.141 C 
HETATM    6  C12 UNL     1      15.842 -12.770   7.393  1.00  0.00     0.144 C 
ENDROOT
BRANCH   4   7
HETATM    7  C5  UNL     1      13.105 -14.512   9.056  1.00  0.00     0.058 C 
BRANCH   7   8
HETATM    8  C6  UNL     1      13.634 -14.468  10.455  1.00  0.00     0.044 C 
BRANCH   8   9
HETATM    9  C7  UNL     1      13.055 -15.695  11.173  1.00  0.00     0.005 C 
BRANCH   9  10
HETATM   10  C8  UNL     1      14.108 -16.455  11.919  1.00  0.00     0.002 C 
BRANCH  10  11
HETATM   11  C9  UNL     1      15.436 -16.173  11.281  1.00  0.00     0.027 C 
BRANCH  11  12
HETATM   12  C10 UNL     1      16.614 -16.563  12.118  1.00  0.00     0.229 C 
BRANCH  12  13
HETATM   13  N4  UNL     1      17.721 -17.058  11.340  1.00  0.00    -0.079 N 
ATOM     14  H43 UNL     1      17.413 -17.776  10.684  1.00  0.00     0.274 HD
ATOM     15  H42 UNL     1      18.044 -16.353  10.677  1.00  0.00     0.274 HD
ATOM     16  H41 UNL     1      18.493 -17.398  11.913  1.00  0.00     0.274 HD
ENDBRANCH  12  13
ENDBRANCH  11  12
ENDBRANCH  10  11
ENDBRANCH   9  10
ENDBRANCH   8   9
ENDBRANCH   7   8
ENDBRANCH   4   7
BRANCH   1  17
HETATM   17  C2  UNL     1      16.072 -12.500   4.960  1.00  0.00     0.135 C 
HETATM   18  N1  UNL     1      17.172 -12.770   4.391  1.00  0.00    -0.380 N 
ATOM     19  H12 UNL     1      17.481 -12.214   3.594  1.00  0.00     0.158 HD
ATOM     20  H11 UNL     1      17.754 -13.539   4.723  1.00  0.00     0.158 HD
BRANCH  17  21
HETATM   21  S1  UNL     1      15.058 -11.160   4.383  1.00  0.00    -0.099 SA
HETATM   22  C1  UNL     1      13.673 -10.815   5.479  1.00  0.00     0.099 C 
ENDBRANCH  17  21
ENDBRANCH   1  17
TORSDOF 9
ENDMDL
MODEL 2
REMARK VINA RESULT: -5.980770052      1.706      2.552
REMARK  9 active torsions:
REMARK  status: ('A' for Active; 'I' for Inactive)
REMARK    1  A    between atoms: S1_2  and  C2_3 
REMARK    2  A    between atoms: C2_3  and  N2_7 
REMARK    3  A    between atoms: N3_10  and  C5_11 
REMARK    4  A    between atoms: C5_11  and  C6_12 
REMARK    5  A    between atoms: C6_12  and  C7_13 
REMARK    6  A    between atoms: C7_13  and  C8_14 
REMARK    7  A    between atoms: C8_14  and  C9_15 
REMARK    8  A    between atoms: C9_15  and  C10_16 
REMARK    9  A    between atoms: C10_16  and  N4_17 
ROOT
HETATM    1  N2  UNL     1      15.200 -12.685   6.370  1.00  0.00    -0.359 N 
HETATM    2  C3  UNL     1      14.505 -13.945   6.333  1.00  0.00     0.144 C 
HETATM    3  C4  UNL     1      13.770 -14.210   7.654  1.00  0.00     0.141 C 
HETATM    4  N3  UNL     1      14.633 -13.970   8.723  1.00  0.00    -0.390 N 
HETATM    5  C11 UNL     1      15.959 -13.557   8.458  1.00  0.00     0.141 C 
HETATM    6  C12 UNL     1      16.008 -12.350   7.508  1.00  0.00     0.144 C 
ENDROOT
BRANCH   4   7
HETATM    7  C5  UNL     1      14.294 -14.361  10.020  1.00  0.00     0.058 C 
BRANCH   7   8
HETATM    8  C6  UNL     1      15.300 -15.178  10.768  1.00  0.00     0.044 C 
BRANCH   8   9
HETATM    9  C7  UNL     1      14.514 -16.298  11.463  1.00  0.00     0.005 C 
BRANCH   9  10
HETATM   10  C8  UNL     1      13.063 -15.959  11.607  1.00  0.00     0.002 C 
BRANCH  10  11
HETATM   11  C9  UNL     1      12.258 -17.178  11.270  1.00  0.00     0.027 C 
BRANCH  11  12
HETATM   12  C10 UNL     1      12.022 -17.372   9.805  1.00  0.00     0.229 C 
BRANCH  12  13
HETATM   13  N4  UNL     1      11.238 -16.317   9.213  1.00  0.00    -0.079 N 
ATOM     14  H43 UNL     1      11.193 -15.507   9.831  1.00  0.00     0.274 HD
ATOM     15  H42 UNL     1      11.729 -15.898   8.423  1.00  0.00     0.274 HD
ATOM     16  H41 UNL     1      10.302 -16.618   8.941  1.00  0.00     0.274 HD
ENDBRANCH  12  13
ENDBRANCH  11  12
ENDBRANCH  10  11
ENDBRANCH   9  10
ENDBRANCH   8   9
ENDBRANCH   7   8
ENDBRANCH   4   7
BRANCH   1  17
HETATM   17  C2  UNL     1      15.096 -11.773   5.299  1.00  0.00     0.135 C 
HETATM   18  N1  UNL     1      15.887 -11.864   4.313  1.00  0.00    -0.380 N 
ATOM     19  H12 UNL     1      15.811 -11.204   3.538  1.00  0.00     0.158 HD
ATOM     20  H11 UNL     1      16.601 -12.591   4.284  1.00  0.00     0.158 HD
BRANCH  17  21
HETATM   21  S1  UNL     1      13.851 -10.506   5.348  1.00  0.00    -0.099 SA
HETATM   22  C1  UNL     1      14.514  -8.899   5.814  1.00  0.00     0.099 C 
ENDBRANCH  17  21
ENDBRANCH   1  17
TORSDOF 9
ENDMDL
MODEL 3
REMARK VINA RESULT: -5.702210968      1.843      3.456
REMARK  9 active torsions:
REMARK  status: ('A' for Active; 'I' for Inactive)
REMARK    1  A    between atoms: S1_2  and  C2_3 
REMARK    2  A    between atoms: C2_3  and  N2_7 
REMARK    3  A    between atoms: N3_10  and  C5_11 
REMARK    4  A    between atoms: C5_11  and  C6_12 
REMARK    5  A    between atoms: C6_12  and  C7_13 
REMARK    6  A    between atoms: C7_13  and  C8_14 
REMARK    7  A    between atoms: C8_14  and  C9_15 
REMARK    8  A    between atoms: C9_15  and  C10_16 
REMARK    9  A    between atoms: C10_16  and  N4_17 
ROOT
HETATM    1  N2  UNL     1      15.843 -13.382   6.165  1.00  0.00    -0.359 N 
HETATM    2  C3  UNL     1      15.117 -14.616   6.014  1.00  0.00     0.144 C 
HETATM    3  C4  UNL     1      13.887 -14.650   6.931  1.00  0.00     0.141 C 
HETATM    4  N3  UNL     1      14.256 -14.262   8.218  1.00  0.00    -0.390 N 
HETATM    5  C11 UNL     1      15.605 -13.927   8.477  1.00  0.00     0.141 C 
HETATM    6  C12 UNL     1      16.142 -12.888   7.479  1.00  0.00     0.144 C 
ENDROOT
BRANCH   4   7
HETATM    7  C5  UNL     1      13.385 -14.433   9.296  1.00  0.00     0.058 C 
BRANCH   7   8
HETATM    8  C6  UNL     1      13.497 -15.711  10.064  1.00  0.00     0.044 C 
BRANCH   8   9
HETATM    9  C7  UNL     1      12.126 -16.394   9.970  1.00  0.00     0.005 C 
BRANCH   9  10
HETATM   10  C8  UNL     1      11.867 -16.945   8.603  1.00  0.00     0.002 C 
BRANCH  10  11
HETATM   11  C9  UNL     1      10.454 -16.617   8.221  1.00  0.00     0.027 C 
BRANCH  11  12
HETATM   12  C10 UNL     1      10.297 -15.300   7.528  1.00  0.00     0.229 C 
BRANCH  12  13
HETATM   13  N4  UNL     1      10.364 -15.403   6.092  1.00  0.00    -0.079 N 
ATOM     14  H43 UNL     1      10.280 -14.484   5.657  1.00  0.00     0.274 HD
ATOM     15  H42 UNL     1      11.308 -15.646   5.789  1.00  0.00     0.274 HD
ATOM     16  H41 UNL     1       9.680 -16.052   5.705  1.00  0.00     0.274 HD
ENDBRANCH  12  13
ENDBRANCH  11  12
ENDBRANCH  10  11
ENDBRANCH   9  10
ENDBRANCH   8   9
ENDBRANCH   7   8
ENDBRANCH   4   7
BRANCH   1  17
HETATM   17  C2  UNL     1      16.265 -12.650   5.035  1.00  0.00     0.135 C 
HETATM   18  N1  UNL     1      17.371 -12.925   4.482  1.00  0.00    -0.380 N 
ATOM     19  H12 UNL     1      17.676 -12.396   3.665  1.00  0.00     0.158 HD
ATOM     20  H11 UNL     1      17.964 -13.671   4.846  1.00  0.00     0.158 HD
BRANCH  17  21
HETATM   21  S1  UNL     1      15.232 -11.351   4.401  1.00  0.00    -0.099 SA
HETATM   22  C1  UNL     1      13.903 -10.907   5.530  1.00  0.00     0.099 C 
ENDBRANCH  17  21
ENDBRANCH   1  17
TORSDOF 9
ENDMDL
MODEL 4
REMARK VINA RESULT: -5.680000801      1.534      2.116
REMARK  9 active torsions:
REMARK  status: ('A' for Active; 'I' for Inactive)
REMARK    1  A    between atoms: S1_2  and  C2_3 
REMARK    2  A    between atoms: C2_3  and  N2_7 
REMARK    3  A    between atoms: N3_10  and  C5_11 
REMARK    4  A    between atoms: C5_11  and  C6_12 
REMARK    5  A    between atoms: C6_12  and  C7_13 
REMARK    6  A    between atoms: C7_13  and  C8_14 
REMARK    7  A    between atoms: C8_14  and  C9_15 
REMARK    8  A    between atoms: C9_15  and  C10_16 
REMARK    9  A    between atoms: C10_16  and  N4_17 
ROOT
HETATM    1  N2  UNL     1      15.674 -13.158   6.081  1.00  0.00    -0.359 N 
HETATM    2  C3  UNL     1      15.100 -14.470   5.937  1.00  0.00     0.144 C 
HETATM    3  C4  UNL     1      13.850 -14.627   6.814  1.00  0.00     0.141 C 
HETATM    4  N3  UNL     1      14.126 -14.171   8.103  1.00  0.00    -0.390 N 
HETATM    5  C11 UNL     1      15.418 -13.678   8.397  1.00  0.00     0.141 C 
HETATM    6  C12 UNL     1      15.868 -12.606   7.392  1.00  0.00     0.144 C 
ENDROOT
BRANCH   4   7
HETATM    7  C5  UNL     1      13.242 -14.419   9.155  1.00  0.00     0.058 C 
BRANCH   7   8
HETATM    8  C6  UNL     1      13.841 -14.632  10.509  1.00  0.00     0.044 C 
BRANCH   8   9
HETATM    9  C7  UNL     1      14.110 -16.138  10.630  1.00  0.00     0.005 C 
BRANCH   9  10
HETATM   10  C8  UNL     1      14.474 -16.531  12.028  1.00  0.00     0.002 C 
BRANCH  10  11
HETATM   11  C9  UNL     1      13.212 -16.848  12.774  1.00  0.00     0.027 C 
BRANCH  11  12
HETATM   12  C10 UNL     1      12.217 -17.642  11.986  1.00  0.00     0.229 C 
BRANCH  12  13
HETATM   13  N4  UNL     1      10.963 -16.955  11.803  1.00  0.00    -0.079 N 
ATOM     14  H43 UNL     1      10.658 -17.010  10.831  1.00  0.00     0.274 HD
ATOM     15  H42 UNL     1      10.200 -17.468  12.247  1.00  0.00     0.274 HD
ATOM     16  H41 UNL     1      10.986 -15.988  12.123  1.00  0.00     0.274 HD
ENDBRANCH  12  13
ENDBRANCH  11  12
ENDBRANCH  10  11
ENDBRANCH   9  10
ENDBRANCH   8   9
ENDBRANCH   7   8
ENDBRANCH   4   7
BRANCH   1  17
HETATM   17  C2  UNL     1      16.049 -12.407   4.948  1.00  0.00     0.135 C 
HETATM   18  N1  UNL     1      17.125 -12.680   4.337  1.00  0.00    -0.380 N 
ATOM     19  H12 UNL     1      17.396 -12.137   3.517  1.00  0.00     0.158 HD
ATOM     20  H11 UNL     1      17.727 -13.439   4.656  1.00  0.00     0.158 HD
BRANCH  17  21
HETATM   21  S1  UNL     1      15.002 -11.084   4.391  1.00  0.00    -0.099 SA
HETATM   22  C1  UNL     1      13.600 -10.802   5.483  1.00  0.00     0.099 C 
ENDBRANCH  17  21
ENDBRANCH   1  17
TORSDOF 9
ENDMDL
MODEL 5
REMARK VINA RESULT: -5.603981069      3.299      6.857
REMARK  9 active torsions:
REMARK  status: ('A' for Active; 'I' for Inactive)
REMARK    1  A    between atoms: S1_2  and  C2_3 
REMARK    2  A    between atoms: C2_3  and  N2_7 
REMARK    3  A    between atoms: N3_10  and  C5_11 
REMARK    4  A    between atoms: C5_11  and  C6_12 
REMARK    5  A    between atoms: C6_12  and  C7_13 
REMARK    6  A    between atoms: C7_13  and  C8_14 
REMARK    7  A    between atoms: C8_14  and  C9_15 
REMARK    8  A    between atoms: C9_15  and  C10_16 
REMARK    9  A    between atoms: C10_16  and  N4_17 
ROOT
HETATM    1  N2  UNL     1      12.556 -15.578   8.600  1.00  0.00    -0.359 N 
HETATM    2  C3  UNL     1      12.351 -15.198   7.227  1.00  0.00     0.144 C 
HETATM    3  C4  UNL     1      13.670 -15.221   6.443  1.00  0.00     0.141 C 
HETATM    4  N3  UNL     1      14.653 -14.548   7.169  1.00  0.00    -0.390 N 
HETATM    5  C11 UNL     1      14.319 -13.978   8.419  1.00  0.00     0.141 C 
HETATM    6  C12 UNL     1      13.632 -14.992   9.348  1.00  0.00     0.144 C 
ENDROOT
BRANCH   4   7
HETATM    7  C5  UNL     1      15.877 -14.218   6.582  1.00  0.00     0.058 C 
BRANCH   7   8
HETATM    8  C6  UNL     1      16.229 -12.765   6.519  1.00  0.00     0.044 C 
BRANCH   8   9
HETATM    9  C7  UNL     1      15.492 -12.194   5.300  1.00  0.00     0.005 C 
BRANCH   9  10
HETATM   10  C8  UNL     1      14.351 -11.310   5.699  1.00  0.00     0.002 C 
BRANCH  10  11
HETATM   11  C9  UNL     1      14.468 -10.019   4.943  1.00  0.00     0.027 C 
BRANCH  11  12
HETATM   12  C10 UNL     1      14.315  -8.796   5.792  1.00  0.00     0.229 C 
BRANCH  12  13
HETATM   13  N4  UNL     1      15.566  -8.316   6.323  1.00  0.00    -0.079 N 
ATOM     14  H43 UNL     1      16.353  -8.817   5.910  1.00  0.00     0.274 HD
ATOM     15  H42 UNL     1      15.769  -7.376   5.982  1.00  0.00     0.274 HD
ATOM     16  H41 UNL     1      15.608  -8.350   7.341  1.00  0.00     0.274 HD
ENDBRANCH  12  13
ENDBRANCH  11  12
ENDBRANCH  10  11
ENDBRANCH   9  10
ENDBRANCH   8   9
ENDBRANCH   7   8
ENDBRANCH   4   7
BRANCH   1  17
HETATM   17  C2  UNL     1      11.710 -16.521   9.221  1.00  0.00     0.135 C 
HETATM   18  N1  UNL     1      10.498 -16.615   8.863  1.00  0.00    -0.380 N 
ATOM     19  H12 UNL     1       9.888 -17.297   9.312  1.00  0.00     0.158 HD
ATOM     20  H11 UNL     1      10.124 -16.014   8.129  1.00  0.00     0.158 HD
BRANCH  17  21
HETATM   21  S1  UNL     1      12.362 -17.568  10.500  1.00  0.00    -0.099 SA
HETATM   22  C1  UNL     1      11.886 -17.027  12.149  1.00  0.00     0.099 C 
ENDBRANCH  17  21
ENDBRANCH   1  17
TORSDOF 9
ENDMDL
