MODEL 1
REMARK VINA RESULT: -6.518126338      0.000      0.000
REMARK  6 active torsions:
REMARK  status: ('A' for Active; 'I' for Inactive)
REMARK    1  A    between atoms: S1_3  and  C2_4 
REMARK    2  A    between atoms: C2_4  and  C3_5 
REMARK    3  A    between atoms: C3_5  and  N2_6 
REMARK    4  A    between atoms: N2_6  and  S2_8 
REMARK    5  A    between atoms: S2_8  and  N3_11 
REMARK    6  A    between atoms: N3_11  and  C4_13 
ROOT
HETATM    1  N1  UNL     1      15.651  -7.611   6.503  1.00  0.00    -0.184 NA
HETATM    2  C1  UNL     1      14.861  -8.357   6.091  1.00  0.00     0.133 C 
HETATM    3  S1  UNL     1      13.755  -9.614   5.517  1.00  0.00    -0.049 SA
ENDROOT
BRANCH   3   4
HETATM    4  C2  UNL     1      14.767 -11.002   4.904  1.00  0.00     0.110 C 
BRANCH   4   5
HETATM    5  C3  UNL     1      14.800 -12.088   5.942  1.00  0.00     0.144 C 
BRANCH   5   6
HETATM    6  N2  UNL     1      15.440 -13.297   5.495  1.00  0.00    -0.302 N 
ATOM      7  H2  UNL     1      16.120 -13.324   4.734  1.00  0.00     0.173 HD
BRANCH   6   8
HETATM    8  S2  UNL     1      14.944 -14.690   6.370  1.00  0.00     0.315 S 
HETATM    9  O1  UNL     1      15.964 -14.995   7.445  1.00  0.00    -0.183 OA
HETATM   10  O2  UNL     1      14.931 -15.874   5.435  1.00  0.00    -0.183 OA
BRANCH   8  11
HETATM   11  N3  UNL     1      13.431 -14.484   7.155  1.00  0.00    -0.298 N 
ATOM     12  H3  UNL     1      13.199 -13.686   7.746  1.00  0.00     0.174 HD
BRANCH  11  13
HETATM   13  C4  UNL     1      12.518 -15.588   6.874  1.00  0.00     0.094 C 
HETATM   14  C5  UNL     1      12.211 -16.369   8.134  1.00  0.00     0.026 C 
HETATM   15  C6  UNL     1      10.697 -16.523   8.141  1.00  0.00     0.002 C 
HETATM   16  C7  UNL     1      10.262 -15.206   7.564  1.00  0.00     0.002 C 
HETATM   17  C8  UNL     1      11.180 -15.087   6.359  1.00  0.00     0.026 C 
ENDBRANCH  11  13
ENDBRANCH   8  11
ENDBRANCH   6   8
ENDBRANCH   5   6
ENDBRANCH   4   5
ENDBRANCH   3   4
TORSDOF 6
ENDMDL
MODEL 2
REMARK VINA RESULT: -6.379845283      3.408      4.299
REMARK  6 active torsions:
REMARK  status: ('A' for Active; 'I' for Inactive)
REMARK    1  A    between atoms: S1_3  and  C2_4 
REMARK    2  A    between atoms: C2_4  and  C3_5 
REMARK    3  A    between atoms: C3_5  and  N2_6 
REMARK    4  A    between atoms: N2_6  and  S2_8 
REMARK    5  A    between atoms: S2_8  and  N3_11 
REMARK    6  A    between atoms: N3_11  and  C4_13 
ROOT
HETATM    1  N1  UNL     1      14.381 -16.040   5.800  1.00  0.00    -0.184 NA
HETATM    2  C1  UNL     1      15.006 -15.060   5.827  1.00  0.00     0.133 C 
HETATM    3  S1  UNL     1      15.979 -13.596   6.026  1.00  0.00    -0.049 SA
ENDROOT
BRANCH   3   4
HETATM    4  C2  UNL     1      15.582 -12.888   7.659  1.00  0.00     0.110 C 
BRANCH   4   5
HETATM    5  C3  UNL     1      15.680 -13.963   8.704  1.00  0.00     0.144 C 
BRANCH   5   6
HETATM    6  N2  UNL     1      14.771 -13.785   9.806  1.00  0.00    -0.302 N 
ATOM      7  H2  UNL     1      14.768 -12.958  10.404  1.00  0.00     0.173 HD
BRANCH   6   8
HETATM    8  S2  UNL     1      13.690 -15.106  10.011  1.00  0.00     0.315 S 
HETATM    9  O1  UNL     1      12.602 -14.713  10.986  1.00  0.00    -0.183 OA
HETATM   10  O2  UNL     1      14.439 -16.255  10.637  1.00  0.00    -0.183 OA
BRANCH   8  11
HETATM   11  N3  UNL     1      12.916 -15.570   8.552  1.00  0.00    -0.298 N 
ATOM     12  H3  UNL     1      13.338 -16.178   7.850  1.00  0.00     0.174 HD
BRANCH  11  13
HETATM   13  C4  UNL     1      11.580 -14.991   8.435  1.00  0.00     0.094 C 
HETATM   14  C5  UNL     1      11.611 -13.727   7.603  1.00  0.00     0.026 C 
HETATM   15  C6  UNL     1      10.468 -13.883   6.610  1.00  0.00     0.002 C 
HETATM   16  C7  UNL     1      10.523 -15.357   6.325  1.00  0.00     0.002 C 
HETATM   17  C8  UNL     1      10.624 -15.934   7.727  1.00  0.00     0.026 C 
ENDBRANCH  11  13
ENDBRANCH   8  11
ENDBRANCH   6   8
ENDBRANCH   5   6
ENDBRANCH   4   5
ENDBRANCH   3   4
TORSDOF 6
ENDMDL
MODEL 3
REMARK VINA RESULT: -6.348050183      3.901      4.823
REMARK  6 active torsions:
REMARK  status: ('A' for Active; 'I' for Inactive)
REMARK    1  A    between atoms: S1_3  and  C2_4 
REMARK    2  A    between atoms: C2_4  and  C3_5 
REMARK    3  A    between atoms: C3_5  and  N2_6 
REMARK    4  A    between atoms: N2_6  and  S2_8 
REMARK    5  A    between atoms: S2_8  and  N3_11 
REMARK    6  A    between atoms: N3_11  and  C4_13 
ROOT
HETATM    1  N1  UNL     1      14.646 -15.230   6.345  1.00  0.00    -0.184 NA
HETATM    2  C1  UNL     1      15.087 -14.496   7.130  1.00  0.00     0.133 C 
HETATM    3  S1  UNL     1      15.731 -13.494   8.438  1.00  0.00    -0.049 SA
ENDROOT
BRANCH   3   4
HETATM    4  C2  UNL     1      14.728 -13.817   9.926  1.00  0.00     0.110 C 
BRANCH   4   5
HETATM    5  C3  UNL     1      14.860 -15.263  10.310  1.00  0.00     0.144 C 
BRANCH   5   6
HETATM    6  N2  UNL     1      13.749 -15.763  11.077  1.00  0.00    -0.302 N 
ATOM      7  H2  UNL     1      13.589 -15.524  12.056  1.00  0.00     0.173 HD
BRANCH   6   8
HETATM    8  S2  UNL     1      12.718 -16.803  10.176  1.00  0.00     0.315 S 
HETATM    9  O1  UNL     1      11.361 -16.861  10.842  1.00  0.00    -0.183 OA
HETATM   10  O2  UNL     1      13.281 -18.202  10.218  1.00  0.00    -0.183 OA
BRANCH   8  11
HETATM   11  N3  UNL     1      12.467 -16.267   8.565  1.00  0.00    -0.298 N 
ATOM     12  H3  UNL     1      13.083 -16.496   7.785  1.00  0.00     0.174 HD
BRANCH  11  13
HETATM   13  C4  UNL     1      11.267 -15.444   8.446  1.00  0.00     0.094 C 
HETATM   14  C5  UNL     1      11.621 -14.027   8.050  1.00  0.00     0.026 C 
HETATM   15  C6  UNL     1      10.673 -13.690   6.908  1.00  0.00     0.002 C 
HETATM   16  C7  UNL     1      10.583 -15.011   6.198  1.00  0.00     0.002 C 
HETATM   17  C8  UNL     1      10.342 -15.962   7.359  1.00  0.00     0.026 C 
ENDBRANCH  11  13
ENDBRANCH   8  11
ENDBRANCH   6   8
ENDBRANCH   5   6
ENDBRANCH   4   5
ENDBRANCH   3   4
TORSDOF 6
ENDMDL
MODEL 4
REMARK VINA RESULT: -6.271488970      3.482      4.346
REMARK  6 active torsions:
REMARK  status: ('A' for Active; 'I' for Inactive)
REMARK    1  A    between atoms: S1_3  and  C2_4 
REMARK    2  A    between atoms: C2_4  and  C3_5 
REMARK    3  A    between atoms: C3_5  and  N2_6 
REMARK    4  A    between atoms: N2_6  and  S2_8 
REMARK    5  A    between atoms: S2_8  and  N3_11 
REMARK    6  A    between atoms: N3_11  and  C4_13 
ROOT
HETATM    1  N1  UNL     1      14.466 -16.029   5.747  1.00  0.00    -0.184 NA
HETATM    2  C1  UNL     1      15.054 -15.044   5.932  1.00  0.00     0.133 C 
HETATM    3  S1  UNL     1      15.960 -13.588   6.370  1.00  0.00    -0.049 SA
ENDROOT
BRANCH   3   4
HETATM    4  C2  UNL     1      15.416 -13.081   8.035  1.00  0.00     0.110 C 
BRANCH   4   5
HETATM    5  C3  UNL     1      15.423 -14.276   8.946  1.00  0.00     0.144 C 
BRANCH   5   6
HETATM    6  N2  UNL     1      14.644 -14.096  10.143  1.00  0.00    -0.302 N 
ATOM      7  H2  UNL     1      14.936 -13.502  10.920  1.00  0.00     0.173 HD
BRANCH   6   8
HETATM    8  S2  UNL     1      13.171 -14.982  10.133  1.00  0.00     0.315 S 
HETATM    9  O1  UNL     1      12.693 -15.174  11.555  1.00  0.00    -0.183 OA
HETATM   10  O2  UNL     1      13.435 -16.358   9.575  1.00  0.00    -0.183 OA
BRANCH   8  11
HETATM   11  N3  UNL     1      11.914 -14.182   9.281  1.00  0.00    -0.298 N 
ATOM     12  H3  UNL     1      11.307 -13.472   9.693  1.00  0.00     0.174 HD
BRANCH  11  13
HETATM   13  C4  UNL     1      11.817 -14.638   7.898  1.00  0.00     0.094 C 
HETATM   14  C5  UNL     1      10.518 -15.378   7.663  1.00  0.00     0.026 C 
HETATM   15  C6  UNL     1       9.951 -14.779   6.384  1.00  0.00     0.002 C 
HETATM   16  C7  UNL     1      10.354 -13.338   6.527  1.00  0.00     0.002 C 
HETATM   17  C8  UNL     1      11.815 -13.472   6.926  1.00  0.00     0.026 C 
ENDBRANCH  11  13
ENDBRANCH   8  11
ENDBRANCH   6   8
ENDBRANCH   5   6
ENDBRANCH   4   5
ENDBRANCH   3   4
TORSDOF 6
ENDMDL
MODEL 5
REMARK VINA RESULT: -6.255377036      1.713      2.083
REMARK  6 active torsions:
REMARK  status: ('A' for Active; 'I' for Inactive)
REMARK    1  A    between atoms: S1_3  and  C2_4 
REMARK    2  A    between atoms: C2_4  and  C3_5 
REMARK    3  A    between atoms: C3_5  and  N2_6 
REMARK    4  A    between atoms: N2_6  and  S2_8 
REMARK    5  A    between atoms: S2_8  and  N3_11 
REMARK    6  A    between atoms: N3_11  and  C4_13 
ROOT
HETATM    1  N1  UNL     1      11.821  -9.387   6.079  1.00  0.00    -0.184 NA
HETATM    2  C1  UNL     1      12.761  -9.387   5.396  1.00  0.00     0.133 C 
HETATM    3  S1  UNL     1      14.167  -9.545   4.333  1.00  0.00    -0.049 SA
ENDROOT
BRANCH   3   4
HETATM    4  C2  UNL     1      14.935 -11.164   4.673  1.00  0.00     0.110 C 
BRANCH   4   5
HETATM    5  C3  UNL     1      14.818 -11.472   6.139  1.00  0.00     0.144 C 
BRANCH   5   6
HETATM    6  N2  UNL     1      15.832 -12.371   6.625  1.00  0.00    -0.302 N 
ATOM      7  H2  UNL     1      16.829 -12.155   6.607  1.00  0.00     0.173 HD
BRANCH   6   8
HETATM    8  S2  UNL     1      15.192 -13.844   7.238  1.00  0.00     0.315 S 
HETATM    9  O1  UNL     1      14.804 -13.655   8.688  1.00  0.00    -0.183 OA
HETATM   10  O2  UNL     1      16.277 -14.893   7.213  1.00  0.00    -0.183 OA
BRANCH   8  11
HETATM   11  N3  UNL     1      13.787 -14.363   6.402  1.00  0.00    -0.298 N 
ATOM     12  H3  UNL     1      13.767 -14.599   5.410  1.00  0.00     0.174 HD
BRANCH  11  13
HETATM   13  C4  UNL     1      12.623 -14.426   7.281  1.00  0.00     0.094 C 
HETATM   14  C5  UNL     1      11.638 -13.325   6.954  1.00  0.00     0.026 C 
HETATM   15  C6  UNL     1      10.285 -14.018   6.877  1.00  0.00     0.002 C 
HETATM   16  C7  UNL     1      10.662 -15.337   6.264  1.00  0.00     0.002 C 
HETATM   17  C8  UNL     1      11.864 -15.730   7.107  1.00  0.00     0.026 C 
ENDBRANCH  11  13
ENDBRANCH   8  11
ENDBRANCH   6   8
ENDBRANCH   5   6
ENDBRANCH   4   5
ENDBRANCH   3   4
TORSDOF 6
ENDMDL
