MODEL 1
REMARK VINA RESULT: -6.769977674      0.000      0.000
REMARK  9 active torsions:
REMARK  status: ('A' for Active; 'I' for Inactive)
REMARK    1  A    between atoms: C2_2  and  C3_3 
REMARK    2  A    between atoms: C3_3  and  C4_4 
REMARK    3  A    between atoms: C4_4  and  C5_5 
REMARK    4  A    between atoms: C7_7  and  O1_8 
REMARK    5  A    between atoms: C8_10  and  O2_11 
REMARK    6  A    between atoms: C9_13  and  C10_14 
REMARK    7  A    between atoms: C10_14  and  S1_15 
REMARK    8  A    between atoms: S1_15  and  C11_16 
REMARK    9  A    between atoms: C17_22  and  O3_23 
ROOT
HETATM    1  C5  UNL     1      13.588 -15.281   9.127  1.00  0.00     0.017 C 
HETATM    2  C6  UNL     1      12.739 -15.785   8.013  1.00  0.00     0.041 C 
HETATM    3  C7  UNL     1      12.800 -14.975   6.770  1.00  0.00     0.147 C 
HETATM    4  C8  UNL     1      14.173 -14.576   6.320  1.00  0.00     0.154 C 
HETATM    5  C9  UNL     1      15.167 -14.334   7.393  1.00  0.00     0.056 C 
HETATM    6  C17 UNL     1      14.627 -14.279   8.789  1.00  0.00     0.129 C 
ENDROOT
BRANCH   5   7
HETATM    7  C10 UNL     1      15.796 -12.942   7.123  1.00  0.00     0.089 C 
BRANCH   7   8
HETATM    8  S1  UNL     1      15.778 -12.485   5.395  1.00  0.00    -0.129 SA
BRANCH   8   9
HETATM    9  C11 UNL     1      14.679 -11.134   5.047  1.00  0.00     0.000 A 
HETATM   10  C12 UNL     1      14.918 -10.342   3.941  1.00  0.00     0.018 A 
HETATM   11  C13 UNL     1      14.090  -9.302   3.545  1.00  0.00     0.001 A 
HETATM   12  C14 UNL     1      12.954  -9.053   4.319  1.00  0.00     0.000 A 
HETATM   13  C15 UNL     1      12.680  -9.821   5.429  1.00  0.00     0.001 A 
HETATM   14  C16 UNL     1      13.552 -10.860   5.786  1.00  0.00     0.018 A 
ENDBRANCH   8   9
ENDBRANCH   7   8
ENDBRANCH   5   7
BRANCH   4  15
HETATM   15  O2  UNL     1      14.730 -15.444   5.377  1.00  0.00    -0.393 OA
ATOM     16  H2  UNL     1      15.657 -15.299   5.225  1.00  0.00     0.210 HD
ENDBRANCH   4  15
BRANCH   6  17
HETATM   17  O3  UNL     1      15.760 -14.512   9.621  1.00  0.00    -0.395 OA
ATOM     18  H3  UNL     1      16.487 -14.001   9.285  1.00  0.00     0.210 HD
ENDBRANCH   6  17
BRANCH   3  19
HETATM   19  O1  UNL     1      11.934 -13.856   6.810  1.00  0.00    -0.393 OA
ATOM     20  H1  UNL     1      12.378 -13.064   7.089  1.00  0.00     0.210 HD
ENDBRANCH   3  19
BRANCH   1  21
HETATM   21  C4  UNL     1      12.736 -14.793  10.301  1.00  0.00     0.011 C 
BRANCH  21  22
HETATM   22  C3  UNL     1      13.016 -15.612  11.535  1.00  0.00     0.027 C 
BRANCH  22  23
HETATM   23  C2  UNL     1      12.589 -17.018  11.303  1.00  0.00    -0.037 C 
HETATM   24  C1  UNL     1      11.288 -17.293  11.368  1.00  0.00     0.007 C 
ENDBRANCH  22  23
ENDBRANCH  21  22
ENDBRANCH   1  21
TORSDOF 9
ENDMDL
MODEL 2
REMARK VINA RESULT: -6.620647083      7.001     10.490
REMARK  9 active torsions:
REMARK  status: ('A' for Active; 'I' for Inactive)
REMARK    1  A    between atoms: C2_2  and  C3_3 
REMARK    2  A    between atoms: C3_3  and  C4_4 
REMARK    3  A    between atoms: C4_4  and  C5_5 
REMARK    4  A    between atoms: C7_7  and  O1_8 
REMARK    5  A    between atoms: C8_10  and  O2_11 
REMARK    6  A    between atoms: C9_13  and  C10_14 
REMARK    7  A    between atoms: C10_14  and  S1_15 
REMARK    8  A    between atoms: S1_15  and  C11_16 
REMARK    9  A    between atoms: C17_22  and  O3_23 
ROOT
HETATM    1  C5  UNL     1      14.851  -7.972   1.428  1.00  0.00     0.017 C 
HETATM    2  C6  UNL     1      14.076  -6.741   1.743  1.00  0.00     0.041 C 
HETATM    3  C7  UNL     1      14.808  -5.470   1.511  1.00  0.00     0.147 C 
HETATM    4  C8  UNL     1      15.552  -5.373   0.213  1.00  0.00     0.154 C 
HETATM    5  C9  UNL     1      16.114  -6.641  -0.313  1.00  0.00     0.056 C 
HETATM    6  C17 UNL     1      16.085  -7.810   0.622  1.00  0.00     0.129 C 
ENDROOT
BRANCH   5   7
HETATM    7  C10 UNL     1      17.611  -6.378  -0.623  1.00  0.00     0.089 C 
BRANCH   7   8
HETATM    8  S1  UNL     1      18.679  -6.653   0.783  1.00  0.00    -0.129 SA
BRANCH   8   9
HETATM    9  C11 UNL     1      20.382  -6.281   0.444  1.00  0.00     0.000 A 
HETATM   10  C12 UNL     1      20.986  -5.233   1.110  1.00  0.00     0.018 A 
HETATM   11  C13 UNL     1      22.324  -4.896   0.965  1.00  0.00     0.001 A 
HETATM   12  C14 UNL     1      23.091  -5.671   0.092  1.00  0.00     0.000 A 
HETATM   13  C15 UNL     1      22.526  -6.725  -0.592  1.00  0.00     0.001 A 
HETATM   14  C16 UNL     1      21.168  -7.021  -0.409  1.00  0.00     0.018 A 
ENDBRANCH   8   9
ENDBRANCH   7   8
ENDBRANCH   5   7
BRANCH   4  15
HETATM   15  O2  UNL     1      14.827  -4.745  -0.803  1.00  0.00    -0.393 OA
ATOM     16  H2  UNL     1      15.241  -3.956  -1.135  1.00  0.00     0.210 HD
ENDBRANCH   4  15
BRANCH   6  17
HETATM   17  O3  UNL     1      16.218  -8.949  -0.224  1.00  0.00    -0.395 OA
ATOM     18  H3  UNL     1      16.966  -8.811  -0.793  1.00  0.00     0.210 HD
ENDBRANCH   6  17
BRANCH   3  19
HETATM   19  O1  UNL     1      15.642  -5.120   2.600  1.00  0.00    -0.393 OA
ATOM     20  H1  UNL     1      16.361  -5.730   2.717  1.00  0.00     0.210 HD
ENDBRANCH   3  19
BRANCH   1  21
HETATM   21  C4  UNL     1      15.140  -8.788   2.690  1.00  0.00     0.011 C 
BRANCH  21  22
HETATM   22  C3  UNL     1      13.878  -9.427   3.209  1.00  0.00     0.027 C 
BRANCH  22  23
HETATM   23  C2  UNL     1      13.845  -9.326   4.693  1.00  0.00    -0.037 C 
HETATM   24  C1  UNL     1      12.691  -9.575   5.308  1.00  0.00     0.007 C 
ENDBRANCH  22  23
ENDBRANCH  21  22
ENDBRANCH   1  21
TORSDOF 9
ENDMDL
MODEL 3
REMARK VINA RESULT: -6.603125580      1.837      7.226
REMARK  9 active torsions:
REMARK  status: ('A' for Active; 'I' for Inactive)
REMARK    1  A    between atoms: C2_2  and  C3_3 
REMARK    2  A    between atoms: C3_3  and  C4_4 
REMARK    3  A    between atoms: C4_4  and  C5_5 
REMARK    4  A    between atoms: C7_7  and  O1_8 
REMARK    5  A    between atoms: C8_10  and  O2_11 
REMARK    6  A    between atoms: C9_13  and  C10_14 
REMARK    7  A    between atoms: C10_14  and  S1_15 
REMARK    8  A    between atoms: S1_15  and  C11_16 
REMARK    9  A    between atoms: C17_22  and  O3_23 
ROOT
HETATM    1  C5  UNL     1      14.561 -11.527   5.152  1.00  0.00     0.017 C 
HETATM    2  C6  UNL     1      15.835 -11.961   4.519  1.00  0.00     0.041 C 
HETATM    3  C7  UNL     1      16.585 -12.995   5.278  1.00  0.00     0.147 C 
HETATM    4  C8  UNL     1      15.770 -14.143   5.794  1.00  0.00     0.154 C 
HETATM    5  C9  UNL     1      14.373 -13.831   6.179  1.00  0.00     0.056 C 
HETATM    6  C17 UNL     1      14.016 -12.377   6.238  1.00  0.00     0.129 C 
ENDROOT
BRANCH   5   7
HETATM    7  C10 UNL     1      14.164 -14.380   7.615  1.00  0.00     0.089 C 
BRANCH   7   8
HETATM    8  S1  UNL     1      12.660 -15.329   7.793  1.00  0.00    -0.129 SA
BRANCH   8   9
HETATM    9  C11 UNL     1      12.490 -16.064   9.400  1.00  0.00     0.000 A 
HETATM   10  C12 UNL     1      13.357 -15.686  10.407  1.00  0.00     0.018 A 
HETATM   11  C13 UNL     1      13.274 -16.152  11.711  1.00  0.00     0.001 A 
HETATM   12  C14 UNL     1      12.250 -17.055  12.007  1.00  0.00     0.000 A 
HETATM   13  C15 UNL     1      11.364 -17.457  11.031  1.00  0.00     0.001 A 
HETATM   14  C16 UNL     1      11.494 -16.955   9.728  1.00  0.00     0.018 A 
ENDBRANCH   8   9
ENDBRANCH   7   8
ENDBRANCH   5   7
BRANCH   4  15
HETATM   15  O2  UNL     1      15.767 -15.254   4.947  1.00  0.00    -0.393 OA
ATOM     16  H2  UNL     1      16.636 -15.559   4.713  1.00  0.00     0.210 HD
ENDBRANCH   4  15
BRANCH   6  17
HETATM   17  O3  UNL     1      12.595 -12.353   6.155  1.00  0.00    -0.395 OA
ATOM     18  H3  UNL     1      12.334 -12.812   5.364  1.00  0.00     0.210 HD
ENDBRANCH   6  17
BRANCH   3  19
HETATM   19  O1  UNL     1      17.384 -12.439   6.305  1.00  0.00    -0.393 OA
ATOM     20  H1  UNL     1      18.255 -12.819   6.333  1.00  0.00     0.210 HD
ENDBRANCH   3  19
BRANCH   1  21
HETATM   21  C4  UNL     1      14.630 -10.065   5.601  1.00  0.00     0.011 C 
BRANCH  21  22
HETATM   22  C3  UNL     1      13.479  -9.280   5.027  1.00  0.00     0.027 C 
BRANCH  22  23
HETATM   23  C2  UNL     1      13.527  -9.344   3.542  1.00  0.00    -0.037 C 
HETATM   24  C1  UNL     1      12.536  -8.772   2.862  1.00  0.00     0.007 C 
ENDBRANCH  22  23
ENDBRANCH  21  22
ENDBRANCH   1  21
TORSDOF 9
ENDMDL
MODEL 4
REMARK VINA RESULT: -6.569824013      6.907     10.463
REMARK  9 active torsions:
REMARK  status: ('A' for Active; 'I' for Inactive)
REMARK    1  A    between atoms: C2_2  and  C3_3 
REMARK    2  A    between atoms: C3_3  and  C4_4 
REMARK    3  A    between atoms: C4_4  and  C5_5 
REMARK    4  A    between atoms: C7_7  and  O1_8 
REMARK    5  A    between atoms: C8_10  and  O2_11 
REMARK    6  A    between atoms: C9_13  and  C10_14 
REMARK    7  A    between atoms: C10_14  and  S1_15 
REMARK    8  A    between atoms: S1_15  and  C11_16 
REMARK    9  A    between atoms: C17_22  and  O3_23 
ROOT
HETATM    1  C5  UNL     1      14.061  -7.592   1.079  1.00  0.00     0.017 C 
HETATM    2  C6  UNL     1      14.019  -6.118   1.284  1.00  0.00     0.041 C 
HETATM    3  C7  UNL     1      15.350  -5.469   1.402  1.00  0.00     0.147 C 
HETATM    4  C8  UNL     1      16.370  -5.886   0.386  1.00  0.00     0.154 C 
HETATM    5  C9  UNL     1      16.287  -7.290  -0.085  1.00  0.00     0.056 C 
HETATM    6  C17 UNL     1      15.360  -8.185   0.679  1.00  0.00     0.129 C 
ENDROOT
BRANCH   5   7
HETATM    7  C10 UNL     1      17.702  -7.906   0.073  1.00  0.00     0.089 C 
BRANCH   7   8
HETATM    8  S1  UNL     1      18.835  -7.402  -1.214  1.00  0.00    -0.129 SA
BRANCH   8   9
HETATM    9  C11 UNL     1      20.329  -6.682  -0.580  1.00  0.00     0.000 A 
HETATM   10  C12 UNL     1      20.249  -5.757   0.443  1.00  0.00     0.018 A 
HETATM   11  C13 UNL     1      21.354  -5.181   1.050  1.00  0.00     0.001 A 
HETATM   12  C14 UNL     1      22.615  -5.567   0.590  1.00  0.00     0.000 A 
HETATM   13  C15 UNL     1      22.739  -6.487  -0.428  1.00  0.00     0.001 A 
HETATM   14  C16 UNL     1      21.587  -7.038  -1.008  1.00  0.00     0.018 A 
ENDBRANCH   8   9
ENDBRANCH   7   8
ENDBRANCH   5   7
BRANCH   4  15
HETATM   15  O2  UNL     1      16.435  -5.041  -0.725  1.00  0.00    -0.393 OA
ATOM     16  H2  UNL     1      17.079  -5.308  -1.370  1.00  0.00     0.210 HD
ENDBRANCH   4  15
BRANCH   6  17
HETATM   17  O3  UNL     1      15.102  -9.271  -0.206  1.00  0.00    -0.395 OA
ATOM     18  H3  UNL     1      15.403 -10.071   0.208  1.00  0.00     0.210 HD
ENDBRANCH   6  17
BRANCH   3  19
HETATM   19  O1  UNL     1      15.877  -5.550   2.713  1.00  0.00    -0.393 OA
ATOM     20  H1  UNL     1      16.292  -4.740   2.988  1.00  0.00     0.210 HD
ENDBRANCH   3  19
BRANCH   1  21
HETATM   21  C4  UNL     1      13.480  -8.340   2.281  1.00  0.00     0.011 C 
BRANCH  21  22
HETATM   22  C3  UNL     1      14.579  -8.775   3.216  1.00  0.00     0.027 C 
BRANCH  22  23
HETATM   23  C2  UNL     1      14.019  -9.691   4.246  1.00  0.00    -0.037 C 
HETATM   24  C1  UNL     1      12.893  -9.328   4.857  1.00  0.00     0.007 C 
ENDBRANCH  22  23
ENDBRANCH  21  22
ENDBRANCH   1  21
TORSDOF 9
ENDMDL
MODEL 5
REMARK VINA RESULT: -6.524005202      6.930     10.442
REMARK  9 active torsions:
REMARK  status: ('A' for Active; 'I' for Inactive)
REMARK    1  A    between atoms: C2_2  and  C3_3 
REMARK    2  A    between atoms: C3_3  and  C4_4 
REMARK    3  A    between atoms: C4_4  and  C5_5 
REMARK    4  A    between atoms: C7_7  and  O1_8 
REMARK    5  A    between atoms: C8_10  and  O2_11 
REMARK    6  A    between atoms: C9_13  and  C10_14 
REMARK    7  A    between atoms: C10_14  and  S1_15 
REMARK    8  A    between atoms: S1_15  and  C11_16 
REMARK    9  A    between atoms: C17_22  and  O3_23 
ROOT
HETATM    1  C5  UNL     1      14.049  -7.605   1.068  1.00  0.00     0.017 C 
HETATM    2  C6  UNL     1      14.013  -6.137   1.308  1.00  0.00     0.041 C 
HETATM    3  C7  UNL     1      15.346  -5.497   1.447  1.00  0.00     0.147 C 
HETATM    4  C8  UNL     1      16.370  -5.896   0.427  1.00  0.00     0.154 C 
HETATM    5  C9  UNL     1      16.282  -7.287  -0.078  1.00  0.00     0.056 C 
HETATM    6  C17 UNL     1      15.346  -8.196   0.660  1.00  0.00     0.129 C 
ENDROOT
BRANCH   5   7
HETATM    7  C10 UNL     1      17.693  -7.914   0.072  1.00  0.00     0.089 C 
BRANCH   7   8
HETATM    8  S1  UNL     1      18.841  -7.367  -1.184  1.00  0.00    -0.129 SA
BRANCH   8   9
HETATM    9  C11 UNL     1      20.333  -6.680  -0.508  1.00  0.00     0.000 A 
HETATM   10  C12 UNL     1      21.551  -7.083  -1.019  1.00  0.00     0.018 A 
HETATM   11  C13 UNL     1      22.769  -6.566  -0.606  1.00  0.00     0.001 A 
HETATM   12  C14 UNL     1      22.747  -5.581   0.384  1.00  0.00     0.000 A 
HETATM   13  C15 UNL     1      21.554  -5.150   0.920  1.00  0.00     0.001 A 
HETATM   14  C16 UNL     1      20.350  -5.709   0.467  1.00  0.00     0.018 A 
ENDBRANCH   8   9
ENDBRANCH   7   8
ENDBRANCH   5   7
BRANCH   4  15
HETATM   15  O2  UNL     1      16.444  -5.025  -0.664  1.00  0.00    -0.393 OA
ATOM     16  H2  UNL     1      17.090  -5.280  -1.313  1.00  0.00     0.210 HD
ENDBRANCH   4  15
BRANCH   6  17
HETATM   17  O3  UNL     1      15.087  -9.259  -0.252  1.00  0.00    -0.395 OA
ATOM     18  H3  UNL     1      14.269  -9.076  -0.699  1.00  0.00     0.210 HD
ENDBRANCH   6  17
BRANCH   3  19
HETATM   19  O1  UNL     1      15.867  -5.612   2.759  1.00  0.00    -0.393 OA
ATOM     20  H1  UNL     1      15.851  -6.507   3.078  1.00  0.00     0.210 HD
ENDBRANCH   3  19
BRANCH   1  21
HETATM   21  C4  UNL     1      13.458  -8.379   2.249  1.00  0.00     0.011 C 
BRANCH  21  22
HETATM   22  C3  UNL     1      14.554  -8.894   3.146  1.00  0.00     0.027 C 
BRANCH  22  23
HETATM   23  C2  UNL     1      13.965  -9.770   4.194  1.00  0.00    -0.037 C 
HETATM   24  C1  UNL     1      12.833  -9.376   4.773  1.00  0.00     0.007 C 
ENDBRANCH  22  23
ENDBRANCH  21  22
ENDBRANCH   1  21
TORSDOF 9
ENDMDL
