MODEL 1
REMARK VINA RESULT: -7.772913346      0.000      0.000
REMARK  7 active torsions:
REMARK  status: ('A' for Active; 'I' for Inactive)
REMARK    1  A    between atoms: O1_1  and  C1_3 
REMARK    2  A    between atoms: C1_3  and  C2_4 
REMARK    3  A    between atoms: C2_4  and  N1_5 
REMARK    4  A    between atoms: N1_5  and  C3_8 
REMARK    5  A    between atoms: C3_8  and  C4_9 
REMARK    6  A    between atoms: C4_9  and  N2_10 
REMARK    7  A    between atoms: C8_14  and  O2_15 
ROOT
HETATM    1  N2  UNL     1      15.680 -12.856   6.708  1.00  0.00     0.107 N 
HETATM    2  C5  UNL     1      15.403 -14.261   6.841  1.00  0.00     0.279 A 
HETATM    3  C6  UNL     1      14.439 -14.906   5.927  1.00  0.00     0.009 C 
HETATM    4  C7  UNL     1      13.201 -15.255   6.114  1.00  0.00     0.003 C 
HETATM    5  C8  UNL     1      12.311 -15.141   7.278  1.00  0.00     0.140 C 
HETATM    6  C9  UNL     1      11.421 -16.350   7.476  1.00  0.00     0.036 C 
HETATM    7  C10 UNL     1      11.013 -16.503   8.928  1.00  0.00     0.003 C 
HETATM    8  C11 UNL     1      11.907 -17.456   9.678  1.00  0.00     0.000 C 
HETATM    9  C12 UNL     1      12.039 -17.089  11.144  1.00  0.00     0.000 C 
HETATM   10  C13 UNL     1      12.893 -15.851  11.333  1.00  0.00     0.000 C 
HETATM   11  C14 UNL     1      14.348 -16.135  11.435  1.00  0.00     0.000 C 
HETATM   12  C15 UNL     1      15.172 -15.556  10.321  1.00  0.00     0.000 C 
HETATM   13  C16 UNL     1      15.074 -14.057  10.242  1.00  0.00     0.002 C 
HETATM   14  C17 UNL     1      15.931 -13.551   9.124  1.00  0.00     0.038 C 
HETATM   15  C18 UNL     1      15.030 -13.414   7.882  1.00  0.00     0.261 A 
ENDROOT
BRANCH   1  16
HETATM   16  C4  UNL     1      14.924 -11.880   6.039  1.00  0.00     0.301 C 
BRANCH  16  17
HETATM   17  C3  UNL     1      15.421 -11.496   4.695  1.00  0.00     0.262 C 
BRANCH  17  18
HETATM   18  N1  UNL     1      15.121 -10.125   4.339  1.00  0.00    -0.071 N 
ATOM     19  H12 UNL     1      14.708 -10.077   3.407  1.00  0.00     0.277 HD
ATOM     20  H11 UNL     1      15.981  -9.600   4.173  1.00  0.00     0.277 HD
BRANCH  18  21
HETATM   21  C2  UNL     1      14.297  -9.448   5.289  1.00  0.00     0.258 C 
BRANCH  21  22
HETATM   22  C1  UNL     1      12.933  -9.239   4.649  1.00  0.00     0.191 C 
BRANCH  22  23
HETATM   23  O1  UNL     1      11.978  -9.247   5.675  1.00  0.00    -0.399 OA
ATOM     24  H1  UNL     1      11.822 -10.154   5.915  1.00  0.00     0.209 HD
ENDBRANCH  22  23
ENDBRANCH  21  22
ENDBRANCH  18  21
ENDBRANCH  17  18
ENDBRANCH  16  17
ENDBRANCH   1  16
BRANCH   5  25
HETATM   25  O2  UNL     1      11.523 -13.965   7.216  1.00  0.00    -0.392 OA
ATOM     26  H2  UNL     1      10.723 -14.055   7.720  1.00  0.00     0.210 HD
ENDBRANCH   5  25
TORSDOF 7
ENDMDL
MODEL 2
REMARK VINA RESULT: -6.262362304      1.880      2.366
REMARK  7 active torsions:
REMARK  status: ('A' for Active; 'I' for Inactive)
REMARK    1  A    between atoms: O1_1  and  C1_3 
REMARK    2  A    between atoms: C1_3  and  C2_4 
REMARK    3  A    between atoms: C2_4  and  N1_5 
REMARK    4  A    between atoms: N1_5  and  C3_8 
REMARK    5  A    between atoms: C3_8  and  C4_9 
REMARK    6  A    between atoms: C4_9  and  N2_10 
REMARK    7  A    between atoms: C8_14  and  O2_15 
ROOT
HETATM    1  N2  UNL     1      15.086 -12.880   6.739  1.00  0.00     0.107 N 
HETATM    2  C5  UNL     1      14.837 -14.289   6.877  1.00  0.00     0.279 A 
HETATM    3  C6  UNL     1      13.753 -14.920   6.099  1.00  0.00     0.009 C 
HETATM    4  C7  UNL     1      12.556 -15.282   6.455  1.00  0.00     0.003 C 
HETATM    5  C8  UNL     1      11.844 -15.201   7.739  1.00  0.00     0.140 C 
HETATM    6  C9  UNL     1      10.997 -16.420   8.035  1.00  0.00     0.036 C 
HETATM    7  C10 UNL     1      10.806 -16.609   9.527  1.00  0.00     0.003 C 
HETATM    8  C11 UNL     1      11.802 -17.573  10.116  1.00  0.00     0.000 C 
HETATM    9  C12 UNL     1      12.145 -17.239  11.556  1.00  0.00     0.000 C 
HETATM   10  C13 UNL     1      13.013 -15.999  11.648  1.00  0.00     0.000 C 
HETATM   11  C14 UNL     1      14.468 -16.276  11.530  1.00  0.00     0.000 C 
HETATM   12  C15 UNL     1      15.120 -15.666  10.323  1.00  0.00     0.000 C 
HETATM   13  C16 UNL     1      15.006 -14.165  10.294  1.00  0.00     0.002 C 
HETATM   14  C17 UNL     1      15.690 -13.628   9.076  1.00  0.00     0.038 C 
HETATM   15  C18 UNL     1      14.616 -13.469   7.982  1.00  0.00     0.261 A 
ENDROOT
BRANCH   1  16
HETATM   16  C4  UNL     1      14.237 -11.894   6.211  1.00  0.00     0.301 C 
BRANCH  16  17
HETATM   17  C3  UNL     1      14.851 -10.997   5.200  1.00  0.00     0.262 C 
BRANCH  17  18
HETATM   18  N1  UNL     1      15.599 -11.704   4.181  1.00  0.00    -0.071 N 
ATOM     19  H12 UNL     1      15.603 -11.177   3.307  1.00  0.00     0.277 HD
ATOM     20  H11 UNL     1      15.095 -12.537   3.878  1.00  0.00     0.277 HD
BRANCH  18  21
HETATM   21  C2  UNL     1      16.932 -12.038   4.571  1.00  0.00     0.258 C 
BRANCH  21  22
HETATM   22  C1  UNL     1      17.130 -13.523   4.310  1.00  0.00     0.191 C 
BRANCH  22  23
HETATM   23  O1  UNL     1      18.342 -13.674   3.622  1.00  0.00    -0.399 OA
ATOM     24  H1  UNL     1      18.164 -13.553   2.696  1.00  0.00     0.209 HD
ENDBRANCH  22  23
ENDBRANCH  21  22
ENDBRANCH  18  21
ENDBRANCH  17  18
ENDBRANCH  16  17
ENDBRANCH   1  16
BRANCH   5  25
HETATM   25  O2  UNL     1      11.052 -14.029   7.820  1.00  0.00    -0.392 OA
ATOM     26  H2  UNL     1      10.984 -13.716   8.714  1.00  0.00     0.210 HD
ENDBRANCH   5  25
TORSDOF 7
ENDMDL
MODEL 3
REMARK VINA RESULT: -6.249577204      5.171     11.237
REMARK  7 active torsions:
REMARK  status: ('A' for Active; 'I' for Inactive)
REMARK    1  A    between atoms: O1_1  and  C1_3 
REMARK    2  A    between atoms: C1_3  and  C2_4 
REMARK    3  A    between atoms: C2_4  and  N1_5 
REMARK    4  A    between atoms: N1_5  and  C3_8 
REMARK    5  A    between atoms: C3_8  and  C4_9 
REMARK    6  A    between atoms: C4_9  and  N2_10 
REMARK    7  A    between atoms: C8_14  and  O2_15 
ROOT
HETATM    1  N2  UNL     1      13.828  -9.193   2.430  1.00  0.00     0.107 N 
HETATM    2  C5  UNL     1      13.803  -8.507   1.166  1.00  0.00     0.279 A 
HETATM    3  C6  UNL     1      15.058  -7.979   0.596  1.00  0.00     0.009 C 
HETATM    4  C7  UNL     1      15.529  -6.768   0.565  1.00  0.00     0.003 C 
HETATM    5  C8  UNL     1      15.004  -5.494   1.076  1.00  0.00     0.140 C 
HETATM    6  C9  UNL     1      15.250  -4.325   0.146  1.00  0.00     0.036 C 
HETATM    7  C10 UNL     1      14.217  -3.233   0.346  1.00  0.00     0.003 C 
HETATM    8  C11 UNL     1      13.075  -3.338  -0.631  1.00  0.00     0.000 C 
HETATM    9  C12 UNL     1      11.769  -2.830  -0.048  1.00  0.00     0.000 C 
HETATM   10  C13 UNL     1      11.213  -3.788   0.987  1.00  0.00     0.000 C 
HETATM   11  C14 UNL     1      10.358  -4.860   0.413  1.00  0.00     0.000 C 
HETATM   12  C15 UNL     1      10.903  -6.248   0.591  1.00  0.00     0.000 C 
HETATM   13  C16 UNL     1      11.080  -6.625   2.037  1.00  0.00     0.002 C 
HETATM   14  C17 UNL     1      11.608  -8.022   2.136  1.00  0.00     0.038 C 
HETATM   15  C18 UNL     1      13.141  -7.925   2.245  1.00  0.00     0.261 A 
ENDROOT
BRANCH   1  16
HETATM   16  C4  UNL     1      14.829  -9.169   3.413  1.00  0.00     0.301 C 
BRANCH  16  17
HETATM   17  C3  UNL     1      14.726 -10.219   4.456  1.00  0.00     0.262 C 
BRANCH  17  18
HETATM   18  N1  UNL     1      15.653 -11.315   4.264  1.00  0.00    -0.071 N 
ATOM     19  H12 UNL     1      16.614 -10.972   4.234  1.00  0.00     0.277 HD
ATOM     20  H11 UNL     1      15.575 -11.690   3.318  1.00  0.00     0.277 HD
BRANCH  18  21
HETATM   21  C2  UNL     1      15.522 -12.359   5.229  1.00  0.00     0.258 C 
BRANCH  21  22
HETATM   22  C1  UNL     1      16.717 -13.287   5.069  1.00  0.00     0.191 C 
BRANCH  22  23
HETATM   23  O1  UNL     1      17.417 -12.881   3.924  1.00  0.00    -0.399 OA
ATOM     24  H1  UNL     1      18.208 -13.406   3.870  1.00  0.00     0.209 HD
ENDBRANCH  22  23
ENDBRANCH  21  22
ENDBRANCH  18  21
ENDBRANCH  17  18
ENDBRANCH  16  17
ENDBRANCH   1  16
BRANCH   5  25
HETATM   25  O2  UNL     1      15.512  -5.202   2.366  1.00  0.00    -0.392 OA
ATOM     26  H2  UNL     1      16.374  -4.806   2.319  1.00  0.00     0.210 HD
ENDBRANCH   5  25
TORSDOF 7
ENDMDL
MODEL 4
REMARK VINA RESULT: -6.053946504      4.515      9.931
REMARK  7 active torsions:
REMARK  status: ('A' for Active; 'I' for Inactive)
REMARK    1  A    between atoms: O1_1  and  C1_3 
REMARK    2  A    between atoms: C1_3  and  C2_4 
REMARK    3  A    between atoms: C2_4  and  N1_5 
REMARK    4  A    between atoms: N1_5  and  C3_8 
REMARK    5  A    between atoms: C3_8  and  C4_9 
REMARK    6  A    between atoms: C4_9  and  N2_10 
REMARK    7  A    between atoms: C8_14  and  O2_15 
ROOT
HETATM    1  N2  UNL     1      14.986  -9.390   4.312  1.00  0.00     0.107 N 
HETATM    2  C5  UNL     1      14.191  -8.514   3.494  1.00  0.00     0.279 A 
HETATM    3  C6  UNL     1      12.924  -9.003   2.916  1.00  0.00     0.009 C 
HETATM    4  C7  UNL     1      12.643  -9.402   1.711  1.00  0.00     0.003 C 
HETATM    5  C8  UNL     1      13.462  -9.517   0.496  1.00  0.00     0.140 C 
HETATM    6  C9  UNL     1      12.730  -9.108  -0.764  1.00  0.00     0.036 C 
HETATM    7  C10 UNL     1      13.696  -8.635  -1.834  1.00  0.00     0.003 C 
HETATM    8  C11 UNL     1      13.855  -7.137  -1.842  1.00  0.00     0.000 C 
HETATM    9  C12 UNL     1      15.240  -6.708  -2.291  1.00  0.00     0.000 C 
HETATM   10  C13 UNL     1      16.284  -6.999  -1.231  1.00  0.00     0.000 C 
HETATM   11  C14 UNL     1      16.443  -5.910  -0.232  1.00  0.00     0.000 C 
HETATM   12  C15 UNL     1      16.071  -6.298   1.170  1.00  0.00     0.000 C 
HETATM   13  C16 UNL     1      16.900  -7.436   1.700  1.00  0.00     0.002 C 
HETATM   14  C17 UNL     1      16.486  -7.754   3.103  1.00  0.00     0.038 C 
HETATM   15  C18 UNL     1      15.448  -8.890   3.027  1.00  0.00     0.261 A 
ENDROOT
BRANCH   1  16
HETATM   16  C4  UNL     1      14.926 -10.790   4.399  1.00  0.00     0.301 C 
BRANCH  16  17
HETATM   17  C3  UNL     1      14.693 -11.336   5.759  1.00  0.00     0.262 C 
BRANCH  17  18
HETATM   18  N1  UNL     1      15.867 -11.952   6.342  1.00  0.00    -0.071 N 
ATOM     19  H12 UNL     1      15.706 -12.174   7.325  1.00  0.00     0.277 HD
ATOM     20  H11 UNL     1      16.619 -11.270   6.441  1.00  0.00     0.277 HD
BRANCH  18  21
HETATM   21  C2  UNL     1      16.325 -13.106   5.636  1.00  0.00     0.258 C 
BRANCH  21  22
HETATM   22  C1  UNL     1      15.609 -14.316   6.216  1.00  0.00     0.191 C 
BRANCH  22  23
HETATM   23  O1  UNL     1      16.291 -14.692   7.382  1.00  0.00    -0.399 OA
ATOM     24  H1  UNL     1      17.208 -14.798   7.157  1.00  0.00     0.209 HD
ENDBRANCH  22  23
ENDBRANCH  21  22
ENDBRANCH  18  21
ENDBRANCH  17  18
ENDBRANCH  16  17
ENDBRANCH   1  16
BRANCH   5  25
HETATM   25  O2  UNL     1      13.990 -10.823   0.347  1.00  0.00    -0.392 OA
ATOM     26  H2  UNL     1      13.594 -11.277  -0.388  1.00  0.00     0.210 HD
ENDBRANCH   5  25
TORSDOF 7
ENDMDL
MODEL 5
REMARK VINA RESULT: -5.834425190      8.979     13.776
REMARK  7 active torsions:
REMARK  status: ('A' for Active; 'I' for Inactive)
REMARK    1  A    between atoms: O1_1  and  C1_3 
REMARK    2  A    between atoms: C1_3  and  C2_4 
REMARK    3  A    between atoms: C2_4  and  N1_5 
REMARK    4  A    between atoms: N1_5  and  C3_8 
REMARK    5  A    between atoms: C3_8  and  C4_9 
REMARK    6  A    between atoms: C4_9  and  N2_10 
REMARK    7  A    between atoms: C8_14  and  O2_15 
ROOT
HETATM    1  N2  UNL     1      16.912  -6.869  -1.283  1.00  0.00     0.107 N 
HETATM    2  C5  UNL     1      18.050  -7.675  -0.930  1.00  0.00     0.279 A 
HETATM    3  C6  UNL     1      18.675  -7.517   0.397  1.00  0.00     0.009 C 
HETATM    4  C7  UNL     1      19.760  -6.895   0.752  1.00  0.00     0.003 C 
HETATM    5  C8  UNL     1      20.753  -6.129  -0.017  1.00  0.00     0.140 C 
HETATM    6  C9  UNL     1      22.177  -6.365   0.437  1.00  0.00     0.036 C 
HETATM    7  C10 UNL     1      23.163  -6.111  -0.687  1.00  0.00     0.003 C 
HETATM    8  C11 UNL     1      23.541  -7.375  -1.415  1.00  0.00     0.000 C 
HETATM    9  C12 UNL     1      23.858  -7.123  -2.878  1.00  0.00     0.000 C 
HETATM   10  C13 UNL     1      22.605  -6.820  -3.674  1.00  0.00     0.000 C 
HETATM   11  C14 UNL     1      21.917  -8.030  -4.194  1.00  0.00     0.000 C 
HETATM   12  C15 UNL     1      20.541  -8.250  -3.633  1.00  0.00     0.000 C 
HETATM   13  C16 UNL     1      19.602  -7.113  -3.929  1.00  0.00     0.002 C 
HETATM   14  C17 UNL     1      18.251  -7.409  -3.356  1.00  0.00     0.038 C 
HETATM   15  C18 UNL     1      18.191  -6.752  -1.964  1.00  0.00     0.261 A 
ENDROOT
BRANCH   1  16
HETATM   16  C4  UNL     1      16.469  -5.680  -0.681  1.00  0.00     0.301 C 
BRANCH  16  17
HETATM   17  C3  UNL     1      15.362  -5.833   0.297  1.00  0.00     0.262 C 
BRANCH  17  18
HETATM   18  N1  UNL     1      15.815  -5.932   1.669  1.00  0.00    -0.071 N 
ATOM     19  H12 UNL     1      15.592  -5.080   2.183  1.00  0.00     0.277 HD
ATOM     20  H11 UNL     1      16.834  -5.898   1.714  1.00  0.00     0.277 HD
BRANCH  18  21
HETATM   21  C2  UNL     1      15.321  -7.080   2.360  1.00  0.00     0.258 C 
BRANCH  21  22
HETATM   22  C1  UNL     1      16.438  -7.596   3.254  1.00  0.00     0.191 C 
BRANCH  22  23
HETATM   23  O1  UNL     1      16.512  -8.985   3.079  1.00  0.00    -0.399 OA
ATOM     24  H1  UNL     1      15.929  -9.386   3.714  1.00  0.00     0.209 HD
ENDBRANCH  22  23
ENDBRANCH  21  22
ENDBRANCH  18  21
ENDBRANCH  17  18
ENDBRANCH  16  17
ENDBRANCH   1  16
BRANCH   5  25
HETATM   25  O2  UNL     1      20.463  -4.743  -0.003  1.00  0.00    -0.392 OA
ATOM     26  H2  UNL     1      20.858  -4.297  -0.743  1.00  0.00     0.210 HD
ENDBRANCH   5  25
TORSDOF 7
ENDMDL
