MODEL 1
REMARK VINA RESULT: -7.838838741      0.000      0.000
REMARK  7 active torsions:
REMARK  status: ('A' for Active; 'I' for Inactive)
REMARK    1  A    between atoms: C2_3  and  N2_4 
REMARK       I    between atoms: N2_4  and  C3_6 
REMARK    2  A    between atoms: C3_6  and  C4_8 
REMARK    3  A    between atoms: C4_8  and  C5_9 
REMARK    4  A    between atoms: C5_9  and  C6_10 
REMARK    5  A    between atoms: C6_10  and  O2_11 
REMARK    6  A    between atoms: C6_10  and  C7_13 
REMARK    7  A    between atoms: C7_13  and  O3_14 
ROOT
HETATM    1  N1  UNL     1      16.471 -14.969   4.644  1.00  0.00    -0.195 NA
HETATM    2  C1  UNL     1      15.755 -14.604   5.470  1.00  0.00     0.091 C 
HETATM    3  C2  UNL     1      14.817 -14.123   6.522  1.00  0.00     0.122 C 
HETATM    4  C13 UNL     1      14.596 -12.640   6.242  1.00  0.00     0.046 C 
HETATM    5  C14 UNL     1      15.947 -11.921   6.184  1.00  0.00     0.004 C 
HETATM    6  C15 UNL     1      16.844 -12.423   7.305  1.00  0.00     0.000 C 
HETATM    7  C16 UNL     1      16.009 -13.021   8.425  1.00  0.00     0.004 C 
HETATM    8  C17 UNL     1      15.405 -14.324   7.880  1.00  0.00     0.046 C 
ENDROOT
BRANCH   3   9
HETATM    9  N2  UNL     1      13.571 -14.807   6.295  1.00  0.00    -0.339 N 
HETATM   10  C3  UNL     1      12.357 -14.120   6.376  1.00  0.00     0.219 C 
HETATM   11  O1  UNL     1      12.346 -12.898   6.651  1.00  0.00    -0.274 OA
ATOM     12  H2  UNL     1      13.574 -15.802   6.073  1.00  0.00     0.164 HD
BRANCH  10  13
HETATM   13  C4  UNL     1      11.031 -14.771   6.147  1.00  0.00     0.105 C 
BRANCH  13  14
HETATM   14  C5  UNL     1      10.912 -16.051   6.940  1.00  0.00     0.044 C 
BRANCH  14  15
HETATM   15  C6  UNL     1      10.785 -15.779   8.421  1.00  0.00     0.152 C 
BRANCH  15  16
HETATM   16  O2  UNL     1      10.766 -14.382   8.619  1.00  0.00    -0.393 OA
ATOM     17  H2  UNL     1      11.658 -14.059   8.570  1.00  0.00     0.210 HD
ENDBRANCH  15  16
BRANCH  15  18
HETATM   18  C7  UNL     1      11.915 -16.326   9.219  1.00  0.00     0.084 C 
HETATM   19  C8  UNL     1      11.517 -17.261  10.306  1.00  0.00     0.040 C 
HETATM   20  C9  UNL     1      11.712 -16.713  11.693  1.00  0.00     0.003 C 
HETATM   21  C10 UNL     1      13.219 -16.508  11.889  1.00  0.00     0.000 C 
HETATM   22  C11 UNL     1      13.745 -15.649  10.776  1.00  0.00     0.003 C 
HETATM   23  C12 UNL     1      12.653 -15.159   9.850  1.00  0.00     0.040 C 
BRANCH  18  24
HETATM   24  O3  UNL     1      12.824 -16.914   8.319  1.00  0.00    -0.387 OA
ATOM     25  H3  UNL     1      13.203 -16.216   7.798  1.00  0.00     0.210 HD
ENDBRANCH  18  24
ENDBRANCH  15  18
ENDBRANCH  14  15
ENDBRANCH  13  14
ENDBRANCH  10  13
ENDBRANCH   3   9
TORSDOF 7
ENDMDL
MODEL 2
REMARK VINA RESULT: -7.736951844      3.001      7.012
REMARK  7 active torsions:
REMARK  status: ('A' for Active; 'I' for Inactive)
REMARK    1  A    between atoms: C2_3  and  N2_4 
REMARK       I    between atoms: N2_4  and  C3_6 
REMARK    2  A    between atoms: C3_6  and  C4_8 
REMARK    3  A    between atoms: C4_8  and  C5_9 
REMARK    4  A    between atoms: C5_9  and  C6_10 
REMARK    5  A    between atoms: C6_10  and  O2_11 
REMARK    6  A    between atoms: C6_10  and  C7_13 
REMARK    7  A    between atoms: C7_13  and  O3_14 
ROOT
HETATM    1  N1  UNL     1      10.132 -14.526   7.590  1.00  0.00    -0.195 NA
HETATM    2  C1  UNL     1      11.232 -14.724   7.872  1.00  0.00     0.091 C 
HETATM    3  C2  UNL     1      12.656 -14.992   8.218  1.00  0.00     0.122 C 
HETATM    4  C13 UNL     1      12.839 -16.502   8.104  1.00  0.00     0.046 C 
HETATM    5  C14 UNL     1      11.802 -17.214   8.978  1.00  0.00     0.004 C 
HETATM    6  C15 UNL     1      11.679 -16.497  10.314  1.00  0.00     0.000 C 
HETATM    7  C16 UNL     1      12.937 -15.693  10.602  1.00  0.00     0.004 C 
HETATM    8  C17 UNL     1      12.955 -14.526   9.605  1.00  0.00     0.046 C 
ENDROOT
BRANCH   3   9
HETATM    9  N2  UNL     1      13.445 -14.371   7.187  1.00  0.00    -0.339 N 
HETATM   10  C3  UNL     1      14.817 -14.169   7.365  1.00  0.00     0.219 C 
HETATM   11  O1  UNL     1      15.369 -14.527   8.431  1.00  0.00    -0.274 OA
ATOM     12  H2  UNL     1      13.000 -14.076   6.319  1.00  0.00     0.164 HD
BRANCH  10  13
HETATM   13  C4  UNL     1      15.692 -13.534   6.333  1.00  0.00     0.105 C 
BRANCH  13  14
HETATM   14  C5  UNL     1      15.248 -12.119   6.043  1.00  0.00     0.044 C 
BRANCH  14  15
HETATM   15  C6  UNL     1      15.385 -11.784   4.576  1.00  0.00     0.152 C 
BRANCH  15  16
HETATM   16  O2  UNL     1      16.744 -11.901   4.215  1.00  0.00    -0.393 OA
ATOM     17  H2  UNL     1      16.813 -11.814   3.272  1.00  0.00     0.210 HD
ENDBRANCH  15  16
BRANCH  15  18
HETATM   18  C7  UNL     1      14.956 -10.398   4.247  1.00  0.00     0.084 C 
HETATM   19  C8  UNL     1      14.216  -9.698   5.332  1.00  0.00     0.040 C 
HETATM   20  C9  UNL     1      12.757  -9.477   5.039  1.00  0.00     0.003 C 
HETATM   21  C10 UNL     1      12.677  -8.526   3.840  1.00  0.00     0.000 C 
HETATM   22  C11 UNL     1      13.482  -9.097   2.708  1.00  0.00     0.003 C 
HETATM   23  C12 UNL     1      14.053 -10.461   3.028  1.00  0.00     0.040 C 
BRANCH  18  24
HETATM   24  O3  UNL     1      16.100  -9.685   3.840  1.00  0.00    -0.387 OA
ATOM     25  H3  UNL     1      16.294  -9.046   4.515  1.00  0.00     0.210 HD
ENDBRANCH  18  24
ENDBRANCH  15  18
ENDBRANCH  14  15
ENDBRANCH  13  14
ENDBRANCH  10  13
ENDBRANCH   3   9
TORSDOF 7
ENDMDL
MODEL 3
REMARK VINA RESULT: -7.620009091      3.091      4.887
REMARK  7 active torsions:
REMARK  status: ('A' for Active; 'I' for Inactive)
REMARK    1  A    between atoms: C2_3  and  N2_4 
REMARK       I    between atoms: N2_4  and  C3_6 
REMARK    2  A    between atoms: C3_6  and  C4_8 
REMARK    3  A    between atoms: C4_8  and  C5_9 
REMARK    4  A    between atoms: C5_9  and  C6_10 
REMARK    5  A    between atoms: C6_10  and  O2_11 
REMARK    6  A    between atoms: C6_10  and  C7_13 
REMARK    7  A    between atoms: C7_13  and  O3_14 
ROOT
HETATM    1  N1  UNL     1      15.731  -7.500   6.382  1.00  0.00    -0.195 NA
HETATM    2  C1  UNL     1      15.320  -8.521   6.041  1.00  0.00     0.091 C 
HETATM    3  C2  UNL     1      14.810  -9.847   5.595  1.00  0.00     0.122 C 
HETATM    4  C13 UNL     1      15.348 -10.050   4.181  1.00  0.00     0.046 C 
HETATM    5  C14 UNL     1      14.948  -8.860   3.304  1.00  0.00     0.004 C 
HETATM    6  C15 UNL     1      13.504  -8.473   3.590  1.00  0.00     0.000 C 
HETATM    7  C16 UNL     1      12.750  -9.648   4.191  1.00  0.00     0.004 C 
HETATM    8  C17 UNL     1      13.317  -9.864   5.601  1.00  0.00     0.046 C 
ENDROOT
BRANCH   3   9
HETATM    9  N2  UNL     1      15.431 -10.826   6.448  1.00  0.00    -0.339 N 
HETATM   10  C3  UNL     1      15.709 -12.111   5.973  1.00  0.00     0.219 C 
HETATM   11  O1  UNL     1      15.415 -12.420   4.796  1.00  0.00    -0.274 OA
ATOM     12  H2  UNL     1      15.670 -10.580   7.409  1.00  0.00     0.164 HD
BRANCH  10  13
HETATM   13  C4  UNL     1      16.355 -13.170   6.807  1.00  0.00     0.105 C 
BRANCH  13  14
HETATM   14  C5  UNL     1      15.502 -14.417   6.854  1.00  0.00     0.044 C 
BRANCH  14  15
HETATM   15  C6  UNL     1      14.229 -14.192   7.636  1.00  0.00     0.152 C 
BRANCH  15  16
HETATM   16  O2  UNL     1      14.362 -14.815   8.895  1.00  0.00    -0.393 OA
ATOM     17  H2  UNL     1      13.971 -15.679   8.846  1.00  0.00     0.210 HD
ENDBRANCH  15  16
BRANCH  15  18
HETATM   18  C7  UNL     1      13.025 -14.769   6.980  1.00  0.00     0.084 C 
HETATM   19  C8  UNL     1      12.164 -13.781   6.275  1.00  0.00     0.040 C 
HETATM   20  C9  UNL     1      10.834 -13.540   6.937  1.00  0.00     0.003 C 
HETATM   21  C10 UNL     1      10.052 -14.856   6.867  1.00  0.00     0.000 C 
HETATM   22  C11 UNL     1      10.882 -15.952   7.470  1.00  0.00     0.003 C 
HETATM   23  C12 UNL     1      12.186 -15.446   8.048  1.00  0.00     0.040 C 
BRANCH  18  24
HETATM   24  O3  UNL     1      13.461 -15.798   6.124  1.00  0.00    -0.387 OA
ATOM     25  H3  UNL     1      12.694 -16.149   5.685  1.00  0.00     0.210 HD
ENDBRANCH  18  24
ENDBRANCH  15  18
ENDBRANCH  14  15
ENDBRANCH  13  14
ENDBRANCH  10  13
ENDBRANCH   3   9
TORSDOF 7
ENDMDL
MODEL 4
REMARK VINA RESULT: -7.477482147      2.587      3.946
REMARK  7 active torsions:
REMARK  status: ('A' for Active; 'I' for Inactive)
REMARK    1  A    between atoms: C2_3  and  N2_4 
REMARK       I    between atoms: N2_4  and  C3_6 
REMARK    2  A    between atoms: C3_6  and  C4_8 
REMARK    3  A    between atoms: C4_8  and  C5_9 
REMARK    4  A    between atoms: C5_9  and  C6_10 
REMARK    5  A    between atoms: C6_10  and  O2_11 
REMARK    6  A    between atoms: C6_10  and  C7_13 
REMARK    7  A    between atoms: C7_13  and  O3_14 
ROOT
HETATM    1  N1  UNL     1      11.949  -9.267   5.698  1.00  0.00    -0.195 NA
HETATM    2  C1  UNL     1      12.950  -9.802   5.499  1.00  0.00     0.091 C 
HETATM    3  C2  UNL     1      14.247 -10.495   5.263  1.00  0.00     0.122 C 
HETATM    4  C13 UNL     1      15.282  -9.743   6.094  1.00  0.00     0.046 C 
HETATM    5  C14 UNL     1      15.253  -8.256   5.729  1.00  0.00     0.004 C 
HETATM    6  C15 UNL     1      15.135  -8.100   4.220  1.00  0.00     0.000 C 
HETATM    7  C16 UNL     1      15.629  -9.354   3.518  1.00  0.00     0.004 C 
HETATM    8  C17 UNL     1      14.605 -10.459   3.814  1.00  0.00     0.046 C 
ENDROOT
BRANCH   3   9
HETATM    9  N2  UNL     1      14.107 -11.815   5.820  1.00  0.00    -0.339 N 
HETATM   10  C3  UNL     1      15.112 -12.771   5.649  1.00  0.00     0.219 C 
HETATM   11  O1  UNL     1      16.146 -12.482   5.003  1.00  0.00    -0.274 OA
ATOM     12  H2  UNL     1      13.266 -12.055   6.344  1.00  0.00     0.164 HD
BRANCH  10  13
HETATM   13  C4  UNL     1      15.029 -14.155   6.205  1.00  0.00     0.105 C 
BRANCH  13  14
HETATM   14  C5  UNL     1      14.287 -14.167   7.521  1.00  0.00     0.044 C 
BRANCH  14  15
HETATM   15  C6  UNL     1      12.918 -14.790   7.383  1.00  0.00     0.152 C 
BRANCH  15  16
HETATM   16  O2  UNL     1      12.080 -13.881   6.701  1.00  0.00    -0.393 OA
ATOM     17  H2  UNL     1      12.625 -13.218   6.293  1.00  0.00     0.210 HD
ENDBRANCH  15  16
BRANCH  15  18
HETATM   18  C7  UNL     1      12.273 -15.093   8.689  1.00  0.00     0.084 C 
HETATM   19  C8  UNL     1      13.079 -14.722   9.884  1.00  0.00     0.040 C 
HETATM   20  C9  UNL     1      13.608 -15.897  10.659  1.00  0.00     0.003 C 
HETATM   21  C10 UNL     1      12.396 -16.645  11.225  1.00  0.00     0.000 C 
HETATM   22  C11 UNL     1      11.460 -16.983  10.101  1.00  0.00     0.003 C 
HETATM   23  C12 UNL     1      12.006 -16.586   8.747  1.00  0.00     0.040 C 
BRANCH  18  24
HETATM   24  O3  UNL     1      11.008 -14.476   8.690  1.00  0.00    -0.387 OA
ATOM     25  H3  UNL     1      10.368 -15.134   8.936  1.00  0.00     0.210 HD
ENDBRANCH  18  24
ENDBRANCH  15  18
ENDBRANCH  14  15
ENDBRANCH  13  14
ENDBRANCH  10  13
ENDBRANCH   3   9
TORSDOF 7
ENDMDL
MODEL 5
REMARK VINA RESULT: -7.373295958      3.283      4.333
REMARK  7 active torsions:
REMARK  status: ('A' for Active; 'I' for Inactive)
REMARK    1  A    between atoms: C2_3  and  N2_4 
REMARK       I    between atoms: N2_4  and  C3_6 
REMARK    2  A    between atoms: C3_6  and  C4_8 
REMARK    3  A    between atoms: C4_8  and  C5_9 
REMARK    4  A    between atoms: C5_9  and  C6_10 
REMARK    5  A    between atoms: C6_10  and  O2_11 
REMARK    6  A    between atoms: C6_10  and  C7_13 
REMARK    7  A    between atoms: C7_13  and  O3_14 
ROOT
HETATM    1  N1  UNL     1      15.015  -8.279   6.561  1.00  0.00    -0.195 NA
HETATM    2  C1  UNL     1      14.495  -8.902   5.743  1.00  0.00     0.091 C 
HETATM    3  C2  UNL     1      13.836  -9.724   4.691  1.00  0.00     0.122 C 
HETATM    4  C13 UNL     1      14.959 -10.244   3.799  1.00  0.00     0.046 C 
HETATM    5  C14 UNL     1      15.797  -9.068   3.290  1.00  0.00     0.004 C 
HETATM    6  C15 UNL     1      14.881  -7.925   2.879  1.00  0.00     0.000 C 
HETATM    7  C16 UNL     1      13.488  -8.447   2.569  1.00  0.00     0.004 C 
HETATM    8  C17 UNL     1      12.875  -8.895   3.903  1.00  0.00     0.046 C 
ENDROOT
BRANCH   3   9
HETATM    9  N2  UNL     1      13.250 -10.851   5.367  1.00  0.00    -0.339 N 
HETATM   10  C3  UNL     1      12.019 -10.730   6.019  1.00  0.00     0.219 C 
HETATM   11  O1  UNL     1      11.418  -9.631   6.020  1.00  0.00    -0.274 OA
ATOM     12  H2  UNL     1      13.737 -11.747   5.371  1.00  0.00     0.164 HD
BRANCH  10  13
HETATM   13  C4  UNL     1      11.356 -11.862   6.735  1.00  0.00     0.105 C 
BRANCH  13  14
HETATM   14  C5  UNL     1      11.908 -13.191   6.274  1.00  0.00     0.044 C 
BRANCH  14  15
HETATM   15  C6  UNL     1      11.637 -14.285   7.281  1.00  0.00     0.152 C 
BRANCH  15  16
HETATM   16  O2  UNL     1      10.904 -13.734   8.353  1.00  0.00    -0.393 OA
ATOM     17  H2  UNL     1      10.424 -14.433   8.781  1.00  0.00     0.210 HD
ENDBRANCH  15  16
BRANCH  15  18
HETATM   18  C7  UNL     1      12.875 -14.882   7.850  1.00  0.00     0.084 C 
HETATM   19  C8  UNL     1      12.799 -15.216   9.298  1.00  0.00     0.040 C 
HETATM   20  C9  UNL     1      13.647 -14.339  10.178  1.00  0.00     0.003 C 
HETATM   21  C10 UNL     1      15.109 -14.598   9.796  1.00  0.00     0.000 C 
HETATM   22  C11 UNL     1      15.275 -14.383   8.320  1.00  0.00     0.003 C 
HETATM   23  C12 UNL     1      14.008 -13.890   7.655  1.00  0.00     0.040 C 
BRANCH  18  24
HETATM   24  O3  UNL     1      13.205 -16.002   7.064  1.00  0.00    -0.387 OA
ATOM     25  H3  UNL     1      14.126 -16.190   7.206  1.00  0.00     0.210 HD
ENDBRANCH  18  24
ENDBRANCH  15  18
ENDBRANCH  14  15
ENDBRANCH  13  14
ENDBRANCH  10  13
ENDBRANCH   3   9
TORSDOF 7
ENDMDL
