MODEL 1
REMARK VINA RESULT: -6.555464649      0.000      0.000
REMARK  7 active torsions:
REMARK  status: ('A' for Active; 'I' for Inactive)
REMARK    1  A    between atoms: C2_3  and  O2_5 
REMARK    2  A    between atoms: O2_5  and  C3_6 
REMARK    3  A    between atoms: C3_6  and  C4_7 
REMARK    4  A    between atoms: C3_6  and  N2_13 
REMARK    5  A    between atoms: C4_7  and  C5_8 
REMARK    6  A    between atoms: C14_18  and  O3_19 
REMARK    7  A    between atoms: C15_21  and  O4_22 
ROOT
HETATM    1  C1  UNL     1      15.582 -15.258  10.564  1.00  0.00     0.235 C 
HETATM    2  N1  UNL     1      15.536 -14.790   9.293  1.00  0.00    -0.370 NA
HETATM    3  C2  UNL     1      15.501 -14.322   7.997  1.00  0.00     0.440 C 
HETATM    4  O1  UNL     1      16.269 -14.732   7.080  1.00  0.00    -0.221 OA
ENDROOT
BRANCH   3   5
HETATM    5  O2  UNL     1      14.542 -13.328   7.685  1.00  0.00    -0.267 OA
BRANCH   5   6
HETATM    6  C3  UNL     1      13.693 -13.634   6.488  1.00  0.00     0.232 C 
BRANCH   6   7
HETATM    7  C4  UNL     1      13.459 -12.409   5.786  1.00  0.00     0.059 C 
BRANCH   7   8
HETATM    8  C5  UNL     1      14.297 -11.237   5.677  1.00  0.00    -0.010 C 
HETATM    9  C6  UNL     1      13.353 -10.020   5.645  1.00  0.00     0.005 C 
HETATM   10  C7  UNL     1      13.926  -9.135   4.590  1.00  0.00     0.000 C 
HETATM   11  C8  UNL     1      14.612 -10.078   3.624  1.00  0.00     0.000 C 
HETATM   12  C9  UNL     1      15.267 -11.090   4.570  1.00  0.00     0.005 C 
ENDBRANCH   7   8
ENDBRANCH   6   7
BRANCH   6  13
HETATM   13  N2  UNL     1      12.762 -14.427   7.104  1.00  0.00    -0.376 N 
HETATM   14  C10 UNL     1      11.813 -13.833   8.026  1.00  0.00     0.084 C 
HETATM   15  C11 UNL     1      10.470 -14.237   7.461  1.00  0.00     0.027 C 
HETATM   16  C16 UNL     1      11.963 -14.442   9.415  1.00  0.00     0.059 C 
HETATM   17  C12 UNL     1      10.782 -15.276   6.403  1.00  0.00     0.030 C 
HETATM   18  C13 UNL     1      12.218 -15.654   6.840  1.00  0.00     0.113 C 
HETATM   19  C14 UNL     1      12.017 -16.554   8.048  1.00  0.00     0.169 C 
HETATM   20  C15 UNL     1      12.340 -15.888   9.352  1.00  0.00     0.150 C 
BRANCH  19  21
HETATM   21  O3  UNL     1      10.661 -16.985   8.053  1.00  0.00    -0.391 OA
ATOM     22  H3  UNL     1      10.647 -17.905   8.291  1.00  0.00     0.210 HD
ENDBRANCH  19  21
BRANCH  20  23
HETATM   23  O4  UNL     1      11.609 -16.563  10.343  1.00  0.00    -0.393 OA
ATOM     24  H4  UNL     1      12.226 -17.109  10.815  1.00  0.00     0.210 HD
ENDBRANCH  20  23
ENDBRANCH   6  13
ENDBRANCH   5   6
ENDBRANCH   3   5
TORSDOF 6
ENDMDL
MODEL 2
REMARK VINA RESULT: -6.483365842      2.284      6.365
REMARK  7 active torsions:
REMARK  status: ('A' for Active; 'I' for Inactive)
REMARK    1  A    between atoms: C2_3  and  O2_5 
REMARK    2  A    between atoms: O2_5  and  C3_6 
REMARK    3  A    between atoms: C3_6  and  C4_7 
REMARK    4  A    between atoms: C3_6  and  N2_13 
REMARK    5  A    between atoms: C4_7  and  C5_8 
REMARK    6  A    between atoms: C14_18  and  O3_19 
REMARK    7  A    between atoms: C15_21  and  O4_22 
ROOT
HETATM    1  C1  UNL     1       9.766 -14.867   5.793  1.00  0.00     0.235 C 
HETATM    2  N1  UNL     1      10.512 -13.803   6.177  1.00  0.00    -0.370 NA
HETATM    3  C2  UNL     1      11.261 -12.711   6.561  1.00  0.00     0.440 C 
HETATM    4  O1  UNL     1      10.875 -11.513   6.434  1.00  0.00    -0.221 OA
ENDROOT
BRANCH   3   5
HETATM    5  O2  UNL     1      12.532 -12.957   7.134  1.00  0.00    -0.267 OA
BRANCH   5   6
HETATM    6  C3  UNL     1      13.263 -14.129   6.551  1.00  0.00     0.232 C 
BRANCH   6   7
HETATM    7  C4  UNL     1      13.151 -15.223   7.466  1.00  0.00     0.059 C 
BRANCH   7   8
HETATM    8  C5  UNL     1      12.496 -15.281   8.753  1.00  0.00    -0.010 C 
HETATM    9  C6  UNL     1      13.553 -14.895   9.805  1.00  0.00     0.005 C 
HETATM   10  C7  UNL     1      13.336 -15.863  10.919  1.00  0.00     0.000 C 
HETATM   11  C8  UNL     1      12.784 -17.104  10.252  1.00  0.00     0.000 C 
HETATM   12  C9  UNL     1      11.823 -16.514   9.214  1.00  0.00     0.005 C 
ENDBRANCH   7   8
ENDBRANCH   6   7
BRANCH   6  13
HETATM   13  N2  UNL     1      14.408 -13.478   6.174  1.00  0.00    -0.376 N 
HETATM   14  C10 UNL     1      14.732 -12.195   6.767  1.00  0.00     0.084 C 
HETATM   15  C11 UNL     1      16.111 -12.409   7.346  1.00  0.00     0.027 C 
HETATM   16  C16 UNL     1      14.812 -11.114   5.696  1.00  0.00     0.059 C 
HETATM   17  C12 UNL     1      16.576 -13.736   6.781  1.00  0.00     0.030 C 
HETATM   18  C13 UNL     1      15.587 -13.862   5.596  1.00  0.00     0.113 C 
HETATM   19  C14 UNL     1      16.140 -12.916   4.544  1.00  0.00     0.169 C 
HETATM   20  C15 UNL     1      15.352 -11.647   4.406  1.00  0.00     0.150 C 
BRANCH  19  21
HETATM   21  O3  UNL     1      17.484 -12.608   4.894  1.00  0.00    -0.391 OA
ATOM     22  H3  UNL     1      17.551 -11.666   4.997  1.00  0.00     0.210 HD
ENDBRANCH  19  21
BRANCH  20  23
HETATM   23  O4  UNL     1      16.225 -10.683   3.879  1.00  0.00    -0.393 OA
ATOM     24  H4  UNL     1      15.773 -10.273   3.151  1.00  0.00     0.210 HD
ENDBRANCH  20  23
ENDBRANCH   6  13
ENDBRANCH   5   6
ENDBRANCH   3   5
TORSDOF 6
ENDMDL
MODEL 3
REMARK VINA RESULT: -6.477372913      1.181      1.713
REMARK  7 active torsions:
REMARK  status: ('A' for Active; 'I' for Inactive)
REMARK    1  A    between atoms: C2_3  and  O2_5 
REMARK    2  A    between atoms: O2_5  and  C3_6 
REMARK    3  A    between atoms: C3_6  and  C4_7 
REMARK    4  A    between atoms: C3_6  and  N2_13 
REMARK    5  A    between atoms: C4_7  and  C5_8 
REMARK    6  A    between atoms: C14_18  and  O3_19 
REMARK    7  A    between atoms: C15_21  and  O4_22 
ROOT
HETATM    1  C1  UNL     1      17.195 -13.359   4.523  1.00  0.00     0.235 C 
HETATM    2  N1  UNL     1      16.523 -13.657   5.660  1.00  0.00    -0.370 NA
HETATM    3  C2  UNL     1      15.848 -13.973   6.820  1.00  0.00     0.440 C 
HETATM    4  O1  UNL     1      16.181 -14.917   7.594  1.00  0.00    -0.221 OA
ENDROOT
BRANCH   3   5
HETATM    5  O2  UNL     1      14.721 -13.185   7.157  1.00  0.00    -0.267 OA
BRANCH   5   6
HETATM    6  C3  UNL     1      13.557 -13.329   6.225  1.00  0.00     0.232 C 
BRANCH   6   7
HETATM    7  C4  UNL     1      13.153 -12.020   5.812  1.00  0.00     0.059 C 
BRANCH   7   8
HETATM    8  C5  UNL     1      13.957 -10.844   5.573  1.00  0.00    -0.010 C 
HETATM    9  C6  UNL     1      12.988  -9.648   5.524  1.00  0.00     0.005 C 
HETATM   10  C7  UNL     1      13.472  -8.825   4.378  1.00  0.00     0.000 C 
HETATM   11  C8  UNL     1      14.115  -9.818   3.433  1.00  0.00     0.000 C 
HETATM   12  C9  UNL     1      14.851 -10.754   4.397  1.00  0.00     0.005 C 
ENDBRANCH   7   8
ENDBRANCH   6   7
BRANCH   6  13
HETATM   13  N2  UNL     1      12.828 -14.229   6.957  1.00  0.00    -0.376 N 
HETATM   14  C10 UNL     1      11.977 -13.755   8.032  1.00  0.00     0.084 C 
HETATM   15  C11 UNL     1      10.615 -14.303   7.672  1.00  0.00     0.027 C 
HETATM   16  C16 UNL     1      12.411 -14.355   9.363  1.00  0.00     0.059 C 
HETATM   17  C12 UNL     1      10.867 -15.290   6.551  1.00  0.00     0.030 C 
HETATM   18  C13 UNL     1      12.388 -15.507   6.749  1.00  0.00     0.113 C 
HETATM   19  C14 UNL     1      12.481 -16.435   7.948  1.00  0.00     0.169 C 
HETATM   20  C15 UNL     1      12.930 -15.749   9.203  1.00  0.00     0.150 C 
BRANCH  19  21
HETATM   21  O3  UNL     1      11.199 -17.016   8.153  1.00  0.00    -0.391 OA
ATOM     22  H3  UNL     1      11.319 -17.833   8.623  1.00  0.00     0.210 HD
ENDBRANCH  19  21
BRANCH  20  23
HETATM   23  O4  UNL     1      12.445 -16.511  10.278  1.00  0.00    -0.393 OA
ATOM     24  H4  UNL     1      12.286 -15.906  10.993  1.00  0.00     0.210 HD
ENDBRANCH  20  23
ENDBRANCH   6  13
ENDBRANCH   5   6
ENDBRANCH   3   5
TORSDOF 6
ENDMDL
MODEL 4
REMARK VINA RESULT: -6.227836381      2.171      6.247
REMARK  7 active torsions:
REMARK  status: ('A' for Active; 'I' for Inactive)
REMARK    1  A    between atoms: C2_3  and  O2_5 
REMARK    2  A    between atoms: O2_5  and  C3_6 
REMARK    3  A    between atoms: C3_6  and  C4_7 
REMARK    4  A    between atoms: C3_6  and  N2_13 
REMARK    5  A    between atoms: C4_7  and  C5_8 
REMARK    6  A    between atoms: C14_18  and  O3_19 
REMARK    7  A    between atoms: C15_21  and  O4_22 
ROOT
HETATM    1  C1  UNL     1      10.883 -11.690   6.529  1.00  0.00     0.235 C 
HETATM    2  N1  UNL     1      11.228 -12.997   6.453  1.00  0.00    -0.370 NA
HETATM    3  C2  UNL     1      11.565 -14.332   6.381  1.00  0.00     0.440 C 
HETATM    4  O1  UNL     1      10.758 -15.276   6.620  1.00  0.00    -0.221 OA
ENDROOT
BRANCH   3   5
HETATM    5  O2  UNL     1      12.894 -14.652   6.010  1.00  0.00    -0.267 OA
BRANCH   5   6
HETATM    6  C3  UNL     1      13.883 -14.609   7.136  1.00  0.00     0.232 C 
BRANCH   6   7
HETATM    7  C4  UNL     1      13.161 -14.403   8.354  1.00  0.00     0.059 C 
BRANCH   7   8
HETATM    8  C5  UNL     1      13.642 -14.393   9.716  1.00  0.00    -0.010 C 
HETATM    9  C6  UNL     1      15.113 -14.850   9.669  1.00  0.00     0.005 C 
HETATM   10  C7  UNL     1      15.249 -15.782  10.826  1.00  0.00     0.000 C 
HETATM   11  C8  UNL     1      13.869 -16.379  11.005  1.00  0.00     0.000 C 
HETATM   12  C9  UNL     1      12.959 -15.168  10.775  1.00  0.00     0.005 C 
ENDBRANCH   7   8
ENDBRANCH   6   7
BRANCH   6  13
HETATM   13  N2  UNL     1      14.797 -13.765   6.562  1.00  0.00    -0.376 N 
HETATM   14  C10 UNL     1      14.870 -12.384   6.998  1.00  0.00     0.084 C 
HETATM   15  C11 UNL     1      16.314 -12.219   7.412  1.00  0.00     0.027 C 
HETATM   16  C16 UNL     1      14.582 -11.440   5.837  1.00  0.00     0.059 C 
HETATM   17  C12 UNL     1      17.016 -13.463   6.907  1.00  0.00     0.030 C 
HETATM   18  C13 UNL     1      15.967 -13.939   5.874  1.00  0.00     0.113 C 
HETATM   19  C14 UNL     1      16.168 -13.017   4.683  1.00  0.00     0.169 C 
HETATM   20  C15 UNL     1      15.095 -11.981   4.539  1.00  0.00     0.150 C 
BRANCH  19  21
HETATM   21  O3  UNL     1      17.432 -12.380   4.831  1.00  0.00    -0.391 OA
ATOM     22  H3  UNL     1      17.446 -11.623   4.257  1.00  0.00     0.210 HD
ENDBRANCH  19  21
BRANCH  20  23
HETATM   23  O4  UNL     1      15.656 -10.911   3.824  1.00  0.00    -0.393 OA
ATOM     24  H4  UNL     1      16.098 -11.286   3.071  1.00  0.00     0.210 HD
ENDBRANCH  20  23
ENDBRANCH   6  13
ENDBRANCH   5   6
ENDBRANCH   3   5
TORSDOF 6
ENDMDL
MODEL 5
REMARK VINA RESULT: -6.189409231      2.532      5.868
REMARK  7 active torsions:
REMARK  status: ('A' for Active; 'I' for Inactive)
REMARK    1  A    between atoms: C2_3  and  O2_5 
REMARK    2  A    between atoms: O2_5  and  C3_6 
REMARK    3  A    between atoms: C3_6  and  C4_7 
REMARK    4  A    between atoms: C3_6  and  N2_13 
REMARK    5  A    between atoms: C4_7  and  C5_8 
REMARK    6  A    between atoms: C14_18  and  O3_19 
REMARK    7  A    between atoms: C15_21  and  O4_22 
ROOT
HETATM    1  C1  UNL     1      13.653  -9.309   2.658  1.00  0.00     0.235 C 
HETATM    2  N1  UNL     1      13.181  -9.512   3.912  1.00  0.00    -0.370 NA
HETATM    3  C2  UNL     1      12.690  -9.708   5.185  1.00  0.00     0.440 C 
HETATM    4  O1  UNL     1      11.676  -9.109   5.648  1.00  0.00    -0.221 OA
ENDROOT
BRANCH   3   5
HETATM    5  O2  UNL     1      13.364 -10.639   6.011  1.00  0.00    -0.267 OA
BRANCH   5   6
HETATM    6  C3  UNL     1      12.837 -12.040   5.931  1.00  0.00     0.232 C 
BRANCH   6   7
HETATM    7  C4  UNL     1      11.666 -12.121   6.749  1.00  0.00     0.059 C 
BRANCH   7   8
HETATM    8  C5  UNL     1      10.752 -13.224   6.938  1.00  0.00    -0.010 C 
HETATM    9  C6  UNL     1      11.217 -13.972   8.202  1.00  0.00     0.005 C 
HETATM   10  C7  UNL     1      11.098 -15.415   7.843  1.00  0.00     0.000 C 
HETATM   11  C8  UNL     1      11.307 -15.459   6.344  1.00  0.00     0.000 C 
HETATM   12  C9  UNL     1      10.530 -14.226   5.872  1.00  0.00     0.005 C 
ENDBRANCH   7   8
ENDBRANCH   6   7
BRANCH   6  13
HETATM   13  N2  UNL     1      14.020 -12.707   6.110  1.00  0.00    -0.376 N 
HETATM   14  C10 UNL     1      15.274 -11.994   5.956  1.00  0.00     0.084 C 
HETATM   15  C11 UNL     1      15.977 -12.225   7.274  1.00  0.00     0.027 C 
HETATM   16  C16 UNL     1      16.108 -12.612   4.840  1.00  0.00     0.059 C 
HETATM   17  C12 UNL     1      15.168 -13.299   7.972  1.00  0.00     0.030 C 
HETATM   18  C13 UNL     1      14.389 -13.855   6.754  1.00  0.00     0.113 C 
HETATM   19  C14 UNL     1      15.404 -14.719   6.024  1.00  0.00     0.169 C 
HETATM   20  C15 UNL     1      15.924 -14.095   4.764  1.00  0.00     0.150 C 
BRANCH  19  21
HETATM   21  O3  UNL     1      16.484 -14.973   6.914  1.00  0.00    -0.391 OA
ATOM     22  H3  UNL     1      17.293 -14.896   6.421  1.00  0.00     0.210 HD
ENDBRANCH  19  21
BRANCH  20  23
HETATM   23  O4  UNL     1      17.182 -14.668   4.518  1.00  0.00    -0.393 OA
ATOM     24  H4  UNL     1      17.793 -13.950   4.403  1.00  0.00     0.210 HD
ENDBRANCH  20  23
ENDBRANCH   6  13
ENDBRANCH   5   6
ENDBRANCH   3   5
TORSDOF 6
ENDMDL
