MODEL 1
REMARK VINA RESULT: -5.969022885      0.000      0.000
REMARK  3 active torsions:
REMARK  status: ('A' for Active; 'I' for Inactive)
REMARK    1  A    between atoms: N1_5  and  S1_6 
REMARK    2  A    between atoms: S1_6  and  N2_7 
REMARK       I    between atoms: N3_14  and  C7_15 
REMARK    3  A    between atoms: C7_15  and  C8_17 
ROOT
HETATM    1  C1  UNL     1      -5.946 -35.497 -25.758  1.00  0.00     0.034 C 
HETATM    2  C2  UNL     1      -4.927 -34.799 -26.577  1.00  0.00     0.107 C 
HETATM    3  C3  UNL     1      -4.449 -35.647 -27.770  1.00  0.00     0.120 C 
HETATM    4  C4  UNL     1      -5.590 -36.205 -28.541  1.00  0.00     0.036 C 
HETATM    5  N1  UNL     1      -3.604 -34.806 -28.520  1.00  0.00    -0.266 N 
HETATM    6  C5  UNL     1      -3.071 -33.672 -27.878  1.00  0.00     0.098 C 
HETATM    7  C6  UNL     1      -4.111 -32.672 -27.385  1.00  0.00     0.171 C 
HETATM    8  N3  UNL     1      -5.296 -33.475 -27.024  1.00  0.00    -0.340 N 
HETATM    9  C7  UNL     1      -6.598 -32.961 -27.128  1.00  0.00     0.228 C 
HETATM   10  O3  UNL     1      -7.561 -33.723 -26.796  1.00  0.00    -0.273 OA
ENDROOT
BRANCH   5  11
HETATM   11  S1  UNL     1      -3.539 -34.930 -30.164  1.00  0.00     0.318 S 
HETATM   12  O1  UNL     1      -2.152 -34.547 -30.645  1.00  0.00    -0.183 OA
HETATM   13  O2  UNL     1      -4.470 -33.903 -30.797  1.00  0.00    -0.183 OA
BRANCH  11  14
HETATM   14  N2  UNL     1      -3.866 -36.496 -30.816  1.00  0.00    -0.311 N 
ATOM     15  H22 UNL     1      -3.368 -37.321 -30.482  1.00  0.00     0.170 HD
ATOM     16  H21 UNL     1      -4.578 -36.535 -31.544  1.00  0.00     0.170 HD
ENDBRANCH  11  14
ENDBRANCH   5  11
BRANCH   9  17
HETATM   17  C8  UNL     1      -6.957 -31.596 -27.597  1.00  0.00     0.030 C 
HETATM   18  C9  UNL     1      -6.175 -30.503 -26.905  1.00  0.00     0.025 C 
HETATM   19  C10 UNL     1      -8.455 -31.349 -27.452  1.00  0.00     0.025 C 
HETATM   20  C11 UNL     1      -6.647 -31.486 -29.081  1.00  0.00     0.025 C 
ENDBRANCH   9  17
TORSDOF 3
ENDMDL
MODEL 2
REMARK VINA RESULT: -5.634301307      0.889      1.480
REMARK  3 active torsions:
REMARK  status: ('A' for Active; 'I' for Inactive)
REMARK    1  A    between atoms: N1_5  and  S1_6 
REMARK    2  A    between atoms: S1_6  and  N2_7 
REMARK       I    between atoms: N3_14  and  C7_15 
REMARK    3  A    between atoms: C7_15  and  C8_17 
ROOT
HETATM    1  C1  UNL     1      -5.911 -35.504 -25.817  1.00  0.00     0.034 C 
HETATM    2  C2  UNL     1      -4.903 -34.782 -26.627  1.00  0.00     0.107 C 
HETATM    3  C3  UNL     1      -4.442 -35.592 -27.854  1.00  0.00     0.120 C 
HETATM    4  C4  UNL     1      -5.595 -36.125 -28.626  1.00  0.00     0.036 C 
HETATM    5  N1  UNL     1      -3.607 -34.729 -28.589  1.00  0.00    -0.266 N 
HETATM    6  C5  UNL     1      -3.063 -33.616 -27.919  1.00  0.00     0.098 C 
HETATM    7  C6  UNL     1      -4.094 -32.632 -27.380  1.00  0.00     0.171 C 
HETATM    8  N3  UNL     1      -5.276 -33.445 -27.028  1.00  0.00    -0.340 N 
HETATM    9  C7  UNL     1      -6.578 -32.926 -27.097  1.00  0.00     0.228 C 
HETATM   10  O3  UNL     1      -7.537 -33.696 -26.775  1.00  0.00    -0.273 OA
ENDROOT
BRANCH   5  11
HETATM   11  S1  UNL     1      -3.565 -34.801 -30.237  1.00  0.00     0.318 S 
HETATM   12  O1  UNL     1      -3.995 -36.183 -30.692  1.00  0.00    -0.183 OA
HETATM   13  O2  UNL     1      -2.128 -34.658 -30.724  1.00  0.00    -0.183 OA
BRANCH  11  14
HETATM   14  N2  UNL     1      -4.579 -33.676 -31.066  1.00  0.00    -0.311 N 
ATOM     15  H22 UNL     1      -5.580 -33.844 -31.169  1.00  0.00     0.170 HD
ATOM     16  H21 UNL     1      -4.114 -32.848 -31.438  1.00  0.00     0.170 HD
ENDBRANCH  11  14
ENDBRANCH   5  11
BRANCH   9  17
HETATM   17  C8  UNL     1      -6.942 -31.546 -27.517  1.00  0.00     0.030 C 
HETATM   18  C9  UNL     1      -6.781 -31.314 -29.002  1.00  0.00     0.025 C 
HETATM   19  C10 UNL     1      -6.147 -30.511 -26.729  1.00  0.00     0.025 C 
HETATM   20  C11 UNL     1      -8.406 -31.300 -27.191  1.00  0.00     0.025 C 
ENDBRANCH   9  17
TORSDOF 3
ENDMDL
MODEL 3
REMARK VINA RESULT: -4.930280958      2.597      5.000
REMARK  3 active torsions:
REMARK  status: ('A' for Active; 'I' for Inactive)
REMARK    1  A    between atoms: N1_5  and  S1_6 
REMARK    2  A    between atoms: S1_6  and  N2_7 
REMARK       I    between atoms: N3_14  and  C7_15 
REMARK    3  A    between atoms: C7_15  and  C8_17 
ROOT
HETATM    1  C1  UNL     1      -3.208 -33.616 -25.906  1.00  0.00     0.034 C 
HETATM    2  C2  UNL     1      -4.587 -33.781 -26.421  1.00  0.00     0.107 C 
HETATM    3  C3  UNL     1      -5.412 -32.485 -26.323  1.00  0.00     0.120 C 
HETATM    4  C4  UNL     1      -4.675 -31.320 -26.881  1.00  0.00     0.036 C 
HETATM    5  N1  UNL     1      -6.632 -32.758 -26.972  1.00  0.00    -0.266 N 
HETATM    6  C5  UNL     1      -6.990 -34.109 -27.149  1.00  0.00     0.098 C 
HETATM    7  C6  UNL     1      -6.020 -34.918 -28.001  1.00  0.00     0.171 C 
HETATM    8  N3  UNL     1      -4.687 -34.334 -27.752  1.00  0.00    -0.340 N 
HETATM    9  C7  UNL     1      -3.681 -34.341 -28.731  1.00  0.00     0.228 C 
HETATM   10  O3  UNL     1      -2.563 -33.816 -28.431  1.00  0.00    -0.273 OA
ENDROOT
BRANCH   5  11
HETATM   11  S1  UNL     1      -7.420 -31.579 -27.814  1.00  0.00     0.318 S 
HETATM   12  O1  UNL     1      -8.914 -31.838 -27.767  1.00  0.00    -0.183 OA
HETATM   13  O2  UNL     1      -7.053 -31.665 -29.290  1.00  0.00    -0.183 OA
BRANCH  11  14
HETATM   14  N2  UNL     1      -7.187 -29.964 -27.247  1.00  0.00    -0.311 N 
ATOM     15  H22 UNL     1      -7.288 -29.732 -26.258  1.00  0.00     0.170 HD
ATOM     16  H21 UNL     1      -6.946 -29.274 -27.957  1.00  0.00     0.170 HD
ENDBRANCH  11  14
ENDBRANCH   5  11
BRANCH   9  17
HETATM   17  C8  UNL     1      -3.805 -34.911 -30.099  1.00  0.00     0.030 C 
HETATM   18  C9  UNL     1      -4.644 -34.059 -31.025  1.00  0.00     0.025 C 
HETATM   19  C10 UNL     1      -4.351 -36.334 -30.048  1.00  0.00     0.025 C 
HETATM   20  C11 UNL     1      -2.422 -35.005 -30.723  1.00  0.00     0.025 C 
ENDBRANCH   9  17
TORSDOF 3
ENDMDL
MODEL 4
REMARK VINA RESULT: -4.768616232      2.489      5.080
REMARK  3 active torsions:
REMARK  status: ('A' for Active; 'I' for Inactive)
REMARK    1  A    between atoms: N1_5  and  S1_6 
REMARK    2  A    between atoms: S1_6  and  N2_7 
REMARK       I    between atoms: N3_14  and  C7_15 
REMARK    3  A    between atoms: C7_15  and  C8_17 
ROOT
HETATM    1  C1  UNL     1      -3.056 -32.472 -26.713  1.00  0.00     0.034 C 
HETATM    2  C2  UNL     1      -4.518 -32.582 -26.506  1.00  0.00     0.107 C 
HETATM    3  C3  UNL     1      -5.289 -31.392 -27.109  1.00  0.00     0.120 C 
HETATM    4  C4  UNL     1      -4.877 -31.124 -28.512  1.00  0.00     0.036 C 
HETATM    5  N1  UNL     1      -6.653 -31.707 -26.960  1.00  0.00    -0.266 N 
HETATM    6  C5  UNL     1      -6.999 -32.689 -26.011  1.00  0.00     0.098 C 
HETATM    7  C6  UNL     1      -6.411 -34.069 -26.280  1.00  0.00     0.171 C 
HETATM    8  N3  UNL     1      -5.111 -33.827 -26.938  1.00  0.00    -0.340 N 
HETATM    9  C7  UNL     1      -4.571 -34.733 -27.864  1.00  0.00     0.228 C 
HETATM   10  O3  UNL     1      -3.446 -34.444 -28.382  1.00  0.00    -0.273 OA
ENDROOT
BRANCH   5  11
HETATM   11  S1  UNL     1      -7.755 -31.231 -28.093  1.00  0.00     0.318 S 
HETATM   12  O1  UNL     1      -9.132 -31.732 -27.699  1.00  0.00    -0.183 OA
HETATM   13  O2  UNL     1      -7.456 -31.912 -29.423  1.00  0.00    -0.183 OA
BRANCH  11  14
HETATM   14  N2  UNL     1      -7.904 -29.527 -28.328  1.00  0.00    -0.311 N 
ATOM     15  H22 UNL     1      -7.368 -28.867 -27.765  1.00  0.00     0.170 HD
ATOM     16  H21 UNL     1      -8.555 -29.234 -29.057  1.00  0.00     0.170 HD
ENDBRANCH  11  14
ENDBRANCH   5  11
BRANCH   9  17
HETATM   17  C8  UNL     1      -5.200 -36.008 -28.300  1.00  0.00     0.030 C 
HETATM   18  C9  UNL     1      -4.543 -36.609 -29.522  1.00  0.00     0.025 C 
HETATM   19  C10 UNL     1      -6.695 -35.823 -28.537  1.00  0.00     0.025 C 
HETATM   20  C11 UNL     1      -5.068 -37.031 -27.183  1.00  0.00     0.025 C 
ENDBRANCH   9  17
TORSDOF 3
ENDMDL
MODEL 5
REMARK VINA RESULT: -4.758228826      2.648      4.946
REMARK  3 active torsions:
REMARK  status: ('A' for Active; 'I' for Inactive)
REMARK    1  A    between atoms: N1_5  and  S1_6 
REMARK    2  A    between atoms: S1_6  and  N2_7 
REMARK       I    between atoms: N3_14  and  C7_15 
REMARK    3  A    between atoms: C7_15  and  C8_17 
ROOT
HETATM    1  C1  UNL     1      -4.423 -33.803 -30.206  1.00  0.00     0.034 C 
HETATM    2  C2  UNL     1      -4.397 -32.894 -29.036  1.00  0.00     0.107 C 
HETATM    3  C3  UNL     1      -5.467 -31.791 -29.123  1.00  0.00     0.120 C 
HETATM    4  C4  UNL     1      -6.806 -32.347 -29.449  1.00  0.00     0.036 C 
HETATM    5  N1  UNL     1      -5.412 -31.108 -27.893  1.00  0.00    -0.266 N 
HETATM    6  C5  UNL     1      -4.244 -31.249 -27.118  1.00  0.00     0.098 C 
HETATM    7  C6  UNL     1      -3.945 -32.675 -26.671  1.00  0.00     0.171 C 
HETATM    8  N3  UNL     1      -4.459 -33.546 -27.748  1.00  0.00    -0.340 N 
HETATM    9  C7  UNL     1      -4.940 -34.839 -27.487  1.00  0.00     0.228 C 
HETATM   10  O3  UNL     1      -5.364 -35.519 -28.474  1.00  0.00    -0.273 OA
ENDROOT
BRANCH   5  11
HETATM   11  S1  UNL     1      -6.779 -30.480 -27.217  1.00  0.00     0.318 S 
HETATM   12  O1  UNL     1      -6.399 -29.418 -26.202  1.00  0.00    -0.183 OA
HETATM   13  O2  UNL     1      -7.496 -31.555 -26.408  1.00  0.00    -0.183 OA
BRANCH  11  14
HETATM   14  N2  UNL     1      -7.888 -29.736 -28.311  1.00  0.00    -0.311 N 
ATOM     15  H22 UNL     1      -7.739 -28.784 -28.647  1.00  0.00     0.170 HD
ATOM     16  H21 UNL     1      -8.687 -30.304 -28.592  1.00  0.00     0.170 HD
ENDBRANCH  11  14
ENDBRANCH   5  11
BRANCH   9  17
HETATM   17  C8  UNL     1      -5.001 -35.490 -26.152  1.00  0.00     0.030 C 
HETATM   18  C9  UNL     1      -3.834 -35.130 -25.260  1.00  0.00     0.025 C 
HETATM   19  C10 UNL     1      -5.115 -37.004 -26.290  1.00  0.00     0.025 C 
HETATM   20  C11 UNL     1      -6.259 -35.029 -25.434  1.00  0.00     0.025 C 
ENDBRANCH   9  17
TORSDOF 3
ENDMDL
