MODEL 1
REMARK VINA RESULT: -6.242179163      0.000      0.000
REMARK  4 active torsions:
REMARK  status: ('A' for Active; 'I' for Inactive)
REMARK       I    between atoms: C1_2  and  N1_3 
REMARK    1  A    between atoms: C1_2  and  C9_20 
REMARK    2  A    between atoms: N1_3  and  C2_5 
REMARK    3  A    between atoms: N3_8  and  O2_9 
REMARK    4  A    between atoms: N4_17  and  O3_18 
ROOT
HETATM    1  C2  UNL     1      -3.936 -34.721 -30.751  1.00  0.00     0.728 A 
HETATM    2  N2  UNL     1      -4.406 -33.492 -30.339  1.00  0.00    -0.103 N 
ATOM      3  H2  UNL     1      -4.275 -32.697 -30.965  1.00  0.00     0.208 HD
HETATM    4  N3  UNL     1      -5.005 -33.279 -29.203  1.00  0.00    -0.147 N 
HETATM    5  C3  UNL     1      -5.182 -34.321 -28.371  1.00  0.00     0.111 A 
HETATM    6  C4  UNL     1      -5.815 -34.121 -27.162  1.00  0.00     0.036 A 
HETATM    7  C5  UNL     1      -6.023 -35.155 -26.270  1.00  0.00     0.003 A 
HETATM    8  C6  UNL     1      -5.570 -36.403 -26.639  1.00  0.00     0.002 A 
HETATM    9  C7  UNL     1      -4.932 -36.646 -27.840  1.00  0.00     0.035 A 
HETATM   10  C8  UNL     1      -4.738 -35.580 -28.718  1.00  0.00     0.112 A 
HETATM   11  N4  UNL     1      -4.120 -35.755 -29.909  1.00  0.00    -0.049 N 
ENDROOT
BRANCH   1  12
HETATM   12  N1  UNL     1      -3.393 -34.751 -31.853  1.00  0.00    -0.152 N 
HETATM   13  C1  UNL     1      -2.437 -35.303 -32.627  1.00  0.00     0.270 C 
HETATM   14  O1  UNL     1      -1.658 -36.202 -32.217  1.00  0.00    -0.267 OA
ATOM     15  H1  UNL     1      -3.872 -34.060 -32.431  1.00  0.00     0.188 HD
BRANCH  13  16
HETATM   16  C9  UNL     1      -2.237 -34.876 -34.045  1.00  0.00     0.032 A 
HETATM   17  C10 UNL     1      -2.205 -33.563 -34.419  1.00  0.00     0.017 A 
HETATM   18  C11 UNL     1      -2.017 -33.215 -35.735  1.00  0.00     0.001 A 
HETATM   19  C12 UNL     1      -1.858 -34.163 -36.710  1.00  0.00     0.000 A 
HETATM   20  C13 UNL     1      -1.889 -35.491 -36.347  1.00  0.00     0.001 A 
HETATM   21  C14 UNL     1      -2.078 -35.817 -35.021  1.00  0.00     0.017 A 
ENDBRANCH  13  16
ENDBRANCH   1  12
BRANCH  11  22
HETATM   22  O3  UNL     1      -3.710 -37.029 -30.176  1.00  0.00    -0.269 OA
ATOM     23  H3  UNL     1      -3.857 -37.763 -29.591  1.00  0.00     0.245 HD
ENDBRANCH  11  22
BRANCH   4  24
HETATM   24  O2  UNL     1      -5.451 -32.032 -28.849  1.00  0.00    -0.267 OA
ATOM     25  H2  UNL     1      -6.048 -31.904 -28.121  1.00  0.00     0.247 HD
ENDBRANCH   4  24
TORSDOF 4
ENDMDL
MODEL 2
REMARK VINA RESULT: -6.233914529      0.056      1.026
REMARK  4 active torsions:
REMARK  status: ('A' for Active; 'I' for Inactive)
REMARK       I    between atoms: C1_2  and  N1_3 
REMARK    1  A    between atoms: C1_2  and  C9_20 
REMARK    2  A    between atoms: N1_3  and  C2_5 
REMARK    3  A    between atoms: N3_8  and  O2_9 
REMARK    4  A    between atoms: N4_17  and  O3_18 
ROOT
HETATM    1  C2  UNL     1      -3.937 -34.768 -30.736  1.00  0.00     0.728 A 
HETATM    2  N2  UNL     1      -4.403 -33.531 -30.341  1.00  0.00    -0.103 N 
ATOM      3  H2  UNL     1      -4.267 -32.745 -30.976  1.00  0.00     0.208 HD
HETATM    4  N3  UNL     1      -5.005 -33.301 -29.210  1.00  0.00    -0.147 N 
HETATM    5  C3  UNL     1      -5.190 -34.332 -28.365  1.00  0.00     0.111 A 
HETATM    6  C4  UNL     1      -5.826 -34.115 -27.161  1.00  0.00     0.036 A 
HETATM    7  C5  UNL     1      -6.041 -35.137 -26.257  1.00  0.00     0.003 A 
HETATM    8  C6  UNL     1      -5.592 -36.391 -26.610  1.00  0.00     0.002 A 
HETATM    9  C7  UNL     1      -4.951 -36.652 -27.805  1.00  0.00     0.035 A 
HETATM   10  C8  UNL     1      -4.749 -35.597 -28.696  1.00  0.00     0.112 A 
HETATM   11  N4  UNL     1      -4.128 -35.789 -29.882  1.00  0.00    -0.049 N 
ENDROOT
BRANCH   1  12
HETATM   12  N1  UNL     1      -3.390 -34.813 -31.836  1.00  0.00    -0.152 N 
HETATM   13  C1  UNL     1      -2.413 -35.354 -32.589  1.00  0.00     0.270 C 
HETATM   14  O1  UNL     1      -1.602 -36.209 -32.149  1.00  0.00    -0.267 OA
ATOM     15  H1  UNL     1      -3.893 -34.160 -32.437  1.00  0.00     0.188 HD
BRANCH  13  16
HETATM   16  C9  UNL     1      -2.225 -34.967 -34.021  1.00  0.00     0.032 A 
HETATM   17  C10 UNL     1      -2.094 -35.890 -35.019  1.00  0.00     0.017 A 
HETATM   18  C11 UNL     1      -1.924 -35.490 -36.323  1.00  0.00     0.001 A 
HETATM   19  C12 UNL     1      -1.880 -34.166 -36.665  1.00  0.00     0.000 A 
HETATM   20  C13 UNL     1      -2.010 -33.225 -35.669  1.00  0.00     0.001 A 
HETATM   21  C14 UNL     1      -2.180 -33.648 -34.367  1.00  0.00     0.017 A 
ENDBRANCH  13  16
ENDBRANCH   1  12
BRANCH  11  22
HETATM   22  O3  UNL     1      -3.723 -37.069 -30.132  1.00  0.00    -0.269 OA
ATOM     23  H3  UNL     1      -3.815 -37.781 -29.511  1.00  0.00     0.245 HD
ENDBRANCH  11  22
BRANCH   4  24
HETATM   24  O2  UNL     1      -5.447 -32.048 -28.873  1.00  0.00    -0.267 OA
ATOM     25  H2  UNL     1      -5.254 -31.663 -28.026  1.00  0.00     0.247 HD
ENDBRANCH   4  24
TORSDOF 4
ENDMDL
MODEL 3
REMARK VINA RESULT: -5.727051690      7.097      9.423
REMARK  4 active torsions:
REMARK  status: ('A' for Active; 'I' for Inactive)
REMARK       I    between atoms: C1_2  and  N1_3 
REMARK    1  A    between atoms: C1_2  and  C9_20 
REMARK    2  A    between atoms: N1_3  and  C2_5 
REMARK    3  A    between atoms: N3_8  and  O2_9 
REMARK    4  A    between atoms: N4_17  and  O3_18 
ROOT
HETATM    1  C2  UNL     1      -1.733 -29.799 -35.347  1.00  0.00     0.728 A 
HETATM    2  N2  UNL     1      -0.361 -29.668 -35.289  1.00  0.00    -0.103 N 
ATOM      3  H2  UNL     1       0.019 -28.824 -34.861  1.00  0.00     0.208 HD
HETATM    4  N3  UNL     1       0.479 -30.551 -35.745  1.00  0.00    -0.147 N 
HETATM    5  C3  UNL     1      -0.013 -31.668 -36.312  1.00  0.00     0.111 A 
HETATM    6  C4  UNL     1       0.857 -32.618 -36.801  1.00  0.00     0.036 A 
HETATM    7  C5  UNL     1       0.406 -33.782 -37.392  1.00  0.00     0.003 A 
HETATM    8  C6  UNL     1      -0.959 -33.957 -37.472  1.00  0.00     0.002 A 
HETATM    9  C7  UNL     1      -1.865 -33.030 -36.994  1.00  0.00     0.035 A 
HETATM   10  C8  UNL     1      -1.375 -31.865 -36.403  1.00  0.00     0.112 A 
HETATM   11  N4  UNL     1      -2.212 -30.920 -35.915  1.00  0.00    -0.049 N 
ENDROOT
BRANCH   1  12
HETATM   12  N1  UNL     1      -2.386 -28.873 -34.870  1.00  0.00    -0.152 N 
HETATM   13  C1  UNL     1      -3.269 -27.881 -35.096  1.00  0.00     0.270 C 
HETATM   14  O1  UNL     1      -3.757 -27.642 -36.232  1.00  0.00    -0.267 OA
ATOM     15  H1  UNL     1      -2.161 -28.842 -33.876  1.00  0.00     0.188 HD
BRANCH  13  16
HETATM   16  C9  UNL     1      -3.736 -26.985 -33.994  1.00  0.00     0.032 A 
HETATM   17  C10 UNL     1      -4.597 -25.946 -34.209  1.00  0.00     0.017 A 
HETATM   18  C11 UNL     1      -5.001 -25.147 -33.167  1.00  0.00     0.001 A 
HETATM   19  C12 UNL     1      -4.561 -25.361 -31.888  1.00  0.00     0.000 A 
HETATM   20  C13 UNL     1      -3.693 -26.405 -31.658  1.00  0.00     0.001 A 
HETATM   21  C14 UNL     1      -3.300 -27.194 -32.719  1.00  0.00     0.017 A 
ENDBRANCH  13  16
ENDBRANCH   1  12
BRANCH  11  22
HETATM   22  O3  UNL     1      -3.544 -31.192 -36.046  1.00  0.00    -0.269 OA
ATOM     23  H3  UNL     1      -3.886 -31.908 -36.568  1.00  0.00     0.245 HD
ENDBRANCH  11  22
BRANCH   4  24
HETATM   24  O2  UNL     1       1.835 -30.363 -35.658  1.00  0.00    -0.267 OA
ATOM     25  H2  UNL     1       2.380 -30.918 -35.113  1.00  0.00     0.247 HD
ENDBRANCH   4  24
TORSDOF 4
ENDMDL
MODEL 4
REMARK VINA RESULT: -5.625397186      7.183      8.078
REMARK  4 active torsions:
REMARK  status: ('A' for Active; 'I' for Inactive)
REMARK       I    between atoms: C1_2  and  N1_3 
REMARK    1  A    between atoms: C1_2  and  C9_20 
REMARK    2  A    between atoms: N1_3  and  C2_5 
REMARK    3  A    between atoms: N3_8  and  O2_9 
REMARK    4  A    between atoms: N4_17  and  O3_18 
ROOT
HETATM    1  C2  UNL     1      -2.763 -29.137 -35.020  1.00  0.00     0.728 A 
HETATM    2  N2  UNL     1      -2.404 -28.978 -33.697  1.00  0.00    -0.103 N 
ATOM      3  H2  UNL     1      -1.790 -29.678 -33.283  1.00  0.00     0.208 HD
HETATM    4  N3  UNL     1      -2.798 -27.992 -32.944  1.00  0.00    -0.147 N 
HETATM    5  C3  UNL     1      -3.609 -27.063 -33.482  1.00  0.00     0.111 A 
HETATM    6  C4  UNL     1      -4.040 -26.009 -32.705  1.00  0.00     0.036 A 
HETATM    7  C5  UNL     1      -4.872 -25.027 -33.206  1.00  0.00     0.003 A 
HETATM    8  C6  UNL     1      -5.257 -25.145 -34.524  1.00  0.00     0.002 A 
HETATM    9  C7  UNL     1      -4.849 -26.184 -35.338  1.00  0.00     0.035 A 
HETATM   10  C8  UNL     1      -4.008 -27.159 -34.799  1.00  0.00     0.112 A 
HETATM   11  N4  UNL     1      -3.573 -28.201 -35.545  1.00  0.00    -0.049 N 
ENDROOT
BRANCH   1  12
HETATM   12  N1  UNL     1      -2.304 -30.124 -35.590  1.00  0.00    -0.152 N 
HETATM   13  C1  UNL     1      -2.505 -31.100 -36.496  1.00  0.00     0.270 C 
HETATM   14  O1  UNL     1      -3.573 -31.216 -37.153  1.00  0.00    -0.267 OA
ATOM     15  H1  UNL     1      -1.365 -30.265 -35.215  1.00  0.00     0.188 HD
BRANCH  13  16
HETATM   16  C9  UNL     1      -1.457 -32.126 -36.787  1.00  0.00     0.032 A 
HETATM   17  C10 UNL     1      -1.761 -33.370 -37.260  1.00  0.00     0.017 A 
HETATM   18  C11 UNL     1      -0.765 -34.283 -37.515  1.00  0.00     0.001 A 
HETATM   19  C12 UNL     1       0.553 -33.981 -37.306  1.00  0.00     0.000 A 
HETATM   20  C13 UNL     1       0.873 -32.729 -36.829  1.00  0.00     0.001 A 
HETATM   21  C14 UNL     1      -0.142 -31.829 -36.580  1.00  0.00     0.017 A 
ENDBRANCH  13  16
ENDBRANCH   1  12
BRANCH  11  22
HETATM   22  O3  UNL     1      -4.015 -28.222 -36.837  1.00  0.00    -0.269 OA
ATOM     23  H3  UNL     1      -4.899 -27.989 -37.095  1.00  0.00     0.245 HD
ENDBRANCH  11  22
BRANCH   4  24
HETATM   24  O2  UNL     1      -2.407 -27.888 -31.634  1.00  0.00    -0.267 OA
ATOM     25  H2  UNL     1      -2.179 -27.051 -31.247  1.00  0.00     0.247 HD
ENDBRANCH   4  24
TORSDOF 4
ENDMDL
MODEL 5
REMARK VINA RESULT: -5.489553265      7.090      9.643
REMARK  4 active torsions:
REMARK  status: ('A' for Active; 'I' for Inactive)
REMARK       I    between atoms: C1_2  and  N1_3 
REMARK    1  A    between atoms: C1_2  and  C9_20 
REMARK    2  A    between atoms: N1_3  and  C2_5 
REMARK    3  A    between atoms: N3_8  and  O2_9 
REMARK    4  A    between atoms: N4_17  and  O3_18 
ROOT
HETATM    1  C2  UNL     1      -1.590 -29.863 -35.305  1.00  0.00     0.728 A 
HETATM    2  N2  UNL     1      -2.257 -31.040 -35.575  1.00  0.00    -0.103 N 
ATOM      3  H2  UNL     1      -3.255 -31.080 -35.370  1.00  0.00     0.208 HD
HETATM    4  N3  UNL     1      -1.695 -32.103 -36.074  1.00  0.00    -0.147 N 
HETATM    5  C3  UNL     1      -0.378 -32.059 -36.347  1.00  0.00     0.111 A 
HETATM    6  C4  UNL     1       0.240 -33.172 -36.877  1.00  0.00     0.036 A 
HETATM    7  C5  UNL     1       1.588 -33.182 -37.177  1.00  0.00     0.003 A 
HETATM    8  C6  UNL     1       2.296 -32.027 -36.924  1.00  0.00     0.002 A 
HETATM    9  C7  UNL     1       1.715 -30.890 -36.394  1.00  0.00     0.035 A 
HETATM   10  C8  UNL     1       0.351 -30.914 -36.103  1.00  0.00     0.112 A 
HETATM   11  N4  UNL     1      -0.275 -29.833 -35.583  1.00  0.00    -0.049 N 
ENDROOT
BRANCH   1  12
HETATM   12  N1  UNL     1      -2.269 -28.953 -34.834  1.00  0.00    -0.152 N 
HETATM   13  C1  UNL     1      -3.215 -28.020 -35.054  1.00  0.00     0.270 C 
HETATM   14  O1  UNL     1      -3.769 -27.855 -36.172  1.00  0.00    -0.267 OA
ATOM     15  H1  UNL     1      -1.999 -28.868 -33.853  1.00  0.00     0.188 HD
BRANCH  13  16
HETATM   16  C9  UNL     1      -3.678 -27.103 -33.967  1.00  0.00     0.032 A 
HETATM   17  C10 UNL     1      -3.264 -27.235 -32.672  1.00  0.00     0.017 A 
HETATM   18  C11 UNL     1      -3.714 -26.369 -31.703  1.00  0.00     0.001 A 
HETATM   19  C12 UNL     1      -4.584 -25.354 -31.999  1.00  0.00     0.000 A 
HETATM   20  C13 UNL     1      -5.009 -25.211 -33.301  1.00  0.00     0.001 A 
HETATM   21  C14 UNL     1      -4.545 -26.091 -34.256  1.00  0.00     0.017 A 
ENDBRANCH  13  16
ENDBRANCH   1  12
BRANCH  11  22
HETATM   22  O3  UNL     1       0.518 -28.742 -35.370  1.00  0.00    -0.269 OA
ATOM     23  H3  UNL     1       0.287 -27.862 -35.642  1.00  0.00     0.245 HD
ENDBRANCH  11  22
BRANCH   4  24
HETATM   24  O2  UNL     1      -2.412 -33.245 -36.321  1.00  0.00    -0.267 OA
ATOM     25  H2  UNL     1      -3.222 -33.434 -35.862  1.00  0.00     0.247 HD
ENDBRANCH   4  24
TORSDOF 4
ENDMDL
