MODEL 1
REMARK VINA RESULT: -5.075317774      0.000      0.000
REMARK  1 active torsions:
REMARK  status: ('A' for Active; 'I' for Inactive)
REMARK       I    between atoms: C1_2  and  N1_3 
REMARK       I    between atoms: C1_2  and  N4_13 
REMARK    1  A    between atoms: N1_3  and  C2_5 
ROOT
HETATM    1  O1  UNL     1      -4.099 -29.894 -34.189  1.00  0.00    -0.245 OA
HETATM    2  C1  UNL     1      -2.978 -29.514 -34.606  1.00  0.00     0.350 C 
HETATM    3  N1  UNL     1      -2.433 -28.342 -34.023  1.00  0.00    -0.140 N 
ATOM      4  H1  UNL     1      -1.427 -28.282 -33.871  1.00  0.00     0.189 HD
HETATM    5  N4  UNL     1      -2.291 -30.223 -35.613  1.00  0.00    -0.218 N 
HETATM    6  C6  UNL     1      -2.682 -31.417 -36.315  1.00  0.00     0.186 C 
HETATM    7  C7  UNL     1      -1.493 -32.239 -36.612  1.00  0.00    -0.016 A 
HETATM    8  C8  UNL     1      -1.451 -33.637 -36.837  1.00  0.00     0.010 A 
HETATM    9  C9  UNL     1      -0.269 -34.236 -37.111  1.00  0.00     0.001 A 
HETATM   10  C10 UNL     1       0.914 -33.504 -37.175  1.00  0.00     0.002 A 
HETATM   11  C11 UNL     1       0.917 -32.148 -36.962  1.00  0.00     0.026 A 
HETATM   12  C12 UNL     1      -0.314 -31.552 -36.681  1.00  0.00     0.088 A 
HETATM   13  S1  UNL     1      -0.736 -29.873 -36.334  1.00  0.00     0.269 S 
HETATM   14  O2  UNL     1       0.125 -29.291 -35.282  1.00  0.00    -0.200 OA
HETATM   15  O3  UNL     1      -0.866 -29.060 -37.559  1.00  0.00    -0.200 OA
ENDROOT
BRANCH   3  16
HETATM   16  C2  UNL     1      -3.181 -27.351 -33.681  1.00  0.00     0.685 A 
HETATM   17  N2  UNL     1      -4.007 -26.833 -34.606  1.00  0.00    -0.202 N 
HETATM   18  C3  UNL     1      -4.820 -25.806 -34.351  1.00  0.00     0.107 A 
ATOM     19  H2  UNL     1      -4.012 -27.240 -35.542  1.00  0.00     0.183 HD
HETATM   20  C4  UNL     1      -4.814 -25.254 -33.089  1.00  0.00     0.035 A 
HETATM   21  C5  UNL     1      -3.973 -25.772 -32.122  1.00  0.00     0.107 A 
HETATM   22  N3  UNL     1      -3.166 -26.821 -32.444  1.00  0.00    -0.202 N 
ATOM     23  H3  UNL     1      -2.541 -27.210 -31.737  1.00  0.00     0.183 HD
ENDBRANCH   3  16
TORSDOF 1
ENDMDL
MODEL 2
REMARK VINA RESULT: -4.863490456      0.365      1.113
REMARK  1 active torsions:
REMARK  status: ('A' for Active; 'I' for Inactive)
REMARK       I    between atoms: C1_2  and  N1_3 
REMARK       I    between atoms: C1_2  and  N4_13 
REMARK    1  A    between atoms: N1_3  and  C2_5 
ROOT
HETATM    1  O1  UNL     1      -3.879 -29.880 -34.219  1.00  0.00    -0.245 OA
HETATM    2  C1  UNL     1      -2.784 -29.423 -34.628  1.00  0.00     0.350 C 
HETATM    3  N1  UNL     1      -2.341 -28.201 -34.061  1.00  0.00    -0.140 N 
ATOM      4  H1  UNL     1      -1.345 -28.061 -33.896  1.00  0.00     0.189 HD
HETATM    5  N4  UNL     1      -2.029 -30.097 -35.610  1.00  0.00    -0.218 N 
HETATM    6  C6  UNL     1      -2.316 -31.332 -36.291  1.00  0.00     0.186 C 
HETATM    7  C7  UNL     1      -1.062 -32.065 -36.554  1.00  0.00    -0.016 A 
HETATM    8  C8  UNL     1      -0.909 -33.460 -36.749  1.00  0.00     0.010 A 
HETATM    9  C9  UNL     1       0.320 -33.970 -36.993  1.00  0.00     0.001 A 
HETATM   10  C10 UNL     1       1.444 -33.151 -37.055  1.00  0.00     0.002 A 
HETATM   11  C11 UNL     1       1.339 -31.795 -36.871  1.00  0.00     0.026 A 
HETATM   12  C12 UNL     1       0.062 -31.290 -36.621  1.00  0.00     0.088 A 
HETATM   13  S1  UNL     1      -0.494 -29.642 -36.315  1.00  0.00     0.269 S 
HETATM   14  O2  UNL     1       0.302 -28.974 -35.263  1.00  0.00    -0.200 OA
HETATM   15  O3  UNL     1      -0.666 -28.867 -37.559  1.00  0.00    -0.200 OA
ENDROOT
BRANCH   3  16
HETATM   16  C2  UNL     1      -3.169 -27.265 -33.751  1.00  0.00     0.685 A 
HETATM   17  N2  UNL     1      -3.140 -26.786 -32.495  1.00  0.00    -0.202 N 
HETATM   18  C3  UNL     1      -3.956 -25.817 -32.075  1.00  0.00     0.107 A 
ATOM     19  H2  UNL     1      -2.467 -27.178 -31.837  1.00  0.00     0.183 HD
HETATM   20  C4  UNL     1      -4.866 -25.286 -32.963  1.00  0.00     0.035 A 
HETATM   21  C5  UNL     1      -4.912 -25.764 -34.259  1.00  0.00     0.107 A 
HETATM   22  N3  UNL     1      -4.053 -26.755 -34.628  1.00  0.00    -0.202 N 
ATOM     23  H3  UNL     1      -4.080 -27.114 -35.583  1.00  0.00     0.183 HD
ENDBRANCH   3  16
TORSDOF 1
ENDMDL
MODEL 3
REMARK VINA RESULT: -4.823433187      2.098      7.102
REMARK  1 active torsions:
REMARK  status: ('A' for Active; 'I' for Inactive)
REMARK       I    between atoms: C1_2  and  N1_3 
REMARK       I    between atoms: C1_2  and  N4_13 
REMARK    1  A    between atoms: N1_3  and  C2_5 
ROOT
HETATM    1  O1  UNL     1       0.168 -31.065 -35.677  1.00  0.00    -0.245 OA
HETATM    2  C1  UNL     1      -1.086 -31.013 -35.643  1.00  0.00     0.350 C 
HETATM    3  N1  UNL     1      -1.783 -32.245 -35.566  1.00  0.00    -0.140 N 
ATOM      4  H1  UNL     1      -2.638 -32.299 -35.014  1.00  0.00     0.189 HD
HETATM    5  N4  UNL     1      -1.770 -29.780 -35.684  1.00  0.00    -0.218 N 
HETATM    6  C6  UNL     1      -1.238 -28.446 -35.763  1.00  0.00     0.186 C 
HETATM    7  C7  UNL     1      -2.092 -27.517 -34.997  1.00  0.00    -0.016 A 
HETATM    8  C8  UNL     1      -1.714 -26.277 -34.426  1.00  0.00     0.010 A 
HETATM    9  C9  UNL     1      -2.633 -25.539 -33.762  1.00  0.00     0.001 A 
HETATM   10  C10 UNL     1      -3.949 -25.973 -33.625  1.00  0.00     0.002 A 
HETATM   11  C11 UNL     1      -4.355 -27.169 -34.163  1.00  0.00     0.026 A 
HETATM   12  C12 UNL     1      -3.391 -27.914 -34.843  1.00  0.00     0.088 A 
HETATM   13  S1  UNL     1      -3.493 -29.482 -35.650  1.00  0.00     0.269 S 
HETATM   14  O2  UNL     1      -4.109 -30.511 -34.785  1.00  0.00    -0.200 OA
HETATM   15  O3  UNL     1      -4.063 -29.381 -37.007  1.00  0.00    -0.200 OA
ENDROOT
BRANCH   3  16
HETATM   16  C2  UNL     1      -1.360 -33.297 -36.177  1.00  0.00     0.685 A 
HETATM   17  N2  UNL     1      -2.071 -34.431 -36.050  1.00  0.00    -0.202 N 
HETATM   18  C3  UNL     1      -1.716 -35.573 -36.643  1.00  0.00     0.107 A 
ATOM     19  H2  UNL     1      -2.915 -34.418 -35.477  1.00  0.00     0.183 HD
HETATM   20  C4  UNL     1      -0.576 -35.591 -37.415  1.00  0.00     0.035 A 
HETATM   21  C5  UNL     1       0.169 -34.436 -37.559  1.00  0.00     0.107 A 
HETATM   22  N3  UNL     1      -0.244 -33.302 -36.929  1.00  0.00    -0.202 N 
ATOM     23  H3  UNL     1       0.300 -32.445 -37.029  1.00  0.00     0.183 HD
ENDBRANCH   3  16
TORSDOF 1
ENDMDL
MODEL 4
REMARK VINA RESULT: -4.506178135      1.044      1.296
REMARK  1 active torsions:
REMARK  status: ('A' for Active; 'I' for Inactive)
REMARK       I    between atoms: C1_2  and  N1_3 
REMARK       I    between atoms: C1_2  and  N4_13 
REMARK    1  A    between atoms: N1_3  and  C2_5 
ROOT
HETATM    1  O1  UNL     1      -3.148 -29.666 -34.087  1.00  0.00    -0.245 OA
HETATM    2  C1  UNL     1      -2.156 -29.050 -34.547  1.00  0.00     0.350 C 
HETATM    3  N1  UNL     1      -1.915 -27.745 -34.046  1.00  0.00    -0.140 N 
ATOM      4  H1  UNL     1      -0.954 -27.431 -33.916  1.00  0.00     0.189 HD
HETATM    5  N4  UNL     1      -1.317 -29.632 -35.521  1.00  0.00    -0.218 N 
HETATM    6  C6  UNL     1      -1.404 -30.928 -36.140  1.00  0.00     0.186 C 
HETATM    7  C7  UNL     1      -0.050 -31.450 -36.407  1.00  0.00    -0.016 A 
HETATM    8  C8  UNL     1       0.334 -32.806 -36.547  1.00  0.00     0.010 A 
HETATM    9  C9  UNL     1       1.627 -33.112 -36.804  1.00  0.00     0.001 A 
HETATM   10  C10 UNL     1       2.594 -32.119 -36.934  1.00  0.00     0.002 A 
HETATM   11  C11 UNL     1       2.263 -30.792 -36.805  1.00  0.00     0.026 A 
HETATM   12  C12 UNL     1       0.924 -30.500 -36.539  1.00  0.00     0.088 A 
HETATM   13  S1  UNL     1       0.102 -28.957 -36.289  1.00  0.00     0.269 S 
HETATM   14  O2  UNL     1       0.795 -28.116 -35.290  1.00  0.00    -0.200 OA
HETATM   15  O3  UNL     1      -0.226 -28.282 -37.559  1.00  0.00    -0.200 OA
ENDROOT
BRANCH   3  16
HETATM   16  C2  UNL     1      -2.883 -26.949 -33.752  1.00  0.00     0.685 A 
HETATM   17  N2  UNL     1      -3.713 -26.570 -34.740  1.00  0.00    -0.202 N 
HETATM   18  C3  UNL     1      -4.745 -25.749 -34.538  1.00  0.00     0.107 A 
ATOM     19  H2  UNL     1      -3.548 -26.926 -35.682  1.00  0.00     0.183 HD
HETATM   20  C4  UNL     1      -4.969 -25.267 -33.267  1.00  0.00     0.035 A 
HETATM   21  C5  UNL     1      -4.128 -25.644 -32.237  1.00  0.00     0.107 A 
HETATM   22  N3  UNL     1      -3.092 -26.485 -32.506  1.00  0.00    -0.202 N 
ATOM     23  H3  UNL     1      -2.465 -26.769 -31.752  1.00  0.00     0.183 HD
ENDBRANCH   3  16
TORSDOF 1
ENDMDL
MODEL 5
REMARK VINA RESULT: -4.422134511      1.406      2.560
REMARK  1 active torsions:
REMARK  status: ('A' for Active; 'I' for Inactive)
REMARK       I    between atoms: C1_2  and  N1_3 
REMARK       I    between atoms: C1_2  and  N4_13 
REMARK    1  A    between atoms: N1_3  and  C2_5 
ROOT
HETATM    1  O1  UNL     1      -1.328 -27.663 -35.323  1.00  0.00    -0.245 OA
HETATM    2  C1  UNL     1      -2.189 -28.573 -35.402  1.00  0.00     0.350 C 
HETATM    3  N1  UNL     1      -3.547 -28.173 -35.496  1.00  0.00    -0.140 N 
ATOM      4  H1  UNL     1      -4.186 -28.713 -36.079  1.00  0.00     0.189 HD
HETATM    5  N4  UNL     1      -1.821 -29.934 -35.396  1.00  0.00    -0.218 N 
HETATM    6  C6  UNL     1      -0.511 -30.523 -35.307  1.00  0.00     0.186 C 
HETATM    7  C7  UNL     1      -0.460 -31.760 -36.109  1.00  0.00    -0.016 A 
HETATM    8  C8  UNL     1       0.688 -32.369 -36.675  1.00  0.00     0.010 A 
HETATM    9  C9  UNL     1       0.558 -33.518 -37.378  1.00  0.00     0.001 A 
HETATM   10  C10 UNL     1      -0.685 -34.118 -37.559  1.00  0.00     0.002 A 
HETATM   11  C11 UNL     1      -1.822 -33.561 -37.028  1.00  0.00     0.026 A 
HETATM   12  C12 UNL     1      -1.664 -32.376 -36.307  1.00  0.00     0.088 A 
HETATM   13  S1  UNL     1      -2.847 -31.347 -35.494  1.00  0.00     0.269 S 
HETATM   14  O2  UNL     1      -3.988 -31.012 -36.373  1.00  0.00    -0.200 OA
HETATM   15  O3  UNL     1      -3.213 -31.858 -34.159  1.00  0.00    -0.200 OA
ENDROOT
BRANCH   3  16
HETATM   16  C2  UNL     1      -3.990 -27.143 -34.862  1.00  0.00     0.685 A 
HETATM   17  N2  UNL     1      -3.635 -26.992 -33.574  1.00  0.00    -0.202 N 
HETATM   18  C3  UNL     1      -4.041 -25.960 -32.832  1.00  0.00     0.107 A 
ATOM     19  H2  UNL     1      -3.030 -27.694 -33.147  1.00  0.00     0.183 HD
HETATM   20  C4  UNL     1      -4.859 -25.012 -33.407  1.00  0.00     0.035 A 
HETATM   21  C5  UNL     1      -5.235 -25.148 -34.730  1.00  0.00     0.107 A 
HETATM   22  N3  UNL     1      -4.788 -26.223 -35.436  1.00  0.00    -0.202 N 
ATOM     23  H3  UNL     1      -5.061 -26.333 -36.413  1.00  0.00     0.183 HD
ENDBRANCH   3  16
TORSDOF 1
ENDMDL
