MODEL 1
REMARK VINA RESULT: -7.140070765      0.000      0.000
REMARK  2 active torsions:
REMARK  status: ('A' for Active; 'I' for Inactive)
REMARK    1  A    between atoms: C7_7  and  S1_8 
REMARK    2  A    between atoms: S1_8  and  N1_11 
REMARK       I    between atoms: C8_13  and  N2_14 
REMARK       I    between atoms: C8_13  and  N4_18 
ROOT
HETATM    1  N1  UNL     1      -6.438 -32.258 -28.169  1.00  0.00    -0.112 N 
ATOM      2  H1  UNL     1      -7.171 -32.819 -28.603  1.00  0.00     0.197 HD
HETATM    3  C8  UNL     1      -6.628 -31.026 -28.006  1.00  0.00     0.698 C 
HETATM    4  N2  UNL     1      -7.903 -30.518 -28.462  1.00  0.00    -0.125 N 
ATOM      5  H2  UNL     1      -7.931 -29.850 -29.233  1.00  0.00     0.197 HD
HETATM    6  C9  UNL     1      -9.091 -30.926 -27.864  1.00  0.00     0.196 C 
HETATM    7  N3  UNL     1     -10.068 -31.278 -27.373  1.00  0.00    -0.171 NA
HETATM    8  N4  UNL     1      -5.762 -30.083 -27.435  1.00  0.00    -0.225 N 
HETATM    9  C10 UNL     1      -4.654 -29.498 -28.166  1.00  0.00     0.168 C 
HETATM   10  C11 UNL     1      -5.968 -29.642 -26.045  1.00  0.00     0.168 C 
ENDROOT
BRANCH   1  11
HETATM   11  S1  UNL     1      -4.988 -33.021 -27.688  1.00  0.00     0.277 S 
HETATM   12  O1  UNL     1      -4.997 -33.344 -26.208  1.00  0.00    -0.200 OA
HETATM   13  O2  UNL     1      -3.865 -32.039 -27.857  1.00  0.00    -0.200 OA
BRANCH  11  14
HETATM   14  C7  UNL     1      -4.606 -34.428 -28.638  1.00  0.00     0.086 A 
HETATM   15  C5  UNL     1      -5.146 -35.650 -28.304  1.00  0.00    -0.039 A 
HETATM   16  C4  UNL     1      -4.826 -36.758 -29.070  1.00  0.00     0.009 A 
HETATM   17  C6  UNL     1      -6.059 -35.792 -27.147  1.00  0.00     0.050 C 
HETATM   18  C3  UNL     1      -3.982 -36.681 -30.158  1.00  0.00     0.007 A 
HETATM   19  C2  UNL     1      -3.443 -35.477 -30.497  1.00  0.00    -0.060 A 
HETATM   20  C1  UNL     1      -2.526 -35.313 -31.655  1.00  0.00     0.048 C 
HETATM   21  C12 UNL     1      -3.763 -34.371 -29.730  1.00  0.00     0.032 A 
ENDBRANCH  11  14
ENDBRANCH   1  11
TORSDOF 2
ENDMDL
MODEL 2
REMARK VINA RESULT: -6.703902591      1.839      2.880
REMARK  2 active torsions:
REMARK  status: ('A' for Active; 'I' for Inactive)
REMARK    1  A    between atoms: C7_7  and  S1_8 
REMARK    2  A    between atoms: S1_8  and  N1_11 
REMARK       I    between atoms: C8_13  and  N2_14 
REMARK       I    between atoms: C8_13  and  N4_18 
ROOT
HETATM    1  N1  UNL     1      -4.645 -32.407 -26.173  1.00  0.00    -0.112 N 
ATOM      2  H1  UNL     1      -4.125 -31.729 -25.614  1.00  0.00     0.197 HD
HETATM    3  C8  UNL     1      -5.560 -31.997 -26.931  1.00  0.00     0.698 C 
HETATM    4  N2  UNL     1      -5.788 -30.569 -26.933  1.00  0.00    -0.125 N 
ATOM      5  H2  UNL     1      -6.675 -30.200 -26.589  1.00  0.00     0.197 HD
HETATM    6  C9  UNL     1      -4.814 -29.690 -27.398  1.00  0.00     0.196 C 
HETATM    7  N3  UNL     1      -4.001 -28.971 -27.773  1.00  0.00    -0.171 NA
HETATM    8  N4  UNL     1      -6.388 -32.750 -27.776  1.00  0.00    -0.225 N 
HETATM    9  C10 UNL     1      -7.543 -33.480 -27.290  1.00  0.00     0.168 C 
HETATM   10  C11 UNL     1      -6.103 -32.810 -29.221  1.00  0.00     0.168 C 
ENDROOT
BRANCH   1  11
HETATM   11  S1  UNL     1      -4.245 -34.062 -26.048  1.00  0.00     0.277 S 
HETATM   12  O1  UNL     1      -5.144 -34.775 -25.058  1.00  0.00    -0.200 OA
HETATM   13  O2  UNL     1      -2.869 -34.167 -25.459  1.00  0.00    -0.200 OA
BRANCH  11  14
HETATM   14  C7  UNL     1      -4.226 -34.880 -27.585  1.00  0.00     0.086 A 
HETATM   15  C5  UNL     1      -4.938 -36.047 -27.750  1.00  0.00    -0.039 A 
HETATM   16  C4  UNL     1      -4.906 -36.685 -28.979  1.00  0.00     0.009 A 
HETATM   17  C6  UNL     1      -5.732 -36.623 -26.641  1.00  0.00     0.050 C 
HETATM   18  C3  UNL     1      -4.184 -36.191 -30.045  1.00  0.00     0.007 A 
HETATM   19  C2  UNL     1      -3.477 -35.037 -29.891  1.00  0.00    -0.060 A 
HETATM   20  C1  UNL     1      -2.676 -34.442 -30.992  1.00  0.00     0.048 C 
HETATM   21  C12 UNL     1      -3.510 -34.402 -28.663  1.00  0.00     0.032 A 
ENDBRANCH  11  14
ENDBRANCH   1  11
TORSDOF 2
ENDMDL
MODEL 3
REMARK VINA RESULT: -6.445345395      2.500      6.306
REMARK  2 active torsions:
REMARK  status: ('A' for Active; 'I' for Inactive)
REMARK    1  A    between atoms: C7_7  and  S1_8 
REMARK    2  A    between atoms: S1_8  and  N1_11 
REMARK       I    between atoms: C8_13  and  N2_14 
REMARK       I    between atoms: C8_13  and  N4_18 
ROOT
HETATM    1  N1  UNL     1      -4.971 -33.149 -27.129  1.00  0.00    -0.112 N 
ATOM      2  H1  UNL     1      -4.821 -32.453 -26.398  1.00  0.00     0.197 HD
HETATM    3  C8  UNL     1      -4.202 -34.140 -27.194  1.00  0.00     0.698 C 
HETATM    4  N2  UNL     1      -3.154 -34.194 -26.198  1.00  0.00    -0.125 N 
ATOM      5  H2  UNL     1      -2.178 -34.126 -26.490  1.00  0.00     0.197 HD
HETATM    6  C9  UNL     1      -3.457 -34.338 -24.848  1.00  0.00     0.196 C 
HETATM    7  N3  UNL     1      -3.717 -34.445 -23.734  1.00  0.00    -0.171 NA
HETATM    8  N4  UNL     1      -4.231 -35.203 -28.109  1.00  0.00    -0.225 N 
HETATM    9  C10 UNL     1      -3.695 -35.092 -29.452  1.00  0.00     0.168 C 
HETATM   10  C11 UNL     1      -4.813 -36.497 -27.713  1.00  0.00     0.168 C 
ENDROOT
BRANCH   1  11
HETATM   11  S1  UNL     1      -6.260 -32.930 -28.227  1.00  0.00     0.277 S 
HETATM   12  O1  UNL     1      -7.071 -34.200 -28.388  1.00  0.00    -0.200 OA
HETATM   13  O2  UNL     1      -5.677 -32.675 -29.586  1.00  0.00    -0.200 OA
BRANCH  11  14
HETATM   14  C7  UNL     1      -7.280 -31.577 -27.827  1.00  0.00     0.086 A 
HETATM   15  C5  UNL     1      -6.717 -30.351 -27.551  1.00  0.00    -0.039 A 
HETATM   16  C4  UNL     1      -7.545 -29.289 -27.230  1.00  0.00     0.009 A 
HETATM   17  C6  UNL     1      -5.250 -30.156 -27.594  1.00  0.00     0.050 C 
HETATM   18  C3  UNL     1      -8.917 -29.416 -27.177  1.00  0.00     0.007 A 
HETATM   19  C2  UNL     1      -9.484 -30.626 -27.449  1.00  0.00    -0.060 A 
HETATM   20  C1  UNL     1     -10.953 -30.842 -27.412  1.00  0.00     0.048 C 
HETATM   21  C12 UNL     1      -8.655 -31.685 -27.768  1.00  0.00     0.032 A 
ENDBRANCH  11  14
ENDBRANCH   1  11
TORSDOF 2
ENDMDL
MODEL 4
REMARK VINA RESULT: -6.443321614      2.213      6.243
REMARK  2 active torsions:
REMARK  status: ('A' for Active; 'I' for Inactive)
REMARK    1  A    between atoms: C7_7  and  S1_8 
REMARK    2  A    between atoms: S1_8  and  N1_11 
REMARK       I    between atoms: C8_13  and  N2_14 
REMARK       I    between atoms: C8_13  and  N4_18 
ROOT
HETATM    1  N1  UNL     1      -4.517 -33.235 -28.826  1.00  0.00    -0.112 N 
ATOM      2  H1  UNL     1      -4.041 -32.663 -29.524  1.00  0.00     0.197 HD
HETATM    3  C8  UNL     1      -4.820 -34.421 -29.115  1.00  0.00     0.698 C 
HETATM    4  N2  UNL     1      -4.453 -34.863 -30.442  1.00  0.00    -0.125 N 
ATOM      5  H2  UNL     1      -5.184 -35.105 -31.111  1.00  0.00     0.197 HD
HETATM    6  C9  UNL     1      -3.117 -34.963 -30.817  1.00  0.00     0.196 C 
HETATM    7  N3  UNL     1      -2.012 -35.031 -31.123  1.00  0.00    -0.171 NA
HETATM    8  N4  UNL     1      -5.469 -35.370 -28.311  1.00  0.00    -0.225 N 
HETATM    9  C10 UNL     1      -6.907 -35.378 -28.118  1.00  0.00     0.168 C 
HETATM   10  C11 UNL     1      -4.686 -36.418 -27.634  1.00  0.00     0.168 C 
ENDROOT
BRANCH   1  11
HETATM   11  S1  UNL     1      -4.879 -32.553 -27.303  1.00  0.00     0.277 S 
HETATM   12  O1  UNL     1      -3.644 -31.959 -26.657  1.00  0.00    -0.200 OA
HETATM   13  O2  UNL     1      -5.296 -33.662 -26.382  1.00  0.00    -0.200 OA
BRANCH  11  14
HETATM   14  C7  UNL     1      -6.179 -31.397 -27.361  1.00  0.00     0.086 A 
HETATM   15  C5  UNL     1      -5.898 -30.050 -27.421  1.00  0.00    -0.039 A 
HETATM   16  C4  UNL     1      -6.946 -29.147 -27.462  1.00  0.00     0.009 A 
HETATM   17  C6  UNL     1      -4.501 -29.561 -27.444  1.00  0.00     0.050 C 
HETATM   18  C3  UNL     1      -8.265 -29.550 -27.443  1.00  0.00     0.007 A 
HETATM   19  C2  UNL     1      -8.554 -30.881 -27.384  1.00  0.00    -0.060 A 
HETATM   20  C1  UNL     1      -9.948 -31.392 -27.361  1.00  0.00     0.048 C 
HETATM   21  C12 UNL     1      -7.504 -31.781 -27.343  1.00  0.00     0.032 A 
ENDBRANCH  11  14
ENDBRANCH   1  11
TORSDOF 2
ENDMDL
MODEL 5
REMARK VINA RESULT: -5.922300167      1.980      3.285
REMARK  2 active torsions:
REMARK  status: ('A' for Active; 'I' for Inactive)
REMARK    1  A    between atoms: C7_7  and  S1_8 
REMARK    2  A    between atoms: S1_8  and  N1_11 
REMARK       I    between atoms: C8_13  and  N2_14 
REMARK       I    between atoms: C8_13  and  N4_18 
ROOT
HETATM    1  N1  UNL     1      -5.341 -32.949 -26.002  1.00  0.00    -0.112 N 
ATOM      2  H1  UNL     1      -4.984 -32.464 -25.179  1.00  0.00     0.197 HD
HETATM    3  C8  UNL     1      -6.078 -32.324 -26.806  1.00  0.00     0.698 C 
HETATM    4  N2  UNL     1      -6.351 -30.943 -26.471  1.00  0.00    -0.125 N 
ATOM      5  H2  UNL     1      -7.305 -30.659 -26.248  1.00  0.00     0.197 HD
HETATM    6  C9  UNL     1      -5.330 -29.998 -26.450  1.00  0.00     0.196 C 
HETATM    7  N3  UNL     1      -4.480 -29.227 -26.423  1.00  0.00    -0.171 NA
HETATM    8  N4  UNL     1      -6.669 -32.796 -27.987  1.00  0.00    -0.225 N 
HETATM    9  C10 UNL     1      -7.876 -33.599 -27.990  1.00  0.00     0.168 C 
HETATM   10  C11 UNL     1      -6.067 -32.468 -29.291  1.00  0.00     0.168 C 
ENDROOT
BRANCH   1  11
HETATM   11  S1  UNL     1      -4.920 -34.586 -26.245  1.00  0.00     0.277 S 
HETATM   12  O1  UNL     1      -6.091 -35.506 -25.961  1.00  0.00    -0.200 OA
HETATM   13  O2  UNL     1      -3.886 -34.958 -25.223  1.00  0.00    -0.200 OA
BRANCH  11  14
HETATM   14  C7  UNL     1      -4.244 -34.894 -27.819  1.00  0.00     0.086 A 
HETATM   15  C5  UNL     1      -3.253 -34.074 -28.313  1.00  0.00    -0.039 A 
HETATM   16  C4  UNL     1      -2.731 -34.333 -29.569  1.00  0.00     0.009 A 
HETATM   17  C6  UNL     1      -2.742 -32.931 -27.523  1.00  0.00     0.050 C 
HETATM   18  C3  UNL     1      -3.171 -35.385 -30.345  1.00  0.00     0.007 A 
HETATM   19  C2  UNL     1      -4.151 -36.202 -29.865  1.00  0.00    -0.060 A 
HETATM   20  C1  UNL     1      -4.676 -37.354 -30.641  1.00  0.00     0.048 C 
HETATM   21  C12 UNL     1      -4.671 -35.941 -28.610  1.00  0.00     0.032 A 
ENDBRANCH  11  14
ENDBRANCH   1  11
TORSDOF 2
ENDMDL
