MODEL 1
REMARK VINA RESULT: -8.216284936      0.000      0.000
REMARK  5 active torsions:
REMARK  status: ('A' for Active; 'I' for Inactive)
REMARK    1  A    between atoms: N1_1  and  S1_4 
REMARK    2  A    between atoms: S1_4  and  C1_7 
REMARK    3  A    between atoms: C3_9  and  C4_10 
REMARK    4  A    between atoms: C5_11  and  C6_12 
REMARK    5  A    between atoms: C6_12  and  C7_14 
ROOT
HETATM    1  C1  UNL     1      -3.884 -35.074 -30.375  1.00  0.00     0.081 A 
HETATM    2  C2  UNL     1      -4.387 -33.860 -29.964  1.00  0.00     0.046 A 
HETATM    3  C3  UNL     1      -5.026 -33.686 -28.754  1.00  0.00     0.030 A 
HETATM    4  C8  UNL     1      -5.154 -34.792 -27.940  1.00  0.00    -0.007 A 
HETATM    5  C9  UNL     1      -5.789 -34.672 -26.710  1.00  0.00     0.014 A 
HETATM    6  C10 UNL     1      -5.930 -35.764 -25.876  1.00  0.00     0.001 A 
HETATM    7  C11 UNL     1      -5.445 -37.004 -26.237  1.00  0.00     0.001 A 
HETATM    8  C12 UNL     1      -4.815 -37.125 -27.457  1.00  0.00     0.012 A 
HETATM    9  C13 UNL     1      -4.665 -36.045 -28.301  1.00  0.00    -0.023 A 
HETATM   10  C14 UNL     1      -4.035 -36.141 -29.532  1.00  0.00     0.037 A 
ENDROOT
BRANCH   1  11
HETATM   11  S1  UNL     1      -3.083 -35.221 -31.925  1.00  0.00     0.256 S 
HETATM   12  O1  UNL     1      -3.157 -33.923 -32.680  1.00  0.00    -0.201 OA
HETATM   13  O2  UNL     1      -1.644 -35.634 -31.700  1.00  0.00    -0.201 OA
BRANCH  11  14
HETATM   14  N1  UNL     1      -3.841 -36.434 -32.880  1.00  0.00    -0.324 N 
ATOM     15  H12 UNL     1      -3.385 -36.977 -33.613  1.00  0.00     0.169 HD
ATOM     16  H11 UNL     1      -4.814 -36.507 -32.581  1.00  0.00     0.169 HD
ENDBRANCH  11  14
ENDBRANCH   1  11
BRANCH   3  17
HETATM   17  C4  UNL     1      -5.538 -32.395 -28.364  1.00  0.00    -0.057 C 
HETATM   18  C5  UNL     1      -5.977 -31.322 -28.021  1.00  0.00    -0.016 C 
BRANCH  18  19
HETATM   19  C6  UNL     1      -6.485 -30.031 -27.609  1.00  0.00     0.263 C 
HETATM   20  O3  UNL     1      -7.503 -29.532 -28.189  1.00  0.00    -0.275 OA
BRANCH  19  21
HETATM   21  C7  UNL     1      -5.831 -29.318 -26.539  1.00  0.00     0.323 C 
HETATM   22  O4  UNL     1      -4.631 -29.524 -26.285  1.00  0.00    -0.297 OA
ENDBRANCH  19  21
ENDBRANCH  18  19
ENDBRANCH   3  17
TORSDOF 5
ENDMDL
MODEL 2
REMARK VINA RESULT: -8.107407266      0.693      1.353
REMARK  5 active torsions:
REMARK  status: ('A' for Active; 'I' for Inactive)
REMARK    1  A    between atoms: N1_1  and  S1_4 
REMARK    2  A    between atoms: S1_4  and  C1_7 
REMARK    3  A    between atoms: C3_9  and  C4_10 
REMARK    4  A    between atoms: C5_11  and  C6_12 
REMARK    5  A    between atoms: C6_12  and  C7_14 
ROOT
HETATM    1  C1  UNL     1      -4.025 -34.865 -30.331  1.00  0.00     0.081 A 
HETATM    2  C2  UNL     1      -4.584 -33.689 -29.882  1.00  0.00     0.046 A 
HETATM    3  C3  UNL     1      -5.208 -33.578 -28.658  1.00  0.00     0.030 A 
HETATM    4  C8  UNL     1      -5.261 -34.707 -27.868  1.00  0.00    -0.007 A 
HETATM    5  C9  UNL     1      -5.878 -34.649 -26.623  1.00  0.00     0.014 A 
HETATM    6  C10 UNL     1      -5.944 -35.766 -25.813  1.00  0.00     0.001 A 
HETATM    7  C11 UNL     1      -5.400 -36.970 -26.211  1.00  0.00     0.001 A 
HETATM    8  C12 UNL     1      -4.788 -37.029 -27.445  1.00  0.00     0.012 A 
HETATM    9  C13 UNL     1      -4.713 -35.923 -28.266  1.00  0.00    -0.023 A 
HETATM   10  C14 UNL     1      -4.102 -35.958 -29.510  1.00  0.00     0.037 A 
ENDROOT
BRANCH   1  11
HETATM   11  S1  UNL     1      -3.248 -34.934 -31.898  1.00  0.00     0.256 S 
HETATM   12  O1  UNL     1      -3.567 -33.702 -32.698  1.00  0.00    -0.201 OA
HETATM   13  O2  UNL     1      -1.753 -35.078 -31.703  1.00  0.00    -0.201 OA
BRANCH  11  14
HETATM   14  N1  UNL     1      -3.802 -36.300 -32.784  1.00  0.00    -0.324 N 
ATOM     15  H12 UNL     1      -4.296 -36.263 -33.676  1.00  0.00     0.169 HD
ATOM     16  H11 UNL     1      -3.548 -37.138 -32.261  1.00  0.00     0.169 HD
ENDBRANCH  11  14
ENDBRANCH   1  11
BRANCH   3  17
HETATM   17  C4  UNL     1      -5.781 -32.326 -28.228  1.00  0.00    -0.057 C 
HETATM   18  C5  UNL     1      -6.275 -31.286 -27.857  1.00  0.00    -0.016 C 
BRANCH  18  19
HETATM   19  C6  UNL     1      -6.851 -30.038 -27.405  1.00  0.00     0.263 C 
HETATM   20  O3  UNL     1      -6.208 -29.294 -26.597  1.00  0.00    -0.275 OA
BRANCH  19  21
HETATM   21  C7  UNL     1      -8.157 -29.646 -27.878  1.00  0.00     0.323 C 
HETATM   22  O4  UNL     1      -8.793 -30.380 -28.654  1.00  0.00    -0.297 OA
ENDBRANCH  19  21
ENDBRANCH  18  19
ENDBRANCH   3  17
TORSDOF 5
ENDMDL
MODEL 3
REMARK VINA RESULT: -7.403812769      1.341      1.860
REMARK  5 active torsions:
REMARK  status: ('A' for Active; 'I' for Inactive)
REMARK    1  A    between atoms: N1_1  and  S1_4 
REMARK    2  A    between atoms: S1_4  and  C1_7 
REMARK    3  A    between atoms: C3_9  and  C4_10 
REMARK    4  A    between atoms: C5_11  and  C6_12 
REMARK    5  A    between atoms: C6_12  and  C7_14 
ROOT
HETATM    1  C1  UNL     1      -4.194 -34.817 -30.288  1.00  0.00     0.081 A 
HETATM    2  C2  UNL     1      -4.942 -33.706 -29.968  1.00  0.00     0.046 A 
HETATM    3  C3  UNL     1      -5.606 -33.573 -28.767  1.00  0.00     0.030 A 
HETATM    4  C8  UNL     1      -5.501 -34.612 -27.865  1.00  0.00    -0.007 A 
HETATM    5  C9  UNL     1      -6.151 -34.529 -26.640  1.00  0.00     0.014 A 
HETATM    6  C10 UNL     1      -6.062 -35.555 -25.720  1.00  0.00     0.001 A 
HETATM    7  C11 UNL     1      -5.326 -36.691 -25.987  1.00  0.00     0.001 A 
HETATM    8  C12 UNL     1      -4.681 -36.776 -27.203  1.00  0.00     0.012 A 
HETATM    9  C13 UNL     1      -4.759 -35.759 -28.132  1.00  0.00    -0.023 A 
HETATM   10  C14 UNL     1      -4.120 -35.821 -29.361  1.00  0.00     0.037 A 
ENDROOT
BRANCH   1  11
HETATM   11  S1  UNL     1      -3.376 -34.918 -31.832  1.00  0.00     0.256 S 
HETATM   12  O1  UNL     1      -1.885 -34.929 -31.638  1.00  0.00    -0.201 OA
HETATM   13  O2  UNL     1      -3.835 -36.167 -32.554  1.00  0.00    -0.201 OA
BRANCH  11  14
HETATM   14  N1  UNL     1      -3.773 -33.561 -32.813  1.00  0.00    -0.324 N 
ATOM     15  H12 UNL     1      -3.134 -32.806 -33.059  1.00  0.00     0.169 HD
ATOM     16  H11 UNL     1      -4.748 -33.653 -33.096  1.00  0.00     0.169 HD
ENDBRANCH  11  14
ENDBRANCH   1  11
BRANCH   3  17
HETATM   17  C4  UNL     1      -6.379 -32.391 -28.473  1.00  0.00    -0.057 C 
HETATM   18  C5  UNL     1      -7.012 -31.394 -28.214  1.00  0.00    -0.016 C 
BRANCH  18  19
HETATM   19  C6  UNL     1      -7.770 -30.196 -27.922  1.00  0.00     0.263 C 
HETATM   20  O3  UNL     1      -7.292 -29.052 -28.213  1.00  0.00    -0.275 OA
BRANCH  19  21
HETATM   21  C7  UNL     1      -9.066 -30.310 -27.299  1.00  0.00     0.323 C 
HETATM   22  O4  UNL     1     -10.033 -30.764 -27.934  1.00  0.00    -0.297 OA
ENDBRANCH  19  21
ENDBRANCH  18  19
ENDBRANCH   3  17
TORSDOF 5
ENDMDL
MODEL 4
REMARK VINA RESULT: -7.177687160      3.012      6.032
REMARK  5 active torsions:
REMARK  status: ('A' for Active; 'I' for Inactive)
REMARK    1  A    between atoms: N1_1  and  S1_4 
REMARK    2  A    between atoms: S1_4  and  C1_7 
REMARK    3  A    between atoms: C3_9  and  C4_10 
REMARK    4  A    between atoms: C5_11  and  C6_12 
REMARK    5  A    between atoms: C6_12  and  C7_14 
ROOT
HETATM    1  C1  UNL     1      -5.291 -32.026 -27.623  1.00  0.00     0.081 A 
HETATM    2  C2  UNL     1      -4.746 -32.504 -28.794  1.00  0.00     0.046 A 
HETATM    3  C3  UNL     1      -4.549 -33.848 -29.034  1.00  0.00     0.030 A 
HETATM    4  C8  UNL     1      -4.923 -34.730 -28.042  1.00  0.00    -0.007 A 
HETATM    5  C9  UNL     1      -4.747 -36.096 -28.233  1.00  0.00     0.014 A 
HETATM    6  C10 UNL     1      -5.113 -37.000 -27.255  1.00  0.00     0.001 A 
HETATM    7  C11 UNL     1      -5.664 -36.578 -26.063  1.00  0.00     0.001 A 
HETATM    8  C12 UNL     1      -5.839 -35.224 -25.872  1.00  0.00     0.012 A 
HETATM    9  C13 UNL     1      -5.480 -34.308 -26.838  1.00  0.00    -0.023 A 
HETATM   10  C14 UNL     1      -5.646 -32.942 -26.670  1.00  0.00     0.037 A 
ENDROOT
BRANCH   1  11
HETATM   11  S1  UNL     1      -5.512 -30.306 -27.387  1.00  0.00     0.256 S 
HETATM   12  O1  UNL     1      -4.798 -29.532 -28.460  1.00  0.00    -0.201 OA
HETATM   13  O2  UNL     1      -6.994 -29.993 -27.391  1.00  0.00    -0.201 OA
BRANCH  11  14
HETATM   14  N1  UNL     1      -4.871 -29.821 -25.867  1.00  0.00    -0.324 N 
ATOM     15  H12 UNL     1      -4.670 -28.859 -25.593  1.00  0.00     0.169 HD
ATOM     16  H11 UNL     1      -4.731 -30.659 -25.303  1.00  0.00     0.169 HD
ENDBRANCH  11  14
ENDBRANCH   1  11
BRANCH   3  17
HETATM   17  C4  UNL     1      -3.974 -34.304 -30.276  1.00  0.00    -0.057 C 
HETATM   18  C5  UNL     1      -3.492 -34.705 -31.310  1.00  0.00    -0.016 C 
BRANCH  18  19
HETATM   19  C6  UNL     1      -2.929 -35.179 -32.556  1.00  0.00     0.263 C 
HETATM   20  O3  UNL     1      -2.251 -34.390 -33.290  1.00  0.00    -0.275 OA
BRANCH  19  21
HETATM   21  C7  UNL     1      -3.143 -36.549 -32.956  1.00  0.00     0.323 C 
HETATM   22  O4  UNL     1      -2.360 -37.104 -33.747  1.00  0.00    -0.297 OA
ENDBRANCH  19  21
ENDBRANCH  18  19
ENDBRANCH   3  17
TORSDOF 5
ENDMDL
MODEL 5
REMARK VINA RESULT: -4.769181344      8.056     10.806
REMARK  5 active torsions:
REMARK  status: ('A' for Active; 'I' for Inactive)
REMARK    1  A    between atoms: N1_1  and  S1_4 
REMARK    2  A    between atoms: S1_4  and  C1_7 
REMARK    3  A    between atoms: C3_9  and  C4_10 
REMARK    4  A    between atoms: C5_11  and  C6_12 
REMARK    5  A    between atoms: C6_12  and  C7_14 
ROOT
HETATM    1  C1  UNL     1      -3.538 -26.707 -32.648  1.00  0.00     0.081 A 
HETATM    2  C2  UNL     1      -2.818 -27.766 -33.155  1.00  0.00     0.046 A 
HETATM    3  C3  UNL     1      -2.827 -28.105 -34.491  1.00  0.00     0.030 A 
HETATM    4  C8  UNL     1      -3.599 -27.335 -35.336  1.00  0.00    -0.007 A 
HETATM    5  C9  UNL     1      -3.643 -27.633 -36.693  1.00  0.00     0.014 A 
HETATM    6  C10 UNL     1      -4.408 -26.877 -37.559  1.00  0.00     0.001 A 
HETATM    7  C11 UNL     1      -5.149 -25.804 -37.107  1.00  0.00     0.001 A 
HETATM    8  C12 UNL     1      -5.106 -25.507 -35.762  1.00  0.00     0.012 A 
HETATM    9  C13 UNL     1      -4.347 -26.252 -34.883  1.00  0.00    -0.023 A 
HETATM   10  C14 UNL     1      -4.288 -25.972 -33.526  1.00  0.00     0.037 A 
ENDROOT
BRANCH   1  11
HETATM   11  S1  UNL     1      -3.479 -26.333 -30.939  1.00  0.00     0.256 S 
HETATM   12  O1  UNL     1      -2.123 -25.802 -30.564  1.00  0.00    -0.201 OA
HETATM   13  O2  UNL     1      -4.562 -25.326 -30.616  1.00  0.00    -0.201 OA
BRANCH  11  14
HETATM   14  N1  UNL     1      -3.771 -27.747 -30.004  1.00  0.00    -0.324 N 
ATOM     15  H12 UNL     1      -3.566 -27.849 -29.011  1.00  0.00     0.169 HD
ATOM     16  H11 UNL     1      -4.180 -28.451 -30.619  1.00  0.00     0.169 HD
ENDBRANCH  11  14
ENDBRANCH   1  11
BRANCH   3  17
HETATM   17  C4  UNL     1      -2.058 -29.224 -34.979  1.00  0.00    -0.057 C 
HETATM   18  C5  UNL     1      -1.425 -30.163 -35.403  1.00  0.00    -0.016 C 
BRANCH  18  19
HETATM   19  C6  UNL     1      -0.654 -31.277 -35.912  1.00  0.00     0.263 C 
HETATM   20  O3  UNL     1       0.563 -31.110 -36.247  1.00  0.00    -0.275 OA
BRANCH  19  21
HETATM   21  C7  UNL     1      -1.275 -32.574 -36.035  1.00  0.00     0.323 C 
HETATM   22  O4  UNL     1      -1.713 -33.161 -35.030  1.00  0.00    -0.297 OA
ENDBRANCH  19  21
ENDBRANCH  18  19
ENDBRANCH   3  17
TORSDOF 5
ENDMDL
