MODEL 1
REMARK VINA RESULT: -6.481675395      0.000      0.000
REMARK  4 active torsions:
REMARK  status: ('A' for Active; 'I' for Inactive)
REMARK    1  A    between atoms: S1_2  and  N1_5 
REMARK    2  A    between atoms: N1_5  and  C2_7 
REMARK    3  A    between atoms: C4_11  and  C5_12 
REMARK    4  A    between atoms: C6_13  and  C7_14 
ROOT
HETATM    1  C2  UNL     1      -2.383 -35.499 -34.663  1.00  0.00     0.691 A 
HETATM    2  N2  UNL     1      -2.779 -36.628 -34.053  1.00  0.00    -0.200 N 
ATOM      3  H2  UNL     1      -2.762 -37.501 -34.580  1.00  0.00     0.183 HD
HETATM    4  C3  UNL     1      -3.197 -36.651 -32.776  1.00  0.00     0.128 A 
HETATM    5  C4  UNL     1      -3.224 -35.475 -32.051  1.00  0.00     0.050 A 
HETATM    6  C13 UNL     1      -2.823 -34.325 -32.662  1.00  0.00     0.128 A 
HETATM    7  N3  UNL     1      -2.409 -34.355 -33.958  1.00  0.00    -0.200 N 
ATOM      8  H3  UNL     1      -2.112 -33.488 -34.405  1.00  0.00     0.183 HD
ENDROOT
BRANCH   5   9
HETATM    9  C5  UNL     1      -3.676 -35.503 -30.670  1.00  0.00    -0.059 C 
HETATM   10  C6  UNL     1      -4.039 -35.510 -29.520  1.00  0.00    -0.061 C 
BRANCH  10  11
HETATM   11  C7  UNL     1      -4.456 -35.499 -28.147  1.00  0.00     0.018 A 
HETATM   12  C8  UNL     1      -5.391 -36.389 -27.635  1.00  0.00     0.020 A 
HETATM   13  C9  UNL     1      -5.773 -36.356 -26.311  1.00  0.00     0.001 A 
HETATM   14  C10 UNL     1      -5.201 -35.409 -25.492  1.00  0.00     0.000 A 
HETATM   15  C11 UNL     1      -4.274 -34.506 -25.946  1.00  0.00     0.001 A 
HETATM   16  C12 UNL     1      -3.917 -34.575 -27.287  1.00  0.00     0.020 A 
ENDBRANCH  10  11
ENDBRANCH   5   9
BRANCH   1  17
HETATM   17  N1  UNL     1      -1.977 -35.440 -35.884  1.00  0.00    -0.117 N 
ATOM     18  H1  UNL     1      -2.014 -36.299 -36.434  1.00  0.00     0.197 HD
BRANCH  17  19
HETATM   19  S1  UNL     1      -1.385 -34.039 -36.651  1.00  0.00     0.240 S 
HETATM   20  C1  UNL     1       0.120 -34.396 -37.557  1.00  0.00     0.186 C 
HETATM   21  O1  UNL     1      -2.379 -33.357 -37.514  1.00  0.00    -0.206 OA
HETATM   22  O2  UNL     1      -0.994 -33.055 -35.558  1.00  0.00    -0.206 OA
ENDBRANCH  17  19
ENDBRANCH   1  17
TORSDOF 4
ENDMDL
MODEL 2
REMARK VINA RESULT: -6.480514440      0.124      1.099
REMARK  4 active torsions:
REMARK  status: ('A' for Active; 'I' for Inactive)
REMARK    1  A    between atoms: S1_2  and  N1_5 
REMARK    2  A    between atoms: N1_5  and  C2_7 
REMARK    3  A    between atoms: C4_11  and  C5_12 
REMARK    4  A    between atoms: C6_13  and  C7_14 
ROOT
HETATM    1  C2  UNL     1      -2.442 -35.558 -34.637  1.00  0.00     0.691 A 
HETATM    2  N2  UNL     1      -2.950 -36.648 -34.041  1.00  0.00    -0.200 N 
ATOM      3  H2  UNL     1      -3.035 -37.509 -34.582  1.00  0.00     0.183 HD
HETATM    4  C3  UNL     1      -3.350 -36.651 -32.757  1.00  0.00     0.128 A 
HETATM    5  C4  UNL     1      -3.240 -35.492 -32.013  1.00  0.00     0.050 A 
HETATM    6  C13 UNL     1      -2.726 -34.381 -32.610  1.00  0.00     0.128 A 
HETATM    7  N3  UNL     1      -2.335 -34.431 -33.912  1.00  0.00    -0.200 N 
ATOM      8  H3  UNL     1      -1.952 -33.593 -34.349  1.00  0.00     0.183 HD
ENDROOT
BRANCH   5   9
HETATM    9  C5  UNL     1      -3.673 -35.497 -30.625  1.00  0.00    -0.059 C 
HETATM   10  C6  UNL     1      -4.026 -35.481 -29.472  1.00  0.00    -0.061 C 
BRANCH  10  11
HETATM   11  C7  UNL     1      -4.439 -35.439 -28.099  1.00  0.00     0.018 A 
HETATM   12  C8  UNL     1      -3.867 -34.588 -27.163  1.00  0.00     0.020 A 
HETATM   13  C9  UNL     1      -4.284 -34.569 -25.850  1.00  0.00     0.001 A 
HETATM   14  C10 UNL     1      -5.296 -35.423 -25.476  1.00  0.00     0.000 A 
HETATM   15  C11 UNL     1      -5.897 -36.284 -26.358  1.00  0.00     0.001 A 
HETATM   16  C12 UNL     1      -5.445 -36.270 -27.673  1.00  0.00     0.020 A 
ENDBRANCH  10  11
ENDBRANCH   5   9
BRANCH   1  17
HETATM   17  N1  UNL     1      -2.050 -35.521 -35.864  1.00  0.00    -0.117 N 
ATOM     18  H1  UNL     1      -2.075 -36.392 -36.393  1.00  0.00     0.197 HD
BRANCH  17  19
HETATM   19  S1  UNL     1      -1.492 -34.127 -36.669  1.00  0.00     0.240 S 
HETATM   20  C1  UNL     1       0.026 -34.470 -37.559  1.00  0.00     0.186 C 
HETATM   21  O1  UNL     1      -2.500 -33.497 -37.555  1.00  0.00    -0.206 OA
HETATM   22  O2  UNL     1      -1.131 -33.102 -35.604  1.00  0.00    -0.206 OA
ENDBRANCH  17  19
ENDBRANCH   1  17
TORSDOF 4
ENDMDL
MODEL 3
REMARK VINA RESULT: -6.443325064      0.340      1.122
REMARK  4 active torsions:
REMARK  status: ('A' for Active; 'I' for Inactive)
REMARK    1  A    between atoms: S1_2  and  N1_5 
REMARK    2  A    between atoms: N1_5  and  C2_7 
REMARK    3  A    between atoms: C4_11  and  C5_12 
REMARK    4  A    between atoms: C6_13  and  C7_14 
ROOT
HETATM    1  C2  UNL     1      -2.547 -35.518 -34.492  1.00  0.00     0.691 A 
HETATM    2  N2  UNL     1      -2.528 -34.374 -33.789  1.00  0.00    -0.200 N 
ATOM      3  H2  UNL     1      -2.213 -33.520 -34.250  1.00  0.00     0.183 HD
HETATM    4  C3  UNL     1      -2.908 -34.310 -32.501  1.00  0.00     0.128 A 
HETATM    5  C4  UNL     1      -3.337 -35.458 -31.865  1.00  0.00     0.050 A 
HETATM    6  C13 UNL     1      -3.361 -36.623 -32.570  1.00  0.00     0.128 A 
HETATM    7  N3  UNL     1      -2.965 -36.635 -33.872  1.00  0.00    -0.200 N 
ATOM      8  H3  UNL     1      -2.986 -37.513 -34.390  1.00  0.00     0.183 HD
ENDROOT
BRANCH   5   9
HETATM    9  C5  UNL     1      -3.748 -35.386 -30.472  1.00  0.00    -0.059 C 
HETATM   10  C6  UNL     1      -4.069 -35.327 -29.311  1.00  0.00    -0.061 C 
BRANCH  10  11
HETATM   11  C7  UNL     1      -4.428 -35.257 -27.924  1.00  0.00     0.018 A 
HETATM   12  C8  UNL     1      -5.431 -36.036 -27.363  1.00  0.00     0.020 A 
HETATM   13  C9  UNL     1      -5.754 -35.948 -26.025  1.00  0.00     0.001 A 
HETATM   14  C10 UNL     1      -5.053 -35.059 -25.244  1.00  0.00     0.000 A 
HETATM   15  C11 UNL     1      -4.053 -34.266 -25.746  1.00  0.00     0.001 A 
HETATM   16  C12 UNL     1      -3.760 -34.387 -27.099  1.00  0.00     0.020 A 
ENDBRANCH  10  11
ENDBRANCH   5   9
BRANCH   1  17
HETATM   17  N1  UNL     1      -2.190 -35.615 -35.726  1.00  0.00    -0.117 N 
ATOM     18  H1  UNL     1      -2.325 -36.517 -36.184  1.00  0.00     0.197 HD
BRANCH  17  19
HETATM   19  S1  UNL     1      -1.511 -34.355 -36.650  1.00  0.00     0.240 S 
HETATM   20  C1  UNL     1      -0.078 -34.933 -37.559  1.00  0.00     0.186 C 
HETATM   21  O1  UNL     1      -2.477 -33.677 -37.548  1.00  0.00    -0.206 OA
HETATM   22  O2  UNL     1      -0.996 -33.306 -35.676  1.00  0.00    -0.206 OA
ENDBRANCH  17  19
ENDBRANCH   1  17
TORSDOF 4
ENDMDL
MODEL 4
REMARK VINA RESULT: -6.392010716      0.349      1.564
REMARK  4 active torsions:
REMARK  status: ('A' for Active; 'I' for Inactive)
REMARK    1  A    between atoms: S1_2  and  N1_5 
REMARK    2  A    between atoms: N1_5  and  C2_7 
REMARK    3  A    between atoms: C4_11  and  C5_12 
REMARK    4  A    between atoms: C6_13  and  C7_14 
ROOT
HETATM    1  C2  UNL     1      -2.559 -35.527 -34.464  1.00  0.00     0.691 A 
HETATM    2  N2  UNL     1      -2.566 -34.380 -33.767  1.00  0.00    -0.200 N 
ATOM      3  H2  UNL     1      -2.281 -33.519 -34.236  1.00  0.00     0.183 HD
HETATM    4  C3  UNL     1      -2.934 -34.319 -32.476  1.00  0.00     0.128 A 
HETATM    5  C4  UNL     1      -3.323 -35.476 -31.829  1.00  0.00     0.050 A 
HETATM    6  C13 UNL     1      -3.319 -36.646 -32.528  1.00  0.00     0.128 A 
HETATM    7  N3  UNL     1      -2.937 -36.653 -33.834  1.00  0.00    -0.200 N 
ATOM      8  H3  UNL     1      -2.937 -37.534 -34.347  1.00  0.00     0.183 HD
ENDROOT
BRANCH   5   9
HETATM    9  C5  UNL     1      -3.721 -35.409 -30.433  1.00  0.00    -0.059 C 
HETATM   10  C6  UNL     1      -4.032 -35.349 -29.268  1.00  0.00    -0.061 C 
BRANCH  10  11
HETATM   11  C7  UNL     1      -4.379 -35.275 -27.878  1.00  0.00     0.018 A 
HETATM   12  C8  UNL     1      -3.685 -34.489 -26.968  1.00  0.00     0.020 A 
HETATM   13  C9  UNL     1      -4.041 -34.436 -25.637  1.00  0.00     0.001 A 
HETATM   14  C10 UNL     1      -5.114 -35.189 -25.221  1.00  0.00     0.000 A 
HETATM   15  C11 UNL     1      -5.835 -35.982 -26.077  1.00  0.00     0.001 A 
HETATM   16  C12 UNL     1      -5.442 -36.005 -27.410  1.00  0.00     0.020 A 
ENDBRANCH  10  11
ENDBRANCH   5   9
BRANCH   1  17
HETATM   17  N1  UNL     1      -2.212 -35.621 -35.701  1.00  0.00    -0.117 N 
ATOM     18  H1  UNL     1      -2.331 -36.527 -36.155  1.00  0.00     0.197 HD
BRANCH  17  19
HETATM   19  S1  UNL     1      -1.569 -34.349 -36.635  1.00  0.00     0.240 S 
HETATM   20  C1  UNL     1      -0.135 -34.899 -37.559  1.00  0.00     0.186 C 
HETATM   21  O1  UNL     1      -2.559 -33.694 -37.524  1.00  0.00    -0.206 OA
HETATM   22  O2  UNL     1      -1.065 -33.287 -35.670  1.00  0.00    -0.206 OA
ENDBRANCH  17  19
ENDBRANCH   1  17
TORSDOF 4
ENDMDL
MODEL 5
REMARK VINA RESULT: -5.958147598      6.259      7.601
REMARK  4 active torsions:
REMARK  status: ('A' for Active; 'I' for Inactive)
REMARK    1  A    between atoms: S1_2  and  N1_5 
REMARK    2  A    between atoms: N1_5  and  C2_7 
REMARK    3  A    between atoms: C4_11  and  C5_12 
REMARK    4  A    between atoms: C6_13  and  C7_14 
ROOT
HETATM    1  C2  UNL     1      -0.969 -33.126 -36.243  1.00  0.00     0.691 A 
HETATM    2  N2  UNL     1      -0.283 -31.972 -36.241  1.00  0.00    -0.200 N 
ATOM      3  H2  UNL     1       0.672 -31.969 -36.600  1.00  0.00     0.183 HD
HETATM    4  C3  UNL     1      -0.805 -30.821 -35.785  1.00  0.00     0.128 A 
HETATM    5  C4  UNL     1      -2.097 -30.811 -35.296  1.00  0.00     0.050 A 
HETATM    6  C13 UNL     1      -2.801 -31.977 -35.294  1.00  0.00     0.128 A 
HETATM    7  N3  UNL     1      -2.227 -33.116 -35.768  1.00  0.00    -0.200 N 
ATOM      8  H3  UNL     1      -2.763 -33.984 -35.761  1.00  0.00     0.183 HD
ENDROOT
BRANCH   5   9
HETATM    9  C5  UNL     1      -2.660 -29.565 -34.803  1.00  0.00    -0.059 C 
HETATM   10  C6  UNL     1      -3.142 -28.541 -34.385  1.00  0.00    -0.061 C 
BRANCH  10  11
HETATM   11  C7  UNL     1      -3.733 -27.337 -33.877  1.00  0.00     0.018 A 
HETATM   12  C8  UNL     1      -4.599 -26.548 -34.622  1.00  0.00     0.020 A 
HETATM   13  C9  UNL     1      -5.153 -25.395 -34.108  1.00  0.00     0.001 A 
HETATM   14  C10 UNL     1      -4.827 -25.034 -32.821  1.00  0.00     0.000 A 
HETATM   15  C11 UNL     1      -3.978 -25.777 -32.040  1.00  0.00     0.001 A 
HETATM   16  C12 UNL     1      -3.442 -26.931 -32.598  1.00  0.00     0.020 A 
ENDBRANCH  10  11
ENDBRANCH   5   9
BRANCH   1  17
HETATM   17  N1  UNL     1      -0.501 -34.246 -36.673  1.00  0.00    -0.117 N 
ATOM     18  H1  UNL     1       0.460 -34.254 -37.017  1.00  0.00     0.197 HD
BRANCH  17  19
HETATM   19  S1  UNL     1      -1.361 -35.717 -36.708  1.00  0.00     0.240 S 
HETATM   20  C1  UNL     1      -0.413 -36.989 -37.542  1.00  0.00     0.186 C 
HETATM   21  O1  UNL     1      -1.821 -36.180 -35.376  1.00  0.00    -0.206 OA
HETATM   22  O2  UNL     1      -2.604 -35.494 -37.557  1.00  0.00    -0.206 OA
ENDBRANCH  17  19
ENDBRANCH   1  17
TORSDOF 4
ENDMDL
