MODEL 1
REMARK VINA RESULT: -8.183262993      0.000      0.000
REMARK  4 active torsions:
REMARK  status: ('A' for Active; 'I' for Inactive)
REMARK    1  A    between atoms: C2_2  and  N1_3 
REMARK    2  A    between atoms: C4_12  and  N3_13 
REMARK    3  A    between atoms: N3_13  and  C5_15 
REMARK    4  A    between atoms: C5_15  and  C6_16 
ROOT
HETATM    1  N1  UNL     1      17.338  79.407   2.135  1.00  0.00    -0.364 N 
ATOM      2  H1  UNL     1      17.169  79.158   3.110  1.00  0.00     0.162 HD
HETATM    3  C3  UNL     1      18.258  80.260   1.872  1.00  0.00     0.204 C 
HETATM    4  O1  UNL     1      18.591  80.687   0.586  1.00  0.00    -0.191 OA
HETATM    5  S1  UNL     1      19.702  81.960   0.351  1.00  0.00     0.370 S 
HETATM    6  O2  UNL     1      19.308  82.691  -0.901  1.00  0.00    -0.175 OA
HETATM    7  O3  UNL     1      21.087  81.366   0.238  1.00  0.00    -0.175 OA
HETATM    8  N2  UNL     1      19.702  83.061   1.646  1.00  0.00    -0.241 N 
ATOM      9  H2  UNL     1      19.872  84.048   1.453  1.00  0.00     0.183 HD
HETATM   10  C4  UNL     1      19.494  82.694   2.856  1.00  0.00     0.159 C 
HETATM   11  S3  UNL     1      19.196  80.972   3.194  1.00  0.00    -0.009 SA
ENDROOT
BRANCH  10  12
HETATM   12  N3  UNL     1      19.500  83.641   3.919  1.00  0.00    -0.365 N 
ATOM     13  H3  UNL     1      19.120  83.363   4.824  1.00  0.00     0.162 HD
BRANCH  12  14
HETATM   14  C5  UNL     1      20.023  84.980   3.767  1.00  0.00     0.168 C 
BRANCH  14  15
HETATM   15  C6  UNL     1      21.263  85.071   4.619  1.00  0.00     0.007 A 
HETATM   16  S2  UNL     1      22.895  85.094   4.130  1.00  0.00    -0.104 SA
HETATM   17  C7  UNL     1      23.632  85.209   5.662  1.00  0.00     0.057 A 
HETATM   18  C8  UNL     1      22.567  85.226   6.517  1.00  0.00    -0.044 A 
HETATM   19  C9  UNL     1      21.338  85.156   5.989  1.00  0.00    -0.037 A 
HETATM   20  C13 UNL     1      22.659  85.319   8.032  1.00  0.00     0.040 C 
HETATM   21  C10 UNL     1      20.154  85.177   6.953  1.00  0.00     0.040 C 
HETATM   22  C11 UNL     1      20.387  84.275   8.125  1.00  0.00     0.005 C 
HETATM   23  C12 UNL     1      21.794  84.215   8.596  1.00  0.00     0.005 C 
ENDBRANCH  14  15
ENDBRANCH  12  14
ENDBRANCH  10  12
BRANCH   1  24
HETATM   24  C2  UNL     1      16.527  78.781   1.111  1.00  0.00     0.118 C 
HETATM   25  C1  UNL     1      17.221  77.628   0.454  1.00  0.00     0.026 C 
ENDBRANCH   1  24
TORSDOF 4
ENDMDL
MODEL 2
REMARK VINA RESULT: -7.823567060      2.405      2.691
REMARK  4 active torsions:
REMARK  status: ('A' for Active; 'I' for Inactive)
REMARK    1  A    between atoms: C2_2  and  N1_3 
REMARK    2  A    between atoms: C4_12  and  N3_13 
REMARK    3  A    between atoms: N3_13  and  C5_15 
REMARK    4  A    between atoms: C5_15  and  C6_16 
ROOT
HETATM    1  N1  UNL     1      16.813  82.773  -1.216  1.00  0.00    -0.364 N 
ATOM      2  H1  UNL     1      16.037  82.730  -0.555  1.00  0.00     0.162 HD
HETATM    3  C3  UNL     1      17.974  82.397  -0.820  1.00  0.00     0.204 C 
HETATM    4  O1  UNL     1      19.117  82.404  -1.619  1.00  0.00    -0.191 OA
HETATM    5  S1  UNL     1      20.649  82.061  -0.950  1.00  0.00     0.370 S 
HETATM    6  O2  UNL     1      21.674  82.848  -1.718  1.00  0.00    -0.175 OA
HETATM    7  O3  UNL     1      20.891  80.573  -1.057  1.00  0.00    -0.175 OA
HETATM    8  N2  UNL     1      20.746  82.497   0.690  1.00  0.00    -0.241 N 
ATOM      9  H2  UNL     1      21.636  82.836   1.058  1.00  0.00     0.183 HD
HETATM   10  C4  UNL     1      19.742  82.415   1.480  1.00  0.00     0.159 C 
HETATM   11  S3  UNL     1      18.189  81.824   0.841  1.00  0.00    -0.009 SA
ENDROOT
BRANCH  10  12
HETATM   12  N3  UNL     1      19.855  82.788   2.850  1.00  0.00    -0.365 N 
ATOM     13  H3  UNL     1      20.314  82.146   3.496  1.00  0.00     0.162 HD
BRANCH  12  14
HETATM   14  C5  UNL     1      19.345  84.041   3.359  1.00  0.00     0.168 C 
BRANCH  14  15
HETATM   15  C6  UNL     1      20.386  84.591   4.303  1.00  0.00     0.007 A 
HETATM   16  S2  UNL     1      21.945  85.178   3.947  1.00  0.00    -0.104 SA
HETATM   17  C7  UNL     1      22.442  85.591   5.523  1.00  0.00     0.057 A 
HETATM   18  C8  UNL     1      21.361  85.254   6.287  1.00  0.00    -0.044 A 
HETATM   19  C9  UNL     1      20.292  84.736   5.666  1.00  0.00    -0.037 A 
HETATM   20  C13 UNL     1      21.267  85.416   7.796  1.00  0.00     0.040 C 
HETATM   21  C10 UNL     1      19.088  84.363   6.528  1.00  0.00     0.040 C 
HETATM   22  C11 UNL     1      19.508  83.635   7.768  1.00  0.00     0.005 C 
HETATM   23  C12 UNL     1      20.793  84.093   8.354  1.00  0.00     0.005 C 
ENDBRANCH  14  15
ENDBRANCH  12  14
ENDBRANCH  10  12
BRANCH   1  24
HETATM   24  C2  UNL     1      16.555  83.254  -2.557  1.00  0.00     0.118 C 
HETATM   25  C1  UNL     1      15.198  82.865  -3.056  1.00  0.00     0.026 C 
ENDBRANCH   1  24
TORSDOF 4
ENDMDL
MODEL 3
REMARK VINA RESULT: -7.773988317      4.391      5.800
REMARK  4 active torsions:
REMARK  status: ('A' for Active; 'I' for Inactive)
REMARK    1  A    between atoms: C2_2  and  N1_3 
REMARK    2  A    between atoms: C4_12  and  N3_13 
REMARK    3  A    between atoms: N3_13  and  C5_15 
REMARK    4  A    between atoms: C5_15  and  C6_16 
ROOT
HETATM    1  N1  UNL     1      23.200  83.724  -1.005  1.00  0.00    -0.364 N 
ATOM      2  H1  UNL     1      22.245  83.634  -0.655  1.00  0.00     0.162 HD
HETATM    3  C3  UNL     1      24.170  83.462  -0.209  1.00  0.00     0.204 C 
HETATM    4  O1  UNL     1      25.518  83.543  -0.558  1.00  0.00    -0.191 OA
HETATM    5  S1  UNL     1      26.737  83.355   0.621  1.00  0.00     0.370 S 
HETATM    6  O2  UNL     1      27.908  84.203   0.214  1.00  0.00    -0.175 OA
HETATM    7  O3  UNL     1      27.104  81.890   0.693  1.00  0.00    -0.175 OA
HETATM    8  N2  UNL     1      26.220  83.847   2.164  1.00  0.00    -0.241 N 
ATOM      9  H2  UNL     1      26.896  84.273   2.798  1.00  0.00     0.183 HD
HETATM   10  C4  UNL     1      25.010  83.703   2.559  1.00  0.00     0.159 C 
HETATM   11  S3  UNL     1      23.827  82.960   1.455  1.00  0.00    -0.009 SA
ENDROOT
BRANCH  10  12
HETATM   12  N3  UNL     1      24.607  84.126   3.857  1.00  0.00    -0.365 N 
ATOM     13  H3  UNL     1      24.754  83.496   4.645  1.00  0.00     0.162 HD
BRANCH  12  14
HETATM   14  C5  UNL     1      23.999  85.415   4.102  1.00  0.00     0.168 C 
BRANCH  14  15
HETATM   15  C6  UNL     1      22.980  85.222   5.197  1.00  0.00     0.007 A 
HETATM   16  S2  UNL     1      23.230  85.096   6.877  1.00  0.00    -0.104 SA
HETATM   17  C7  UNL     1      21.613  84.901   7.375  1.00  0.00     0.057 A 
HETATM   18  C8  UNL     1      20.920  84.941   6.199  1.00  0.00    -0.044 A 
HETATM   19  C9  UNL     1      21.617  85.108   5.066  1.00  0.00    -0.037 A 
HETATM   20  C13 UNL     1      19.411  84.812   6.063  1.00  0.00     0.040 C 
HETATM   21  C10 UNL     1      20.833  85.153   3.756  1.00  0.00     0.040 C 
HETATM   22  C11 UNL     1      19.795  84.075   3.702  1.00  0.00     0.005 C 
HETATM   23  C12 UNL     1      19.150  83.766   5.003  1.00  0.00     0.005 C 
ENDBRANCH  14  15
ENDBRANCH  12  14
ENDBRANCH  10  12
BRANCH   1  24
HETATM   24  C2  UNL     1      23.397  84.140  -2.378  1.00  0.00     0.118 C 
HETATM   25  C1  UNL     1      22.112  84.487  -3.064  1.00  0.00     0.026 C 
ENDBRANCH   1  24
TORSDOF 4
ENDMDL
MODEL 4
REMARK VINA RESULT: -7.749286919      4.168      5.187
REMARK  4 active torsions:
REMARK  status: ('A' for Active; 'I' for Inactive)
REMARK    1  A    between atoms: C2_2  and  N1_3 
REMARK    2  A    between atoms: C4_12  and  N3_13 
REMARK    3  A    between atoms: N3_13  and  C5_15 
REMARK    4  A    between atoms: C5_15  and  C6_16 
ROOT
HETATM    1  N1  UNL     1      22.718  82.855  -0.387  1.00  0.00    -0.364 N 
ATOM      2  H1  UNL     1      21.828  82.573   0.024  1.00  0.00     0.162 HD
HETATM    3  C3  UNL     1      23.702  83.102   0.397  1.00  0.00     0.204 C 
HETATM    4  O1  UNL     1      24.970  83.495  -0.033  1.00  0.00    -0.191 OA
HETATM    5  S1  UNL     1      26.159  83.979   1.092  1.00  0.00     0.370 S 
HETATM    6  O2  UNL     1      27.027  85.011   0.429  1.00  0.00    -0.175 OA
HETATM    7  O3  UNL     1      26.952  82.758   1.497  1.00  0.00    -0.175 OA
HETATM    8  N2  UNL     1      25.479  84.659   2.494  1.00  0.00    -0.241 N 
ATOM      9  H2  UNL     1      25.979  85.411   2.968  1.00  0.00     0.183 HD
HETATM   10  C4  UNL     1      24.361  84.260   2.975  1.00  0.00     0.159 C 
HETATM   11  S3  UNL     1      23.487  82.948   2.148  1.00  0.00    -0.009 SA
ENDROOT
BRANCH  10  12
HETATM   12  N3  UNL     1      23.818  84.851   4.151  1.00  0.00    -0.365 N 
ATOM     13  H3  UNL     1      24.419  84.960   4.967  1.00  0.00     0.162 HD
BRANCH  12  14
HETATM   14  C5  UNL     1      22.447  85.302   4.232  1.00  0.00     0.168 C 
BRANCH  14  15
HETATM   15  C6  UNL     1      21.991  85.080   5.653  1.00  0.00     0.007 A 
HETATM   16  S2  UNL     1      22.890  85.212   7.094  1.00  0.00    -0.104 SA
HETATM   17  C7  UNL     1      21.668  84.809   8.210  1.00  0.00     0.057 A 
HETATM   18  C8  UNL     1      20.583  84.582   7.412  1.00  0.00    -0.044 A 
HETATM   19  C9  UNL     1      20.739  84.719   6.088  1.00  0.00    -0.037 A 
HETATM   20  C13 UNL     1      19.200  84.182   7.902  1.00  0.00     0.040 C 
HETATM   21  C10 UNL     1      19.520  84.464   5.204  1.00  0.00     0.040 C 
HETATM   22  C11 UNL     1      18.788  83.227   5.625  1.00  0.00     0.005 C 
HETATM   23  C12 UNL     1      18.774  82.980   7.089  1.00  0.00     0.005 C 
ENDBRANCH  14  15
ENDBRANCH  12  14
ENDBRANCH  10  12
BRANCH   1  24
HETATM   24  C2  UNL     1      22.813  82.958  -1.829  1.00  0.00     0.118 C 
HETATM   25  C1  UNL     1      21.523  83.379  -2.461  1.00  0.00     0.026 C 
ENDBRANCH   1  24
TORSDOF 4
ENDMDL
MODEL 5
REMARK VINA RESULT: -7.722228769      2.770      3.820
REMARK  4 active torsions:
REMARK  status: ('A' for Active; 'I' for Inactive)
REMARK    1  A    between atoms: C2_2  and  N1_3 
REMARK    2  A    between atoms: C4_12  and  N3_13 
REMARK    3  A    between atoms: N3_13  and  C5_15 
REMARK    4  A    between atoms: C5_15  and  C6_16 
ROOT
HETATM    1  N1  UNL     1      18.663  81.327  -1.531  1.00  0.00    -0.364 N 
ATOM      2  H1  UNL     1      18.912  82.296  -1.334  1.00  0.00     0.162 HD
HETATM    3  C3  UNL     1      18.151  80.622  -0.590  1.00  0.00     0.204 C 
HETATM    4  O1  UNL     1      17.767  79.289  -0.726  1.00  0.00    -0.191 OA
HETATM    5  S1  UNL     1      17.268  78.383   0.632  1.00  0.00     0.370 S 
HETATM    6  O2  UNL     1      17.661  76.952   0.402  1.00  0.00    -0.175 OA
HETATM    7  O3  UNL     1      15.772  78.536   0.780  1.00  0.00    -0.175 OA
HETATM    8  N2  UNL     1      18.000  78.923   2.069  1.00  0.00    -0.241 N 
ATOM      9  H2  UNL     1      18.222  78.241   2.795  1.00  0.00     0.183 HD
HETATM   10  C4  UNL     1      18.283  80.156   2.271  1.00  0.00     0.159 C 
HETATM   11  S3  UNL     1      17.897  81.347   1.006  1.00  0.00    -0.009 SA
ENDROOT
BRANCH  10  12
HETATM   12  N3  UNL     1      18.896  80.577   3.485  1.00  0.00    -0.365 N 
ATOM     13  H3  UNL     1      19.883  80.364   3.634  1.00  0.00     0.162 HD
BRANCH  12  14
HETATM   14  C5  UNL     1      18.176  81.294   4.513  1.00  0.00     0.168 C 
BRANCH  14  15
HETATM   15  C6  UNL     1      18.855  82.631   4.678  1.00  0.00     0.007 A 
HETATM   16  S2  UNL     1      19.650  83.575   3.505  1.00  0.00    -0.104 SA
HETATM   17  C7  UNL     1      20.115  84.887   4.488  1.00  0.00     0.057 A 
HETATM   18  C8  UNL     1      19.627  84.542   5.716  1.00  0.00    -0.044 A 
HETATM   19  C9  UNL     1      18.974  83.377   5.826  1.00  0.00    -0.037 A 
HETATM   20  C13 UNL     1      19.765  85.374   6.981  1.00  0.00     0.040 C 
HETATM   21  C10 UNL     1      18.432  83.000   7.203  1.00  0.00     0.040 C 
HETATM   22  C11 UNL     1      19.443  83.257   8.278  1.00  0.00     0.005 C 
HETATM   23  C12 UNL     1      20.293  84.455   8.059  1.00  0.00     0.005 C 
ENDBRANCH  14  15
ENDBRANCH  12  14
ENDBRANCH  10  12
BRANCH   1  24
HETATM   24  C2  UNL     1      18.904  80.808  -2.862  1.00  0.00     0.118 C 
HETATM   25  C1  UNL     1      17.836  81.204  -3.835  1.00  0.00     0.026 C 
ENDBRANCH   1  24
TORSDOF 4
ENDMDL
