MODEL 1
REMARK VINA RESULT: -5.822127369      0.000      0.000
REMARK  5 active torsions:
REMARK  status: ('A' for Active; 'I' for Inactive)
REMARK    1  A    between atoms: C2_2  and  O1_3 
REMARK    2  A    between atoms: O1_3  and  C3_4 
REMARK    3  A    between atoms: C3_4  and  C4_6 
REMARK    4  A    between atoms: C11_20  and  S1_21 
REMARK    5  A    between atoms: S1_21  and  C12_22 
ROOT
HETATM    1  C4  UNL     1      19.686  81.432  -1.430  1.00  0.00     0.176 C 
HETATM    2  C5  UNL     1      19.388  82.901  -1.583  1.00  0.00     0.126 C 
HETATM    3  N1  UNL     1      20.248  83.688  -2.112  1.00  0.00    -0.383 N 
ATOM      4  H11 UNL     1      20.046  84.683  -2.216  1.00  0.00     0.158 HD
ATOM      5  H12 UNL     1      21.160  83.386  -2.455  1.00  0.00     0.158 HD
HETATM    6  O3  UNL     1      18.160  83.307  -1.122  1.00  0.00    -0.336 OA
HETATM    7  C6  UNL     1      17.459  82.707  -0.067  1.00  0.00     0.217 C 
HETATM    8  C7  UNL     1      18.089  81.503   0.531  1.00  0.00     0.161 C 
HETATM    9  C8  UNL     1      18.194  81.761   2.042  1.00  0.00     0.044 C 
HETATM   10  C9  UNL     1      18.337  80.393   2.615  1.00  0.00     0.030 C 
HETATM   11  C10 UNL     1      17.551  79.534   1.646  1.00  0.00     0.233 C 
HETATM   12  N2  UNL     1      17.187  80.365   0.541  1.00  0.00    -0.063 N 
ATOM     13  H21 UNL     1      17.173  79.862  -0.346  1.00  0.00     0.278 HD
ATOM     14  H22 UNL     1      16.204  80.638   0.557  1.00  0.00     0.278 HD
HETATM   15  C11 UNL     1      19.410  81.093   0.005  1.00  0.00     0.114 C 
ENDROOT
BRANCH  15  16
HETATM   16  S1  UNL     1      20.701  81.847   1.032  1.00  0.00    -0.096 SA
BRANCH  16  17
HETATM   17  C12 UNL     1      22.314  81.500   0.285  1.00  0.00     0.112 A 
HETATM   18  N3  UNL     1      22.875  80.316   0.081  1.00  0.00    -0.348 N 
HETATM   19  C13 UNL     1      24.039  80.241  -0.472  1.00  0.00     0.013 A 
ATOM     20  H3  UNL     1      22.387  79.466   0.362  1.00  0.00     0.167 HD
HETATM   21  C14 UNL     1      24.736  78.917  -0.733  1.00  0.00     0.068 C 
HETATM   22  C15 UNL     1      24.652  81.414  -0.832  1.00  0.00     0.077 A 
HETATM   23  S2  UNL     1      23.490  82.567  -0.339  1.00  0.00    -0.075 SA
ENDBRANCH  16  17
ENDBRANCH  15  16
BRANCH   1  24
HETATM   24  C3  UNL     1      18.864  80.659  -2.394  1.00  0.00     0.272 C 
HETATM   25  O2  UNL     1      18.676  81.110  -3.553  1.00  0.00    -0.264 OA
BRANCH  24  26
HETATM   26  O1  UNL     1      18.271  79.440  -2.103  1.00  0.00    -0.321 OA
BRANCH  26  27
HETATM   27  C2  UNL     1      17.045  79.002  -2.641  1.00  0.00     0.174 C 
HETATM   28  C1  UNL     1      17.144  77.535  -2.940  1.00  0.00     0.034 C 
ENDBRANCH  26  27
ENDBRANCH  24  26
ENDBRANCH   1  24
TORSDOF 5
ENDMDL
MODEL 2
REMARK VINA RESULT: -5.718765810      1.562      1.780
REMARK  5 active torsions:
REMARK  status: ('A' for Active; 'I' for Inactive)
REMARK    1  A    between atoms: C2_2  and  O1_3 
REMARK    2  A    between atoms: O1_3  and  C3_4 
REMARK    3  A    between atoms: C3_4  and  C4_6 
REMARK    4  A    between atoms: C11_20  and  S1_21 
REMARK    5  A    between atoms: S1_21  and  C12_22 
ROOT
HETATM    1  C4  UNL     1      18.994  80.673  -0.894  1.00  0.00     0.176 C 
HETATM    2  C5  UNL     1      18.466  81.897  -1.597  1.00  0.00     0.126 C 
HETATM    3  N1  UNL     1      18.914  82.230  -2.749  1.00  0.00    -0.383 N 
ATOM      4  H11 UNL     1      18.557  83.059  -3.224  1.00  0.00     0.158 HD
ATOM      5  H12 UNL     1      19.633  81.710  -3.253  1.00  0.00     0.158 HD
HETATM    6  O3  UNL     1      17.500  82.597  -0.919  1.00  0.00    -0.336 OA
HETATM    7  C6  UNL     1      17.389  82.670   0.476  1.00  0.00     0.217 C 
HETATM    8  C7  UNL     1      18.364  81.861   1.249  1.00  0.00     0.161 C 
HETATM    9  C8  UNL     1      19.053  82.819   2.233  1.00  0.00     0.044 C 
HETATM   10  C9  UNL     1      19.603  81.904   3.274  1.00  0.00     0.030 C 
HETATM   11  C10 UNL     1      18.607  80.763   3.285  1.00  0.00     0.233 C 
HETATM   12  N2  UNL     1      17.710  80.973   2.192  1.00  0.00    -0.063 N 
ATOM     13  H21 UNL     1      17.395  80.102   1.765  1.00  0.00     0.278 HD
ATOM     14  H22 UNL     1      16.796  81.314   2.490  1.00  0.00     0.278 HD
HETATM   15  C11 UNL     1      19.389  81.115   0.484  1.00  0.00     0.114 C 
ENDROOT
BRANCH  15  16
HETATM   16  S1  UNL     1      20.877  82.144   0.354  1.00  0.00    -0.096 SA
BRANCH  16  17
HETATM   17  C12 UNL     1      22.152  81.211  -0.532  1.00  0.00     0.112 A 
HETATM   18  N3  UNL     1      22.978  80.301  -0.038  1.00  0.00    -0.348 N 
HETATM   19  C13 UNL     1      23.834  79.720  -0.812  1.00  0.00     0.013 A 
ATOM     20  H3  UNL     1      22.938  80.059   0.951  1.00  0.00     0.167 HD
HETATM   21  C14 UNL     1      24.808  78.669  -0.310  1.00  0.00     0.068 C 
HETATM   22  C15 UNL     1      23.846  80.081  -2.136  1.00  0.00     0.077 A 
HETATM   23  S2  UNL     1      22.603  81.254  -2.177  1.00  0.00    -0.075 SA
ENDBRANCH  16  17
ENDBRANCH  15  16
BRANCH   1  24
HETATM   24  C3  UNL     1      17.957  79.612  -0.906  1.00  0.00     0.272 C 
HETATM   25  O2  UNL     1      17.092  79.597  -1.819  1.00  0.00    -0.264 OA
BRANCH  24  26
HETATM   26  O1  UNL     1      17.869  78.605   0.043  1.00  0.00    -0.321 OA
BRANCH  26  27
HETATM   27  C2  UNL     1      16.763  77.745   0.192  1.00  0.00     0.174 C 
HETATM   28  C1  UNL     1      17.183  76.350  -0.167  1.00  0.00     0.034 C 
ENDBRANCH  26  27
ENDBRANCH  24  26
ENDBRANCH   1  24
TORSDOF 5
ENDMDL
MODEL 3
REMARK VINA RESULT: -5.679136414      0.935      1.443
REMARK  5 active torsions:
REMARK  status: ('A' for Active; 'I' for Inactive)
REMARK    1  A    between atoms: C2_2  and  O1_3 
REMARK    2  A    between atoms: O1_3  and  C3_4 
REMARK    3  A    between atoms: C3_4  and  C4_6 
REMARK    4  A    between atoms: C11_20  and  S1_21 
REMARK    5  A    between atoms: S1_21  and  C12_22 
ROOT
HETATM    1  C4  UNL     1      19.714  81.468  -1.511  1.00  0.00     0.176 C 
HETATM    2  C5  UNL     1      19.418  82.939  -1.645  1.00  0.00     0.126 C 
HETATM    3  N1  UNL     1      20.285  83.734  -2.151  1.00  0.00    -0.383 N 
ATOM      4  H11 UNL     1      20.084  84.730  -2.241  1.00  0.00     0.158 HD
ATOM      5  H12 UNL     1      21.203  83.438  -2.485  1.00  0.00     0.158 HD
HETATM    6  O3  UNL     1      18.184  83.337  -1.196  1.00  0.00    -0.336 OA
HETATM    7  C6  UNL     1      17.469  82.722  -0.160  1.00  0.00     0.217 C 
HETATM    8  C7  UNL     1      18.090  81.509   0.428  1.00  0.00     0.161 C 
HETATM    9  C8  UNL     1      18.174  81.743   1.944  1.00  0.00     0.044 C 
HETATM   10  C9  UNL     1      18.309  80.366   2.497  1.00  0.00     0.030 C 
HETATM   11  C10 UNL     1      17.537  79.522   1.504  1.00  0.00     0.233 C 
HETATM   12  N2  UNL     1      17.189  80.370   0.408  1.00  0.00    -0.063 N 
ATOM     13  H21 UNL     1      17.188  79.881  -0.487  1.00  0.00     0.278 HD
ATOM     14  H22 UNL     1      16.206  80.642   0.414  1.00  0.00     0.278 HD
HETATM   15  C11 UNL     1      19.419  81.106  -0.086  1.00  0.00     0.114 C 
ENDROOT
BRANCH  15  16
HETATM   16  S1  UNL     1      20.695  81.844   0.971  1.00  0.00    -0.096 SA
BRANCH  16  17
HETATM   17  C12 UNL     1      22.320  81.488   0.254  1.00  0.00     0.112 A 
HETATM   18  N3  UNL     1      22.888  80.303   0.085  1.00  0.00    -0.348 N 
HETATM   19  C13 UNL     1      24.060  80.220  -0.450  1.00  0.00     0.013 A 
ATOM     20  H3  UNL     1      22.400  79.457   0.378  1.00  0.00     0.167 HD
HETATM   21  C14 UNL     1      24.766  78.894  -0.672  1.00  0.00     0.068 C 
HETATM   22  C15 UNL     1      24.674  81.388  -0.828  1.00  0.00     0.077 A 
HETATM   23  S2  UNL     1      23.500  82.547  -0.376  1.00  0.00    -0.075 SA
ENDBRANCH  16  17
ENDBRANCH  15  16
BRANCH   1  24
HETATM   24  C3  UNL     1      18.907  80.710  -2.499  1.00  0.00     0.272 C 
HETATM   25  O2  UNL     1      18.557  79.529  -2.242  1.00  0.00    -0.264 OA
BRANCH  24  26
HETATM   26  O1  UNL     1      18.498  81.222  -3.720  1.00  0.00    -0.321 OA
BRANCH  26  27
HETATM   27  C2  UNL     1      17.153  81.355  -4.118  1.00  0.00     0.174 C 
HETATM   28  C1  UNL     1      16.875  82.801  -4.409  1.00  0.00     0.034 C 
ENDBRANCH  26  27
ENDBRANCH  24  26
ENDBRANCH   1  24
TORSDOF 5
ENDMDL
MODEL 4
REMARK VINA RESULT: -5.605893781      3.709      6.932
REMARK  5 active torsions:
REMARK  status: ('A' for Active; 'I' for Inactive)
REMARK    1  A    between atoms: C2_2  and  O1_3 
REMARK    2  A    between atoms: O1_3  and  C3_4 
REMARK    3  A    between atoms: C3_4  and  C4_6 
REMARK    4  A    between atoms: C11_20  and  S1_21 
REMARK    5  A    between atoms: S1_21  and  C12_22 
ROOT
HETATM    1  C4  UNL     1      17.282  81.186  -1.639  1.00  0.00     0.176 C 
HETATM    2  C5  UNL     1      17.852  82.110  -0.594  1.00  0.00     0.126 C 
HETATM    3  N1  UNL     1      17.124  82.525   0.374  1.00  0.00    -0.383 N 
ATOM      4  H11 UNL     1      17.509  83.151   1.081  1.00  0.00     0.158 HD
ATOM      5  H12 UNL     1      16.144  82.268   0.501  1.00  0.00     0.158 HD
HETATM    6  O3  UNL     1      19.169  82.456  -0.764  1.00  0.00    -0.336 OA
HETATM    7  C6  UNL     1      19.821  82.551  -2.001  1.00  0.00     0.217 C 
HETATM    8  C7  UNL     1      19.018  82.176  -3.191  1.00  0.00     0.161 C 
HETATM    9  C8  UNL     1      19.090  83.360  -4.167  1.00  0.00     0.044 C 
HETATM   10  C9  UNL     1      18.727  82.749  -5.477  1.00  0.00     0.030 C 
HETATM   11  C10 UNL     1      19.245  81.332  -5.347  1.00  0.00     0.233 C 
HETATM   12  N2  UNL     1      19.674  81.160  -3.994  1.00  0.00    -0.063 N 
ATOM     13  H21 UNL     1      19.515  80.215  -3.645  1.00  0.00     0.278 HD
ATOM     14  H22 UNL     1      20.689  81.170  -3.895  1.00  0.00     0.278 HD
HETATM   15  C11 UNL     1      17.602  81.804  -2.968  1.00  0.00     0.114 C 
ENDROOT
BRANCH  15  16
HETATM   16  S1  UNL     1      16.575  83.284  -3.176  1.00  0.00    -0.096 SA
BRANCH  16  17
HETATM   17  C12 UNL     1      14.833  82.789  -3.161  1.00  0.00     0.112 A 
HETATM   18  N3  UNL     1      13.875  83.221  -2.355  1.00  0.00    -0.348 N 
HETATM   19  C13 UNL     1      12.672  82.766  -2.479  1.00  0.00     0.013 A 
ATOM     20  H3  UNL     1      14.087  83.913  -1.636  1.00  0.00     0.167 HD
HETATM   21  C14 UNL     1      11.530  83.219  -1.588  1.00  0.00     0.068 C 
HETATM   22  C15 UNL     1      12.440  81.838  -3.463  1.00  0.00     0.077 A 
HETATM   23  S2  UNL     1      13.996  81.679  -4.152  1.00  0.00    -0.075 SA
ENDBRANCH  16  17
ENDBRANCH  15  16
BRANCH   1  24
HETATM   24  C3  UNL     1      17.852  79.828  -1.460  1.00  0.00     0.272 C 
HETATM   25  O2  UNL     1      18.027  79.089  -2.462  1.00  0.00    -0.264 OA
BRANCH  24  26
HETATM   26  O1  UNL     1      18.216  79.298  -0.232  1.00  0.00    -0.321 OA
BRANCH  26  27
HETATM   27  C2  UNL     1      17.424  78.407   0.518  1.00  0.00     0.174 C 
HETATM   28  C1  UNL     1      16.980  79.095   1.776  1.00  0.00     0.034 C 
ENDBRANCH  26  27
ENDBRANCH  24  26
ENDBRANCH   1  24
TORSDOF 5
ENDMDL
MODEL 5
REMARK VINA RESULT: -5.545810891      2.451      5.475
REMARK  5 active torsions:
REMARK  status: ('A' for Active; 'I' for Inactive)
REMARK    1  A    between atoms: C2_2  and  O1_3 
REMARK    2  A    between atoms: O1_3  and  C3_4 
REMARK    3  A    between atoms: C3_4  and  C4_6 
REMARK    4  A    between atoms: C11_20  and  S1_21 
REMARK    5  A    between atoms: S1_21  and  C12_22 
ROOT
HETATM    1  C4  UNL     1      19.512  82.225  -0.716  1.00  0.00     0.176 C 
HETATM    2  C5  UNL     1      19.372  80.754  -1.009  1.00  0.00     0.126 C 
HETATM    3  N1  UNL     1      18.629  80.013  -0.276  1.00  0.00    -0.383 N 
ATOM      4  H11 UNL     1      18.534  79.016  -0.474  1.00  0.00     0.158 HD
ATOM      5  H12 UNL     1      18.099  80.353   0.528  1.00  0.00     0.158 HD
HETATM    6  O3  UNL     1      20.084  80.295  -2.088  1.00  0.00    -0.336 OA
HETATM    7  C6  UNL     1      21.294  80.836  -2.541  1.00  0.00     0.217 C 
HETATM    8  C7  UNL     1      21.781  82.038  -1.819  1.00  0.00     0.161 C 
HETATM    9  C8  UNL     1      23.216  81.732  -1.364  1.00  0.00     0.044 C 
HETATM   10  C9  UNL     1      23.796  83.083  -1.124  1.00  0.00     0.030 C 
HETATM   11  C10 UNL     1      23.068  83.951  -2.130  1.00  0.00     0.233 C 
HETATM   12  N2  UNL     1      22.043  83.147  -2.719  1.00  0.00    -0.063 N 
ATOM     13  H21 UNL     1      21.203  83.679  -2.947  1.00  0.00     0.278 HD
ATOM     14  H22 UNL     1      22.271  82.844  -3.666  1.00  0.00     0.278 HD
HETATM   15  C11 UNL     1      20.984  82.507  -0.662  1.00  0.00     0.114 C 
ENDROOT
BRANCH  15  16
HETATM   16  S1  UNL     1      21.658  81.758   0.846  1.00  0.00    -0.096 SA
BRANCH  16  17
HETATM   17  C12 UNL     1      20.601  82.216   2.244  1.00  0.00     0.112 A 
HETATM   18  N3  UNL     1      20.615  83.348   2.932  1.00  0.00    -0.348 N 
HETATM   19  C13 UNL     1      19.784  83.520   3.906  1.00  0.00     0.013 A 
ATOM     20  H3  UNL     1      21.280  84.083   2.693  1.00  0.00     0.167 HD
HETATM   21  C14 UNL     1      19.748  84.793   4.734  1.00  0.00     0.068 C 
HETATM   22  C15 UNL     1      18.909  82.502   4.187  1.00  0.00     0.077 A 
HETATM   23  S2  UNL     1      19.349  81.344   3.008  1.00  0.00    -0.075 SA
ENDBRANCH  16  17
ENDBRANCH  15  16
BRANCH   1  24
HETATM   24  C3  UNL     1      18.793  83.005  -1.753  1.00  0.00     0.272 C 
HETATM   25  O2  UNL     1      17.743  82.540  -2.266  1.00  0.00    -0.264 OA
BRANCH  24  26
HETATM   26  O1  UNL     1      19.205  84.246  -2.214  1.00  0.00    -0.321 OA
BRANCH  26  27
HETATM   27  C2  UNL     1      18.848  84.792  -3.462  1.00  0.00     0.174 C 
HETATM   28  C1  UNL     1      19.741  85.962  -3.753  1.00  0.00     0.034 C 
ENDBRANCH  26  27
ENDBRANCH  24  26
ENDBRANCH   1  24
TORSDOF 5
ENDMDL
