MODEL 1
REMARK VINA RESULT: -7.660806565      0.000      0.000
REMARK  4 active torsions:
REMARK  status: ('A' for Active; 'I' for Inactive)
REMARK    1  A    between atoms: C5_8  and  C6_9 
REMARK    2  A    between atoms: C6_9  and  C7_10 
REMARK    3  A    between atoms: C7_10  and  C8_11 
REMARK    4  A    between atoms: C10_14  and  O3_15 
ROOT
HETATM    1  C8  UNL     1      20.112  83.747   2.821  1.00  0.00     0.135 C 
HETATM    2  O2  UNL     1      19.022  83.753   3.655  1.00  0.00    -0.382 OA
HETATM    3  C9  UNL     1      18.931  82.489   4.209  1.00  0.00     0.207 C 
HETATM    4  C10 UNL     1      19.092  81.621   2.949  1.00  0.00     0.091 C 
HETATM    5  C11 UNL     1      17.729  81.472   2.354  1.00  0.00     0.041 C 
HETATM    6  C12 UNL     1      17.913  81.021   0.918  1.00  0.00     0.011 C 
HETATM    7  C13 UNL     1      18.480  82.237   0.200  1.00  0.00     0.029 C 
HETATM    8  C14 UNL     1      18.704  81.851  -1.233  1.00  0.00     0.088 C 
HETATM    9  C15 UNL     1      18.713  83.007  -2.181  1.00  0.00     0.021 C 
HETATM   10  C16 UNL     1      20.065  81.224  -1.179  1.00  0.00     0.263 C 
HETATM   11  O4  UNL     1      20.550  80.399  -1.995  1.00  0.00    -0.265 OA
HETATM   12  O5  UNL     1      20.695  81.718  -0.063  1.00  0.00    -0.314 OA
HETATM   13  C17 UNL     1      19.829  82.538   0.718  1.00  0.00     0.150 C 
HETATM   14  C18 UNL     1      20.069  82.381   2.159  1.00  0.00     0.042 C 
HETATM   15  C19 UNL     1      21.424  81.664   2.310  1.00  0.00     0.024 C 
ENDROOT
BRANCH   1  16
HETATM   16  C7  UNL     1      21.370  84.010   3.537  1.00  0.00     0.037 C 
BRANCH  16  17
HETATM   17  C6  UNL     1      21.537  85.310   4.255  1.00  0.00     0.046 C 
BRANCH  17  18
HETATM   18  C5  UNL     1      22.334  85.304   5.475  1.00  0.00    -0.003 A 
HETATM   19  C2  UNL     1      21.989  85.412   6.787  1.00  0.00     0.037 A 
HETATM   20  C1  UNL     1      20.666  85.498   7.439  1.00  0.00     0.071 C 
HETATM   21  N1  UNL     1      23.145  85.392   7.509  1.00  0.00    -0.265 N 
HETATM   22  O1  UNL     1      24.123  85.277   6.693  1.00  0.00    -0.242 OA
ATOM     23  H1  UNL     1      23.217  85.456   8.525  1.00  0.00     0.194 HD
HETATM   24  C3  UNL     1      23.735  85.217   5.458  1.00  0.00     0.080 A 
HETATM   25  C4  UNL     1      24.639  85.083   4.291  1.00  0.00     0.079 C 
ENDBRANCH  17  18
ENDBRANCH  16  17
ENDBRANCH   1  16
BRANCH   4  26
HETATM   26  O3  UNL     1      19.541  80.379   3.401  1.00  0.00    -0.387 OA
ATOM     27  H3  UNL     1      19.477  80.412   4.348  1.00  0.00     0.210 HD
ENDBRANCH   4  26
TORSDOF 4
ENDMDL
MODEL 2
REMARK VINA RESULT: -7.522398755      0.482      1.621
REMARK  4 active torsions:
REMARK  status: ('A' for Active; 'I' for Inactive)
REMARK    1  A    between atoms: C5_8  and  C6_9 
REMARK    2  A    between atoms: C6_9  and  C7_10 
REMARK    3  A    between atoms: C7_10  and  C8_11 
REMARK    4  A    between atoms: C10_14  and  O3_15 
ROOT
HETATM    1  C8  UNL     1      19.993  83.702   2.724  1.00  0.00     0.135 C 
HETATM    2  O2  UNL     1      18.928  83.660   3.589  1.00  0.00    -0.382 OA
HETATM    3  C9  UNL     1      18.909  82.393   4.143  1.00  0.00     0.207 C 
HETATM    4  C10 UNL     1      19.071  81.533   2.878  1.00  0.00     0.091 C 
HETATM    5  C11 UNL     1      17.698  81.325   2.323  1.00  0.00     0.041 C 
HETATM    6  C12 UNL     1      17.860  80.883   0.881  1.00  0.00     0.011 C 
HETATM    7  C13 UNL     1      18.353  82.122   0.149  1.00  0.00     0.029 C 
HETATM    8  C14 UNL     1      18.552  81.747  -1.290  1.00  0.00     0.088 C 
HETATM    9  C15 UNL     1      18.482  82.903  -2.237  1.00  0.00     0.021 C 
HETATM   10  C16 UNL     1      19.940  81.180  -1.277  1.00  0.00     0.263 C 
HETATM   11  O4  UNL     1      20.436  80.378  -2.108  1.00  0.00    -0.265 OA
HETATM   12  O5  UNL     1      20.580  81.701  -0.179  1.00  0.00    -0.314 OA
HETATM   13  C17 UNL     1      19.702  82.482   0.628  1.00  0.00     0.150 C 
HETATM   14  C18 UNL     1      19.990  82.336   2.061  1.00  0.00     0.042 C 
HETATM   15  C19 UNL     1      21.379  81.678   2.172  1.00  0.00     0.024 C 
ENDROOT
BRANCH   1  16
HETATM   16  C7  UNL     1      21.258  84.019   3.403  1.00  0.00     0.037 C 
BRANCH  16  17
HETATM   17  C6  UNL     1      21.404  85.342   4.083  1.00  0.00     0.046 C 
BRANCH  17  18
HETATM   18  C5  UNL     1      22.146  85.373   5.337  1.00  0.00    -0.003 A 
HETATM   19  C2  UNL     1      23.472  85.247   5.612  1.00  0.00     0.037 A 
HETATM   20  C1  UNL     1      24.640  85.108   4.718  1.00  0.00     0.071 C 
HETATM   21  N1  UNL     1      23.608  85.307   6.967  1.00  0.00    -0.265 N 
HETATM   22  O1  UNL     1      22.447  85.462   7.479  1.00  0.00    -0.242 OA
ATOM     23  H1  UNL     1      24.486  85.241   7.484  1.00  0.00     0.194 HD
HETATM   24  C3  UNL     1      21.512  85.513   6.582  1.00  0.00     0.080 A 
HETATM   25  C4  UNL     1      20.068  85.685   6.870  1.00  0.00     0.079 C 
ENDBRANCH  17  18
ENDBRANCH  16  17
ENDBRANCH   1  16
BRANCH   4  26
HETATM   26  O3  UNL     1      19.586  80.312   3.315  1.00  0.00    -0.387 OA
ATOM     27  H3  UNL     1      19.588  79.746   2.552  1.00  0.00     0.210 HD
ENDBRANCH   4  26
TORSDOF 4
ENDMDL
MODEL 3
REMARK VINA RESULT: -7.448764132      2.619      3.722
REMARK  4 active torsions:
REMARK  status: ('A' for Active; 'I' for Inactive)
REMARK    1  A    between atoms: C5_8  and  C6_9 
REMARK    2  A    between atoms: C6_9  and  C7_10 
REMARK    3  A    between atoms: C7_10  and  C8_11 
REMARK    4  A    between atoms: C10_14  and  O3_15 
ROOT
HETATM    1  C8  UNL     1      18.717  82.778   1.157  1.00  0.00     0.135 C 
HETATM    2  O2  UNL     1      17.516  82.123   1.270  1.00  0.00    -0.382 OA
HETATM    3  C9  UNL     1      17.748  80.798   0.947  1.00  0.00     0.207 C 
HETATM    4  C10 UNL     1      18.561  80.965  -0.348  1.00  0.00     0.091 C 
HETATM    5  C11 UNL     1      17.571  81.076  -1.463  1.00  0.00     0.041 C 
HETATM    6  C12 UNL     1      18.300  81.676  -2.651  1.00  0.00     0.011 C 
HETATM    7  C13 UNL     1      18.554  83.124  -2.259  1.00  0.00     0.029 C 
HETATM    8  C14 UNL     1      19.293  83.774  -3.391  1.00  0.00     0.088 C 
HETATM    9  C15 UNL     1      19.137  85.261  -3.445  1.00  0.00     0.021 C 
HETATM   10  C16 UNL     1      20.716  83.420  -3.081  1.00  0.00     0.263 C 
HETATM   11  O4  UNL     1      21.677  83.373  -3.890  1.00  0.00    -0.265 OA
HETATM   12  O5  UNL     1      20.783  83.153  -1.735  1.00  0.00    -0.314 OA
HETATM   13  C17 UNL     1      19.496  83.175  -1.124  1.00  0.00     0.150 C 
HETATM   14  C18 UNL     1      19.366  82.160  -0.068  1.00  0.00     0.042 C 
HETATM   15  C19 UNL     1      20.791  81.675   0.260  1.00  0.00     0.024 C 
ENDROOT
BRANCH   1  16
HETATM   16  C7  UNL     1      19.537  82.664   2.373  1.00  0.00     0.037 C 
BRANCH  16  17
HETATM   17  C6  UNL     1      19.456  83.740   3.407  1.00  0.00     0.046 C 
BRANCH  17  18
HETATM   18  C5  UNL     1      19.112  83.340   4.765  1.00  0.00    -0.003 A 
HETATM   19  C2  UNL     1      18.498  82.231   5.258  1.00  0.00     0.037 A 
HETATM   20  C1  UNL     1      18.029  81.001   4.587  1.00  0.00     0.071 C 
HETATM   21  N1  UNL     1      18.388  82.399   6.606  1.00  0.00    -0.265 N 
HETATM   22  O1  UNL     1      18.902  83.529   6.911  1.00  0.00    -0.242 OA
ATOM     23  H1  UNL     1      17.969  81.736   7.260  1.00  0.00     0.194 HD
HETATM   24  C3  UNL     1      19.360  84.161   5.876  1.00  0.00     0.080 A 
HETATM   25  C4  UNL     1      20.010  85.493   5.915  1.00  0.00     0.079 C 
ENDBRANCH  17  18
ENDBRANCH  16  17
ENDBRANCH   1  16
BRANCH   4  26
HETATM   26  O3  UNL     1      19.291  79.784  -0.490  1.00  0.00    -0.387 OA
ATOM     27  H3  UNL     1      19.277  79.584  -1.418  1.00  0.00     0.210 HD
ENDBRANCH   4  26
TORSDOF 4
ENDMDL
MODEL 4
REMARK VINA RESULT: -7.399892078      2.701      4.226
REMARK  4 active torsions:
REMARK  status: ('A' for Active; 'I' for Inactive)
REMARK    1  A    between atoms: C5_8  and  C6_9 
REMARK    2  A    between atoms: C6_9  and  C7_10 
REMARK    3  A    between atoms: C7_10  and  C8_11 
REMARK    4  A    between atoms: C10_14  and  O3_15 
ROOT
HETATM    1  C8  UNL     1      18.705  82.370   1.253  1.00  0.00     0.135 C 
HETATM    2  O2  UNL     1      17.811  83.384   1.016  1.00  0.00    -0.382 OA
HETATM    3  C9  UNL     1      16.831  82.872   0.184  1.00  0.00     0.207 C 
HETATM    4  C10 UNL     1      17.701  82.176  -0.876  1.00  0.00     0.091 C 
HETATM    5  C11 UNL     1      18.043  83.213  -1.898  1.00  0.00     0.041 C 
HETATM    6  C12 UNL     1      19.231  82.692  -2.685  1.00  0.00     0.011 C 
HETATM    7  C13 UNL     1      20.399  82.757  -1.712  1.00  0.00     0.029 C 
HETATM    8  C14 UNL     1      21.611  82.236  -2.427  1.00  0.00     0.088 C 
HETATM    9  C15 UNL     1      22.907  82.728  -1.867  1.00  0.00     0.021 C 
HETATM   10  C16 UNL     1      21.489  80.757  -2.213  1.00  0.00     0.263 C 
HETATM   11  O4  UNL     1      22.001  79.847  -2.913  1.00  0.00    -0.265 OA
HETATM   12  O5  UNL     1      20.707  80.572  -1.099  1.00  0.00    -0.314 OA
HETATM   13  C17 UNL     1      20.182  81.802  -0.608  1.00  0.00     0.150 C 
HETATM   14  C18 UNL     1      18.818  81.652  -0.079  1.00  0.00     0.042 C 
HETATM   15  C19 UNL     1      18.573  80.141   0.097  1.00  0.00     0.024 C 
ENDROOT
BRANCH   1  16
HETATM   16  C7  UNL     1      18.280  81.493   2.355  1.00  0.00     0.037 C 
BRANCH  16  17
HETATM   17  C6  UNL     1      19.150  81.376   3.565  1.00  0.00     0.046 C 
BRANCH  17  18
HETATM   18  C5  UNL     1      18.997  82.390   4.600  1.00  0.00    -0.003 A 
HETATM   19  C2  UNL     1      19.427  83.679   4.681  1.00  0.00     0.037 A 
HETATM   20  C1  UNL     1      20.139  84.528   3.703  1.00  0.00     0.071 C 
HETATM   21  N1  UNL     1      19.043  84.155   5.899  1.00  0.00    -0.265 N 
HETATM   22  O1  UNL     1      18.422  83.221   6.515  1.00  0.00    -0.242 OA
ATOM     23  H1  UNL     1      19.220  85.093   6.258  1.00  0.00     0.194 HD
HETATM   24  C3  UNL     1      18.346  82.132   5.817  1.00  0.00     0.080 A 
HETATM   25  C4  UNL     1      17.687  80.882   6.265  1.00  0.00     0.079 C 
ENDBRANCH  17  18
ENDBRANCH  16  17
ENDBRANCH   1  16
BRANCH   4  26
HETATM   26  O3  UNL     1      16.886  81.204  -1.455  1.00  0.00    -0.387 OA
ATOM     27  H3  UNL     1      16.331  80.882  -0.755  1.00  0.00     0.210 HD
ENDBRANCH   4  26
TORSDOF 4
ENDMDL
MODEL 5
REMARK VINA RESULT: -7.225061982      2.589      3.864
REMARK  4 active torsions:
REMARK  status: ('A' for Active; 'I' for Inactive)
REMARK    1  A    between atoms: C5_8  and  C6_9 
REMARK    2  A    between atoms: C6_9  and  C7_10 
REMARK    3  A    between atoms: C7_10  and  C8_11 
REMARK    4  A    between atoms: C10_14  and  O3_15 
ROOT
HETATM    1  C8  UNL     1      18.565  82.508   1.289  1.00  0.00     0.135 C 
HETATM    2  O2  UNL     1      17.355  81.864   1.368  1.00  0.00    -0.382 OA
HETATM    3  C9  UNL     1      17.576  80.546   1.013  1.00  0.00     0.207 C 
HETATM    4  C10 UNL     1      18.408  80.737  -0.266  1.00  0.00     0.091 C 
HETATM    5  C11 UNL     1      17.435  80.889  -1.391  1.00  0.00     0.041 C 
HETATM    6  C12 UNL     1      18.187  81.511  -2.553  1.00  0.00     0.011 C 
HETATM    7  C13 UNL     1      18.453  82.945  -2.119  1.00  0.00     0.029 C 
HETATM    8  C14 UNL     1      19.215  83.616  -3.223  1.00  0.00     0.088 C 
HETATM    9  C15 UNL     1      19.077  85.106  -3.241  1.00  0.00     0.021 C 
HETATM   10  C16 UNL     1      20.629  83.237  -2.904  1.00  0.00     0.263 C 
HETATM   11  O4  UNL     1      21.600  83.200  -3.701  1.00  0.00    -0.265 OA
HETATM   12  O5  UNL     1      20.674  82.934  -1.565  1.00  0.00    -0.314 OA
HETATM   13  C17 UNL     1      19.379  82.956  -0.970  1.00  0.00     0.150 C 
HETATM   14  C18 UNL     1      19.224  81.915   0.056  1.00  0.00     0.042 C 
HETATM   15  C19 UNL     1      20.637  81.404   0.391  1.00  0.00     0.024 C 
ENDROOT
BRANCH   1  16
HETATM   16  C7  UNL     1      19.367  82.352   2.512  1.00  0.00     0.037 C 
BRANCH  16  17
HETATM   17  C6  UNL     1      18.701  81.863   3.757  1.00  0.00     0.046 C 
BRANCH  17  18
HETATM   18  C5  UNL     1      18.838  82.681   4.955  1.00  0.00    -0.003 A 
HETATM   19  C2  UNL     1      19.450  83.876   5.176  1.00  0.00     0.037 A 
HETATM   20  C1  UNL     1      20.131  84.803   4.249  1.00  0.00     0.071 C 
HETATM   21  N1  UNL     1      19.311  84.160   6.502  1.00  0.00    -0.265 N 
HETATM   22  O1  UNL     1      18.657  83.206   7.048  1.00  0.00    -0.242 OA
ATOM     23  H1  UNL     1      19.666  84.990   6.976  1.00  0.00     0.194 HD
HETATM   24  C3  UNL     1      18.333  82.279   6.202  1.00  0.00     0.080 A 
HETATM   25  C4  UNL     1      17.575  81.050   6.540  1.00  0.00     0.079 C 
ENDBRANCH  17  18
ENDBRANCH  16  17
ENDBRANCH   1  16
BRANCH   4  26
HETATM   26  O3  UNL     1      19.126  79.552  -0.429  1.00  0.00    -0.387 OA
ATOM     27  H3  UNL     1      19.151  79.393  -1.365  1.00  0.00     0.210 HD
ENDBRANCH   4  26
TORSDOF 4
ENDMDL
