MODEL 1
REMARK VINA RESULT: -5.212618872      0.000      0.000
REMARK  3 active torsions:
REMARK  status: ('A' for Active; 'I' for Inactive)
REMARK    1  A    between atoms: S1_2  and  C2_3 
REMARK    2  A    between atoms: C2_3  and  C3_4 
REMARK    3  A    between atoms: C4_5  and  C5_6 
ROOT
HETATM    1  C3  UNL     1      17.891  80.590  -0.017  1.00  0.00    -0.016 A 
HETATM    2  C4  UNL     1      18.535  81.040   1.116  1.00  0.00     0.090 A 
HETATM    3  S2  UNL     1      19.598  82.234   0.506  1.00  0.00    -0.075 SA
HETATM    4  C6  UNL     1      19.202  82.152  -1.159  1.00  0.00     0.050 A 
HETATM    5  C7  UNL     1      18.236  81.181  -1.175  1.00  0.00    -0.010 A 
HETATM    6  C8  UNL     1      17.330  80.949  -2.404  1.00  0.00     0.211 C 
HETATM    7  S3  UNL     1      16.762  82.569  -2.984  1.00  0.00     0.269 S 
HETATM    8  O3  UNL     1      15.329  82.498  -3.372  1.00  0.00    -0.198 OA
HETATM    9  O4  UNL     1      16.811  83.523  -1.787  1.00  0.00    -0.198 OA
HETATM   10  O5  UNL     1      17.796  83.042  -4.174  1.00  0.00    -0.274 OA
HETATM   11  C9  UNL     1      18.255  84.325  -4.046  1.00  0.00     0.205 C 
HETATM   12  C10 UNL     1      19.273  84.515  -2.978  1.00  0.00     0.074 C 
HETATM   13  C11 UNL     1      20.397  85.411  -3.610  1.00  0.00     0.024 C 
HETATM   14  S4  UNL     1      20.122  83.098  -2.353  1.00  0.00    -0.115 SA
ENDROOT
BRANCH   1  15
HETATM   15  C2  UNL     1      16.824  79.477   0.126  1.00  0.00     0.114 C 
BRANCH  15  16
HETATM   16  S1  UNL     1      17.415  77.873   0.134  1.00  0.00    -0.169 SA
HETATM   17  C1  UNL     1      16.873  76.342  -0.296  1.00  0.00     0.090 C 
ENDBRANCH  15  16
ENDBRANCH   1  15
BRANCH   2  18
HETATM   18  C5  UNL     1      18.409  80.645   2.532  1.00  0.00     0.217 C 
HETATM   19  O1  UNL     1      17.575  79.933   3.083  1.00  0.00    -0.643 OA
HETATM   20  O2  UNL     1      19.408  81.160   3.411  1.00  0.00    -0.643 OA
ENDBRANCH   2  18
TORSDOF 3
ENDMDL
MODEL 2
REMARK VINA RESULT: -5.204219560      2.322      2.659
REMARK  3 active torsions:
REMARK  status: ('A' for Active; 'I' for Inactive)
REMARK    1  A    between atoms: S1_2  and  C2_3 
REMARK    2  A    between atoms: C2_3  and  C3_4 
REMARK    3  A    between atoms: C4_5  and  C5_6 
ROOT
HETATM    1  C3  UNL     1      19.004  81.070   0.905  1.00  0.00    -0.016 A 
HETATM    2  C4  UNL     1      19.541  81.552   2.081  1.00  0.00     0.090 A 
HETATM    3  S2  UNL     1      21.152  81.924   1.642  1.00  0.00    -0.075 SA
HETATM    4  C6  UNL     1      21.115  81.477  -0.011  1.00  0.00     0.050 A 
HETATM    5  C7  UNL     1      19.822  81.050  -0.162  1.00  0.00    -0.010 A 
HETATM    6  C8  UNL     1      19.190  80.832  -1.554  1.00  0.00     0.211 C 
HETATM    7  S3  UNL     1      19.627  82.254  -2.588  1.00  0.00     0.269 S 
HETATM    8  O3  UNL     1      18.458  82.665  -3.410  1.00  0.00    -0.198 OA
HETATM    9  O4  UNL     1      19.895  83.433  -1.648  1.00  0.00    -0.198 OA
HETATM   10  O5  UNL     1      20.976  81.838  -3.434  1.00  0.00    -0.274 OA
HETATM   11  C9  UNL     1      21.971  82.777  -3.407  1.00  0.00     0.205 C 
HETATM   12  C10 UNL     1      22.709  82.861  -2.119  1.00  0.00     0.074 C 
HETATM   13  C11 UNL     1      24.230  82.948  -2.498  1.00  0.00     0.024 C 
HETATM   14  S4  UNL     1      22.601  81.508  -0.988  1.00  0.00    -0.115 SA
ENDROOT
BRANCH   1  15
HETATM   15  C2  UNL     1      17.523  80.616   0.894  1.00  0.00     0.114 C 
BRANCH  15  16
HETATM   16  S1  UNL     1      17.253  78.945   1.125  1.00  0.00    -0.169 SA
HETATM   17  C1  UNL     1      17.147  77.557   0.184  1.00  0.00     0.090 C 
ENDBRANCH  15  16
ENDBRANCH   1  15
BRANCH   2  18
HETATM   18  C5  UNL     1      18.952  81.730   3.421  1.00  0.00     0.217 C 
HETATM   19  O1  UNL     1      18.429  80.910   4.170  1.00  0.00    -0.643 OA
HETATM   20  O2  UNL     1      18.993  83.057   3.945  1.00  0.00    -0.643 OA
ENDBRANCH   2  18
TORSDOF 3
ENDMDL
MODEL 3
REMARK VINA RESULT: -5.167440633      3.948      5.558
REMARK  3 active torsions:
REMARK  status: ('A' for Active; 'I' for Inactive)
REMARK    1  A    between atoms: S1_2  and  C2_3 
REMARK    2  A    between atoms: C2_3  and  C3_4 
REMARK    3  A    between atoms: C4_5  and  C5_6 
ROOT
HETATM    1  C3  UNL     1      20.499  81.933   0.542  1.00  0.00    -0.016 A 
HETATM    2  C4  UNL     1      19.318  82.170  -0.131  1.00  0.00     0.090 A 
HETATM    3  S2  UNL     1      19.848  82.571  -1.707  1.00  0.00    -0.075 SA
HETATM    4  C6  UNL     1      21.541  82.422  -1.492  1.00  0.00     0.050 A 
HETATM    5  C7  UNL     1      21.630  82.054  -0.176  1.00  0.00    -0.010 A 
HETATM    6  C8  UNL     1      22.935  81.492   0.430  1.00  0.00     0.211 C 
HETATM    7  S3  UNL     1      23.598  80.266  -0.728  1.00  0.00     0.269 S 
HETATM    8  O3  UNL     1      24.119  79.091   0.017  1.00  0.00    -0.198 OA
HETATM    9  O4  UNL     1      22.420  79.735  -1.550  1.00  0.00    -0.198 OA
HETATM   10  O5  UNL     1      24.694  81.046  -1.677  1.00  0.00    -0.274 OA
HETATM   11  C9  UNL     1      24.547  80.811  -3.018  1.00  0.00     0.205 C 
HETATM   12  C10 UNL     1      23.391  81.505  -3.646  1.00  0.00     0.074 C 
HETATM   13  C11 UNL     1      23.930  82.106  -4.993  1.00  0.00     0.024 C 
HETATM   14  S4  UNL     1      22.661  82.872  -2.800  1.00  0.00    -0.115 SA
ENDROOT
BRANCH   1  15
HETATM   15  C2  UNL     1      20.437  81.533   2.036  1.00  0.00     0.114 C 
BRANCH  15  16
HETATM   16  S1  UNL     1      20.049  82.787   3.130  1.00  0.00    -0.169 SA
HETATM   17  C1  UNL     1      19.073  83.008   4.480  1.00  0.00     0.090 C 
ENDBRANCH  15  16
ENDBRANCH   1  15
BRANCH   2  18
HETATM   18  C5  UNL     1      17.914  82.121   0.317  1.00  0.00     0.217 C 
HETATM   19  O1  UNL     1      17.115  83.032   0.516  1.00  0.00    -0.643 OA
HETATM   20  O2  UNL     1      17.384  80.818   0.557  1.00  0.00    -0.643 OA
ENDBRANCH   2  18
TORSDOF 3
ENDMDL
MODEL 4
REMARK VINA RESULT: -5.127856406      7.601      8.413
REMARK  3 active torsions:
REMARK  status: ('A' for Active; 'I' for Inactive)
REMARK    1  A    between atoms: S1_2  and  C2_3 
REMARK    2  A    between atoms: C2_3  and  C3_4 
REMARK    3  A    between atoms: C4_5  and  C5_6 
ROOT
HETATM    1  C3  UNL     1      26.227  78.665  -3.085  1.00  0.00    -0.016 A 
HETATM    2  C4  UNL     1      27.150  78.203  -2.170  1.00  0.00     0.090 A 
HETATM    3  S2  UNL     1      27.104  79.397  -0.945  1.00  0.00    -0.075 SA
HETATM    4  C6  UNL     1      25.919  80.444  -1.603  1.00  0.00     0.050 A 
HETATM    5  C7  UNL     1      25.595  79.810  -2.772  1.00  0.00    -0.010 A 
HETATM    6  C8  UNL     1      24.342  80.192  -3.590  1.00  0.00     0.211 C 
HETATM    7  S3  UNL     1      22.959  80.363  -2.433  1.00  0.00     0.269 S 
HETATM    8  O3  UNL     1      21.728  79.768  -3.017  1.00  0.00    -0.198 OA
HETATM    9  O4  UNL     1      23.282  79.503  -1.208  1.00  0.00    -0.198 OA
HETATM   10  O5  UNL     1      22.856  81.958  -2.040  1.00  0.00    -0.274 OA
HETATM   11  C9  UNL     1      22.750  82.203  -0.697  1.00  0.00     0.205 C 
HETATM   12  C10 UNL     1      24.010  82.014   0.069  1.00  0.00     0.074 C 
HETATM   13  C11 UNL     1      24.117  83.249   1.033  1.00  0.00     0.024 C 
HETATM   14  S4  UNL     1      25.542  81.992  -0.810  1.00  0.00    -0.115 SA
ENDROOT
BRANCH   1  15
HETATM   15  C2  UNL     1      25.976  77.837  -4.370  1.00  0.00     0.114 C 
BRANCH  15  16
HETATM   16  S1  UNL     1      24.850  76.560  -4.229  1.00  0.00    -0.169 SA
HETATM   17  C1  UNL     1      24.588  75.046  -4.909  1.00  0.00     0.090 C 
ENDBRANCH  15  16
ENDBRANCH   1  15
BRANCH   2  18
HETATM   18  C5  UNL     1      28.006  77.003  -2.168  1.00  0.00     0.217 C 
HETATM   19  O1  UNL     1      29.194  76.878  -2.454  1.00  0.00    -0.643 OA
HETATM   20  O2  UNL     1      27.372  75.788  -1.770  1.00  0.00    -0.643 OA
ENDBRANCH   2  18
TORSDOF 3
ENDMDL
MODEL 5
REMARK VINA RESULT: -5.111389193      1.504      1.717
REMARK  3 active torsions:
REMARK  status: ('A' for Active; 'I' for Inactive)
REMARK    1  A    between atoms: S1_2  and  C2_3 
REMARK    2  A    between atoms: C2_3  and  C3_4 
REMARK    3  A    between atoms: C4_5  and  C5_6 
ROOT
HETATM    1  C3  UNL     1      18.760  81.242  -0.000  1.00  0.00    -0.016 A 
HETATM    2  C4  UNL     1      19.974  81.649   0.514  1.00  0.00     0.090 A 
HETATM    3  S2  UNL     1      20.831  82.151  -0.878  1.00  0.00    -0.075 SA
HETATM    4  C6  UNL     1      19.644  81.850  -2.076  1.00  0.00     0.050 A 
HETATM    5  C7  UNL     1      18.604  81.364  -1.330  1.00  0.00    -0.010 A 
HETATM    6  C8  UNL     1      17.177  81.233  -1.905  1.00  0.00     0.211 C 
HETATM    7  S3  UNL     1      16.798  82.764  -2.797  1.00  0.00     0.269 S 
HETATM    8  O3  UNL     1      15.395  83.177  -2.528  1.00  0.00    -0.198 OA
HETATM    9  O4  UNL     1      17.668  83.869  -2.192  1.00  0.00    -0.198 OA
HETATM   10  O5  UNL     1      17.168  82.503  -4.379  1.00  0.00    -0.274 OA
HETATM   11  C9  UNL     1      17.919  83.493  -4.954  1.00  0.00     0.205 C 
HETATM   12  C10 UNL     1      19.347  83.506  -4.540  1.00  0.00     0.074 C 
HETATM   13  C11 UNL     1      20.175  83.714  -5.858  1.00  0.00     0.024 C 
HETATM   14  S4  UNL     1      20.030  82.054  -3.801  1.00  0.00    -0.115 SA
ENDROOT
BRANCH   1  15
HETATM   15  C2  UNL     1      17.682  80.705   0.973  1.00  0.00     0.114 C 
BRANCH  15  16
HETATM   16  S1  UNL     1      17.476  79.009   0.998  1.00  0.00    -0.169 SA
HETATM   17  C1  UNL     1      17.089  77.783  -0.084  1.00  0.00     0.090 C 
ENDBRANCH  15  16
ENDBRANCH   1  15
BRANCH   2  18
HETATM   18  C5  UNL     1      20.489  81.673   1.896  1.00  0.00     0.217 C 
HETATM   19  O1  UNL     1      19.940  82.017   2.938  1.00  0.00    -0.643 OA
HETATM   20  O2  UNL     1      21.834  81.228   2.065  1.00  0.00    -0.643 OA
ENDBRANCH   2  18
TORSDOF 3
ENDMDL
