MODEL 1
REMARK VINA RESULT: -8.778279629      0.000      0.000
REMARK  3 active torsions:
REMARK  status: ('A' for Active; 'I' for Inactive)
REMARK    1  A    between atoms: C2_2  and  C3_4 
REMARK    2  A    between atoms: C6_9  and  N2_10 
REMARK    3  A    between atoms: C13_18  and  C14_19 
ROOT
HETATM    1  C3  UNL     1      20.509  85.000   6.511  1.00  0.00     0.119 A 
HETATM    2  C4  UNL     1      20.745  85.074   5.164  1.00  0.00     0.073 A 
HETATM    3  C5  UNL     1      20.096  84.225   4.255  1.00  0.00     0.078 A 
HETATM    4  N1  UNL     1      20.126  84.071   2.920  1.00  0.00    -0.319 N 
ATOM      5  H1  UNL     1      20.688  84.601   2.254  1.00  0.00     0.169 HD
HETATM    6  C6  UNL     1      19.266  83.076   2.640  1.00  0.00     0.227 A 
HETATM    7  O3  UNL     1      18.736  82.642   3.757  1.00  0.00    -0.271 OA
HETATM    8  C17 UNL     1      19.211  83.315   4.792  1.00  0.00     0.181 A 
HETATM    9  C18 UNL     1      18.995  83.267   6.158  1.00  0.00     0.325 A 
HETATM   10  O4  UNL     1      18.175  82.421   6.629  1.00  0.00    -0.257 OA
HETATM   11  O5  UNL     1      19.641  84.095   6.935  1.00  0.00    -0.270 OA
ENDROOT
BRANCH   6  12
HETATM   12  N2  UNL     1      18.985  82.579   1.335  1.00  0.00    -0.347 N 
HETATM   13  C7  UNL     1      17.627  82.524   0.841  1.00  0.00     0.131 C 
HETATM   14  C8  UNL     1      17.663  81.898  -0.555  1.00  0.00     0.088 C 
HETATM   15  C9  UNL     1      18.320  80.535  -0.401  1.00  0.00     0.167 C 
HETATM   16  C10 UNL     1      19.778  80.727  -0.062  1.00  0.00     0.088 C 
HETATM   17  O1  UNL     1      17.711  79.900   0.660  1.00  0.00    -0.352 OA
HETATM   18  O2  UNL     1      18.162  79.739  -1.517  1.00  0.00    -0.347 OA
HETATM   19  C11 UNL     1      20.053  82.116   0.464  1.00  0.00     0.131 C 
HETATM   20  C12 UNL     1      16.868  78.938   0.156  1.00  0.00     0.203 C 
HETATM   21  C13 UNL     1      16.904  79.199  -1.334  1.00  0.00     0.152 C 
BRANCH  21  22
HETATM   22  C14 UNL     1      16.777  77.842  -2.015  1.00  0.00     0.009 C 
HETATM   23  C15 UNL     1      17.255  76.721  -1.150  1.00  0.00     0.012 C 
HETATM   24  C16 UNL     1      17.607  77.928  -3.294  1.00  0.00     0.012 C 
ENDBRANCH  21  22
ENDBRANCH   6  12
BRANCH   1  25
HETATM   25  C2  UNL     1      21.181  85.878   7.445  1.00  0.00     0.141 C 
HETATM   26  C1  UNL     1      21.989  85.395   8.357  1.00  0.00     0.059 C 
HETATM   27  F1  UNL     1      21.004  87.230   7.418  1.00  0.00    -0.204 F 
ENDBRANCH   1  25
TORSDOF 3
ENDMDL
MODEL 2
REMARK VINA RESULT: -8.519116178      1.063      1.175
REMARK  3 active torsions:
REMARK  status: ('A' for Active; 'I' for Inactive)
REMARK    1  A    between atoms: C2_2  and  C3_4 
REMARK    2  A    between atoms: C6_9  and  N2_10 
REMARK    3  A    between atoms: C13_18  and  C14_19 
ROOT
HETATM    1  C3  UNL     1      19.571  84.089   6.694  1.00  0.00     0.119 A 
HETATM    2  C4  UNL     1      19.860  84.458   5.408  1.00  0.00     0.073 A 
HETATM    3  C5  UNL     1      19.437  83.694   4.310  1.00  0.00     0.078 A 
HETATM    4  N1  UNL     1      19.566  83.803   2.977  1.00  0.00    -0.319 N 
ATOM      5  H1  UNL     1      20.049  84.542   2.467  1.00  0.00     0.169 HD
HETATM    6  C6  UNL     1      18.931  82.740   2.452  1.00  0.00     0.227 A 
HETATM    7  O3  UNL     1      18.436  82.016   3.424  1.00  0.00    -0.271 OA
HETATM    8  C17 UNL     1      18.716  82.555   4.599  1.00  0.00     0.181 A 
HETATM    9  C18 UNL     1      18.441  82.211   5.911  1.00  0.00     0.325 A 
HETATM   10  O4  UNL     1      17.776  81.157   6.152  1.00  0.00    -0.257 OA
HETATM   11  O5  UNL     1      18.873  82.979   6.875  1.00  0.00    -0.270 OA
ENDROOT
BRANCH   6  12
HETATM   12  N2  UNL     1      18.821  82.458   1.060  1.00  0.00    -0.347 N 
HETATM   13  C7  UNL     1      17.539  82.515   0.392  1.00  0.00     0.131 C 
HETATM   14  C8  UNL     1      17.755  82.109  -1.067  1.00  0.00     0.088 C 
HETATM   15  C9  UNL     1      18.376  80.721  -1.044  1.00  0.00     0.167 C 
HETATM   16  C10 UNL     1      19.779  80.820  -0.494  1.00  0.00     0.088 C 
HETATM   17  O1  UNL     1      17.629  79.948  -0.181  1.00  0.00    -0.352 OA
HETATM   18  O2  UNL     1      18.361  80.111  -2.280  1.00  0.00    -0.347 OA
HETATM   19  C11 UNL     1      19.991  82.105   0.273  1.00  0.00     0.131 C 
HETATM   20  C12 UNL     1      16.854  79.098  -0.933  1.00  0.00     0.203 C 
HETATM   21  C13 UNL     1      17.087  79.583  -2.347  1.00  0.00     0.152 C 
BRANCH  21  22
HETATM   22  C14 UNL     1      17.042  78.350  -3.242  1.00  0.00     0.009 C 
HETATM   23  C15 UNL     1      17.154  77.077  -2.466  1.00  0.00     0.012 C 
HETATM   24  C16 UNL     1      18.206  78.491  -4.219  1.00  0.00     0.012 C 
ENDBRANCH  21  22
ENDBRANCH   6  12
BRANCH   1  25
HETATM   25  C2  UNL     1      20.010  84.881   7.824  1.00  0.00     0.141 C 
HETATM   26  C1  UNL     1      21.110  85.591   7.759  1.00  0.00     0.059 C 
HETATM   27  F1  UNL     1      19.306  84.923   8.992  1.00  0.00    -0.204 F 
ENDBRANCH   1  25
TORSDOF 3
ENDMDL
MODEL 3
REMARK VINA RESULT: -8.513774076      1.659      2.393
REMARK  3 active torsions:
REMARK  status: ('A' for Active; 'I' for Inactive)
REMARK    1  A    between atoms: C2_2  and  C3_4 
REMARK    2  A    between atoms: C6_9  and  N2_10 
REMARK    3  A    between atoms: C13_18  and  C14_19 
ROOT
HETATM    1  C3  UNL     1      20.368  85.112   6.379  1.00  0.00     0.119 A 
HETATM    2  C4  UNL     1      20.680  85.013   5.050  1.00  0.00     0.073 A 
HETATM    3  C5  UNL     1      20.115  84.020   4.234  1.00  0.00     0.078 A 
HETATM    4  N1  UNL     1      20.228  83.687   2.937  1.00  0.00    -0.319 N 
ATOM      5  H1  UNL     1      20.808  84.146   2.234  1.00  0.00     0.169 HD
HETATM    6  C6  UNL     1      19.422  82.626   2.753  1.00  0.00     0.227 A 
HETATM    7  O3  UNL     1      18.844  82.327   3.889  1.00  0.00    -0.271 OA
HETATM    8  C17 UNL     1      19.234  83.155   4.845  1.00  0.00     0.181 A 
HETATM    9  C18 UNL     1      18.941  83.284   6.190  1.00  0.00     0.325 A 
HETATM   10  O4  UNL     1      18.125  82.475   6.731  1.00  0.00    -0.257 OA
HETATM   11  O5  UNL     1      19.511  84.237   6.878  1.00  0.00    -0.270 OA
ENDROOT
BRANCH   6  12
HETATM   12  N2  UNL     1      19.235  81.945   1.515  1.00  0.00    -0.347 N 
HETATM   13  C7  UNL     1      19.746  82.499   0.281  1.00  0.00     0.131 C 
HETATM   14  C8  UNL     1      19.334  81.562  -0.856  1.00  0.00     0.088 C 
HETATM   15  C9  UNL     1      17.818  81.461  -0.807  1.00  0.00     0.167 C 
HETATM   16  C10 UNL     1      17.415  80.705   0.436  1.00  0.00     0.088 C 
HETATM   17  O1  UNL     1      17.321  82.744  -0.711  1.00  0.00    -0.352 OA
HETATM   18  O2  UNL     1      17.286  80.886  -1.941  1.00  0.00    -0.347 OA
HETATM   19  C11 UNL     1      18.528  80.677   1.459  1.00  0.00     0.131 C 
HETATM   20  C12 UNL     1      16.809  83.096  -1.937  1.00  0.00     0.203 C 
HETATM   21  C13 UNL     1      17.226  81.945  -2.826  1.00  0.00     0.152 C 
BRANCH  21  22
HETATM   22  C14 UNL     1      16.111  81.757  -3.845  1.00  0.00     0.009 C 
HETATM   23  C15 UNL     1      15.256  82.975  -3.989  1.00  0.00     0.012 C 
HETATM   24  C16 UNL     1      15.282  80.572  -3.356  1.00  0.00     0.012 C 
ENDBRANCH  21  22
ENDBRANCH   6  12
BRANCH   1  25
HETATM   25  C2  UNL     1      20.953  86.138   7.217  1.00  0.00     0.141 C 
HETATM   26  C1  UNL     1      21.848  85.833   8.125  1.00  0.00     0.059 C 
HETATM   27  F1  UNL     1      20.602  87.451   7.100  1.00  0.00    -0.204 F 
ENDBRANCH   1  25
TORSDOF 3
ENDMDL
MODEL 4
REMARK VINA RESULT: -8.501331648      2.051      2.838
REMARK  3 active torsions:
REMARK  status: ('A' for Active; 'I' for Inactive)
REMARK    1  A    between atoms: C2_2  and  C3_4 
REMARK    2  A    between atoms: C6_9  and  N2_10 
REMARK    3  A    between atoms: C13_18  and  C14_19 
ROOT
HETATM    1  C3  UNL     1      18.957  83.744   7.059  1.00  0.00     0.119 A 
HETATM    2  C4  UNL     1      19.341  83.908   5.755  1.00  0.00     0.073 A 
HETATM    3  C5  UNL     1      19.068  82.938   4.779  1.00  0.00     0.078 A 
HETATM    4  N1  UNL     1      19.315  82.827   3.463  1.00  0.00    -0.319 N 
ATOM      5  H1  UNL     1      19.798  83.502   2.870  1.00  0.00     0.169 HD
HETATM    6  C6  UNL     1      18.796  81.645   3.084  1.00  0.00     0.227 A 
HETATM    7  O3  UNL     1      18.258  81.062   4.125  1.00  0.00    -0.271 OA
HETATM    8  C17 UNL     1      18.394  81.814   5.206  1.00  0.00     0.181 A 
HETATM    9  C18 UNL     1      18.020  81.680   6.531  1.00  0.00     0.325 A 
HETATM   10  O4  UNL     1      17.400  80.635   6.900  1.00  0.00    -0.257 OA
HETATM   11  O5  UNL     1      18.313  82.631   7.376  1.00  0.00    -0.270 OA
ENDROOT
BRANCH   6  12
HETATM   12  N2  UNL     1      18.833  81.122   1.760  1.00  0.00    -0.347 N 
HETATM   13  C7  UNL     1      19.639  81.751   0.737  1.00  0.00     0.131 C 
HETATM   14  C8  UNL     1      19.416  80.986  -0.569  1.00  0.00     0.088 C 
HETATM   15  C9  UNL     1      17.922  81.030  -0.848  1.00  0.00     0.167 C 
HETATM   16  C10 UNL     1      17.206  80.188   0.181  1.00  0.00     0.088 C 
HETATM   17  O1  UNL     1      17.512  82.337  -0.697  1.00  0.00    -0.352 OA
HETATM   18  O2  UNL     1      17.609  80.633  -2.131  1.00  0.00    -0.347 OA
HETATM   19  C11 UNL     1      18.064  79.942   1.400  1.00  0.00     0.131 C 
HETATM   20  C12 UNL     1      17.305  82.866  -1.949  1.00  0.00     0.203 C 
HETATM   21  C13 UNL     1      17.820  81.781  -2.869  1.00  0.00     0.152 C 
BRANCH  21  22
HETATM   22  C14 UNL     1      16.942  81.813  -4.112  1.00  0.00     0.009 C 
HETATM   23  C15 UNL     1      16.696  83.204  -4.603  1.00  0.00     0.012 C 
HETATM   24  C16 UNL     1      15.628  81.139  -3.723  1.00  0.00     0.012 C 
ENDBRANCH  21  22
ENDBRANCH   6  12
BRANCH   1  25
HETATM   25  C2  UNL     1      19.240  84.748   8.062  1.00  0.00     0.141 C 
HETATM   26  C1  UNL     1      20.463  84.938   8.495  1.00  0.00     0.059 C 
HETATM   27  F1  UNL     1      18.259  85.531   8.595  1.00  0.00    -0.204 F 
ENDBRANCH   1  25
TORSDOF 3
ENDMDL
MODEL 5
REMARK VINA RESULT: -8.400636640      1.613      2.061
REMARK  3 active torsions:
REMARK  status: ('A' for Active; 'I' for Inactive)
REMARK    1  A    between atoms: C2_2  and  C3_4 
REMARK    2  A    between atoms: C6_9  and  N2_10 
REMARK    3  A    between atoms: C13_18  and  C14_19 
ROOT
HETATM    1  C3  UNL     1      19.511  83.667   6.668  1.00  0.00     0.119 A 
HETATM    2  C4  UNL     1      18.824  82.874   5.788  1.00  0.00     0.073 A 
HETATM    3  C5  UNL     1      19.042  82.950   4.404  1.00  0.00     0.078 A 
HETATM    4  N1  UNL     1      18.534  82.320   3.331  1.00  0.00    -0.319 N 
ATOM      5  H1  UNL     1      17.820  81.592   3.330  1.00  0.00     0.169 HD
HETATM    6  C6  UNL     1      19.158  82.842   2.261  1.00  0.00     0.227 A 
HETATM    7  O3  UNL     1      20.009  83.752   2.664  1.00  0.00    -0.271 OA
HETATM    8  C17 UNL     1      19.983  83.865   3.982  1.00  0.00     0.181 A 
HETATM    9  C18 UNL     1      20.659  84.651   4.898  1.00  0.00     0.325 A 
HETATM   10  O4  UNL     1      21.521  85.486   4.486  1.00  0.00    -0.257 OA
HETATM   11  O5  UNL     1      20.396  84.516   6.170  1.00  0.00    -0.270 OA
ENDROOT
BRANCH   6  12
HETATM   12  N2  UNL     1      18.922  82.460   0.909  1.00  0.00    -0.347 N 
HETATM   13  C7  UNL     1      17.579  82.420   0.374  1.00  0.00     0.131 C 
HETATM   14  C8  UNL     1      17.667  81.923  -1.071  1.00  0.00     0.088 C 
HETATM   15  C9  UNL     1      18.351  80.566  -1.021  1.00  0.00     0.167 C 
HETATM   16  C10 UNL     1      19.795  80.758  -0.626  1.00  0.00     0.088 C 
HETATM   17  O1  UNL     1      17.730  79.825  -0.039  1.00  0.00    -0.352 OA
HETATM   18  O2  UNL     1      18.241  79.871  -2.208  1.00  0.00    -0.347 OA
HETATM   19  C11 UNL     1      20.023  82.100   0.030  1.00  0.00     0.131 C 
HETATM   20  C12 UNL     1      16.924  78.895  -0.650  1.00  0.00     0.203 C 
HETATM   21  C13 UNL     1      16.992  79.290  -2.110  1.00  0.00     0.152 C 
BRANCH  21  22
HETATM   22  C14 UNL     1      16.915  77.998  -2.913  1.00  0.00     0.009 C 
HETATM   23  C15 UNL     1      17.221  76.791  -2.085  1.00  0.00     0.012 C 
HETATM   24  C16 UNL     1      17.924  78.143  -4.049  1.00  0.00     0.012 C 
ENDBRANCH  21  22
ENDBRANCH   6  12
BRANCH   1  25
HETATM   25  C2  UNL     1      19.283  83.585   8.095  1.00  0.00     0.141 C 
HETATM   26  C1  UNL     1      18.076  83.713   8.590  1.00  0.00     0.059 C 
HETATM   27  F1  UNL     1      20.302  83.374   8.977  1.00  0.00    -0.204 F 
ENDBRANCH   1  25
TORSDOF 3
ENDMDL
