MODEL 1
REMARK VINA RESULT: -6.294852376      0.000      0.000
REMARK  5 active torsions:
REMARK  status: ('A' for Active; 'I' for Inactive)
REMARK    1  A    between atoms: C2_2  and  O1_3 
REMARK    2  A    between atoms: O1_3  and  C3_4 
REMARK       I    between atoms: C3_4  and  N1_6 
REMARK    3  A    between atoms: N2_9  and  C6_10 
REMARK    4  A    between atoms: C8_13  and  O4_14 
REMARK    5  A    between atoms: C11_19  and  O6_20 
ROOT
HETATM    1  C3  UNL     1      18.990  82.845   3.555  1.00  0.00     0.362 C 
HETATM    2  O2  UNL     1      18.990  82.245   4.671  1.00  0.00    -0.238 OA
HETATM    3  N1  UNL     1      18.830  82.094   2.353  1.00  0.00    -0.326 N 
HETATM    4  C4  UNL     1      18.685  80.688   2.578  1.00  0.00     0.148 C 
HETATM    5  C5  UNL     1      17.660  80.015   1.717  1.00  0.00     0.145 C 
HETATM    6  N2  UNL     1      18.134  79.975   0.350  1.00  0.00    -0.350 N 
HETATM    7  C10 UNL     1      19.060  80.883  -0.254  1.00  0.00     0.236 C 
HETATM    8  O5  UNL     1      20.362  80.760   0.219  1.00  0.00    -0.336 OA
HETATM    9  C11 UNL     1      21.274  81.348  -0.630  1.00  0.00     0.261 C 
HETATM   10  C13 UNL     1      20.694  82.300  -1.620  1.00  0.00     0.062 C 
HETATM   11  C14 UNL     1      19.521  83.088  -1.132  1.00  0.00     0.020 C 
HETATM   12  C15 UNL     1      18.678  82.331  -0.120  1.00  0.00     0.017 C 
HETATM   13  C16 UNL     1      17.216  82.462  -0.532  1.00  0.00     0.021 C 
HETATM   14  C17 UNL     1      18.857  82.944   1.198  1.00  0.00     0.141 C 
ENDROOT
BRANCH   6  15
HETATM   15  C6  UNL     1      17.581  78.909  -0.409  1.00  0.00     0.059 A 
HETATM   16  C7  UNL     1      17.190  78.935  -1.730  1.00  0.00     0.174 A 
HETATM   17  O3  UNL     1      16.728  77.762  -2.070  1.00  0.00    -0.298 OA
HETATM   18  C8  UNL     1      16.777  76.933  -1.066  1.00  0.00     0.184 A 
HETATM   19  C9  UNL     1      17.313  77.626   0.008  1.00  0.00     0.095 A 
BRANCH  18  20
HETATM   20  O4  UNL     1      16.367  75.584  -1.055  1.00  0.00    -0.341 OA
ATOM     21  H4  UNL     1      16.176  75.049  -0.295  1.00  0.00     0.220 HD
ENDBRANCH  18  20
ENDBRANCH   6  15
BRANCH   9  22
HETATM   22  O6  UNL     1      21.924  80.324  -1.314  1.00  0.00    -0.366 OA
HETATM   23  C12 UNL     1      23.278  80.254  -0.953  1.00  0.00     0.204 C 
ENDBRANCH   9  22
BRANCH   1  24
HETATM   24  O1  UNL     1      19.147  84.220   3.577  1.00  0.00    -0.304 OA
BRANCH  24  25
HETATM   25  C2  UNL     1      19.903  84.789   4.626  1.00  0.00     0.176 C 
HETATM   26  C1  UNL     1      21.294  85.145   4.122  1.00  0.00     0.034 C 
ENDBRANCH  24  25
ENDBRANCH   1  24
TORSDOF 5
ENDMDL
MODEL 2
REMARK VINA RESULT: -6.263710393      1.459      1.739
REMARK  5 active torsions:
REMARK  status: ('A' for Active; 'I' for Inactive)
REMARK    1  A    between atoms: C2_2  and  O1_3 
REMARK    2  A    between atoms: O1_3  and  C3_4 
REMARK       I    between atoms: C3_4  and  N1_6 
REMARK    3  A    between atoms: N2_9  and  C6_10 
REMARK    4  A    between atoms: C8_13  and  O4_14 
REMARK    5  A    between atoms: C11_19  and  O6_20 
ROOT
HETATM    1  C3  UNL     1      18.572  81.622   2.819  1.00  0.00     0.362 C 
HETATM    2  O2  UNL     1      18.368  80.741   3.706  1.00  0.00    -0.238 OA
HETATM    3  N1  UNL     1      18.406  81.287   1.443  1.00  0.00    -0.326 N 
HETATM    4  C4  UNL     1      18.010  79.928   1.234  1.00  0.00     0.148 C 
HETATM    5  C5  UNL     1      16.974  79.729   0.170  1.00  0.00     0.145 C 
HETATM    6  N2  UNL     1      17.563  79.993  -1.127  1.00  0.00    -0.350 N 
HETATM    7  C10 UNL     1      18.680  80.846  -1.394  1.00  0.00     0.236 C 
HETATM    8  O5  UNL     1      19.892  80.355  -0.923  1.00  0.00    -0.336 OA
HETATM    9  C11 UNL     1      20.965  80.980  -1.520  1.00  0.00     0.261 C 
HETATM   10  C13 UNL     1      20.647  82.264  -2.207  1.00  0.00     0.062 C 
HETATM   11  C14 UNL     1      19.579  83.084  -1.557  1.00  0.00     0.020 C 
HETATM   12  C15 UNL     1      18.531  82.241  -0.852  1.00  0.00     0.017 C 
HETATM   13  C16 UNL     1      17.156  82.753  -1.268  1.00  0.00     0.021 C 
HETATM   14  C17 UNL     1      18.682  82.410   0.595  1.00  0.00     0.141 C 
ENDROOT
BRANCH   6  15
HETATM   15  C6  UNL     1      16.916  79.308  -2.190  1.00  0.00     0.059 A 
HETATM   16  C7  UNL     1      15.970  79.809  -3.057  1.00  0.00     0.174 A 
HETATM   17  O3  UNL     1      15.611  78.875  -3.896  1.00  0.00    -0.298 OA
HETATM   18  C8  UNL     1      16.252  77.765  -3.661  1.00  0.00     0.184 A 
HETATM   19  C9  UNL     1      17.091  78.002  -2.582  1.00  0.00     0.095 A 
BRANCH  18  20
HETATM   20  O4  UNL     1      16.129  76.547  -4.358  1.00  0.00    -0.341 OA
ATOM     21  H4  UNL     1      16.821  76.061  -4.791  1.00  0.00     0.220 HD
ENDBRANCH  18  20
ENDBRANCH   6  15
BRANCH   9  22
HETATM   22  O6  UNL     1      21.499  80.090  -2.449  1.00  0.00    -0.366 OA
HETATM   23  C12 UNL     1      22.890  79.977  -2.299  1.00  0.00     0.204 C 
ENDBRANCH   9  22
BRANCH   1  24
HETATM   24  O1  UNL     1      18.952  82.880   3.255  1.00  0.00    -0.304 OA
BRANCH  24  25
HETATM   25  C2  UNL     1      19.095  83.091   4.644  1.00  0.00     0.176 C 
HETATM   26  C1  UNL     1      19.521  84.528   4.904  1.00  0.00     0.034 C 
ENDBRANCH  24  25
ENDBRANCH   1  24
TORSDOF 5
ENDMDL
MODEL 3
REMARK VINA RESULT: -6.171877308      7.168     10.577
REMARK  5 active torsions:
REMARK  status: ('A' for Active; 'I' for Inactive)
REMARK    1  A    between atoms: C2_2  and  O1_3 
REMARK    2  A    between atoms: O1_3  and  C3_4 
REMARK       I    between atoms: C3_4  and  N1_6 
REMARK    3  A    between atoms: N2_9  and  C6_10 
REMARK    4  A    between atoms: C8_13  and  O4_14 
REMARK    5  A    between atoms: C11_19  and  O6_20 
ROOT
HETATM    1  C3  UNL     1      25.434  76.914  -4.533  1.00  0.00     0.362 C 
HETATM    2  O2  UNL     1      25.066  77.483  -5.604  1.00  0.00    -0.238 OA
HETATM    3  N1  UNL     1      25.855  77.708  -3.425  1.00  0.00    -0.326 N 
HETATM    4  C4  UNL     1      25.804  79.114  -3.683  1.00  0.00     0.148 C 
HETATM    5  C5  UNL     1      25.293  79.946  -2.547  1.00  0.00     0.145 C 
HETATM    6  N2  UNL     1      26.270  79.949  -1.478  1.00  0.00    -0.350 N 
HETATM    7  C10 UNL     1      27.242  78.933  -1.214  1.00  0.00     0.236 C 
HETATM    8  O5  UNL     1      28.255  78.859  -2.163  1.00  0.00    -0.336 OA
HETATM    9  C11 UNL     1      29.349  78.167  -1.693  1.00  0.00     0.261 C 
HETATM   10  C13 UNL     1      29.096  77.329  -0.485  1.00  0.00     0.062 C 
HETATM   11  C14 UNL     1      27.740  76.706  -0.417  1.00  0.00     0.020 C 
HETATM   12  C15 UNL     1      26.665  77.551  -1.077  1.00  0.00     0.017 C 
HETATM   13  C16 UNL     1      25.481  77.639  -0.121  1.00  0.00     0.021 C 
HETATM   14  C17 UNL     1      26.232  76.889  -2.310  1.00  0.00     0.141 C 
ENDROOT
BRANCH   6  15
HETATM   15  C6  UNL     1      26.197  81.100  -0.649  1.00  0.00     0.059 A 
HETATM   16  C7  UNL     1      25.106  81.916  -0.440  1.00  0.00     0.174 A 
HETATM   17  O3  UNL     1      25.431  82.873   0.386  1.00  0.00    -0.298 OA
HETATM   18  C8  UNL     1      26.675  82.767   0.759  1.00  0.00     0.184 A 
HETATM   19  C9  UNL     1      27.195  81.650   0.121  1.00  0.00     0.095 A 
BRANCH  18  20
HETATM   20  O4  UNL     1      27.374  83.614   1.641  1.00  0.00    -0.341 OA
ATOM     21  H4  UNL     1      28.256  83.493   1.974  1.00  0.00     0.220 HD
ENDBRANCH  18  20
ENDBRANCH   6  15
BRANCH   9  22
HETATM   22  O6  UNL     1      30.337  79.103  -1.396  1.00  0.00    -0.366 OA
HETATM   23  C12 UNL     1      30.712  79.031  -0.045  1.00  0.00     0.204 C 
ENDBRANCH   9  22
BRANCH   1  24
HETATM   24  O1  UNL     1      25.401  75.531  -4.509  1.00  0.00    -0.304 OA
BRANCH  24  25
HETATM   25  C2  UNL     1      24.667  74.862  -5.514  1.00  0.00     0.176 C 
HETATM   26  C1  UNL     1      23.419  74.238  -4.908  1.00  0.00     0.034 C 
ENDBRANCH  24  25
ENDBRANCH   1  24
TORSDOF 5
ENDMDL
MODEL 4
REMARK VINA RESULT: -5.962225743      2.563      4.701
REMARK  5 active torsions:
REMARK  status: ('A' for Active; 'I' for Inactive)
REMARK    1  A    between atoms: C2_2  and  O1_3 
REMARK    2  A    between atoms: O1_3  and  C3_4 
REMARK       I    between atoms: C3_4  and  N1_6 
REMARK    3  A    between atoms: N2_9  and  C6_10 
REMARK    4  A    between atoms: C8_13  and  O4_14 
REMARK    5  A    between atoms: C11_19  and  O6_20 
ROOT
HETATM    1  C3  UNL     1      18.789  84.304  -2.826  1.00  0.00     0.362 C 
HETATM    2  O2  UNL     1      17.742  84.671  -3.437  1.00  0.00    -0.238 OA
HETATM    3  N1  UNL     1      18.753  83.134  -2.011  1.00  0.00    -0.326 N 
HETATM    4  C4  UNL     1      17.473  82.496  -1.991  1.00  0.00     0.148 C 
HETATM    5  C5  UNL     1      17.513  80.999  -2.048  1.00  0.00     0.145 C 
HETATM    6  N2  UNL     1      18.039  80.486  -0.800  1.00  0.00    -0.350 N 
HETATM    7  C10 UNL     1      18.919  81.172   0.096  1.00  0.00     0.236 C 
HETATM    8  O5  UNL     1      18.328  82.239   0.763  1.00  0.00    -0.336 OA
HETATM    9  C11 UNL     1      19.054  82.618   1.870  1.00  0.00     0.261 C 
HETATM   10  C13 UNL     1      20.458  82.116   1.907  1.00  0.00     0.062 C 
HETATM   11  C14 UNL     1      21.132  82.017   0.577  1.00  0.00     0.020 C 
HETATM   12  C15 UNL     1      20.169  81.698  -0.553  1.00  0.00     0.017 C 
HETATM   13  C16 UNL     1      20.771  80.566  -1.379  1.00  0.00     0.021 C 
HETATM   14  C17 UNL     1      20.027  82.882  -1.403  1.00  0.00     0.141 C 
ENDROOT
BRANCH   6  15
HETATM   15  C6  UNL     1      17.601  79.169  -0.501  1.00  0.00     0.059 A 
HETATM   16  C7  UNL     1      17.507  78.577   0.740  1.00  0.00     0.174 A 
HETATM   17  O3  UNL     1      17.067  77.355   0.607  1.00  0.00    -0.298 OA
HETATM   18  C8  UNL     1      16.852  77.070  -0.646  1.00  0.00     0.184 A 
HETATM   19  C9  UNL     1      17.181  78.199  -1.382  1.00  0.00     0.095 A 
BRANCH  18  20
HETATM   20  O4  UNL     1      16.376  75.853  -1.173  1.00  0.00    -0.341 OA
ATOM     21  H4  UNL     1      16.545  75.496  -2.036  1.00  0.00     0.220 HD
ENDBRANCH  18  20
ENDBRANCH   6  15
BRANCH   9  22
HETATM   22  O6  UNL     1      18.376  82.147   2.993  1.00  0.00    -0.366 OA
HETATM   23  C12 UNL     1      18.995  82.580   4.176  1.00  0.00     0.204 C 
ENDBRANCH   9  22
BRANCH   1  24
HETATM   24  O1  UNL     1      19.923  85.081  -2.992  1.00  0.00    -0.304 OA
BRANCH  24  25
HETATM   25  C2  UNL     1      19.884  86.126  -3.942  1.00  0.00     0.176 C 
HETATM   26  C1  UNL     1      20.733  85.755  -5.148  1.00  0.00     0.034 C 
ENDBRANCH  24  25
ENDBRANCH   1  24
TORSDOF 5
ENDMDL
MODEL 5
REMARK VINA RESULT: -5.773814905      2.616      5.587
REMARK  5 active torsions:
REMARK  status: ('A' for Active; 'I' for Inactive)
REMARK    1  A    between atoms: C2_2  and  O1_3 
REMARK    2  A    between atoms: O1_3  and  C3_4 
REMARK       I    between atoms: C3_4  and  N1_6 
REMARK    3  A    between atoms: N2_9  and  C6_10 
REMARK    4  A    between atoms: C8_13  and  O4_14 
REMARK    5  A    between atoms: C11_19  and  O6_20 
ROOT
HETATM    1  C3  UNL     1      20.794  83.112  -3.760  1.00  0.00     0.362 C 
HETATM    2  O2  UNL     1      22.044  83.132  -3.552  1.00  0.00    -0.238 OA
HETATM    3  N1  UNL     1      19.941  82.420  -2.849  1.00  0.00    -0.326 N 
HETATM    4  C4  UNL     1      20.647  81.808  -1.766  1.00  0.00     0.148 C 
HETATM    5  C5  UNL     1      19.978  81.926  -0.430  1.00  0.00     0.145 C 
HETATM    6  N2  UNL     1      18.787  81.103  -0.416  1.00  0.00    -0.350 N 
HETATM    7  C10 UNL     1      18.008  80.719  -1.553  1.00  0.00     0.236 C 
HETATM    8  O5  UNL     1      18.643  79.815  -2.396  1.00  0.00    -0.336 OA
HETATM    9  C11 UNL     1      17.753  79.182  -3.235  1.00  0.00     0.261 C 
HETATM   10  C13 UNL     1      16.421  79.842  -3.358  1.00  0.00     0.062 C 
HETATM   11  C14 UNL     1      16.444  81.335  -3.291  1.00  0.00     0.020 C 
HETATM   12  C15 UNL     1      17.555  81.872  -2.405  1.00  0.00     0.017 C 
HETATM   13  C16 UNL     1      16.953  82.922  -1.479  1.00  0.00     0.021 C 
HETATM   14  C17 UNL     1      18.568  82.509  -3.251  1.00  0.00     0.141 C 
ENDROOT
BRANCH   6  15
HETATM   15  C6  UNL     1      18.412  80.674   0.885  1.00  0.00     0.059 A 
HETATM   16  C7  UNL     1      17.572  79.632   1.215  1.00  0.00     0.174 A 
HETATM   17  O3  UNL     1      17.470  79.551   2.514  1.00  0.00    -0.298 OA
HETATM   18  C8  UNL     1      18.187  80.470   3.097  1.00  0.00     0.184 A 
HETATM   19  C9  UNL     1      18.800  81.204   2.093  1.00  0.00     0.095 A 
BRANCH  18  20
HETATM   20  O4  UNL     1      18.325  80.691   4.482  1.00  0.00    -0.341 OA
ATOM     21  H4  UNL     1      18.802  81.393   4.906  1.00  0.00     0.220 HD
ENDBRANCH  18  20
ENDBRANCH   6  15
BRANCH   9  22
HETATM   22  O6  UNL     1      17.574  77.888  -2.751  1.00  0.00    -0.366 OA
HETATM   23  C12 UNL     1      17.194  77.012  -3.779  1.00  0.00     0.204 C 
ENDBRANCH   9  22
BRANCH   1  24
HETATM   24  O1  UNL     1      20.329  83.778  -4.880  1.00  0.00    -0.304 OA
BRANCH  24  25
HETATM   25  C2  UNL     1      20.595  85.161  -4.994  1.00  0.00     0.176 C 
HETATM   26  C1  UNL     1      19.821  85.922  -3.929  1.00  0.00     0.034 C 
ENDBRANCH  24  25
ENDBRANCH   1  24
TORSDOF 5
ENDMDL
