MODEL 1
REMARK VINA RESULT: -7.759405438      0.000      0.000
REMARK  3 active torsions:
REMARK  status: ('A' for Active; 'I' for Inactive)
REMARK    1  A    between atoms: C5_7  and  S1_8 
REMARK    2  A    between atoms: S1_8  and  C6_9 
REMARK    3  A    between atoms: C7_14  and  C8_15 
ROOT
HETATM    1  C6  UNL     1      18.484  12.221  42.287  1.00  0.00     0.109 A 
HETATM    2  N1  UNL     1      17.784  13.053  41.524  1.00  0.00    -0.292 N 
ATOM      3  H1  UNL     1      17.440  13.971  41.806  1.00  0.00     0.187 HD
HETATM    4  N2  UNL     1      17.606  12.495  40.338  1.00  0.00    -0.302 N 
ATOM      5  H2  UNL     1      17.101  12.926  39.564  1.00  0.00     0.186 HD
HETATM    6  C7  UNL     1      18.181  11.289  40.293  1.00  0.00     0.054 A 
HETATM    7  C11 UNL     1      18.756  11.082  41.534  1.00  0.00     0.093 A 
HETATM    8 CL1  UNL     1      19.650   9.658  42.045  1.00  0.00    -0.079 Cl
ENDROOT
BRANCH   1   9
HETATM    9  S1  UNL     1      19.044  12.397  43.980  1.00  0.00    -0.084 SA
BRANCH   9  10
HETATM   10  C5  UNL     1      17.560  12.599  45.013  1.00  0.00     0.253 C 
HETATM   11  C4  UNL     1      17.759  13.662  46.030  1.00  0.00     0.285 C 
HETATM   12  O1  UNL     1      18.038  13.336  47.348  1.00  0.00    -0.282 OA
HETATM   13  O2  UNL     1      17.677  14.875  45.706  1.00  0.00    -0.263 OA
HETATM   14  C2  UNL     1      18.734  12.138  47.626  1.00  0.00     0.175 C 
HETATM   15  C1  UNL     1      20.204  12.411  47.425  1.00  0.00     0.079 C 
HETATM   16  C3  UNL     1      18.529  11.700  49.061  1.00  0.00     0.079 C 
HETATM   17  O4  UNL     1      18.256  11.089  46.807  1.00  0.00    -0.282 OA
HETATM   18  C12 UNL     1      17.380  11.313  45.752  1.00  0.00     0.285 C 
HETATM   19  O3  UNL     1      16.481  10.475  45.435  1.00  0.00    -0.263 OA
ENDBRANCH   9  10
ENDBRANCH   1   9
BRANCH   6  20
HETATM   20  C8  UNL     1      18.242  10.305  39.189  1.00  0.00     0.039 A 
HETATM   21  C9  UNL     1      19.313  10.332  38.186  1.00  0.00     0.011 A 
HETATM   22  C10 UNL     1      17.927  10.875  37.822  1.00  0.00     0.011 A 
ENDBRANCH   6  20
TORSDOF 3
ENDMDL
MODEL 2
REMARK VINA RESULT: -7.733673762      4.342      7.392
REMARK  3 active torsions:
REMARK  status: ('A' for Active; 'I' for Inactive)
REMARK    1  A    between atoms: C5_7  and  S1_8 
REMARK    2  A    between atoms: S1_8  and  C6_9 
REMARK    3  A    between atoms: C7_14  and  C8_15 
ROOT
HETATM    1  C6  UNL     1      18.348  11.437  41.506  1.00  0.00     0.109 A 
HETATM    2  N1  UNL     1      17.722  12.341  40.762  1.00  0.00    -0.292 N 
ATOM      3  H1  UNL     1      17.508  12.249  39.769  1.00  0.00     0.187 HD
HETATM    4  N2  UNL     1      17.422  13.383  41.520  1.00  0.00    -0.302 N 
ATOM      5  H2  UNL     1      16.936  14.217  41.193  1.00  0.00     0.186 HD
HETATM    6  C7  UNL     1      17.842  13.190  42.775  1.00  0.00     0.054 A 
HETATM    7  C11 UNL     1      18.444  11.944  42.799  1.00  0.00     0.093 A 
HETATM    8 CL1  UNL     1      19.179  11.168  44.195  1.00  0.00    -0.079 Cl
ENDROOT
BRANCH   1   9
HETATM    9  S1  UNL     1      19.002   9.828  41.065  1.00  0.00    -0.084 SA
BRANCH   9  10
HETATM   10  C5  UNL     1      18.534   9.519  39.335  1.00  0.00     0.253 C 
HETATM   11  C4  UNL     1      18.924   8.149  38.914  1.00  0.00     0.285 C 
HETATM   12  O1  UNL     1      20.051   7.941  38.136  1.00  0.00    -0.282 OA
HETATM   13  O2  UNL     1      18.231   7.157  39.261  1.00  0.00    -0.263 OA
HETATM   14  C2  UNL     1      21.139   8.836  38.253  1.00  0.00     0.175 C 
HETATM   15  C1  UNL     1      21.943   8.419  39.458  1.00  0.00     0.079 C 
HETATM   16  C3  UNL     1      22.042   8.770  37.039  1.00  0.00     0.079 C 
HETATM   17  O4  UNL     1      20.673  10.170  38.342  1.00  0.00    -0.282 OA
HETATM   18  C12 UNL     1      19.327  10.474  38.504  1.00  0.00     0.285 C 
HETATM   19  O3  UNL     1      18.803  11.504  37.978  1.00  0.00    -0.263 OA
ENDBRANCH   9  10
ENDBRANCH   1   9
BRANCH   6  20
HETATM   20  C8  UNL     1      17.733  14.069  43.961  1.00  0.00     0.039 A 
HETATM   21  C9  UNL     1      16.953  13.681  45.142  1.00  0.00     0.011 A 
HETATM   22  C10 UNL     1      16.368  14.694  44.153  1.00  0.00     0.011 A 
ENDBRANCH   6  20
TORSDOF 3
ENDMDL
MODEL 3
REMARK VINA RESULT: -7.616703086      1.908      2.705
REMARK  3 active torsions:
REMARK  status: ('A' for Active; 'I' for Inactive)
REMARK    1  A    between atoms: C5_7  and  S1_8 
REMARK    2  A    between atoms: S1_8  and  C6_9 
REMARK    3  A    between atoms: C7_14  and  C8_15 
ROOT
HETATM    1  C6  UNL     1      19.018  11.171  42.594  1.00  0.00     0.109 A 
HETATM    2  N1  UNL     1      19.610   9.982  42.599  1.00  0.00    -0.292 N 
ATOM      3  H1  UNL     1      20.088   9.559  43.395  1.00  0.00     0.187 HD
HETATM    4  N2  UNL     1      19.478   9.436  41.402  1.00  0.00    -0.302 N 
ATOM      5  H2  UNL     1      19.842   8.520  41.138  1.00  0.00     0.186 HD
HETATM    6  C7  UNL     1      18.800  10.248  40.584  1.00  0.00     0.054 A 
HETATM    7  C11 UNL     1      18.489  11.376  41.323  1.00  0.00     0.093 A 
HETATM    8 CL1  UNL     1      17.599  12.782  40.755  1.00  0.00    -0.079 Cl
ENDROOT
BRANCH   1   9
HETATM    9  S1  UNL     1      18.853  12.386  43.900  1.00  0.00    -0.084 SA
BRANCH   9  10
HETATM   10  C5  UNL     1      18.789  11.474  45.473  1.00  0.00     0.253 C 
HETATM   11  C4  UNL     1      17.392  11.356  45.963  1.00  0.00     0.285 C 
HETATM   12  O1  UNL     1      16.929  12.174  46.981  1.00  0.00    -0.282 OA
HETATM   13  O2  UNL     1      16.612  10.508  45.459  1.00  0.00    -0.263 OA
HETATM   14  C2  UNL     1      17.480  13.468  47.125  1.00  0.00     0.175 C 
HETATM   15  C1  UNL     1      16.785  14.371  46.137  1.00  0.00     0.079 C 
HETATM   16  C3  UNL     1      17.239  14.019  48.515  1.00  0.00     0.079 C 
HETATM   17  O4  UNL     1      18.882  13.429  46.939  1.00  0.00    -0.282 OA
HETATM   18  C12 UNL     1      19.536  12.297  46.471  1.00  0.00     0.285 C 
HETATM   19  O3  UNL     1      20.700  11.981  46.868  1.00  0.00    -0.263 OA
ENDBRANCH   9  10
ENDBRANCH   1   9
BRANCH   6  20
HETATM   20  C8  UNL     1      18.414  10.066  39.167  1.00  0.00     0.039 A 
HETATM   21  C9  UNL     1      18.787   8.865  38.411  1.00  0.00     0.011 A 
HETATM   22  C10 UNL     1      19.563  10.168  38.187  1.00  0.00     0.011 A 
ENDBRANCH   6  20
TORSDOF 3
ENDMDL
MODEL 4
REMARK VINA RESULT: -7.530361338      2.935      3.705
REMARK  3 active torsions:
REMARK  status: ('A' for Active; 'I' for Inactive)
REMARK    1  A    between atoms: C5_7  and  S1_8 
REMARK    2  A    between atoms: S1_8  and  C6_9 
REMARK    3  A    between atoms: C7_14  and  C8_15 
ROOT
HETATM    1  C6  UNL     1      19.890   9.304  41.529  1.00  0.00     0.109 A 
HETATM    2  N1  UNL     1      20.942   8.517  41.722  1.00  0.00    -0.292 N 
ATOM      3  H1  UNL     1      21.311   8.231  42.629  1.00  0.00     0.187 HD
HETATM    4  N2  UNL     1      21.432   8.166  40.545  1.00  0.00    -0.302 N 
ATOM      5  H2  UNL     1      22.243   7.562  40.411  1.00  0.00     0.186 HD
HETATM    6  C7  UNL     1      20.719   8.712  39.554  1.00  0.00     0.054 A 
HETATM    7  C11 UNL     1      19.717   9.452  40.155  1.00  0.00     0.093 A 
HETATM    8 CL1  UNL     1      18.476  10.387  39.334  1.00  0.00    -0.079 Cl
ENDROOT
BRANCH   1   9
HETATM    9  S1  UNL     1      18.805  10.097  42.714  1.00  0.00    -0.084 SA
BRANCH   9  10
HETATM   10  C5  UNL     1      19.317  11.840  42.821  1.00  0.00     0.253 C 
HETATM   11  C4  UNL     1      19.986  12.120  44.117  1.00  0.00     0.285 C 
HETATM   12  O1  UNL     1      19.307  12.763  45.139  1.00  0.00    -0.282 OA
HETATM   13  O2  UNL     1      21.182  11.775  44.302  1.00  0.00    -0.263 OA
HETATM   14  C2  UNL     1      17.907  12.601  45.240  1.00  0.00     0.175 C 
HETATM   15  C1  UNL     1      17.651  11.294  45.947  1.00  0.00     0.079 C 
HETATM   16  C3  UNL     1      17.280  13.709  46.060  1.00  0.00     0.079 C 
HETATM   17  O4  UNL     1      17.311  12.656  43.958  1.00  0.00    -0.282 OA
HETATM   18  C12 UNL     1      18.063  12.652  42.791  1.00  0.00     0.285 C 
HETATM   19  O3  UNL     1      17.707  13.301  41.760  1.00  0.00    -0.263 OA
ENDBRANCH   9  10
ENDBRANCH   1   9
BRANCH   6  20
HETATM   20  C8  UNL     1      20.890   8.604  38.088  1.00  0.00     0.039 A 
HETATM   21  C9  UNL     1      22.215   8.479  37.470  1.00  0.00     0.011 A 
HETATM   22  C10 UNL     1      21.493   9.830  37.436  1.00  0.00     0.011 A 
ENDBRANCH   6  20
TORSDOF 3
ENDMDL
MODEL 5
REMARK VINA RESULT: -7.333974682      1.438      2.060
REMARK  3 active torsions:
REMARK  status: ('A' for Active; 'I' for Inactive)
REMARK    1  A    between atoms: C5_7  and  S1_8 
REMARK    2  A    between atoms: S1_8  and  C6_9 
REMARK    3  A    between atoms: C7_14  and  C8_15 
ROOT
HETATM    1  C6  UNL     1      18.442  11.132  42.083  1.00  0.00     0.109 A 
HETATM    2  N1  UNL     1      17.891  12.150  41.431  1.00  0.00    -0.292 N 
ATOM      3  H1  UNL     1      17.528  13.002  41.858  1.00  0.00     0.187 HD
HETATM    4  N2  UNL     1      17.891  11.876  40.138  1.00  0.00    -0.302 N 
ATOM      5  H2  UNL     1      17.524  12.495  39.414  1.00  0.00     0.186 HD
HETATM    6  C7  UNL     1      18.437  10.678  39.908  1.00  0.00     0.054 A 
HETATM    7  C11 UNL     1      18.803  10.172  41.143  1.00  0.00     0.093 A 
HETATM    8 CL1  UNL     1      19.573   8.621  41.447  1.00  0.00    -0.079 Cl
ENDROOT
BRANCH   1   9
HETATM    9  S1  UNL     1      18.730  10.901  43.836  1.00  0.00    -0.084 SA
BRANCH   9  10
HETATM   10  C5  UNL     1      19.141  12.533  44.528  1.00  0.00     0.253 C 
HETATM   11  C4  UNL     1      19.710  12.405  45.894  1.00  0.00     0.285 C 
HETATM   12  O1  UNL     1      18.934  12.668  47.011  1.00  0.00    -0.282 OA
HETATM   13  O2  UNL     1      20.908  12.055  46.053  1.00  0.00    -0.263 OA
HETATM   14  C2  UNL     1      17.540  12.441  46.947  1.00  0.00     0.175 C 
HETATM   15  C1  UNL     1      17.308  10.969  47.182  1.00  0.00     0.079 C 
HETATM   16  C3  UNL     1      16.804  13.210  48.023  1.00  0.00     0.079 C 
HETATM   17  O4  UNL     1      17.026  12.884  45.705  1.00  0.00    -0.282 OA
HETATM   18  C12 UNL     1      17.851  13.275  44.659  1.00  0.00     0.285 C 
HETATM   19  O3  UNL     1      17.528  14.208  43.861  1.00  0.00    -0.263 OA
ENDBRANCH   9  10
ENDBRANCH   1   9
BRANCH   6  20
HETATM   20  C8  UNL     1      18.650   9.957  38.633  1.00  0.00     0.039 A 
HETATM   21  C9  UNL     1      19.411  10.550  37.527  1.00  0.00     0.011 A 
HETATM   22  C10 UNL     1      17.881  10.522  37.458  1.00  0.00     0.011 A 
ENDBRANCH   6  20
TORSDOF 3
ENDMDL
