MODEL 1
REMARK VINA RESULT: -6.761614315      0.000      0.000
REMARK  3 active torsions:
REMARK  status: ('A' for Active; 'I' for Inactive)
REMARK    1  A    between atoms: S1_2  and  C2_3 
REMARK    2  A    between atoms: C4_8  and  C5_9 
REMARK       I    between atoms: C5_9  and  N2_11 
REMARK    3  A    between atoms: N2_11  and  C6_13 
ROOT
HETATM    1  C2  UNL     1      16.656  13.704  47.280  1.00  0.00     0.111 A 
HETATM    2  N1  UNL     1      16.591  14.397  46.135  1.00  0.00    -0.328 N 
ATOM      3  H1  UNL     1      16.172  15.318  46.012  1.00  0.00     0.168 HD
HETATM    4  C3  UNL     1      17.190  13.642  45.160  1.00  0.00     0.158 A 
HETATM    5  S2  UNL     1      17.621  13.567  43.511  1.00  0.00    -0.046 SA
HETATM    6  C4  UNL     1      18.366  12.034  43.513  1.00  0.00     0.092 A 
HETATM    7  C11 UNL     1      18.237  11.657  44.825  1.00  0.00     0.125 A 
HETATM    8  N3  UNL     1      17.637  12.489  45.644  1.00  0.00    -0.289 N 
HETATM    9  C12 UNL     1      17.302  12.525  46.974  1.00  0.00     0.145 A 
HETATM   10 CL1  UNL     1      17.612  11.288  48.198  1.00  0.00    -0.061 Cl
ENDROOT
BRANCH   6  11
HETATM   11  C5  UNL     1      18.997  11.281  42.407  1.00  0.00     0.260 C 
HETATM   12  O1  UNL     1      20.120  10.760  42.631  1.00  0.00    -0.267 OA
HETATM   13  N2  UNL     1      18.351  11.170  41.172  1.00  0.00    -0.352 N 
ATOM     14  H2  UNL     1      17.441  11.608  41.029  1.00  0.00     0.163 HD
BRANCH  13  15
HETATM   15  C6  UNL     1      18.980  10.429  40.096  1.00  0.00     0.088 C 
HETATM   16  C7  UNL     1      18.294  10.861  38.805  1.00  0.00     0.051 C 
HETATM   17  C8  UNL     1      18.441   9.811  37.726  1.00  0.00     0.169 C 
HETATM   18  O2  UNL     1      19.480   8.968  38.089  1.00  0.00    -0.391 OA
HETATM   19  C9  UNL     1      18.983   8.130  39.107  1.00  0.00     0.169 C 
HETATM   20  C10 UNL     1      18.658   8.956  40.334  1.00  0.00     0.051 C 
ENDBRANCH  13  15
ENDBRANCH   6  11
BRANCH   1  21
HETATM   21  S1  UNL     1      16.028  14.202  48.897  1.00  0.00    -0.114 SA
HETATM   22  C1  UNL     1      14.535  13.214  49.263  1.00  0.00     0.097 C 
ENDBRANCH   1  21
TORSDOF 3
ENDMDL
MODEL 2
REMARK VINA RESULT: -6.751504961      1.147      1.223
REMARK  3 active torsions:
REMARK  status: ('A' for Active; 'I' for Inactive)
REMARK    1  A    between atoms: S1_2  and  C2_3 
REMARK    2  A    between atoms: C4_8  and  C5_9 
REMARK       I    between atoms: C5_9  and  N2_11 
REMARK    3  A    between atoms: N2_11  and  C6_13 
ROOT
HETATM    1  C2  UNL     1      16.164  14.022  48.221  1.00  0.00     0.111 A 
HETATM    2  N1  UNL     1      16.109  14.800  47.131  1.00  0.00    -0.328 N 
ATOM      3  H1  UNL     1      15.627  15.695  47.054  1.00  0.00     0.168 HD
HETATM    4  C3  UNL     1      16.817  14.173  46.140  1.00  0.00     0.158 A 
HETATM    5  S2  UNL     1      17.342  14.263  44.519  1.00  0.00    -0.046 SA
HETATM    6  C4  UNL     1      18.202  12.793  44.448  1.00  0.00     0.092 A 
HETATM    7  C11 UNL     1      18.031  12.302  45.716  1.00  0.00     0.125 A 
HETATM    8  N3  UNL     1      17.324  13.019  46.559  1.00  0.00    -0.289 N 
HETATM    9  C12 UNL     1      16.915  12.922  47.866  1.00  0.00     0.145 A 
HETATM   10 CL1  UNL     1      17.251  11.616  49.007  1.00  0.00    -0.061 Cl
ENDROOT
BRANCH   6  11
HETATM   11  C5  UNL     1      18.949  12.181  43.327  1.00  0.00     0.260 C 
HETATM   12  O1  UNL     1      20.190  12.383  43.283  1.00  0.00    -0.267 OA
HETATM   13  N2  UNL     1      18.278  11.415  42.370  1.00  0.00    -0.352 N 
ATOM     14  H2  UNL     1      17.270  11.275  42.439  1.00  0.00     0.163 HD
BRANCH  13  15
HETATM   15  C6  UNL     1      19.022  10.820  41.276  1.00  0.00     0.088 C 
HETATM   16  C7  UNL     1      18.206  11.053  40.010  1.00  0.00     0.051 C 
HETATM   17  C8  UNL     1      18.553  10.045  38.938  1.00  0.00     0.169 C 
HETATM   18  O2  UNL     1      19.774   9.476  39.266  1.00  0.00    -0.391 OA
HETATM   19  C9  UNL     1      19.526   8.565  40.313  1.00  0.00     0.169 C 
HETATM   20  C10 UNL     1      19.063   9.318  41.543  1.00  0.00     0.051 C 
ENDBRANCH  13  15
ENDBRANCH   6  11
BRANCH   1  21
HETATM   21  S1  UNL     1      15.411  14.340  49.830  1.00  0.00    -0.114 SA
HETATM   22  C1  UNL     1      13.987  13.215  50.031  1.00  0.00     0.097 C 
ENDBRANCH   1  21
TORSDOF 3
ENDMDL
MODEL 3
REMARK VINA RESULT: -6.719115741      3.699      8.352
REMARK  3 active torsions:
REMARK  status: ('A' for Active; 'I' for Inactive)
REMARK    1  A    between atoms: S1_2  and  C2_3 
REMARK    2  A    between atoms: C4_8  and  C5_9 
REMARK       I    between atoms: C5_9  and  N2_11 
REMARK    3  A    between atoms: N2_11  and  C6_13 
ROOT
HETATM    1  C2  UNL     1      18.288  10.592  39.323  1.00  0.00     0.111 A 
HETATM    2  N1  UNL     1      18.782   9.851  40.323  1.00  0.00    -0.328 N 
ATOM      3  H1  UNL     1      19.141   8.899  40.248  1.00  0.00     0.168 HD
HETATM    4  C3  UNL     1      18.717  10.603  41.467  1.00  0.00     0.158 A 
HETATM    5  S2  UNL     1      19.041  10.642  43.141  1.00  0.00    -0.046 SA
HETATM    6  C4  UNL     1      18.486  12.220  43.471  1.00  0.00     0.092 A 
HETATM    7  C11 UNL     1      18.071  12.640  42.234  1.00  0.00     0.125 A 
HETATM    8  N3  UNL     1      18.197  11.803  41.230  1.00  0.00    -0.289 N 
HETATM    9  C12 UNL     1      17.927  11.797  39.885  1.00  0.00     0.145 A 
HETATM   10 CL1  UNL     1      17.219  13.099  38.922  1.00  0.00    -0.061 Cl
ENDROOT
BRANCH   6  11
HETATM   11  C5  UNL     1      18.450  12.968  44.746  1.00  0.00     0.260 C 
HETATM   12  O1  UNL     1      19.205  12.569  45.671  1.00  0.00    -0.267 OA
HETATM   13  N2  UNL     1      17.601  14.069  44.893  1.00  0.00    -0.352 N 
ATOM     14  H2  UNL     1      17.002  14.361  44.121  1.00  0.00     0.163 HD
BRANCH  13  15
HETATM   15  C6  UNL     1      17.576  14.794  46.149  1.00  0.00     0.088 C 
HETATM   16  C7  UNL     1      16.664  14.014  47.089  1.00  0.00     0.051 C 
HETATM   17  C8  UNL     1      16.113  14.901  48.183  1.00  0.00     0.169 C 
HETATM   18  O2  UNL     1      16.903  16.038  48.250  1.00  0.00    -0.391 OA
HETATM   19  C9  UNL     1      16.544  16.844  47.150  1.00  0.00     0.169 C 
HETATM   20  C10 UNL     1      16.918  16.141  45.861  1.00  0.00     0.051 C 
ENDBRANCH  13  15
ENDBRANCH   6  11
BRANCH   1  21
HETATM   21  S1  UNL     1      18.124  10.117  37.589  1.00  0.00    -0.114 SA
HETATM   22  C1  UNL     1      19.696   9.361  37.048  1.00  0.00     0.097 C 
ENDBRANCH   1  21
TORSDOF 3
ENDMDL
MODEL 4
REMARK VINA RESULT: -6.672508655      3.483      8.220
REMARK  3 active torsions:
REMARK  status: ('A' for Active; 'I' for Inactive)
REMARK    1  A    between atoms: S1_2  and  C2_3 
REMARK    2  A    between atoms: C4_8  and  C5_9 
REMARK       I    between atoms: C5_9  and  N2_11 
REMARK    3  A    between atoms: N2_11  and  C6_13 
ROOT
HETATM    1  C2  UNL     1      19.275   9.523  39.718  1.00  0.00     0.111 A 
HETATM    2  N1  UNL     1      18.455  10.580  39.642  1.00  0.00    -0.328 N 
ATOM      3  H1  UNL     1      17.932  10.878  38.819  1.00  0.00     0.168 HD
HETATM    4  C3  UNL     1      18.449  11.189  40.869  1.00  0.00     0.158 A 
HETATM    5  S2  UNL     1      17.820  12.478  41.793  1.00  0.00    -0.046 SA
HETATM    6  C4  UNL     1      18.610  12.145  43.266  1.00  0.00     0.092 A 
HETATM    7  C11 UNL     1      19.335  11.024  42.953  1.00  0.00     0.125 A 
HETATM    8  N3  UNL     1      19.238  10.556  41.730  1.00  0.00    -0.289 N 
HETATM    9  C12 UNL     1      19.758   9.510  41.009  1.00  0.00     0.145 A 
HETATM   10 CL1  UNL     1      20.889   8.273  41.568  1.00  0.00    -0.061 Cl
ENDROOT
BRANCH   6  11
HETATM   11  C5  UNL     1      18.550  12.858  44.560  1.00  0.00     0.260 C 
HETATM   12  O1  UNL     1      19.326  12.467  45.470  1.00  0.00    -0.267 OA
HETATM   13  N2  UNL     1      17.656  13.917  44.740  1.00  0.00    -0.352 N 
ATOM     14  H2  UNL     1      17.041  14.204  43.979  1.00  0.00     0.163 HD
BRANCH  13  15
HETATM   15  C6  UNL     1      17.607  14.608  46.015  1.00  0.00     0.088 C 
HETATM   16  C7  UNL     1      16.678  13.802  46.916  1.00  0.00     0.051 C 
HETATM   17  C8  UNL     1      16.106  14.659  48.023  1.00  0.00     0.169 C 
HETATM   18  O2  UNL     1      16.895  15.793  48.136  1.00  0.00    -0.391 OA
HETATM   19  C9  UNL     1      16.557  16.629  47.052  1.00  0.00     0.169 C 
HETATM   20  C10 UNL     1      16.954  15.962  45.752  1.00  0.00     0.051 C 
ENDBRANCH  13  15
ENDBRANCH   6  11
BRANCH   1  21
HETATM   21  S1  UNL     1      19.673   8.351  38.405  1.00  0.00    -0.114 SA
HETATM   22  C1  UNL     1      21.390   8.656  37.863  1.00  0.00     0.097 C 
ENDBRANCH   1  21
TORSDOF 3
ENDMDL
MODEL 5
REMARK VINA RESULT: -6.657775050      3.806      8.616
REMARK  3 active torsions:
REMARK  status: ('A' for Active; 'I' for Inactive)
REMARK    1  A    between atoms: S1_2  and  C2_3 
REMARK    2  A    between atoms: C4_8  and  C5_9 
REMARK       I    between atoms: C5_9  and  N2_11 
REMARK    3  A    between atoms: N2_11  and  C6_13 
ROOT
HETATM    1  C2  UNL     1      18.842  10.612  41.453  1.00  0.00     0.111 A 
HETATM    2  N1  UNL     1      19.180  10.161  42.667  1.00  0.00    -0.328 N 
ATOM      3  H1  UNL     1      19.680   9.296  42.871  1.00  0.00     0.168 HD
HETATM    4  C3  UNL     1      18.732  11.072  43.587  1.00  0.00     0.158 A 
HETATM    5  S2  UNL     1      18.631  11.457  45.246  1.00  0.00    -0.046 SA
HETATM    6  C4  UNL     1      17.791  12.934  45.113  1.00  0.00     0.092 A 
HETATM    7  C11 UNL     1      17.632  13.050  43.757  1.00  0.00     0.125 A 
HETATM    8  N3  UNL     1      18.117  12.093  43.000  1.00  0.00    -0.289 N 
HETATM    9  C12 UNL     1      18.185  11.806  41.660  1.00  0.00     0.145 A 
HETATM   10 CL1  UNL     1      17.551  12.766  40.319  1.00  0.00    -0.061 Cl
ENDROOT
BRANCH   6  11
HETATM   11  C5  UNL     1      17.339  13.870  46.166  1.00  0.00     0.260 C 
HETATM   12  O1  UNL     1      17.628  15.086  46.020  1.00  0.00    -0.267 OA
HETATM   13  N2  UNL     1      16.622  13.397  47.269  1.00  0.00    -0.352 N 
ATOM     14  H2  UNL     1      16.409  12.403  47.353  1.00  0.00     0.163 HD
BRANCH  13  15
HETATM   15  C6  UNL     1      16.185  14.325  48.294  1.00  0.00     0.088 C 
HETATM   16  C7  UNL     1      17.332  14.454  49.289  1.00  0.00     0.051 C 
HETATM   17  C8  UNL     1      16.838  14.915  50.642  1.00  0.00     0.169 C 
HETATM   18  O2  UNL     1      15.578  15.467  50.471  1.00  0.00    -0.391 OA
HETATM   19  C9  UNL     1      14.686  14.389  50.298  1.00  0.00     0.169 C 
HETATM   20  C10 UNL     1      15.010  13.662  49.009  1.00  0.00     0.051 C 
ENDBRANCH  13  15
ENDBRANCH   6  11
BRANCH   1  21
HETATM   21  S1  UNL     1      19.173   9.825  39.862  1.00  0.00    -0.114 SA
HETATM   22  C1  UNL     1      20.636   8.748  40.047  1.00  0.00     0.097 C 
ENDBRANCH   1  21
TORSDOF 3
ENDMDL
