MODEL 1
REMARK VINA RESULT: -6.309675553      0.000      0.000
REMARK  3 active torsions:
REMARK  status: ('A' for Active; 'I' for Inactive)
REMARK    1  A    between atoms: C4_5  and  N1_6 
REMARK    2  A    between atoms: N1_6  and  C5_9 
REMARK    3  A    between atoms: C5_9  and  C6_10 
ROOT
HETATM    1  C1  UNL     1      18.883   8.886  48.648  1.00  0.00     0.040 C 
HETATM    2  C2  UNL     1      17.867   9.993  48.547  1.00  0.00     0.121 C 
HETATM    3  O1  UNL     1      17.540  10.186  47.235  1.00  0.00    -0.383 OA
HETATM    4  C3  UNL     1      16.558  11.165  47.043  1.00  0.00     0.207 C 
HETATM    5  C4  UNL     1      17.253  12.455  47.378  1.00  0.00     0.153 C 
HETATM    6  C9  UNL     1      16.404  13.671  47.303  1.00  0.00     0.081 C 
HETATM    7  C10 UNL     1      16.571  14.421  48.636  1.00  0.00     0.140 C 
HETATM    8  C11 UNL     1      16.769  15.831  48.471  1.00  0.00     0.084 C 
HETATM    9  N3  UNL     1      16.934  16.957  48.349  1.00  0.00    -0.195 NA
HETATM   10  C12 UNL     1      15.430  14.123  49.486  1.00  0.00     0.084 C 
HETATM   11  N4  UNL     1      14.522  13.883  50.190  1.00  0.00    -0.195 NA
HETATM   12  C13 UNL     1      17.794  13.722  49.261  1.00  0.00     0.047 C 
HETATM   13  C14 UNL     1      17.459  12.335  48.885  1.00  0.00     0.033 C 
HETATM   14  C15 UNL     1      18.291  11.225  49.313  1.00  0.00     0.017 C 
HETATM   15  C16 UNL     1      19.779  11.452  49.330  1.00  0.00     0.013 C 
ENDROOT
BRANCH   5  16
HETATM   16  N1  UNL     1      18.464  12.547  46.646  1.00  0.00    -0.059 N 
ATOM     17  H12 UNL     1      19.255  12.789  47.244  1.00  0.00     0.278 HD
ATOM     18  H11 UNL     1      18.790  11.633  46.330  1.00  0.00     0.278 HD
BRANCH  16  19
HETATM   19  C5  UNL     1      18.312  13.469  45.560  1.00  0.00     0.281 C 
BRANCH  19  20
HETATM   20  C6  UNL     1      18.398  12.770  44.227  1.00  0.00     0.029 A 
HETATM   21  C7  UNL     1      17.857  13.187  43.040  1.00  0.00     0.079 A 
HETATM   22  C8  UNL     1      18.059  12.402  41.976  1.00  0.00     0.195 A 
HETATM   23  F1  UNL     1      17.570  12.699  40.714  1.00  0.00    -0.186 F 
HETATM   24  N2  UNL     1      18.765  11.284  42.150  1.00  0.00    -0.303 N 
HETATM   25  S1  UNL     1      19.155  11.311  43.787  1.00  0.00    -0.015 SA
ATOM     26  H2  UNL     1      19.011  10.579  41.456  1.00  0.00     0.176 HD
ENDBRANCH  19  20
ENDBRANCH  16  19
ENDBRANCH   5  16
TORSDOF 3
ENDMDL
MODEL 2
REMARK VINA RESULT: -6.041414043      8.185     10.277
REMARK  3 active torsions:
REMARK  status: ('A' for Active; 'I' for Inactive)
REMARK    1  A    between atoms: C4_5  and  N1_6 
REMARK    2  A    between atoms: N1_6  and  C5_9 
REMARK    3  A    between atoms: C5_9  and  C6_10 
ROOT
HETATM    1  C1  UNL     1      22.559  11.641  45.281  1.00  0.00     0.040 C 
HETATM    2  C2  UNL     1      23.463  10.962  46.276  1.00  0.00     0.121 C 
HETATM    3  O1  UNL     1      24.148  11.910  46.983  1.00  0.00    -0.383 OA
HETATM    4  C3  UNL     1      24.980  11.374  47.973  1.00  0.00     0.207 C 
HETATM    5  C4  UNL     1      26.086  10.709  47.203  1.00  0.00     0.153 C 
HETATM    6  C9  UNL     1      27.099  10.005  48.031  1.00  0.00     0.081 C 
HETATM    7  C10 UNL     1      27.233   8.580  47.466  1.00  0.00     0.140 C 
HETATM    8  C11 UNL     1      28.594   8.154  47.321  1.00  0.00     0.084 C 
HETATM    9  N3  UNL     1      29.677   7.807  47.196  1.00  0.00    -0.195 NA
HETATM   10  C12 UNL     1      26.460   7.673  48.297  1.00  0.00     0.084 C 
HETATM   11  N4  UNL     1      25.830   6.929  48.951  1.00  0.00    -0.195 NA
HETATM   12  C13 UNL     1      26.501   8.688  46.114  1.00  0.00     0.047 C 
HETATM   13  C14 UNL     1      25.371   9.529  46.552  1.00  0.00     0.033 C 
HETATM   14  C15 UNL     1      24.302   9.880  45.635  1.00  0.00     0.017 C 
HETATM   15  C16 UNL     1      24.691  10.171  44.210  1.00  0.00     0.013 C 
ENDROOT
BRANCH   5  16
HETATM   16  N1  UNL     1      26.635  11.625  46.270  1.00  0.00    -0.059 N 
ATOM     17  H12 UNL     1      26.882  11.172  45.390  1.00  0.00     0.278 HD
ATOM     18  H11 UNL     1      25.932  12.272  45.912  1.00  0.00     0.278 HD
BRANCH  16  19
HETATM   19  C5  UNL     1      27.750  12.310  46.852  1.00  0.00     0.281 C 
BRANCH  19  20
HETATM   20  C6  UNL     1      27.601  13.806  46.735  1.00  0.00     0.029 A 
HETATM   21  C7  UNL     1      26.442  14.530  46.835  1.00  0.00     0.079 A 
HETATM   22  C8  UNL     1      26.546  15.856  46.696  1.00  0.00     0.195 A 
HETATM   23  F1  UNL     1      25.458  16.711  46.774  1.00  0.00    -0.186 F 
HETATM   24  N2  UNL     1      27.757  16.367  46.473  1.00  0.00    -0.303 N 
HETATM   25  S1  UNL     1      28.761  15.018  46.454  1.00  0.00    -0.015 SA
ATOM     26  H2  UNL     1      28.014  17.346  46.343  1.00  0.00     0.176 HD
ENDBRANCH  19  20
ENDBRANCH  16  19
ENDBRANCH   5  16
TORSDOF 3
ENDMDL
MODEL 3
REMARK VINA RESULT: -6.003324609      8.473     10.530
REMARK  3 active torsions:
REMARK  status: ('A' for Active; 'I' for Inactive)
REMARK    1  A    between atoms: C4_5  and  N1_6 
REMARK    2  A    between atoms: N1_6  and  C5_9 
REMARK    3  A    between atoms: C5_9  and  C6_10 
ROOT
HETATM    1  C1  UNL     1      22.546  11.682  45.557  1.00  0.00     0.040 C 
HETATM    2  C2  UNL     1      23.466  10.973  46.517  1.00  0.00     0.121 C 
HETATM    3  O1  UNL     1      24.192  11.898  47.212  1.00  0.00    -0.383 OA
HETATM    4  C3  UNL     1      25.042  11.333  48.170  1.00  0.00     0.207 C 
HETATM    5  C4  UNL     1      26.109  10.652  47.360  1.00  0.00     0.153 C 
HETATM    6  C9  UNL     1      27.131   9.918  48.149  1.00  0.00     0.081 C 
HETATM    7  C10 UNL     1      27.216   8.496  47.565  1.00  0.00     0.140 C 
HETATM    8  C11 UNL     1      28.562   8.042  47.374  1.00  0.00     0.084 C 
HETATM    9  N3  UNL     1      29.633   7.673  47.212  1.00  0.00    -0.195 NA
HETATM   10  C12 UNL     1      26.449   7.597  48.411  1.00  0.00     0.084 C 
HETATM   11  N4  UNL     1      25.823   6.860  49.076  1.00  0.00    -0.195 NA
HETATM   12  C13 UNL     1      26.446   8.635  46.238  1.00  0.00     0.047 C 
HETATM   13  C14 UNL     1      25.349   9.495  46.720  1.00  0.00     0.033 C 
HETATM   14  C15 UNL     1      24.260   9.880  45.839  1.00  0.00     0.017 C 
HETATM   15  C16 UNL     1      24.612  10.178  44.406  1.00  0.00     0.013 C 
ENDROOT
BRANCH   5  16
HETATM   16  N1  UNL     1      26.649  11.566  46.420  1.00  0.00    -0.059 N 
ATOM     17  H12 UNL     1      26.802  11.132  45.510  1.00  0.00     0.278 HD
ATOM     18  H11 UNL     1      25.967  12.270  46.136  1.00  0.00     0.278 HD
BRANCH  16  19
HETATM   19  C5  UNL     1      27.846  12.157  46.941  1.00  0.00     0.281 C 
BRANCH  19  20
HETATM   20  C6  UNL     1      27.860  13.650  46.734  1.00  0.00     0.029 A 
HETATM   21  C7  UNL     1      28.942  14.431  46.427  1.00  0.00     0.079 A 
HETATM   22  C8  UNL     1      28.721  15.743  46.290  1.00  0.00     0.195 A 
HETATM   23  F1  UNL     1      29.721  16.649  45.980  1.00  0.00    -0.186 F 
HETATM   24  N2  UNL     1      27.475  16.186  46.462  1.00  0.00    -0.303 N 
HETATM   25  S1  UNL     1      26.601  14.792  46.813  1.00  0.00    -0.015 SA
ATOM     26  H2  UNL     1      27.132  17.145  46.396  1.00  0.00     0.176 HD
ENDBRANCH  19  20
ENDBRANCH  16  19
ENDBRANCH   5  16
TORSDOF 3
ENDMDL
MODEL 4
REMARK VINA RESULT: -5.921191979      2.984      4.701
REMARK  3 active torsions:
REMARK  status: ('A' for Active; 'I' for Inactive)
REMARK    1  A    between atoms: C4_5  and  N1_6 
REMARK    2  A    between atoms: N1_6  and  C5_9 
REMARK    3  A    between atoms: C5_9  and  C6_10 
ROOT
HETATM    1  C1  UNL     1      11.976  11.989  50.494  1.00  0.00     0.040 C 
HETATM    2  C2  UNL     1      13.469  11.856  50.637  1.00  0.00     0.121 C 
HETATM    3  O1  UNL     1      14.037  13.099  50.608  1.00  0.00    -0.383 OA
HETATM    4  C3  UNL     1      15.425  13.082  50.786  1.00  0.00     0.207 C 
HETATM    5  C4  UNL     1      15.952  12.476  49.516  1.00  0.00     0.153 C 
HETATM    6  C9  UNL     1      17.425  12.294  49.464  1.00  0.00     0.081 C 
HETATM    7  C10 UNL     1      17.685  10.830  49.065  1.00  0.00     0.140 C 
HETATM    8  C11 UNL     1      18.691  10.690  48.053  1.00  0.00     0.084 C 
HETATM    9  N3  UNL     1      19.487  10.568  47.241  1.00  0.00    -0.195 NA
HETATM   10  C12 UNL     1      18.002  10.068  50.261  1.00  0.00     0.084 C 
HETATM   11  N4  UNL     1      18.246   9.435  51.219  1.00  0.00    -0.195 NA
HETATM   12  C13 UNL     1      16.297  10.364  48.587  1.00  0.00     0.047 C 
HETATM   13  C14 UNL     1      15.483  11.028  49.622  1.00  0.00     0.033 C 
HETATM   14  C15 UNL     1      14.043  10.843  49.673  1.00  0.00     0.017 C 
HETATM   15  C16 UNL     1      13.316  10.772  48.356  1.00  0.00     0.013 C 
ENDROOT
BRANCH   5  16
HETATM   16  N1  UNL     1      15.414  13.166  48.400  1.00  0.00    -0.059 N 
ATOM     17  H12 UNL     1      15.405  12.587  47.561  1.00  0.00     0.278 HD
ATOM     18  H11 UNL     1      14.408  13.313  48.491  1.00  0.00     0.278 HD
BRANCH  16  19
HETATM   19  C5  UNL     1      16.120  14.396  48.196  1.00  0.00     0.281 C 
BRANCH  19  20
HETATM   20  C6  UNL     1      16.559  14.549  46.762  1.00  0.00     0.029 A 
HETATM   21  C7  UNL     1      17.123  13.589  45.965  1.00  0.00     0.079 A 
HETATM   22  C8  UNL     1      17.437  13.950  44.716  1.00  0.00     0.195 A 
HETATM   23  F1  UNL     1      18.011  13.083  43.801  1.00  0.00    -0.186 F 
HETATM   24  N2  UNL     1      17.179  15.206  44.346  1.00  0.00    -0.303 N 
HETATM   25  S1  UNL     1      16.501  15.895  45.723  1.00  0.00    -0.015 SA
ATOM     26  H2  UNL     1      17.353  15.644  43.442  1.00  0.00     0.176 HD
ENDBRANCH  19  20
ENDBRANCH  16  19
ENDBRANCH   5  16
TORSDOF 3
ENDMDL
MODEL 5
REMARK VINA RESULT: -5.907481803      1.334      1.457
REMARK  3 active torsions:
REMARK  status: ('A' for Active; 'I' for Inactive)
REMARK    1  A    between atoms: C4_5  and  N1_6 
REMARK    2  A    between atoms: N1_6  and  C5_9 
REMARK    3  A    between atoms: C5_9  and  C6_10 
ROOT
HETATM    1  C1  UNL     1      20.282   9.830  47.937  1.00  0.00     0.040 C 
HETATM    2  C2  UNL     1      19.020  10.638  47.783  1.00  0.00     0.121 C 
HETATM    3  O1  UNL     1      18.533  10.477  46.516  1.00  0.00    -0.383 OA
HETATM    4  C3  UNL     1      17.328  11.152  46.292  1.00  0.00     0.207 C 
HETATM    5  C4  UNL     1      17.715  12.604  46.287  1.00  0.00     0.153 C 
HETATM    6  C9  UNL     1      16.591  13.559  46.115  1.00  0.00     0.081 C 
HETATM    7  C10 UNL     1      16.695  14.589  47.253  1.00  0.00     0.140 C 
HETATM    8  C11 UNL     1      16.525  15.942  46.809  1.00  0.00     0.084 C 
HETATM    9  N3  UNL     1      16.397  17.025  46.464  1.00  0.00    -0.195 NA
HETATM   10  C12 UNL     1      15.747  14.231  48.296  1.00  0.00     0.084 C 
HETATM   11  N4  UNL     1      14.997  13.949  49.153  1.00  0.00    -0.195 NA
HETATM   12  C13 UNL     1      18.105  14.324  47.814  1.00  0.00     0.047 C 
HETATM   13  C14 UNL     1      18.086  12.851  47.747  1.00  0.00     0.033 C 
HETATM   14  C15 UNL     1      19.201  12.066  48.246  1.00  0.00     0.017 C 
HETATM   15  C16 UNL     1      20.583  12.615  48.011  1.00  0.00     0.013 C 
ENDROOT
BRANCH   5  16
HETATM   16  N1  UNL     1      18.792  12.807  45.386  1.00  0.00    -0.059 N 
ATOM     17  H12 UNL     1      19.519  13.399  45.787  1.00  0.00     0.278 HD
ATOM     18  H11 UNL     1      19.345  11.959  45.255  1.00  0.00     0.278 HD
BRANCH  16  19
HETATM   19  C5  UNL     1      18.301  13.326  44.144  1.00  0.00     0.281 C 
BRANCH  19  20
HETATM   20  C6  UNL     1      18.471  12.330  43.025  1.00  0.00     0.029 A 
HETATM   21  C7  UNL     1      17.954  12.415  41.759  1.00  0.00     0.079 A 
HETATM   22  C8  UNL     1      18.234  11.409  40.924  1.00  0.00     0.195 A 
HETATM   23  F1  UNL     1      17.779  11.363  39.617  1.00  0.00    -0.186 F 
HETATM   24  N2  UNL     1      18.987  10.408  41.384  1.00  0.00    -0.303 N 
HETATM   25  S1  UNL     1      19.314  10.854  42.973  1.00  0.00    -0.015 SA
ATOM     26  H2  UNL     1      19.292   9.571  40.889  1.00  0.00     0.176 HD
ENDBRANCH  19  20
ENDBRANCH  16  19
ENDBRANCH   5  16
TORSDOF 3
ENDMDL
