MODEL 1
REMARK VINA RESULT: -9.019578973      0.000      0.000
REMARK  6 active torsions:
REMARK  status: ('A' for Active; 'I' for Inactive)
REMARK    1  A    between atoms: C2_2  and  C4_4 
REMARK    2  A    between atoms: C4_4  and  N1_5 
REMARK       I    between atoms: N1_5  and  C5_7 
REMARK       I    between atoms: C5_7  and  N2_9 
REMARK    3  A    between atoms: N3_12  and  C8_13 
REMARK    4  A    between atoms: C8_13  and  C9_14 
REMARK       I    between atoms: C9_14  and  N4_16 
REMARK    5  A    between atoms: N4_16  and  C10_18 
REMARK    6  A    between atoms: C22_30  and  N5_31 
REMARK       I    between atoms: N5_31  and  C23_33 
REMARK       I    between atoms: C23_33  and  N6_35 
ROOT
HETATM    1  C8  UNL     1      44.176  20.857  15.365  1.00  0.00     0.110 C 
HETATM    2  C20 UNL     1      42.967  20.085  14.800  1.00  0.00     0.043 C 
HETATM    3  C21 UNL     1      43.133  18.618  15.102  1.00  0.00     0.028 C 
HETATM    4  C22 UNL     1      44.171  18.104  14.076  1.00  0.00     0.086 C 
HETATM    5  C29 UNL     1      45.245  19.120  13.993  1.00  0.00     0.028 C 
HETATM    6  C30 UNL     1      45.375  19.993  15.216  1.00  0.00     0.043 C 
ENDROOT
BRANCH   1   7
HETATM    7  N3  UNL     1      44.274  22.046  14.564  1.00  0.00    -0.393 N 
HETATM    8  C7  UNL     1      43.720  22.037  13.271  1.00  0.00     0.138 C 
HETATM    9  C6  UNL     1      43.580  23.484  12.767  1.00  0.00     0.147 C 
HETATM   10  N2  UNL     1      44.864  24.131  12.835  1.00  0.00    -0.331 N 
HETATM   11  C5  UNL     1      44.993  25.470  12.326  1.00  0.00     0.322 C 
HETATM   12  C32 UNL     1      45.960  23.394  13.405  1.00  0.00     0.147 C 
HETATM   13  N1  UNL     1      43.923  26.108  11.737  1.00  0.00    -0.322 N 
HETATM   14  O1  UNL     1      46.128  25.965  12.474  1.00  0.00    -0.247 OA
ATOM     15  H1  UNL     1      43.070  25.550  11.705  1.00  0.00     0.169 HD
HETATM   16  C31 UNL     1      45.517  22.741  14.724  1.00  0.00     0.138 C 
BRANCH  13  17
HETATM   17  C4  UNL     1      43.797  27.383  11.174  1.00  0.00     0.069 C 
BRANCH  17  18
HETATM   18  C2  UNL     1      44.142  28.590  11.952  1.00  0.00     0.016 C 
HETATM   19  C1  UNL     1      43.121  29.654  12.160  1.00  0.00     0.015 C 
HETATM   20  C3  UNL     1      45.367  29.269  11.308  1.00  0.00     0.015 C 
ENDBRANCH  17  18
ENDBRANCH  13  17
ENDBRANCH   1   7
BRANCH   1  21
HETATM   21  C9  UNL     1      43.840  21.154  16.783  1.00  0.00     0.246 C 
HETATM   22  O2  UNL     1      43.003  22.066  16.996  1.00  0.00    -0.271 OA
HETATM   23  N4  UNL     1      44.372  20.512  17.909  1.00  0.00    -0.354 N 
ATOM     24  H4  UNL     1      45.044  19.758  17.763  1.00  0.00     0.163 HD
BRANCH  23  25
HETATM   25  C10 UNL     1      44.018  20.860  19.268  1.00  0.00     0.092 C 
HETATM   26  C11 UNL     1      45.086  21.609  19.980  1.00  0.00     0.009 C 
HETATM   27  C12 UNL     1      46.229  20.753  20.477  1.00  0.00     0.011 C 
HETATM   28  C16 UNL     1      44.462  22.208  21.245  1.00  0.00     0.011 C 
HETATM   29  C13 UNL     1      45.756  19.593  21.335  1.00  0.00    -0.013 C 
HETATM   30  C14 UNL     1      45.113  20.168  22.557  1.00  0.00     0.009 C 
HETATM   31  C19 UNL     1      44.812  18.787  20.461  1.00  0.00     0.011 C 
HETATM   32  C15 UNL     1      43.971  21.068  22.100  1.00  0.00    -0.013 C 
HETATM   33  C17 UNL     1      43.010  20.145  21.369  1.00  0.00     0.011 C 
HETATM   34  C18 UNL     1      43.651  19.641  20.081  1.00  0.00     0.009 C 
ENDBRANCH  23  25
ENDBRANCH   1  21
BRANCH   4  35
HETATM   35  N5  UNL     1      43.437  17.961  12.814  1.00  0.00    -0.338 N 
HETATM   36  C23 UNL     1      42.782  16.737  12.569  1.00  0.00     0.318 C 
HETATM   37  O3  UNL     1      42.800  15.785  13.420  1.00  0.00    -0.247 OA
HETATM   38  N6  UNL     1      42.079  16.524  11.372  1.00  0.00    -0.334 N 
HETATM   39  C24 UNL     1      41.332  15.266  11.184  1.00  0.00     0.127 C 
HETATM   40  C28 UNL     1      42.079  17.491  10.311  1.00  0.00     0.127 C 
HETATM   41  C25 UNL     1      42.009  14.505  10.075  1.00  0.00     0.020 C 
HETATM   42  C26 UNL     1      42.646  15.391   9.047  1.00  0.00     0.003 C 
HETATM   43  C27 UNL     1      42.077  16.774   8.961  1.00  0.00     0.020 C 
ATOM     44  H5  UNL     1      43.403  18.722  12.137  1.00  0.00     0.164 HD
ENDBRANCH   4  35
TORSDOF 6
ENDMDL
MODEL 2
REMARK VINA RESULT: -8.973368286      1.394      1.918
REMARK  6 active torsions:
REMARK  status: ('A' for Active; 'I' for Inactive)
REMARK    1  A    between atoms: C2_2  and  C4_4 
REMARK    2  A    between atoms: C4_4  and  N1_5 
REMARK       I    between atoms: N1_5  and  C5_7 
REMARK       I    between atoms: C5_7  and  N2_9 
REMARK    3  A    between atoms: N3_12  and  C8_13 
REMARK    4  A    between atoms: C8_13  and  C9_14 
REMARK       I    between atoms: C9_14  and  N4_16 
REMARK    5  A    between atoms: N4_16  and  C10_18 
REMARK    6  A    between atoms: C22_30  and  N5_31 
REMARK       I    between atoms: N5_31  and  C23_33 
REMARK       I    between atoms: C23_33  and  N6_35 
ROOT
HETATM    1  C8  UNL     1      44.122  21.917  15.472  1.00  0.00     0.110 C 
HETATM    2  C20 UNL     1      42.884  21.116  15.018  1.00  0.00     0.043 C 
HETATM    3  C21 UNL     1      42.992  19.705  15.537  1.00  0.00     0.028 C 
HETATM    4  C22 UNL     1      44.012  19.004  14.609  1.00  0.00     0.086 C 
HETATM    5  C29 UNL     1      45.125  19.954  14.384  1.00  0.00     0.028 C 
HETATM    6  C30 UNL     1      45.287  20.995  15.464  1.00  0.00     0.043 C 
ENDROOT
BRANCH   1   7
HETATM    7  N3  UNL     1      44.268  22.967  14.503  1.00  0.00    -0.393 N 
HETATM    8  C7  UNL     1      43.999  22.683  13.152  1.00  0.00     0.138 C 
HETATM    9  C6  UNL     1      43.827  24.002  12.378  1.00  0.00     0.147 C 
HETATM   10  N2  UNL     1      44.999  24.815  12.570  1.00  0.00    -0.331 N 
HETATM   11  C5  UNL     1      45.100  26.063  11.862  1.00  0.00     0.322 C 
HETATM   12  C32 UNL     1      46.018  24.328  13.460  1.00  0.00     0.147 C 
HETATM   13  N1  UNL     1      44.119  26.454  10.976  1.00  0.00    -0.322 N 
HETATM   14  O1  UNL     1      46.126  26.720  12.130  1.00  0.00    -0.247 OA
ATOM     15  H1  UNL     1      43.350  25.790  10.885  1.00  0.00     0.169 HD
HETATM   16  C31 UNL     1      45.376  23.837  14.767  1.00  0.00     0.138 C 
BRANCH  13  17
HETATM   17  C4  UNL     1      43.990  27.597  10.179  1.00  0.00     0.069 C 
BRANCH  17  18
HETATM   18  C2  UNL     1      43.982  28.944  10.785  1.00  0.00     0.016 C 
HETATM   19  C1  UNL     1      45.258  29.695  10.939  1.00  0.00     0.015 C 
HETATM   20  C3  UNL     1      43.343  28.860  12.186  1.00  0.00     0.015 C 
ENDBRANCH  17  18
ENDBRANCH  13  17
ENDBRANCH   1   7
BRANCH   1  21
HETATM   21  C9  UNL     1      43.794  22.436  16.827  1.00  0.00     0.246 C 
HETATM   22  O2  UNL     1      42.681  23.000  16.972  1.00  0.00    -0.271 OA
HETATM   23  N4  UNL     1      44.612  22.354  17.962  1.00  0.00    -0.354 N 
ATOM     24  H4  UNL     1      45.515  21.888  17.874  1.00  0.00     0.163 HD
BRANCH  23  25
HETATM   25  C10 UNL     1      44.243  22.897  19.252  1.00  0.00     0.092 C 
HETATM   26  C11 UNL     1      44.620  24.325  19.418  1.00  0.00     0.009 C 
HETATM   27  C12 UNL     1      46.083  24.557  19.717  1.00  0.00     0.011 C 
HETATM   28  C16 UNL     1      43.876  24.855  20.648  1.00  0.00     0.011 C 
HETATM   29  C13 UNL     1      46.567  23.756  20.913  1.00  0.00    -0.013 C 
HETATM   30  C14 UNL     1      45.821  24.242  22.114  1.00  0.00     0.009 C 
HETATM   31  C19 UNL     1      46.307  22.301  20.570  1.00  0.00     0.011 C 
HETATM   32  C15 UNL     1      44.333  24.057  21.842  1.00  0.00    -0.013 C 
HETATM   33  C17 UNL     1      44.149  22.559  21.663  1.00  0.00     0.011 C 
HETATM   34  C18 UNL     1      44.841  22.099  20.386  1.00  0.00     0.009 C 
ENDBRANCH  23  25
ENDBRANCH   1  21
BRANCH   4  35
HETATM   35  N5  UNL     1      43.277  18.702  13.377  1.00  0.00    -0.338 N 
HETATM   36  C23 UNL     1      42.622  17.456  13.290  1.00  0.00     0.318 C 
HETATM   37  O3  UNL     1      42.640  16.621  14.256  1.00  0.00    -0.247 OA
HETATM   38  N6  UNL     1      41.917  17.093  12.130  1.00  0.00    -0.334 N 
HETATM   39  C24 UNL     1      41.169  15.822  12.105  1.00  0.00     0.127 C 
HETATM   40  C28 UNL     1      41.915  17.917  10.956  1.00  0.00     0.127 C 
HETATM   41  C25 UNL     1      41.845  14.926  11.101  1.00  0.00     0.020 C 
HETATM   42  C26 UNL     1      42.481  15.674   9.968  1.00  0.00     0.003 C 
HETATM   43  C27 UNL     1      41.912  17.035   9.707  1.00  0.00     0.020 C 
ATOM     44  H5  UNL     1      43.242  19.371  12.608  1.00  0.00     0.164 HD
ENDBRANCH   4  35
TORSDOF 6
ENDMDL
MODEL 3
REMARK VINA RESULT: -8.619799594      3.154      8.629
REMARK  6 active torsions:
REMARK  status: ('A' for Active; 'I' for Inactive)
REMARK    1  A    between atoms: C2_2  and  C4_4 
REMARK    2  A    between atoms: C4_4  and  N1_5 
REMARK       I    between atoms: N1_5  and  C5_7 
REMARK       I    between atoms: C5_7  and  N2_9 
REMARK    3  A    between atoms: N3_12  and  C8_13 
REMARK    4  A    between atoms: C8_13  and  C9_14 
REMARK       I    between atoms: C9_14  and  N4_16 
REMARK    5  A    between atoms: N4_16  and  C10_18 
REMARK    6  A    between atoms: C22_30  and  N5_31 
REMARK       I    between atoms: N5_31  and  C23_33 
REMARK       I    between atoms: C23_33  and  N6_35 
ROOT
HETATM    1  C8  UNL     1      44.256  22.422  13.080  1.00  0.00     0.110 C 
HETATM    2  C20 UNL     1      45.344  21.952  14.066  1.00  0.00     0.043 C 
HETATM    3  C21 UNL     1      44.824  20.775  14.851  1.00  0.00     0.028 C 
HETATM    4  C22 UNL     1      43.868  21.377  15.908  1.00  0.00     0.086 C 
HETATM    5  C29 UNL     1      43.062  22.416  15.229  1.00  0.00     0.028 C 
HETATM    6  C30 UNL     1      42.937  22.234  13.737  1.00  0.00     0.043 C 
ENDROOT
BRANCH   1   7
HETATM    7  N3  UNL     1      44.538  23.810  12.839  1.00  0.00    -0.393 N 
HETATM    8  C7  UNL     1      44.791  24.230  11.521  1.00  0.00     0.138 C 
HETATM    9  C6  UNL     1      44.666  25.761  11.441  1.00  0.00     0.147 C 
HETATM   10  N2  UNL     1      45.548  26.355  12.410  1.00  0.00    -0.331 N 
HETATM   11  C5  UNL     1      45.666  27.789  12.453  1.00  0.00     0.322 C 
HETATM   12  C32 UNL     1      46.276  25.477  13.285  1.00  0.00     0.147 C 
HETATM   13  N1  UNL     1      44.988  28.580  11.551  1.00  0.00    -0.322 N 
HETATM   14  O1  UNL     1      46.413  28.212  13.357  1.00  0.00    -0.247 OA
ATOM     15  H1  UNL     1      44.420  28.060  10.883  1.00  0.00     0.169 HD
HETATM   16  C31 UNL     1      45.327  24.419  13.868  1.00  0.00     0.138 C 
BRANCH  13  17
HETATM   17  C4  UNL     1      44.940  29.969  11.387  1.00  0.00     0.069 C 
BRANCH  17  18
HETATM   18  C2  UNL     1      45.868  30.654  10.463  1.00  0.00     0.016 C 
HETATM   19  C1  UNL     1      47.330  30.385  10.546  1.00  0.00     0.015 C 
HETATM   20  C3  UNL     1      45.686  32.178  10.609  1.00  0.00     0.015 C 
ENDBRANCH  17  18
ENDBRANCH  13  17
ENDBRANCH   1   7
BRANCH   1  21
HETATM   21  C9  UNL     1      44.428  21.588  11.860  1.00  0.00     0.246 C 
HETATM   22  O2  UNL     1      43.391  21.098  11.348  1.00  0.00    -0.271 OA
HETATM   23  N4  UNL     1      45.643  21.296  11.225  1.00  0.00    -0.354 N 
ATOM     24  H4  UNL     1      46.498  21.693  11.613  1.00  0.00     0.163 HD
BRANCH  23  25
HETATM   25  C10 UNL     1      45.747  20.460  10.048  1.00  0.00     0.092 C 
HETATM   26  C11 UNL     1      47.095  19.859   9.872  1.00  0.00     0.009 C 
HETATM   27  C12 UNL     1      48.135  20.805   9.317  1.00  0.00     0.011 C 
HETATM   28  C16 UNL     1      46.969  18.749   8.823  1.00  0.00     0.011 C 
HETATM   29  C13 UNL     1      47.692  21.461   8.020  1.00  0.00    -0.013 C 
HETATM   30  C14 UNL     1      47.532  20.381   6.999  1.00  0.00     0.009 C 
HETATM   31  C19 UNL     1      46.407  22.199   8.347  1.00  0.00     0.011 C 
HETATM   32  C15 UNL     1      46.512  19.383   7.534  1.00  0.00    -0.013 C 
HETATM   33  C17 UNL     1      45.225  20.178   7.685  1.00  0.00     0.011 C 
HETATM   34  C18 UNL     1      45.380  21.214   8.792  1.00  0.00     0.009 C 
ENDBRANCH  23  25
ENDBRANCH   1  21
BRANCH   4  35
HETATM   35  N5  UNL     1      44.737  21.935  16.949  1.00  0.00    -0.338 N 
HETATM   36  C23 UNL     1      44.595  21.439  18.261  1.00  0.00     0.318 C 
HETATM   37  O3  UNL     1      43.756  20.517  18.541  1.00  0.00    -0.247 OA
HETATM   38  N6  UNL     1      45.379  21.944  19.311  1.00  0.00    -0.334 N 
HETATM   39  C24 UNL     1      45.268  21.342  20.653  1.00  0.00     0.127 C 
HETATM   40  C28 UNL     1      46.280  23.044  19.122  1.00  0.00     0.127 C 
HETATM   41  C25 UNL     1      44.673  22.385  21.562  1.00  0.00     0.020 C 
HETATM   42  C26 UNL     1      45.039  23.787  21.180  1.00  0.00     0.003 C 
HETATM   43  C27 UNL     1      46.297  23.918  20.376  1.00  0.00     0.020 C 
ATOM     44  H5  UNL     1      45.422  22.658  16.731  1.00  0.00     0.164 HD
ENDBRANCH   4  35
TORSDOF 6
ENDMDL
MODEL 4
REMARK VINA RESULT: -8.588435843      1.914      2.453
REMARK  6 active torsions:
REMARK  status: ('A' for Active; 'I' for Inactive)
REMARK    1  A    between atoms: C2_2  and  C4_4 
REMARK    2  A    between atoms: C4_4  and  N1_5 
REMARK       I    between atoms: N1_5  and  C5_7 
REMARK       I    between atoms: C5_7  and  N2_9 
REMARK    3  A    between atoms: N3_12  and  C8_13 
REMARK    4  A    between atoms: C8_13  and  C9_14 
REMARK       I    between atoms: C9_14  and  N4_16 
REMARK    5  A    between atoms: N4_16  and  C10_18 
REMARK    6  A    between atoms: C22_30  and  N5_31 
REMARK       I    between atoms: N5_31  and  C23_33 
REMARK       I    between atoms: C23_33  and  N6_35 
ROOT
HETATM    1  C8  UNL     1      43.899  20.760  15.834  1.00  0.00     0.110 C 
HETATM    2  C20 UNL     1      42.608  19.922  15.751  1.00  0.00     0.043 C 
HETATM    3  C21 UNL     1      42.749  18.710  16.636  1.00  0.00     0.028 C 
HETATM    4  C22 UNL     1      43.652  17.731  15.851  1.00  0.00     0.086 C 
HETATM    5  C29 UNL     1      44.750  18.527  15.256  1.00  0.00     0.028 C 
HETATM    6  C30 UNL     1      45.042  19.821  15.974  1.00  0.00     0.043 C 
ENDROOT
BRANCH   1   7
HETATM    7  N3  UNL     1      43.958  21.488  14.597  1.00  0.00    -0.393 N 
HETATM    8  C7  UNL     1      42.840  21.461  13.744  1.00  0.00     0.138 C 
HETATM    9  C6  UNL     1      42.960  22.596  12.712  1.00  0.00     0.147 C 
HETATM   10  N2  UNL     1      44.214  22.470  12.018  1.00  0.00    -0.331 N 
HETATM   11  C5  UNL     1      44.503  23.375  10.938  1.00  0.00     0.322 C 
HETATM   12  C32 UNL     1      45.115  21.431  12.439  1.00  0.00     0.147 C 
HETATM   13  N1  UNL     1      43.578  24.315  10.538  1.00  0.00    -0.322 N 
HETATM   14  O1  UNL     1      45.632  23.222  10.431  1.00  0.00    -0.247 OA
ATOM     15  H1  UNL     1      42.708  24.298  11.070  1.00  0.00     0.169 HD
HETATM   16  C31 UNL     1      45.245  21.445  13.970  1.00  0.00     0.138 C 
BRANCH  13  17
HETATM   17  C4  UNL     1      43.618  25.289   9.533  1.00  0.00     0.069 C 
BRANCH  17  18
HETATM   18  C2  UNL     1      43.327  26.704   9.839  1.00  0.00     0.016 C 
HETATM   19  C1  UNL     1      43.731  27.768   8.880  1.00  0.00     0.015 C 
HETATM   20  C3  UNL     1      43.962  27.064  11.197  1.00  0.00     0.015 C 
ENDBRANCH  17  18
ENDBRANCH  13  17
ENDBRANCH   1   7
BRANCH   1  21
HETATM   21  C9  UNL     1      43.727  21.653  17.011  1.00  0.00     0.246 C 
HETATM   22  O2  UNL     1      42.801  22.501  16.959  1.00  0.00    -0.271 OA
HETATM   23  N4  UNL     1      44.502  21.639  18.178  1.00  0.00    -0.354 N 
ATOM     24  H4  UNL     1      45.251  20.951  18.252  1.00  0.00     0.163 HD
BRANCH  23  25
HETATM   25  C10 UNL     1      44.296  22.550  19.285  1.00  0.00     0.092 C 
HETATM   26  C11 UNL     1      44.930  23.878  19.078  1.00  0.00     0.009 C 
HETATM   27  C12 UNL     1      46.423  23.903  19.311  1.00  0.00     0.011 C 
HETATM   28  C16 UNL     1      44.350  24.831  20.129  1.00  0.00     0.011 C 
HETATM   29  C13 UNL     1      46.809  23.356  20.674  1.00  0.00    -0.013 C 
HETATM   30  C14 UNL     1      46.218  24.260  21.708  1.00  0.00     0.009 C 
HETATM   31  C19 UNL     1      46.276  21.935  20.717  1.00  0.00     0.011 C 
HETATM   32  C15 UNL     1      44.710  24.290  21.490  1.00  0.00    -0.013 C 
HETATM   33  C17 UNL     1      44.252  22.857  21.702  1.00  0.00     0.011 C 
HETATM   34  C18 UNL     1      44.791  21.968  20.587  1.00  0.00     0.009 C 
ENDBRANCH  23  25
ENDBRANCH   1  21
BRANCH   4  35
HETATM   35  N5  UNL     1      42.784  17.128  14.833  1.00  0.00    -0.338 N 
HETATM   36  C23 UNL     1      42.975  15.764  14.530  1.00  0.00     0.318 C 
HETATM   37  O3  UNL     1      43.855  15.061  15.132  1.00  0.00    -0.247 OA
HETATM   38  N6  UNL     1      42.194  15.129  13.551  1.00  0.00    -0.334 N 
HETATM   39  C24 UNL     1      42.358  13.681  13.320  1.00  0.00     0.127 C 
HETATM   40  C28 UNL     1      41.247  15.851  12.751  1.00  0.00     0.127 C 
HETATM   41  C25 UNL     1      42.931  13.511  11.938  1.00  0.00     0.020 C 
HETATM   42  C26 UNL     1      42.502  14.580  10.979  1.00  0.00     0.003 C 
HETATM   43  C27 UNL     1      41.223  15.275  11.335  1.00  0.00     0.020 C 
ATOM     44  H5  UNL     1      42.067  17.678  14.360  1.00  0.00     0.164 HD
ENDBRANCH   4  35
TORSDOF 6
ENDMDL
MODEL 5
REMARK VINA RESULT: -8.524576927      1.490      7.912
REMARK  6 active torsions:
REMARK  status: ('A' for Active; 'I' for Inactive)
REMARK    1  A    between atoms: C2_2  and  C4_4 
REMARK    2  A    between atoms: C4_4  and  N1_5 
REMARK       I    between atoms: N1_5  and  C5_7 
REMARK       I    between atoms: C5_7  and  N2_9 
REMARK    3  A    between atoms: N3_12  and  C8_13 
REMARK    4  A    between atoms: C8_13  and  C9_14 
REMARK       I    between atoms: C9_14  and  N4_16 
REMARK    5  A    between atoms: N4_16  and  C10_18 
REMARK    6  A    between atoms: C22_30  and  N5_31 
REMARK       I    between atoms: N5_31  and  C23_33 
REMARK       I    between atoms: C23_33  and  N6_35 
ROOT
HETATM    1  C8  UNL     1      43.659  20.386  13.804  1.00  0.00     0.110 C 
HETATM    2  C20 UNL     1      44.810  20.255  14.823  1.00  0.00     0.043 C 
HETATM    3  C21 UNL     1      44.418  19.259  15.884  1.00  0.00     0.028 C 
HETATM    4  C22 UNL     1      43.438  20.013  16.813  1.00  0.00     0.086 C 
HETATM    5  C29 UNL     1      42.523  20.791  15.946  1.00  0.00     0.028 C 
HETATM    6  C30 UNL     1      42.379  20.251  14.546  1.00  0.00     0.043 C 
ENDROOT
BRANCH   1   7
HETATM    7  N3  UNL     1      43.807  21.696  13.233  1.00  0.00    -0.393 N 
HETATM    8  C7  UNL     1      43.263  21.943  11.960  1.00  0.00     0.138 C 
HETATM    9  C6  UNL     1      43.180  23.462  11.727  1.00  0.00     0.147 C 
HETATM   10  N2  UNL     1      44.486  24.037  11.913  1.00  0.00    -0.331 N 
HETATM   11  C5  UNL     1      44.668  25.441  11.657  1.00  0.00     0.322 C 
HETATM   12  C32 UNL     1      45.550  23.169  12.341  1.00  0.00     0.147 C 
HETATM   13  N1  UNL     1      43.626  26.215  11.192  1.00  0.00    -0.322 N 
HETATM   14  O1  UNL     1      45.819  25.858  11.893  1.00  0.00    -0.247 OA
ATOM     15  H1  UNL     1      42.754  25.704  11.059  1.00  0.00     0.169 HD
HETATM   16  C31 UNL     1      45.073  22.303  13.518  1.00  0.00     0.138 C 
BRANCH  13  17
HETATM   17  C4  UNL     1      43.552  27.575  10.871  1.00  0.00     0.069 C 
BRANCH  17  18
HETATM   18  C2  UNL     1      43.999  28.604  11.831  1.00  0.00     0.016 C 
HETATM   19  C1  UNL     1      43.081  29.715  12.208  1.00  0.00     0.015 C 
HETATM   20  C3  UNL     1      45.292  29.256  11.301  1.00  0.00     0.015 C 
ENDBRANCH  17  18
ENDBRANCH  13  17
ENDBRANCH   1   7
BRANCH   1  21
HETATM   21  C9  UNL     1      43.877  19.304  12.807  1.00  0.00     0.246 C 
HETATM   22  O2  UNL     1      44.977  19.294  12.201  1.00  0.00    -0.271 OA
HETATM   23  N4  UNL     1      42.968  18.290  12.479  1.00  0.00    -0.354 N 
ATOM     24  H4  UNL     1      42.073  18.267  12.967  1.00  0.00     0.163 HD
BRANCH  23  25
HETATM   25  C10 UNL     1      43.232  17.273  11.483  1.00  0.00     0.092 C 
HETATM   26  C11 UNL     1      41.998  16.725  10.862  1.00  0.00     0.009 C 
HETATM   27  C12 UNL     1      41.257  15.722  11.717  1.00  0.00     0.011 C 
HETATM   28  C16 UNL     1      42.421  15.943   9.613  1.00  0.00     0.011 C 
HETATM   29  C13 UNL     1      42.147  14.583  12.182  1.00  0.00    -0.013 C 
HETATM   30  C14 UNL     1      42.595  13.835  10.967  1.00  0.00     0.009 C 
HETATM   31  C19 UNL     1      43.278  15.231  12.960  1.00  0.00     0.011 C 
HETATM   32  C15 UNL     1      43.321  14.819  10.057  1.00  0.00    -0.013 C 
HETATM   33  C17 UNL     1      44.516  15.295  10.867  1.00  0.00     0.011 C 
HETATM   34  C18 UNL     1      44.042  16.131  12.050  1.00  0.00     0.009 C 
ENDBRANCH  23  25
ENDBRANCH   1  21
BRANCH   4  35
HETATM   35  N5  UNL     1      44.277  20.872  17.654  1.00  0.00    -0.338 N 
HETATM   36  C23 UNL     1      44.256  20.653  19.047  1.00  0.00     0.318 C 
HETATM   37  O3  UNL     1      43.552  19.723  19.568  1.00  0.00    -0.247 OA
HETATM   38  N6  UNL     1      45.019  21.452  19.913  1.00  0.00    -0.334 N 
HETATM   39  C24 UNL     1      45.044  21.140  21.354  1.00  0.00     0.127 C 
HETATM   40  C28 UNL     1      45.768  22.581  19.440  1.00  0.00     0.127 C 
HETATM   41  C25 UNL     1      44.366  22.279  22.070  1.00  0.00     0.020 C 
HETATM   42  C26 UNL     1      44.539  23.601  21.384  1.00  0.00     0.003 C 
HETATM   43  C27 UNL     1      45.733  23.697  20.484  1.00  0.00     0.020 C 
ATOM     44  H5  UNL     1      44.857  21.604  17.245  1.00  0.00     0.164 HD
ENDBRANCH   4  35
TORSDOF 6
ENDMDL
