MODEL 1
REMARK VINA RESULT: -8.948796540      0.000      0.000
REMARK  9 active torsions:
REMARK  status: ('A' for Active; 'I' for Inactive)
REMARK    1  A    between atoms: C2_2  and  N1_5 
REMARK       I    between atoms: N1_5  and  C5_7 
REMARK       I    between atoms: C5_7  and  N2_9 
REMARK    2  A    between atoms: N2_9  and  C6_11 
REMARK    3  A    between atoms: C6_11  and  C7_12 
REMARK    4  A    between atoms: C6_11  and  C26_39 
REMARK    5  A    between atoms: C7_12  and  O2_13 
REMARK    6  A    between atoms: C7_12  and  N3_15 
REMARK    7  A    between atoms: C12_20  and  C13_21 
REMARK       I    between atoms: C13_21  and  N4_23 
REMARK    8  A    between atoms: N4_23  and  C14_25 
REMARK    9  A    between atoms: C14_25  and  C15_26 
REMARK       I    between atoms: C15_26  and  N5_28 
ROOT
HETATM    1  N3  UNL     1      44.293  21.656  15.800  1.00  0.00    -0.350 N 
HETATM    2  C8  UNL     1      45.286  21.239  14.854  1.00  0.00     0.125 C 
HETATM    3  C9  UNL     1      45.131  19.807  14.424  1.00  0.00     0.020 C 
HETATM    4  C10 UNL     1      43.758  19.461  13.923  1.00  0.00     0.004 C 
HETATM    5  C11 UNL     1      42.700  20.235  14.680  1.00  0.00     0.035 C 
HETATM    6  C12 UNL     1      43.152  20.729  15.994  1.00  0.00     0.178 C 
ENDROOT
BRANCH   1   7
HETATM    7  C7  UNL     1      44.289  22.871  16.526  1.00  0.00     0.138 C 
BRANCH   7   8
HETATM    8  C6  UNL     1      45.340  23.573  17.250  1.00  0.00     0.165 C 
BRANCH   8   9
HETATM    9  N2  UNL     1      45.503  24.938  16.722  1.00  0.00    -0.331 N 
HETATM   10  C5  UNL     1      46.169  25.266  15.535  1.00  0.00     0.317 C 
HETATM   11  N1  UNL     1      46.254  26.632  15.143  1.00  0.00    -0.335 N 
HETATM   12  O1  UNL     1      46.683  24.365  14.822  1.00  0.00    -0.247 OA
ATOM     13  H1  UNL     1      45.841  27.339  15.751  1.00  0.00     0.165 HD
ATOM     14  H2  UNL     1      45.100  25.703  17.262  1.00  0.00     0.165 HD
BRANCH  11  15
HETATM   15  C2  UNL     1      46.889  27.058  13.941  1.00  0.00     0.023 C 
HETATM   16  C1  UNL     1      48.333  26.583  13.940  1.00  0.00     0.037 C 
HETATM   17  C3  UNL     1      46.126  26.534  12.736  1.00  0.00     0.037 C 
HETATM   18  C4  UNL     1      46.903  28.578  13.850  1.00  0.00     0.037 C 
ENDBRANCH  11  15
ENDBRANCH   8   9
BRANCH   8  19
HETATM   19  C26 UNL     1      45.410  23.531  18.715  1.00  0.00     0.016 C 
HETATM   20  C27 UNL     1      46.833  23.987  19.178  1.00  0.00     0.007 C 
HETATM   21  C28 UNL     1      46.936  23.777  20.654  1.00  0.00     0.000 C 
HETATM   22  C29 UNL     1      45.866  24.501  21.442  1.00  0.00     0.000 C 
HETATM   23  C30 UNL     1      44.522  24.074  20.911  1.00  0.00     0.000 C 
HETATM   24  C31 UNL     1      44.487  24.471  19.432  1.00  0.00     0.007 C 
ENDBRANCH   8  19
ENDBRANCH   7   8
BRANCH   7  25
HETATM   25  O2  UNL     1      43.098  23.434  16.517  1.00  0.00    -0.348 OA
ATOM     26  H2  UNL     1      42.462  23.100  17.138  1.00  0.00     0.219 HD
ENDBRANCH   7  25
ENDBRANCH   1   7
BRANCH   6  27
HETATM   27  C13 UNL     1      43.425  19.741  17.048  1.00  0.00     0.241 C 
HETATM   28  O3  UNL     1      42.697  18.713  17.106  1.00  0.00    -0.271 OA
HETATM   29  N4  UNL     1      44.456  19.920  17.962  1.00  0.00    -0.341 N 
ATOM     30  H4  UNL     1      44.998  20.778  17.866  1.00  0.00     0.163 HD
BRANCH  29  31
HETATM   31  C14 UNL     1      44.854  19.024  19.042  1.00  0.00     0.114 C 
HETATM   32  C21 UNL     1      45.871  19.760  19.868  1.00  0.00     0.041 C 
HETATM   33  C22 UNL     1      45.408  20.503  21.050  1.00  0.00     0.003 C 
HETATM   34  C23 UNL     1      43.916  20.722  20.987  1.00  0.00     0.000 C 
HETATM   35  C24 UNL     1      43.340  19.295  21.047  1.00  0.00     0.003 C 
HETATM   36  C25 UNL     1      43.623  18.584  19.764  1.00  0.00     0.041 C 
BRANCH  31  37
HETATM   37  C15 UNL     1      45.541  17.859  18.409  1.00  0.00     0.248 C 
HETATM   38  O4  UNL     1      46.028  18.041  17.243  1.00  0.00    -0.271 OA
HETATM   39  N5  UNL     1      45.708  16.584  18.961  1.00  0.00    -0.350 N 
HETATM   40  C16 UNL     1      45.283  16.123  20.250  1.00  0.00     0.126 C 
HETATM   41  C20 UNL     1      46.396  15.563  18.145  1.00  0.00     0.126 C 
HETATM   42  C17 UNL     1      44.517  14.819  19.996  1.00  0.00     0.020 C 
HETATM   43  C18 UNL     1      45.567  13.771  19.680  1.00  0.00     0.003 C 
HETATM   44  C19 UNL     1      46.772  14.382  19.000  1.00  0.00     0.020 C 
ENDBRANCH  31  37
ENDBRANCH  29  31
ENDBRANCH   6  27
TORSDOF 9
ENDMDL
MODEL 2
REMARK VINA RESULT: -8.580148572      1.498      1.995
REMARK  9 active torsions:
REMARK  status: ('A' for Active; 'I' for Inactive)
REMARK    1  A    between atoms: C2_2  and  N1_5 
REMARK       I    between atoms: N1_5  and  C5_7 
REMARK       I    between atoms: C5_7  and  N2_9 
REMARK    2  A    between atoms: N2_9  and  C6_11 
REMARK    3  A    between atoms: C6_11  and  C7_12 
REMARK    4  A    between atoms: C6_11  and  C26_39 
REMARK    5  A    between atoms: C7_12  and  O2_13 
REMARK    6  A    between atoms: C7_12  and  N3_15 
REMARK    7  A    between atoms: C12_20  and  C13_21 
REMARK       I    between atoms: C13_21  and  N4_23 
REMARK    8  A    between atoms: N4_23  and  C14_25 
REMARK    9  A    between atoms: C14_25  and  C15_26 
REMARK       I    between atoms: C15_26  and  N5_28 
ROOT
HETATM    1  N3  UNL     1      44.067  22.554  16.009  1.00  0.00    -0.350 N 
HETATM    2  C8  UNL     1      44.473  22.340  14.651  1.00  0.00     0.125 C 
HETATM    3  C9  UNL     1      44.358  20.905  14.217  1.00  0.00     0.020 C 
HETATM    4  C10 UNL     1      43.005  20.298  14.456  1.00  0.00     0.004 C 
HETATM    5  C11 UNL     1      42.386  20.849  15.722  1.00  0.00     0.035 C 
HETATM    6  C12 UNL     1      43.368  21.421  16.663  1.00  0.00     0.178 C 
ENDROOT
BRANCH   1   7
HETATM    7  C7  UNL     1      44.240  23.744  16.756  1.00  0.00     0.138 C 
BRANCH   7   8
HETATM    8  C6  UNL     1      45.432  24.402  17.271  1.00  0.00     0.165 C 
BRANCH   8   9
HETATM    9  N2  UNL     1      45.647  25.687  16.584  1.00  0.00    -0.331 N 
HETATM   10  C5  UNL     1      46.233  25.836  15.322  1.00  0.00     0.317 C 
HETATM   11  N1  UNL     1      46.380  27.143  14.775  1.00  0.00    -0.335 N 
HETATM   12  O1  UNL     1      46.622  24.827  14.676  1.00  0.00    -0.247 OA
ATOM     13  H1  UNL     1      46.069  27.940  15.331  1.00  0.00     0.165 HD
ATOM     14  H2  UNL     1      45.344  26.534  17.065  1.00  0.00     0.165 HD
BRANCH  11  15
HETATM   15  C2  UNL     1      46.942  27.389  13.490  1.00  0.00     0.023 C 
HETATM   16  C1  UNL     1      48.387  26.919  13.474  1.00  0.00     0.037 C 
HETATM   17  C3  UNL     1      46.115  26.696  12.420  1.00  0.00     0.037 C 
HETATM   18  C4  UNL     1      46.938  28.880  13.179  1.00  0.00     0.037 C 
ENDBRANCH  11  15
ENDBRANCH   8   9
BRANCH   8  19
HETATM   19  C26 UNL     1      45.685  24.493  18.713  1.00  0.00     0.016 C 
HETATM   20  C27 UNL     1      44.828  23.416  19.457  1.00  0.00     0.007 C 
HETATM   21  C28 UNL     1      44.972  23.635  20.928  1.00  0.00     0.000 C 
HETATM   22  C29 UNL     1      46.407  23.592  21.406  1.00  0.00     0.000 C 
HETATM   23  C30 UNL     1      47.197  24.600  20.612  1.00  0.00     0.000 C 
HETATM   24  C31 UNL     1      47.090  24.185  19.142  1.00  0.00     0.007 C 
ENDBRANCH   8  19
ENDBRANCH   7   8
BRANCH   7  25
HETATM   25  O2  UNL     1      43.086  24.329  17.005  1.00  0.00    -0.348 OA
ATOM     26  H2  UNL     1      42.553  23.947  17.692  1.00  0.00     0.219 HD
ENDBRANCH   7  25
ENDBRANCH   1   7
BRANCH   6  27
HETATM   27  C13 UNL     1      44.311  20.505  17.321  1.00  0.00     0.241 C 
HETATM   28  O3  UNL     1      45.531  20.582  17.013  1.00  0.00    -0.271 OA
HETATM   29  N4  UNL     1      43.884  19.576  18.261  1.00  0.00    -0.341 N 
ATOM     30  H4  UNL     1      42.882  19.558  18.454  1.00  0.00     0.163 HD
BRANCH  29  31
HETATM   31  C14 UNL     1      44.699  18.622  19.005  1.00  0.00     0.114 C 
HETATM   32  C21 UNL     1      45.906  19.369  19.498  1.00  0.00     0.041 C 
HETATM   33  C22 UNL     1      45.869  19.945  20.850  1.00  0.00     0.003 C 
HETATM   34  C23 UNL     1      44.450  20.023  21.355  1.00  0.00     0.000 C 
HETATM   35  C24 UNL     1      44.014  18.548  21.436  1.00  0.00     0.003 C 
HETATM   36  C25 UNL     1      43.845  17.997  20.059  1.00  0.00     0.041 C 
BRANCH  31  37
HETATM   37  C15 UNL     1      45.167  17.597  18.026  1.00  0.00     0.248 C 
HETATM   38  O4  UNL     1      46.430  17.447  17.909  1.00  0.00    -0.271 OA
HETATM   39  N5  UNL     1      44.366  16.779  17.221  1.00  0.00    -0.350 N 
HETATM   40  C16 UNL     1      42.935  16.728  17.172  1.00  0.00     0.126 C 
HETATM   41  C20 UNL     1      45.042  15.848  16.294  1.00  0.00     0.126 C 
HETATM   42  C17 UNL     1      42.562  16.847  15.689  1.00  0.00     0.020 C 
HETATM   43  C18 UNL     1      42.891  15.505  15.065  1.00  0.00     0.003 C 
HETATM   44  C19 UNL     1      44.057  14.840  15.762  1.00  0.00     0.020 C 
ENDBRANCH  31  37
ENDBRANCH  29  31
ENDBRANCH   6  27
TORSDOF 9
ENDMDL
MODEL 3
REMARK VINA RESULT: -8.557638846      2.097      4.959
REMARK  9 active torsions:
REMARK  status: ('A' for Active; 'I' for Inactive)
REMARK    1  A    between atoms: C2_2  and  N1_5 
REMARK       I    between atoms: N1_5  and  C5_7 
REMARK       I    between atoms: C5_7  and  N2_9 
REMARK    2  A    between atoms: N2_9  and  C6_11 
REMARK    3  A    between atoms: C6_11  and  C7_12 
REMARK    4  A    between atoms: C6_11  and  C26_39 
REMARK    5  A    between atoms: C7_12  and  O2_13 
REMARK    6  A    between atoms: C7_12  and  N3_15 
REMARK    7  A    between atoms: C12_20  and  C13_21 
REMARK       I    between atoms: C13_21  and  N4_23 
REMARK    8  A    between atoms: N4_23  and  C14_25 
REMARK    9  A    between atoms: C14_25  and  C15_26 
REMARK       I    between atoms: C15_26  and  N5_28 
ROOT
HETATM    1  N3  UNL     1      45.298  24.640  18.880  1.00  0.00    -0.350 N 
HETATM    2  C8  UNL     1      44.446  25.099  19.938  1.00  0.00     0.125 C 
HETATM    3  C9  UNL     1      44.256  24.081  21.028  1.00  0.00     0.020 C 
HETATM    4  C10 UNL     1      45.538  23.538  21.592  1.00  0.00     0.004 C 
HETATM    5  C11 UNL     1      46.595  23.433  20.515  1.00  0.00     0.035 C 
HETATM    6  C12 UNL     1      46.047  23.388  19.146  1.00  0.00     0.178 C 
ENDROOT
BRANCH   1   7
HETATM    7  C7  UNL     1      45.511  25.287  17.638  1.00  0.00     0.138 C 
BRANCH   7   8
HETATM    8  C6  UNL     1      46.087  24.818  16.386  1.00  0.00     0.165 C 
BRANCH   8   9
HETATM    9  N2  UNL     1      45.022  24.428  15.446  1.00  0.00    -0.331 N 
HETATM   10  C5  UNL     1      44.901  23.171  14.845  1.00  0.00     0.317 C 
HETATM   11  N1  UNL     1      43.819  22.930  13.950  1.00  0.00    -0.335 N 
HETATM   12  O1  UNL     1      45.737  22.262  15.092  1.00  0.00    -0.247 OA
ATOM     13  H1  UNL     1      43.169  23.693  13.758  1.00  0.00     0.165 HD
ATOM     14  H2  UNL     1      44.318  25.129  15.216  1.00  0.00     0.165 HD
BRANCH  11  15
HETATM   15  C2  UNL     1      43.602  21.676  13.312  1.00  0.00     0.023 C 
HETATM   16  C1  UNL     1      44.938  21.090  12.888  1.00  0.00     0.037 C 
HETATM   17  C3  UNL     1      42.851  20.741  14.245  1.00  0.00     0.037 C 
HETATM   18  C4  UNL     1      42.756  21.851  12.058  1.00  0.00     0.037 C 
ENDBRANCH  11  15
ENDBRANCH   8   9
BRANCH   8  19
HETATM   19  C26 UNL     1      47.170  25.555  15.726  1.00  0.00     0.016 C 
HETATM   20  C27 UNL     1      48.321  24.562  15.355  1.00  0.00     0.007 C 
HETATM   21  C28 UNL     1      49.477  25.356  14.840  1.00  0.00     0.000 C 
HETATM   22  C29 UNL     1      49.129  26.228  13.653  1.00  0.00     0.000 C 
HETATM   23  C30 UNL     1      47.976  27.115  14.046  1.00  0.00     0.000 C 
HETATM   24  C31 UNL     1      46.813  26.188  14.413  1.00  0.00     0.007 C 
ENDBRANCH   8  19
ENDBRANCH   7   8
BRANCH   7  25
HETATM   25  O2  UNL     1      45.097  26.537  17.669  1.00  0.00    -0.348 OA
ATOM     26  H2  UNL     1      45.558  27.126  18.254  1.00  0.00     0.219 HD
ENDBRANCH   7  25
ENDBRANCH   1   7
BRANCH   6  27
HETATM   27  C13 UNL     1      45.280  22.198  18.747  1.00  0.00     0.241 C 
HETATM   28  O3  UNL     1      44.252  22.362  18.036  1.00  0.00    -0.271 OA
HETATM   29  N4  UNL     1      45.669  20.922  19.132  1.00  0.00    -0.341 N 
ATOM     30  H4  UNL     1      46.502  20.862  19.716  1.00  0.00     0.163 HD
BRANCH  29  31
HETATM   31  C14 UNL     1      45.024  19.657  18.799  1.00  0.00     0.114 C 
HETATM   32  C21 UNL     1      45.609  18.614  19.710  1.00  0.00     0.041 C 
HETATM   33  C22 UNL     1      44.905  18.307  20.964  1.00  0.00     0.003 C 
HETATM   34  C23 UNL     1      43.920  19.398  21.301  1.00  0.00     0.000 C 
HETATM   35  C24 UNL     1      42.907  19.339  20.142  1.00  0.00     0.003 C 
HETATM   36  C25 UNL     1      43.545  19.845  18.891  1.00  0.00     0.041 C 
BRANCH  31  37
HETATM   37  C15 UNL     1      45.428  19.317  17.403  1.00  0.00     0.248 C 
HETATM   38  O4  UNL     1      46.370  20.011  16.891  1.00  0.00    -0.271 OA
HETATM   39  N5  UNL     1      44.883  18.315  16.593  1.00  0.00    -0.350 N 
HETATM   40  C16 UNL     1      43.842  17.387  16.925  1.00  0.00     0.126 C 
HETATM   41  C20 UNL     1      45.414  18.170  15.222  1.00  0.00     0.126 C 
HETATM   42  C17 UNL     1      42.822  17.475  15.782  1.00  0.00     0.020 C 
HETATM   43  C18 UNL     1      43.449  16.750  14.606  1.00  0.00     0.003 C 
HETATM   44  C19 UNL     1      44.956  16.865  14.624  1.00  0.00     0.020 C 
ENDBRANCH  31  37
ENDBRANCH  29  31
ENDBRANCH   6  27
TORSDOF 9
ENDMDL
MODEL 4
REMARK VINA RESULT: -8.535658934      2.224      8.328
REMARK  9 active torsions:
REMARK  status: ('A' for Active; 'I' for Inactive)
REMARK    1  A    between atoms: C2_2  and  N1_5 
REMARK       I    between atoms: N1_5  and  C5_7 
REMARK       I    between atoms: C5_7  and  N2_9 
REMARK    2  A    between atoms: N2_9  and  C6_11 
REMARK    3  A    between atoms: C6_11  and  C7_12 
REMARK    4  A    between atoms: C6_11  and  C26_39 
REMARK    5  A    between atoms: C7_12  and  O2_13 
REMARK    6  A    between atoms: C7_12  and  N3_15 
REMARK    7  A    between atoms: C12_20  and  C13_21 
REMARK       I    between atoms: C13_21  and  N4_23 
REMARK    8  A    between atoms: N4_23  and  C14_25 
REMARK    9  A    between atoms: C14_25  and  C15_26 
REMARK       I    between atoms: C15_26  and  N5_28 
ROOT
HETATM    1  N3  UNL     1      44.508  17.836  16.854  1.00  0.00    -0.350 N 
HETATM    2  C8  UNL     1      44.664  17.220  15.568  1.00  0.00     0.125 C 
HETATM    3  C9  UNL     1      45.299  18.127  14.551  1.00  0.00     0.020 C 
HETATM    4  C10 UNL     1      46.597  18.736  14.997  1.00  0.00     0.004 C 
HETATM    5  C11 UNL     1      46.574  19.021  16.483  1.00  0.00     0.035 C 
HETATM    6  C12 UNL     1      45.215  19.124  17.046  1.00  0.00     0.178 C 
ENDROOT
BRANCH   1   7
HETATM    7  C7  UNL     1      43.779  17.310  17.949  1.00  0.00     0.138 C 
BRANCH   7   8
HETATM    8  C6  UNL     1      44.165  17.023  19.323  1.00  0.00     0.165 C 
BRANCH   8   9
HETATM    9  N2  UNL     1      45.395  16.213  19.352  1.00  0.00    -0.331 N 
HETATM   10  C5  UNL     1      45.661  15.187  20.266  1.00  0.00     0.317 C 
HETATM   11  N1  UNL     1      46.896  14.484  20.180  1.00  0.00    -0.335 N 
HETATM   12  O1  UNL     1      44.818  14.889  21.153  1.00  0.00    -0.247 OA
ATOM     13  H1  UNL     1      47.564  14.761  19.460  1.00  0.00     0.165 HD
ATOM     14  H2  UNL     1      46.107  16.414  18.650  1.00  0.00     0.165 HD
BRANCH  11  15
HETATM   15  C2  UNL     1      47.243  13.412  21.050  1.00  0.00     0.023 C 
HETATM   16  C1  UNL     1      47.671  13.975  22.395  1.00  0.00     0.037 C 
HETATM   17  C3  UNL     1      46.070  12.456  21.190  1.00  0.00     0.037 C 
HETATM   18  C4  UNL     1      48.416  12.620  20.487  1.00  0.00     0.037 C 
ENDBRANCH  11  15
ENDBRANCH   8   9
BRANCH   8  19
HETATM   19  C26 UNL     1      44.168  18.075  20.345  1.00  0.00     0.016 C 
HETATM   20  C27 UNL     1      45.522  18.856  20.280  1.00  0.00     0.007 C 
HETATM   21  C28 UNL     1      45.571  19.807  21.433  1.00  0.00     0.000 C 
HETATM   22  C29 UNL     1      44.405  20.771  21.469  1.00  0.00     0.000 C 
HETATM   23  C30 UNL     1      43.131  19.966  21.465  1.00  0.00     0.000 C 
HETATM   24  C31 UNL     1      43.133  19.147  20.171  1.00  0.00     0.007 C 
ENDBRANCH   8  19
ENDBRANCH   7   8
BRANCH   7  25
HETATM   25  O2  UNL     1      42.531  17.051  17.617  1.00  0.00    -0.348 OA
ATOM     26  H2  UNL     1      42.200  17.474  16.834  1.00  0.00     0.219 HD
ENDBRANCH   7  25
ENDBRANCH   1   7
BRANCH   6  27
HETATM   27  C13 UNL     1      44.384  20.269  16.643  1.00  0.00     0.241 C 
HETATM   28  O3  UNL     1      43.135  20.109  16.589  1.00  0.00    -0.271 OA
HETATM   29  N4  UNL     1      44.947  21.499  16.329  1.00  0.00    -0.341 N 
ATOM     30  H4  UNL     1      45.964  21.556  16.381  1.00  0.00     0.163 HD
BRANCH  29  31
HETATM   31  C14 UNL     1      44.254  22.720  15.934  1.00  0.00     0.114 C 
HETATM   32  C21 UNL     1      45.245  23.562  15.181  1.00  0.00     0.041 C 
HETATM   33  C22 UNL     1      45.282  23.457  13.715  1.00  0.00     0.003 C 
HETATM   34  C23 UNL     1      44.577  22.205  13.255  1.00  0.00     0.000 C 
HETATM   35  C24 UNL     1      43.118  22.432  13.695  1.00  0.00     0.003 C 
HETATM   36  C25 UNL     1      43.022  22.337  15.182  1.00  0.00     0.041 C 
BRANCH  31  37
HETATM   37  C15 UNL     1      43.903  23.446  17.190  1.00  0.00     0.248 C 
HETATM   38  O4  UNL     1      42.746  23.984  17.241  1.00  0.00    -0.271 OA
HETATM   39  N5  UNL     1      44.711  23.599  18.323  1.00  0.00    -0.350 N 
HETATM   40  C16 UNL     1      46.031  23.083  18.536  1.00  0.00     0.126 C 
HETATM   41  C20 UNL     1      44.175  24.388  19.451  1.00  0.00     0.126 C 
HETATM   42  C17 UNL     1      46.877  24.275  19.002  1.00  0.00     0.020 C 
HETATM   43  C18 UNL     1      46.468  24.542  20.438  1.00  0.00     0.003 C 
HETATM   44  C19 UNL     1      45.021  24.176  20.679  1.00  0.00     0.020 C 
ENDBRANCH  31  37
ENDBRANCH  29  31
ENDBRANCH   6  27
TORSDOF 9
ENDMDL
MODEL 5
REMARK VINA RESULT: -8.495728937      1.377      1.799
REMARK  9 active torsions:
REMARK  status: ('A' for Active; 'I' for Inactive)
REMARK    1  A    between atoms: C2_2  and  N1_5 
REMARK       I    between atoms: N1_5  and  C5_7 
REMARK       I    between atoms: C5_7  and  N2_9 
REMARK    2  A    between atoms: N2_9  and  C6_11 
REMARK    3  A    between atoms: C6_11  and  C7_12 
REMARK    4  A    between atoms: C6_11  and  C26_39 
REMARK    5  A    between atoms: C7_12  and  O2_13 
REMARK    6  A    between atoms: C7_12  and  N3_15 
REMARK    7  A    between atoms: C12_20  and  C13_21 
REMARK       I    between atoms: C13_21  and  N4_23 
REMARK    8  A    between atoms: N4_23  and  C14_25 
REMARK    9  A    between atoms: C14_25  and  C15_26 
REMARK       I    between atoms: C15_26  and  N5_28 
ROOT
HETATM    1  N3  UNL     1      45.008  22.043  15.420  1.00  0.00    -0.350 N 
HETATM    2  C8  UNL     1      44.725  21.241  14.266  1.00  0.00     0.125 C 
HETATM    3  C9  UNL     1      43.697  20.175  14.523  1.00  0.00     0.020 C 
HETATM    4  C10 UNL     1      42.420  20.685  15.126  1.00  0.00     0.004 C 
HETATM    5  C11 UNL     1      42.695  21.837  16.069  1.00  0.00     0.035 C 
HETATM    6  C12 UNL     1      44.083  21.878  16.567  1.00  0.00     0.178 C 
ENDROOT
BRANCH   1   7
HETATM    7  C7  UNL     1      46.054  22.989  15.545  1.00  0.00     0.138 C 
BRANCH   7   8
HETATM    8  C6  UNL     1      46.291  24.053  16.511  1.00  0.00     0.165 C 
BRANCH   8   9
HETATM    9  N2  UNL     1      45.867  25.350  15.957  1.00  0.00    -0.331 N 
HETATM   10  C5  UNL     1      46.551  26.065  14.968  1.00  0.00     0.317 C 
HETATM   11  N1  UNL     1      46.027  27.313  14.525  1.00  0.00    -0.335 N 
HETATM   12  O1  UNL     1      47.615  25.609  14.472  1.00  0.00    -0.247 OA
ATOM     13  H1  UNL     1      45.172  27.661  14.958  1.00  0.00     0.165 HD
ATOM     14  H2  UNL     1      45.007  25.760  16.324  1.00  0.00     0.165 HD
BRANCH  11  15
HETATM   15  C2  UNL     1      46.640  28.096  13.507  1.00  0.00     0.023 C 
HETATM   16  C1  UNL     1      46.349  29.566  13.760  1.00  0.00     0.037 C 
HETATM   17  C3  UNL     1      48.134  27.819  13.467  1.00  0.00     0.037 C 
HETATM   18  C4  UNL     1      46.071  27.742  12.140  1.00  0.00     0.037 C 
ENDBRANCH  11  15
ENDBRANCH   8   9
BRANCH   8  19
HETATM   19  C26 UNL     1      45.911  23.897  17.919  1.00  0.00     0.016 C 
HETATM   20  C27 UNL     1      47.122  24.293  18.827  1.00  0.00     0.007 C 
HETATM   21  C28 UNL     1      46.772  23.969  20.243  1.00  0.00     0.000 C 
HETATM   22  C29 UNL     1      45.507  24.647  20.722  1.00  0.00     0.000 C 
HETATM   23  C30 UNL     1      44.393  24.284  19.776  1.00  0.00     0.000 C 
HETATM   24  C31 UNL     1      44.806  24.794  18.393  1.00  0.00     0.007 C 
ENDBRANCH   8  19
ENDBRANCH   7   8
BRANCH   7  25
HETATM   25  O2  UNL     1      46.954  22.840  14.595  1.00  0.00    -0.348 OA
ATOM     26  H2  UNL     1      46.978  21.998  14.157  1.00  0.00     0.219 HD
ENDBRANCH   7  25
ENDBRANCH   1   7
BRANCH   6  27
HETATM   27  C13 UNL     1      44.524  20.808  17.475  1.00  0.00     0.241 C 
HETATM   28  O3  UNL     1      45.692  20.354  17.338  1.00  0.00    -0.271 OA
HETATM   29  N4  UNL     1      43.688  20.304  18.463  1.00  0.00    -0.341 N 
ATOM     30  H4  UNL     1      42.752  20.707  18.510  1.00  0.00     0.163 HD
BRANCH  29  31
HETATM   31  C14 UNL     1      43.990  19.265  19.440  1.00  0.00     0.114 C 
HETATM   32  C21 UNL     1      45.456  19.373  19.754  1.00  0.00     0.041 C 
HETATM   33  C22 UNL     1      45.866  20.176  20.916  1.00  0.00     0.003 C 
HETATM   34  C23 UNL     1      44.745  21.086  21.354  1.00  0.00     0.000 C 
HETATM   35  C24 UNL     1      43.640  20.109  21.796  1.00  0.00     0.003 C 
HETATM   36  C25 UNL     1      43.063  19.427  20.599  1.00  0.00     0.041 C 
BRANCH  31  37
HETATM   37  C15 UNL     1      43.767  17.953  18.763  1.00  0.00     0.248 C 
HETATM   38  O4  UNL     1      43.282  17.990  17.583  1.00  0.00    -0.271 OA
HETATM   39  N5  UNL     1      44.036  16.684  19.287  1.00  0.00    -0.350 N 
HETATM   40  C16 UNL     1      44.597  16.363  20.566  1.00  0.00     0.126 C 
HETATM   41  C20 UNL     1      43.707  15.509  18.453  1.00  0.00     0.126 C 
HETATM   42  C17 UNL     1      43.657  15.322  21.187  1.00  0.00     0.020 C 
HETATM   43  C18 UNL     1      43.926  14.023  20.453  1.00  0.00     0.003 C 
HETATM   44  C19 UNL     1      44.351  14.273  19.023  1.00  0.00     0.020 C 
ENDBRANCH  31  37
ENDBRANCH  29  31
ENDBRANCH   6  27
TORSDOF 9
ENDMDL
