MODEL 1
REMARK VINA RESULT: -5.666165813      0.000      0.000
REMARK  4 active torsions:
REMARK  status: ('A' for Active; 'I' for Inactive)
REMARK    1  A    between atoms: C2_2  and  N1_4 
REMARK    2  A    between atoms: N1_4  and  C4_6 
REMARK    3  A    between atoms: C7_9  and  N2_10 
REMARK    4  A    between atoms: C8_14  and  O1_15 
ROOT
HETATM    1  C4  UNL     1      17.453  43.780  -1.046  1.00  0.00     0.079 C 
HETATM    2  C5  UNL     1      18.902  44.002  -0.779  1.00  0.00     0.027 C 
HETATM    3  C6  UNL     1      19.388  43.705   0.582  1.00  0.00     0.037 C 
HETATM    4  C7  UNL     1      18.378  43.414   1.616  1.00  0.00     0.212 C 
HETATM    5  C8  UNL     1      17.104  42.813   1.167  1.00  0.00     0.150 C 
HETATM    6  C9  UNL     1      16.959  42.555  -0.284  1.00  0.00     0.058 C 
ENDROOT
BRANCH   1   7
HETATM    7  N1  UNL     1      17.172  43.475  -2.430  1.00  0.00    -0.414 N 
ATOM      8  H1  UNL     1      16.266  43.676  -2.855  1.00  0.00     0.153 HD
BRANCH   7   9
HETATM    9  C2  UNL     1      18.233  42.879  -3.165  1.00  0.00     0.068 C 
HETATM   10  C1  UNL     1      18.568  43.583  -4.463  1.00  0.00     0.031 C 
HETATM   11  C3  UNL     1      17.719  41.487  -3.574  1.00  0.00     0.031 C 
ENDBRANCH   7   9
ENDBRANCH   1   7
BRANCH   5  12
HETATM   12  O1  UNL     1      16.007  43.624   1.556  1.00  0.00    -0.393 OA
ATOM     13  H1  UNL     1      15.186  43.216   1.307  1.00  0.00     0.210 HD
ENDBRANCH   5  12
BRANCH   4  14
HETATM   14  N2  UNL     1      18.976  42.502   2.608  1.00  0.00    -0.073 N 
ATOM     15  H23 UNL     1      19.987  42.418   2.503  1.00  0.00     0.274 HD
ATOM     16  H22 UNL     1      18.966  42.889   3.552  1.00  0.00     0.274 HD
ATOM     17  H21 UNL     1      18.499  41.603   2.548  1.00  0.00     0.274 HD
ENDBRANCH   4  14
TORSDOF 4
ENDMDL
MODEL 2
REMARK VINA RESULT: -5.646624736      2.224      4.781
REMARK  4 active torsions:
REMARK  status: ('A' for Active; 'I' for Inactive)
REMARK    1  A    between atoms: C2_2  and  N1_4 
REMARK    2  A    between atoms: N1_4  and  C4_6 
REMARK    3  A    between atoms: C7_9  and  N2_10 
REMARK    4  A    between atoms: C8_14  and  O1_15 
ROOT
HETATM    1  C4  UNL     1      16.992  42.543  -1.869  1.00  0.00     0.079 C 
HETATM    2  C5  UNL     1      17.460  41.440  -2.755  1.00  0.00     0.027 C 
HETATM    3  C6  UNL     1      18.201  41.823  -3.972  1.00  0.00     0.037 C 
HETATM    4  C7  UNL     1      18.239  43.255  -4.321  1.00  0.00     0.212 C 
HETATM    5  C8  UNL     1      18.143  44.225  -3.209  1.00  0.00     0.150 C 
HETATM    6  C9  UNL     1      18.020  43.669  -1.843  1.00  0.00     0.058 C 
ENDROOT
BRANCH   1   7
HETATM    7  N1  UNL     1      16.864  42.145  -0.486  1.00  0.00    -0.414 N 
ATOM      8  H1  UNL     1      16.302  41.342  -0.204  1.00  0.00     0.153 HD
BRANCH   7   9
HETATM    9  C2  UNL     1      17.570  42.940   0.458  1.00  0.00     0.068 C 
HETATM   10  C1  UNL     1      18.706  42.222   1.156  1.00  0.00     0.031 C 
HETATM   11  C3  UNL     1      16.552  43.268   1.565  1.00  0.00     0.031 C 
ENDBRANCH   7   9
ENDBRANCH   1   7
BRANCH   5  12
HETATM   12  O1  UNL     1      17.042  45.097  -3.405  1.00  0.00    -0.393 OA
ATOM     13  H1  UNL     1      17.186  45.921  -2.954  1.00  0.00     0.210 HD
ENDBRANCH   5  12
BRANCH   4  14
HETATM   14  N2  UNL     1      19.497  43.525  -5.041  1.00  0.00    -0.073 N 
ATOM     15  H23 UNL     1      19.965  42.671  -5.346  1.00  0.00     0.274 HD
ATOM     16  H22 UNL     1      19.341  43.935  -5.963  1.00  0.00     0.274 HD
ATOM     17  H21 UNL     1      20.089  44.106  -4.449  1.00  0.00     0.274 HD
ENDBRANCH   4  14
TORSDOF 4
ENDMDL
MODEL 3
REMARK VINA RESULT: -5.480787109      1.031      1.477
REMARK  4 active torsions:
REMARK  status: ('A' for Active; 'I' for Inactive)
REMARK    1  A    between atoms: C2_2  and  N1_4 
REMARK    2  A    between atoms: N1_4  and  C4_6 
REMARK    3  A    between atoms: C7_9  and  N2_10 
REMARK    4  A    between atoms: C8_14  and  O1_15 
ROOT
HETATM    1  C4  UNL     1      18.316  43.871  -0.311  1.00  0.00     0.079 C 
HETATM    2  C5  UNL     1      19.536  43.589   0.497  1.00  0.00     0.027 C 
HETATM    3  C6  UNL     1      19.338  42.962   1.818  1.00  0.00     0.037 C 
HETATM    4  C7  UNL     1      17.955  42.854   2.319  1.00  0.00     0.212 C 
HETATM    5  C8  UNL     1      16.877  42.753   1.311  1.00  0.00     0.150 C 
HETATM    6  C9  UNL     1      17.286  42.765  -0.111  1.00  0.00     0.058 C 
ENDROOT
BRANCH   1   7
HETATM    7  N1  UNL     1      18.566  43.873  -1.734  1.00  0.00    -0.414 N 
ATOM      8  H1  UNL     1      19.454  44.184  -2.126  1.00  0.00     0.153 HD
BRANCH   7   9
HETATM    9  C2  UNL     1      17.498  43.417  -2.554  1.00  0.00     0.068 C 
HETATM   10  C1  UNL     1      17.795  42.143  -3.317  1.00  0.00     0.031 C 
HETATM   11  C3  UNL     1      17.309  44.504  -3.628  1.00  0.00     0.031 C 
ENDBRANCH   7   9
ENDBRANCH   1   7
BRANCH   5  12
HETATM   12  O1  UNL     1      15.936  43.800   1.483  1.00  0.00    -0.393 OA
ATOM     13  H1  UNL     1      16.187  44.560   0.971  1.00  0.00     0.210 HD
ENDBRANCH   5  12
BRANCH   4  14
HETATM   14  N2  UNL     1      17.866  41.668   3.189  1.00  0.00    -0.073 N 
ATOM     15  H23 UNL     1      18.534  41.696   3.959  1.00  0.00     0.274 HD
ATOM     16  H22 UNL     1      17.011  41.654   3.746  1.00  0.00     0.274 HD
ATOM     17  H21 UNL     1      17.970  40.835   2.610  1.00  0.00     0.274 HD
ENDBRANCH   4  14
TORSDOF 4
ENDMDL
MODEL 4
REMARK VINA RESULT: -5.440573572      2.181      4.777
REMARK  4 active torsions:
REMARK  status: ('A' for Active; 'I' for Inactive)
REMARK    1  A    between atoms: C2_2  and  N1_4 
REMARK    2  A    between atoms: N1_4  and  C4_6 
REMARK    3  A    between atoms: C7_9  and  N2_10 
REMARK    4  A    between atoms: C8_14  and  O1_15 
ROOT
HETATM    1  C4  UNL     1      17.169  43.463  -1.163  1.00  0.00     0.079 C 
HETATM    2  C5  UNL     1      17.334  42.046  -1.595  1.00  0.00     0.027 C 
HETATM    3  C6  UNL     1      17.769  41.813  -2.985  1.00  0.00     0.037 C 
HETATM    4  C7  UNL     1      17.807  42.977  -3.890  1.00  0.00     0.212 C 
HETATM    5  C8  UNL     1      18.050  44.301  -3.279  1.00  0.00     0.150 C 
HETATM    6  C9  UNL     1      18.237  44.338  -1.811  1.00  0.00     0.058 C 
ENDROOT
BRANCH   1   7
HETATM    7  N1  UNL     1      17.366  43.651   0.255  1.00  0.00    -0.414 N 
ATOM      8  H1  UNL     1      16.946  44.430   0.761  1.00  0.00     0.153 HD
BRANCH   7   9
HETATM    9  C2  UNL     1      18.181  42.683   0.904  1.00  0.00     0.068 C 
HETATM   10  C1  UNL     1      17.710  42.297   2.291  1.00  0.00     0.031 C 
HETATM   11  C3  UNL     1      19.546  43.363   1.109  1.00  0.00     0.031 C 
ENDBRANCH   7   9
ENDBRANCH   1   7
BRANCH   5  12
HETATM   12  O1  UNL     1      16.990  45.192  -3.585  1.00  0.00    -0.393 OA
ATOM     13  H1  UNL     1      16.183  44.712  -3.730  1.00  0.00     0.210 HD
ENDBRANCH   5  12
BRANCH   4  14
HETATM   14  N2  UNL     1      18.859  42.750  -4.897  1.00  0.00    -0.073 N 
ATOM     15  H23 UNL     1      19.294  41.831  -4.809  1.00  0.00     0.274 HD
ATOM     16  H22 UNL     1      18.483  42.637  -5.838  1.00  0.00     0.274 HD
ATOM     17  H21 UNL     1      19.535  43.511  -4.833  1.00  0.00     0.274 HD
ENDBRANCH   4  14
TORSDOF 4
ENDMDL
MODEL 5
REMARK VINA RESULT: -5.174651622      0.823      1.036
REMARK  4 active torsions:
REMARK  status: ('A' for Active; 'I' for Inactive)
REMARK    1  A    between atoms: C2_2  and  N1_4 
REMARK    2  A    between atoms: N1_4  and  C4_6 
REMARK    3  A    between atoms: C7_9  and  N2_10 
REMARK    4  A    between atoms: C8_14  and  O1_15 
ROOT
HETATM    1  C4  UNL     1      17.654  43.655  -1.013  1.00  0.00     0.079 C 
HETATM    2  C5  UNL     1      19.064  43.856  -0.576  1.00  0.00     0.027 C 
HETATM    3  C6  UNL     1      19.366  43.631   0.850  1.00  0.00     0.037 C 
HETATM    4  C7  UNL     1      18.224  43.429   1.762  1.00  0.00     0.212 C 
HETATM    5  C8  UNL     1      16.997  42.835   1.189  1.00  0.00     0.150 C 
HETATM    6  C9  UNL     1      17.028  42.492  -0.251  1.00  0.00     0.058 C 
ENDROOT
BRANCH   1   7
HETATM    7  N1  UNL     1      17.539  43.274  -2.402  1.00  0.00    -0.414 N 
ATOM      8  H1  UNL     1      17.147  42.377  -2.686  1.00  0.00     0.153 HD
BRANCH   7   9
HETATM    9  C2  UNL     1      18.006  44.226  -3.349  1.00  0.00     0.068 C 
HETATM   10  C1  UNL     1      16.909  44.967  -4.084  1.00  0.00     0.031 C 
HETATM   11  C3  UNL     1      18.741  43.410  -4.427  1.00  0.00     0.031 C 
ENDBRANCH   7   9
ENDBRANCH   1   7
BRANCH   5  12
HETATM   12  O1  UNL     1      15.888  43.695   1.388  1.00  0.00    -0.393 OA
ATOM     13  H1  UNL     1      15.083  43.271   1.114  1.00  0.00     0.210 HD
ENDBRANCH   5  12
BRANCH   4  14
HETATM   14  N2  UNL     1      18.662  42.565   2.873  1.00  0.00    -0.073 N 
ATOM     15  H23 UNL     1      19.461  42.950   3.377  1.00  0.00     0.274 HD
ATOM     16  H22 UNL     1      17.999  42.556   3.648  1.00  0.00     0.274 HD
ATOM     17  H21 UNL     1      18.844  41.632   2.502  1.00  0.00     0.274 HD
ENDBRANCH   4  14
TORSDOF 4
ENDMDL
