MODEL 1
REMARK VINA RESULT: -5.591003125      0.000      0.000
REMARK  6 active torsions:
REMARK  status: ('A' for Active; 'I' for Inactive)
REMARK    1  A    between atoms: C1_4  and  N2_5 
REMARK    2  A    between atoms: C1_4  and  O1_12 
REMARK    3  A    between atoms: N2_5  and  C2_7 
REMARK    4  A    between atoms: O1_12  and  C7_13 
REMARK    5  A    between atoms: C7_13  and  C8_14 
REMARK    6  A    between atoms: C8_14  and  N3_15 
ROOT
HETATM    1  N1  UNL     1      15.968  43.482   1.248  1.00  0.00    -0.365 N 
ATOM      2  H11 UNL     1      15.967  43.175   2.220  1.00  0.00     0.159 HD
ATOM      3  H12 UNL     1      15.312  44.176   0.890  1.00  0.00     0.159 HD
HETATM    4  C1  UNL     1      16.811  43.006   0.396  1.00  0.00     0.212 C 
ENDROOT
BRANCH   4   5
HETATM    5  N2  UNL     1      16.812  43.436  -0.966  1.00  0.00    -0.352 N 
ATOM      6  H2  UNL     1      16.018  43.984  -1.297  1.00  0.00     0.163 HD
BRANCH   5   7
HETATM    7  C2  UNL     1      17.858  43.145  -1.890  1.00  0.00     0.085 C 
HETATM    8  C3  UNL     1      17.400  42.170  -2.984  1.00  0.00     0.025 C 
HETATM    9  C4  UNL     1      18.371  42.503  -4.091  1.00  0.00     0.002 C 
HETATM   10  C5  UNL     1      18.263  44.033  -4.113  1.00  0.00     0.002 C 
HETATM   11  C6  UNL     1      18.211  44.371  -2.663  1.00  0.00     0.025 C 
ENDBRANCH   5   7
ENDBRANCH   4   5
BRANCH   4  12
HETATM   12  O1  UNL     1      17.702  42.064   0.882  1.00  0.00    -0.321 OA
BRANCH  12  13
HETATM   13  C7  UNL     1      18.422  42.175   2.071  1.00  0.00     0.206 C 
BRANCH  13  14
HETATM   14  C8  UNL     1      19.479  43.256   2.025  1.00  0.00     0.256 C 
BRANCH  14  15
HETATM   15  N3  UNL     1      20.293  43.162   0.836  1.00  0.00    -0.077 N 
ATOM     16  H33 UNL     1      20.664  42.220   0.714  1.00  0.00     0.274 HD
ATOM     17  H32 UNL     1      19.724  43.221  -0.008  1.00  0.00     0.274 HD
ATOM     18  H31 UNL     1      21.038  43.858   0.830  1.00  0.00     0.274 HD
ENDBRANCH  14  15
ENDBRANCH  13  14
ENDBRANCH  12  13
ENDBRANCH   4  12
TORSDOF 6
ENDMDL
MODEL 2
REMARK VINA RESULT: -5.393966420      1.611      2.342
REMARK  6 active torsions:
REMARK  status: ('A' for Active; 'I' for Inactive)
REMARK    1  A    between atoms: C1_4  and  N2_5 
REMARK    2  A    between atoms: C1_4  and  O1_12 
REMARK    3  A    between atoms: N2_5  and  C2_7 
REMARK    4  A    between atoms: O1_12  and  C7_13 
REMARK    5  A    between atoms: C7_13  and  C8_14 
REMARK    6  A    between atoms: C8_14  and  N3_15 
ROOT
HETATM    1  N1  UNL     1      16.469  43.318   0.645  1.00  0.00    -0.365 N 
ATOM      2  H11 UNL     1      16.133  43.508   1.589  1.00  0.00     0.159 HD
ATOM      3  H12 UNL     1      16.036  43.724  -0.184  1.00  0.00     0.159 HD
HETATM    4  C1  UNL     1      17.478  42.542   0.436  1.00  0.00     0.212 C 
ENDROOT
BRANCH   4   5
HETATM    5  N2  UNL     1      17.947  42.276  -0.886  1.00  0.00    -0.352 N 
ATOM      6  H2  UNL     1      18.658  41.555  -1.007  1.00  0.00     0.163 HD
BRANCH   5   7
HETATM    7  C2  UNL     1      17.480  42.960  -2.047  1.00  0.00     0.085 C 
HETATM    8  C3  UNL     1      18.217  44.290  -2.263  1.00  0.00     0.025 C 
HETATM    9  C4  UNL     1      18.035  44.481  -3.749  1.00  0.00     0.002 C 
HETATM   10  C5  UNL     1      18.453  43.099  -4.267  1.00  0.00     0.002 C 
HETATM   11  C6  UNL     1      17.831  42.183  -3.270  1.00  0.00     0.025 C 
ENDBRANCH   5   7
ENDBRANCH   4   5
BRANCH   4  12
HETATM   12  O1  UNL     1      18.066  41.992   1.563  1.00  0.00    -0.321 OA
BRANCH  12  13
HETATM   13  C7  UNL     1      17.683  42.250   2.878  1.00  0.00     0.206 C 
BRANCH  13  14
HETATM   14  C8  UNL     1      17.697  41.016   3.753  1.00  0.00     0.256 C 
BRANCH  14  15
HETATM   15  N3  UNL     1      16.792  41.138   4.871  1.00  0.00    -0.077 N 
ATOM     16  H33 UNL     1      17.200  41.697   5.619  1.00  0.00     0.274 HD
ATOM     17  H32 UNL     1      15.998  41.734   4.640  1.00  0.00     0.274 HD
ATOM     18  H31 UNL     1      16.485  40.228   5.212  1.00  0.00     0.274 HD
ENDBRANCH  14  15
ENDBRANCH  13  14
ENDBRANCH  12  13
ENDBRANCH   4  12
TORSDOF 6
ENDMDL
MODEL 3
REMARK VINA RESULT: -5.382518296      1.280      1.776
REMARK  6 active torsions:
REMARK  status: ('A' for Active; 'I' for Inactive)
REMARK    1  A    between atoms: C1_4  and  N2_5 
REMARK    2  A    between atoms: C1_4  and  O1_12 
REMARK    3  A    between atoms: N2_5  and  C2_7 
REMARK    4  A    between atoms: O1_12  and  C7_13 
REMARK    5  A    between atoms: C7_13  and  C8_14 
REMARK    6  A    between atoms: C8_14  and  N3_15 
ROOT
HETATM    1  N1  UNL     1      16.313  43.126   0.016  1.00  0.00    -0.365 N 
ATOM      2  H11 UNL     1      16.149  42.463   0.773  1.00  0.00     0.159 HD
ATOM      3  H12 UNL     1      15.582  43.735  -0.350  1.00  0.00     0.159 HD
HETATM    4  C1  UNL     1      17.474  43.239  -0.535  1.00  0.00     0.212 C 
ENDROOT
BRANCH   4   5
HETATM    5  N2  UNL     1      17.704  44.168  -1.595  1.00  0.00    -0.352 N 
ATOM      6  H2  UNL     1      17.957  45.125  -1.348  1.00  0.00     0.163 HD
BRANCH   5   7
HETATM    7  C2  UNL     1      17.602  43.836  -2.977  1.00  0.00     0.085 C 
HETATM    8  C3  UNL     1      18.915  44.099  -3.728  1.00  0.00     0.025 C 
HETATM    9  C4  UNL     1      18.776  43.151  -4.893  1.00  0.00     0.002 C 
HETATM   10  C5  UNL     1      18.370  41.863  -4.165  1.00  0.00     0.002 C 
HETATM   11  C6  UNL     1      17.417  42.365  -3.135  1.00  0.00     0.025 C 
ENDBRANCH   5   7
ENDBRANCH   4   5
BRANCH   4  12
HETATM   12  O1  UNL     1      18.467  42.412  -0.037  1.00  0.00    -0.321 OA
BRANCH  12  13
HETATM   13  C7  UNL     1      19.551  42.829   0.735  1.00  0.00     0.206 C 
BRANCH  13  14
HETATM   14  C8  UNL     1      19.203  43.005   2.197  1.00  0.00     0.256 C 
BRANCH  14  15
HETATM   15  N3  UNL     1      18.336  41.955   2.674  1.00  0.00    -0.077 N 
ATOM     16  H33 UNL     1      17.365  42.265   2.713  1.00  0.00     0.274 HD
ATOM     17  H32 UNL     1      18.239  41.212   1.983  1.00  0.00     0.274 HD
ATOM     18  H31 UNL     1      18.643  41.587   3.574  1.00  0.00     0.274 HD
ENDBRANCH  14  15
ENDBRANCH  13  14
ENDBRANCH  12  13
ENDBRANCH   4  12
TORSDOF 6
ENDMDL
MODEL 4
REMARK VINA RESULT: -5.332471279      0.825      1.387
REMARK  6 active torsions:
REMARK  status: ('A' for Active; 'I' for Inactive)
REMARK    1  A    between atoms: C1_4  and  N2_5 
REMARK    2  A    between atoms: C1_4  and  O1_12 
REMARK    3  A    between atoms: N2_5  and  C2_7 
REMARK    4  A    between atoms: O1_12  and  C7_13 
REMARK    5  A    between atoms: C7_13  and  C8_14 
REMARK    6  A    between atoms: C8_14  and  N3_15 
ROOT
HETATM    1  N1  UNL     1      16.206  43.114   0.068  1.00  0.00    -0.365 N 
ATOM      2  H11 UNL     1      15.914  43.381   1.008  1.00  0.00     0.159 HD
ATOM      3  H12 UNL     1      15.723  43.437  -0.770  1.00  0.00     0.159 HD
HETATM    4  C1  UNL     1      17.221  42.341  -0.125  1.00  0.00     0.212 C 
ENDROOT
BRANCH   4   5
HETATM    5  N2  UNL     1      17.629  41.967  -1.441  1.00  0.00    -0.352 N 
ATOM      6  H2  UNL     1      18.146  41.095  -1.554  1.00  0.00     0.163 HD
BRANCH   5   7
HETATM    7  C2  UNL     1      17.356  42.741  -2.607  1.00  0.00     0.085 C 
HETATM    8  C3  UNL     1      18.024  44.123  -2.546  1.00  0.00     0.025 C 
HETATM    9  C4  UNL     1      18.129  44.456  -4.014  1.00  0.00     0.002 C 
HETATM   10  C5  UNL     1      18.740  43.158  -4.557  1.00  0.00     0.002 C 
HETATM   11  C6  UNL     1      17.998  42.113  -3.797  1.00  0.00     0.025 C 
ENDBRANCH   5   7
ENDBRANCH   4   5
BRANCH   4  12
HETATM   12  O1  UNL     1      17.877  41.903   1.014  1.00  0.00    -0.321 OA
BRANCH  12  13
HETATM   13  C7  UNL     1      18.037  42.642   2.185  1.00  0.00     0.206 C 
BRANCH  13  14
HETATM   14  C8  UNL     1      19.230  43.571   2.142  1.00  0.00     0.256 C 
BRANCH  14  15
HETATM   15  N3  UNL     1      20.209  43.144   1.170  1.00  0.00    -0.077 N 
ATOM     16  H33 UNL     1      20.672  42.284   1.463  1.00  0.00     0.274 HD
ATOM     17  H32 UNL     1      19.762  42.803   0.320  1.00  0.00     0.274 HD
ATOM     18  H31 UNL     1      20.886  43.878   0.965  1.00  0.00     0.274 HD
ENDBRANCH  14  15
ENDBRANCH  13  14
ENDBRANCH  12  13
ENDBRANCH   4  12
TORSDOF 6
ENDMDL
MODEL 5
REMARK VINA RESULT: -5.322645004      1.423      2.527
REMARK  6 active torsions:
REMARK  status: ('A' for Active; 'I' for Inactive)
REMARK    1  A    between atoms: C1_4  and  N2_5 
REMARK    2  A    between atoms: C1_4  and  O1_12 
REMARK    3  A    between atoms: N2_5  and  C2_7 
REMARK    4  A    between atoms: O1_12  and  C7_13 
REMARK    5  A    between atoms: C7_13  and  C8_14 
REMARK    6  A    between atoms: C8_14  and  N3_15 
ROOT
HETATM    1  N1  UNL     1      19.556  45.047  -0.791  1.00  0.00    -0.365 N 
ATOM      2  H11 UNL     1      20.389  44.960  -0.209  1.00  0.00     0.159 HD
ATOM      3  H12 UNL     1      19.385  45.855  -1.388  1.00  0.00     0.159 HD
HETATM    4  C1  UNL     1      18.653  44.126  -0.810  1.00  0.00     0.212 C 
ENDROOT
BRANCH   4   5
HETATM    5  N2  UNL     1      17.488  44.248  -1.626  1.00  0.00    -0.352 N 
ATOM      6  H2  UNL     1      16.659  44.681  -1.217  1.00  0.00     0.163 HD
BRANCH   5   7
HETATM    7  C2  UNL     1      17.414  43.801  -2.978  1.00  0.00     0.085 C 
HETATM    8  C3  UNL     1      18.715  44.080  -3.744  1.00  0.00     0.025 C 
HETATM    9  C4  UNL     1      18.638  43.034  -4.830  1.00  0.00     0.002 C 
HETATM   10  C5  UNL     1      18.303  41.788  -4.002  1.00  0.00     0.002 C 
HETATM   11  C6  UNL     1      17.316  42.314  -3.018  1.00  0.00     0.025 C 
ENDBRANCH   5   7
ENDBRANCH   4   5
BRANCH   4  12
HETATM   12  O1  UNL     1      18.886  43.028   0.001  1.00  0.00    -0.321 OA
BRANCH  12  13
HETATM   13  C7  UNL     1      17.906  42.314   0.689  1.00  0.00     0.206 C 
BRANCH  13  14
HETATM   14  C8  UNL     1      17.216  43.133   1.758  1.00  0.00     0.256 C 
BRANCH  14  15
HETATM   15  N3  UNL     1      15.850  43.437   1.405  1.00  0.00    -0.077 N 
ATOM     16  H33 UNL     1      15.631  44.418   1.582  1.00  0.00     0.274 HD
ATOM     17  H32 UNL     1      15.717  43.423   0.394  1.00  0.00     0.274 HD
ATOM     18  H31 UNL     1      15.189  42.819   1.875  1.00  0.00     0.274 HD
ENDBRANCH  14  15
ENDBRANCH  13  14
ENDBRANCH  12  13
ENDBRANCH   4  12
TORSDOF 6
ENDMDL
