MODEL 1
REMARK VINA RESULT: -5.976991578      0.000      0.000
REMARK  3 active torsions:
REMARK  status: ('A' for Active; 'I' for Inactive)
REMARK    1  A    between atoms: C3_3  and  S1_5 
REMARK    2  A    between atoms: S1_5  and  C5_6 
REMARK    3  A    between atoms: C6_9  and  N2_10 
ROOT
HETATM    1  C1  UNL     1      19.175  43.370  -4.997  1.00  0.00     0.013 C 
HETATM    2  C2  UNL     1      18.501  43.770  -4.069  1.00  0.00    -0.102 C 
HETATM    3  C3  UNL     1      17.692  44.241  -2.937  1.00  0.00     0.129 C 
HETATM    4  C4  UNL     1      18.609  44.806  -1.879  1.00  0.00     0.035 C 
ENDROOT
BRANCH   3   5
HETATM    5  S1  UNL     1      16.925  42.746  -2.211  1.00  0.00    -0.075 SA
BRANCH   5   6
HETATM    6  C5  UNL     1      17.168  42.764  -0.438  1.00  0.00     0.175 A 
HETATM    7  N1  UNL     1      18.122  42.160   0.286  1.00  0.00    -0.168 N 
HETATM    8  C6  UNL     1      17.965  42.413   1.602  1.00  0.00     0.692 A 
ATOM      9  H1  UNL     1      18.868  41.585  -0.105  1.00  0.00     0.186 HD
HETATM   10  N3  UNL     1      16.877  43.200   1.688  1.00  0.00    -0.130 N 
HETATM   11  N4  UNL     1      16.398  43.411   0.455  1.00  0.00    -0.265 N 
ATOM     12  H3  UNL     1      16.482  43.574   2.550  1.00  0.00     0.205 HD
ATOM     13  H4  UNL     1      15.579  43.974   0.228  1.00  0.00     0.189 HD
BRANCH   8  14
HETATM   14  N2  UNL     1      18.714  41.984   2.588  1.00  0.00    -0.233 N 
ATOM     15  H22 UNL     1      19.412  41.241   2.556  1.00  0.00     0.174 HD
ATOM     16  H21 UNL     1      18.723  42.323   3.551  1.00  0.00     0.174 HD
ENDBRANCH   8  14
ENDBRANCH   5   6
ENDBRANCH   3   5
TORSDOF 3
ENDMDL
MODEL 2
REMARK VINA RESULT: -5.756268876      0.728      1.308
REMARK  3 active torsions:
REMARK  status: ('A' for Active; 'I' for Inactive)
REMARK    1  A    between atoms: C3_3  and  S1_5 
REMARK    2  A    between atoms: S1_5  and  C5_6 
REMARK    3  A    between atoms: C6_9  and  N2_10 
ROOT
HETATM    1  C1  UNL     1      19.060  43.091  -5.083  1.00  0.00     0.013 C 
HETATM    2  C2  UNL     1      18.473  43.775  -4.270  1.00  0.00    -0.102 C 
HETATM    3  C3  UNL     1      17.764  44.589  -3.274  1.00  0.00     0.129 C 
HETATM    4  C4  UNL     1      18.740  45.019  -2.205  1.00  0.00     0.035 C 
ENDROOT
BRANCH   3   5
HETATM    5  S1  UNL     1      16.570  43.464  -2.462  1.00  0.00    -0.075 SA
BRANCH   5   6
HETATM    6  C5  UNL     1      17.233  42.945  -0.883  1.00  0.00     0.175 A 
HETATM    7  N1  UNL     1      16.806  43.253   0.351  1.00  0.00    -0.168 N 
HETATM    8  C6  UNL     1      17.574  42.665   1.290  1.00  0.00     0.692 A 
ATOM      9  H1  UNL     1      16.006  43.853   0.552  1.00  0.00     0.186 HD
HETATM   10  N3  UNL     1      18.504  41.971   0.609  1.00  0.00    -0.130 N 
HETATM   11  N4  UNL     1      18.296  42.142  -0.703  1.00  0.00    -0.265 N 
ATOM     12  H3  UNL     1      19.247  41.409   1.024  1.00  0.00     0.205 HD
ATOM     13  H4  UNL     1      18.855  41.728  -1.448  1.00  0.00     0.189 HD
BRANCH   8  14
HETATM   14  N2  UNL     1      17.441  42.750   2.592  1.00  0.00    -0.233 N 
ATOM     15  H22 UNL     1      17.656  43.552   3.184  1.00  0.00     0.174 HD
ATOM     16  H21 UNL     1      17.102  42.027   3.227  1.00  0.00     0.174 HD
ENDBRANCH   8  14
ENDBRANCH   5   6
ENDBRANCH   3   5
TORSDOF 3
ENDMDL
MODEL 3
REMARK VINA RESULT: -5.413674540      1.439      1.928
REMARK  3 active torsions:
REMARK  status: ('A' for Active; 'I' for Inactive)
REMARK    1  A    between atoms: C3_3  and  S1_5 
REMARK    2  A    between atoms: S1_5  and  C5_6 
REMARK    3  A    between atoms: C6_9  and  N2_10 
ROOT
HETATM    1  C1  UNL     1      18.924  43.345  -4.899  1.00  0.00     0.013 C 
HETATM    2  C2  UNL     1      18.360  43.204  -3.833  1.00  0.00    -0.102 C 
HETATM    3  C3  UNL     1      17.676  43.053  -2.542  1.00  0.00     0.129 C 
HETATM    4  C4  UNL     1      16.237  43.483  -2.695  1.00  0.00     0.035 C 
ENDROOT
BRANCH   3   5
HETATM    5  S1  UNL     1      18.460  44.262  -1.413  1.00  0.00    -0.075 SA
BRANCH   5   6
HETATM    6  C5  UNL     1      18.668  43.510   0.198  1.00  0.00     0.175 A 
HETATM    7  N1  UNL     1      17.757  42.884   0.958  1.00  0.00    -0.168 N 
HETATM    8  C6  UNL     1      18.303  42.453   2.113  1.00  0.00     0.692 A 
ATOM      9  H1  UNL     1      16.780  42.751   0.696  1.00  0.00     0.186 HD
HETATM   10  N3  UNL     1      19.594  42.828   2.061  1.00  0.00    -0.130 N 
HETATM   11  N4  UNL     1      19.812  43.466   0.903  1.00  0.00    -0.265 N 
ATOM     12  H3  UNL     1      20.292  42.656   2.784  1.00  0.00     0.205 HD
ATOM     13  H4  UNL     1      20.705  43.856   0.603  1.00  0.00     0.189 HD
BRANCH   8  14
HETATM   14  N2  UNL     1      17.703  41.806   3.083  1.00  0.00    -0.233 N 
ATOM     15  H22 UNL     1      16.699  41.680   3.213  1.00  0.00     0.174 HD
ATOM     16  H21 UNL     1      18.141  41.322   3.866  1.00  0.00     0.174 HD
ENDBRANCH   8  14
ENDBRANCH   5   6
ENDBRANCH   3   5
TORSDOF 3
ENDMDL
MODEL 4
REMARK VINA RESULT: -5.283526475      1.481      1.771
REMARK  3 active torsions:
REMARK  status: ('A' for Active; 'I' for Inactive)
REMARK    1  A    between atoms: C3_3  and  S1_5 
REMARK    2  A    between atoms: S1_5  and  C5_6 
REMARK    3  A    between atoms: C6_9  and  N2_10 
ROOT
HETATM    1  C1  UNL     1      18.328  40.948  -4.125  1.00  0.00     0.013 C 
HETATM    2  C2  UNL     1      18.179  42.153  -4.099  1.00  0.00    -0.102 C 
HETATM    3  C3  UNL     1      18.000  43.610  -4.050  1.00  0.00     0.129 C 
HETATM    4  C4  UNL     1      19.313  44.254  -3.677  1.00  0.00     0.035 C 
ENDROOT
BRANCH   3   5
HETATM    5  S1  UNL     1      16.855  43.929  -2.658  1.00  0.00    -0.075 SA
BRANCH   5   6
HETATM    6  C5  UNL     1      17.569  43.282  -1.150  1.00  0.00     0.175 A 
HETATM    7  N1  UNL     1      18.509  43.826  -0.364  1.00  0.00    -0.168 N 
HETATM    8  C6  UNL     1      18.784  43.026   0.687  1.00  0.00     0.692 A 
ATOM      9  H1  UNL     1      18.957  44.725  -0.537  1.00  0.00     0.186 HD
HETATM   10  N3  UNL     1      17.985  41.954   0.540  1.00  0.00    -0.130 N 
HETATM   11  N4  UNL     1      17.252  42.111  -0.570  1.00  0.00    -0.265 N 
ATOM     12  H3  UNL     1      17.945  41.153   1.170  1.00  0.00     0.205 HD
ATOM     13  H4  UNL     1      16.561  41.448  -0.919  1.00  0.00     0.189 HD
BRANCH   8  14
HETATM   14  N2  UNL     1      19.648  43.247   1.648  1.00  0.00    -0.233 N 
ATOM     15  H22 UNL     1      20.111  42.553   2.235  1.00  0.00     0.174 HD
ATOM     16  H21 UNL     1      20.000  44.150   1.967  1.00  0.00     0.174 HD
ENDBRANCH   8  14
ENDBRANCH   5   6
ENDBRANCH   3   5
TORSDOF 3
ENDMDL
MODEL 5
REMARK VINA RESULT: -5.283051640      1.514      1.954
REMARK  3 active torsions:
REMARK  status: ('A' for Active; 'I' for Inactive)
REMARK    1  A    between atoms: C3_3  and  S1_5 
REMARK    2  A    between atoms: S1_5  and  C5_6 
REMARK    3  A    between atoms: C6_9  and  N2_10 
ROOT
HETATM    1  C1  UNL     1      17.399  41.267  -2.968  1.00  0.00     0.013 C 
HETATM    2  C2  UNL     1      17.708  42.361  -3.395  1.00  0.00    -0.102 C 
HETATM    3  C3  UNL     1      18.097  43.683  -3.903  1.00  0.00     0.129 C 
HETATM    4  C4  UNL     1      19.222  43.517  -4.896  1.00  0.00     0.035 C 
ENDROOT
BRANCH   3   5
HETATM    5  S1  UNL     1      18.799  44.585  -2.473  1.00  0.00    -0.075 SA
BRANCH   5   6
HETATM    6  C5  UNL     1      18.177  43.859  -0.959  1.00  0.00     0.175 A 
HETATM    7  N1  UNL     1      18.847  43.183  -0.014  1.00  0.00    -0.168 N 
HETATM    8  C6  UNL     1      18.022  42.793   0.979  1.00  0.00     0.692 A 
ATOM      9  H1  UNL     1      19.848  42.989  -0.043  1.00  0.00     0.186 HD
HETATM   10  N3  UNL     1      16.804  43.246   0.631  1.00  0.00    -0.130 N 
HETATM   11  N4  UNL     1      16.901  43.890  -0.540  1.00  0.00    -0.265 N 
ATOM     12  H3  UNL     1      15.947  43.119   1.170  1.00  0.00     0.205 HD
ATOM     13  H4  UNL     1      16.127  44.334  -1.035  1.00  0.00     0.189 HD
BRANCH   8  14
HETATM   14  N2  UNL     1      18.340  42.116   2.056  1.00  0.00    -0.233 N 
ATOM     15  H22 UNL     1      19.267  41.795   2.333  1.00  0.00     0.174 HD
ATOM     16  H21 UNL     1      17.711  41.800   2.795  1.00  0.00     0.174 HD
ENDBRANCH   8  14
ENDBRANCH   5   6
ENDBRANCH   3   5
TORSDOF 3
ENDMDL
