MODEL 1
REMARK VINA RESULT: -5.713245083      0.000      0.000
REMARK  3 active torsions:
REMARK  status: ('A' for Active; 'I' for Inactive)
REMARK    1  A    between atoms: C2_2  and  C3_3 
REMARK    2  A    between atoms: C3_3  and  N1_4 
REMARK    3  A    between atoms: N1_4  and  C4_7 
ROOT
HETATM    1  C4  UNL     1      16.729  43.080  -2.099  1.00  0.00     0.232 C 
HETATM    2  C5  UNL     1      17.624  41.872  -2.332  1.00  0.00     0.154 C 
HETATM    3  N2  UNL     1      17.847  41.808  -3.723  1.00  0.00    -0.400 N 
ATOM      4  H2  UNL     1      17.499  41.022  -4.272  1.00  0.00     0.158 HD
HETATM    5  C6  UNL     1      18.555  42.844  -4.333  1.00  0.00     0.065 C 
HETATM    6  C7  UNL     1      18.090  44.182  -3.922  1.00  0.00     0.079 A 
HETATM    7  C8  UNL     1      19.012  45.030  -3.098  1.00  0.00     0.180 A 
HETATM    8  O1  UNL     1      18.064  45.037  -2.069  1.00  0.00    -0.382 OA
HETATM    9  C9  UNL     1      17.145  44.294  -2.808  1.00  0.00     0.164 A 
ENDROOT
BRANCH   1  10
HETATM   10  N1  UNL     1      16.496  43.357  -0.718  1.00  0.00    -0.067 N 
ATOM     11  H12 UNL     1      15.497  43.361  -0.516  1.00  0.00     0.277 HD
ATOM     12  H11 UNL     1      16.719  44.328  -0.504  1.00  0.00     0.277 HD
BRANCH  10  13
HETATM   13  C3  UNL     1      17.190  42.469   0.177  1.00  0.00     0.232 C 
BRANCH  13  14
HETATM   14  C2  UNL     1      18.037  43.263   1.130  1.00  0.00     0.023 C 
HETATM   15  C1  UNL     1      19.464  43.413   0.727  1.00  0.00     0.007 C 
ENDBRANCH  13  14
ENDBRANCH  10  13
ENDBRANCH   1  10
TORSDOF 3
ENDMDL
MODEL 2
REMARK VINA RESULT: -5.109324039      1.855      4.302
REMARK  3 active torsions:
REMARK  status: ('A' for Active; 'I' for Inactive)
REMARK    1  A    between atoms: C2_2  and  C3_3 
REMARK    2  A    between atoms: C3_3  and  N1_4 
REMARK    3  A    between atoms: N1_4  and  C4_7 
ROOT
HETATM    1  C4  UNL     1      18.397  43.648  -0.969  1.00  0.00     0.232 C 
HETATM    2  C5  UNL     1      16.963  43.263  -0.642  1.00  0.00     0.154 C 
HETATM    3  N2  UNL     1      17.026  42.002  -0.011  1.00  0.00    -0.400 N 
ATOM      4  H2  UNL     1      16.614  41.179  -0.448  1.00  0.00     0.158 HD
HETATM    5  C6  UNL     1      17.665  41.908   1.226  1.00  0.00     0.065 C 
HETATM    6  C7  UNL     1      18.972  42.592   1.255  1.00  0.00     0.079 A 
HETATM    7  C8  UNL     1      19.111  43.817   2.109  1.00  0.00     0.180 A 
HETATM    8  O1  UNL     1      19.413  44.564   0.965  1.00  0.00    -0.382 OA
HETATM    9  C9  UNL     1      19.349  43.451   0.129  1.00  0.00     0.164 A 
ENDROOT
BRANCH   1  10
HETATM   10  N1  UNL     1      18.522  44.961  -1.516  1.00  0.00    -0.067 N 
ATOM     11  H12 UNL     1      19.086  45.552  -0.905  1.00  0.00     0.277 HD
ATOM     12  H11 UNL     1      17.633  45.457  -1.464  1.00  0.00     0.277 HD
BRANCH  10  13
HETATM   13  C3  UNL     1      19.038  44.984  -2.859  1.00  0.00     0.232 C 
BRANCH  13  14
HETATM   14  C2  UNL     1      18.133  44.200  -3.768  1.00  0.00     0.023 C 
HETATM   15  C1  UNL     1      18.832  43.294  -4.721  1.00  0.00     0.007 C 
ENDBRANCH  13  14
ENDBRANCH  10  13
ENDBRANCH   1  10
TORSDOF 3
ENDMDL
MODEL 3
REMARK VINA RESULT: -5.078409029      1.544      4.412
REMARK  3 active torsions:
REMARK  status: ('A' for Active; 'I' for Inactive)
REMARK    1  A    between atoms: C2_2  and  C3_3 
REMARK    2  A    between atoms: C3_3  and  N1_4 
REMARK    3  A    between atoms: N1_4  and  C4_7 
ROOT
HETATM    1  C4  UNL     1      17.052  42.936  -0.060  1.00  0.00     0.232 C 
HETATM    2  C5  UNL     1      16.422  43.371   1.254  1.00  0.00     0.154 C 
HETATM    3  N2  UNL     1      16.825  42.423   2.218  1.00  0.00    -0.400 N 
ATOM      4  H2  UNL     1      16.141  41.818   2.673  1.00  0.00     0.158 HD
HETATM    5  C6  UNL     1      18.180  42.331   2.537  1.00  0.00     0.065 C 
HETATM    6  C7  UNL     1      19.052  42.296   1.347  1.00  0.00     0.079 A 
HETATM    7  C8  UNL     1      19.950  43.469   1.093  1.00  0.00     0.180 A 
HETATM    8  O1  UNL     1      19.298  43.687  -0.126  1.00  0.00    -0.382 OA
HETATM    9  C9  UNL     1      18.470  42.577   0.032  1.00  0.00     0.164 A 
ENDROOT
BRANCH   1  10
HETATM   10  N1  UNL     1      16.834  43.859  -1.127  1.00  0.00    -0.067 N 
ATOM     11  H12 UNL     1      17.443  44.671  -1.030  1.00  0.00     0.277 HD
ATOM     12  H11 UNL     1      15.926  44.313  -1.029  1.00  0.00     0.277 HD
BRANCH  10  13
HETATM   13  C3  UNL     1      16.971  43.277  -2.436  1.00  0.00     0.232 C 
BRANCH  13  14
HETATM   14  C2  UNL     1      17.782  44.186  -3.317  1.00  0.00     0.023 C 
HETATM   15  C1  UNL     1      18.584  43.493  -4.364  1.00  0.00     0.007 C 
ENDBRANCH  13  14
ENDBRANCH  10  13
ENDBRANCH   1  10
TORSDOF 3
ENDMDL
MODEL 4
REMARK VINA RESULT: -5.068014755      2.268      4.052
REMARK  3 active torsions:
REMARK  status: ('A' for Active; 'I' for Inactive)
REMARK    1  A    between atoms: C2_2  and  C3_3 
REMARK    2  A    between atoms: C3_3  and  N1_4 
REMARK    3  A    between atoms: N1_4  and  C4_7 
ROOT
HETATM    1  C4  UNL     1      17.506  42.652  -3.030  1.00  0.00     0.232 C 
HETATM    2  C5  UNL     1      18.615  43.491  -3.646  1.00  0.00     0.154 C 
HETATM    3  N2  UNL     1      18.433  44.803  -3.161  1.00  0.00    -0.400 N 
ATOM      4  H2  UNL     1      18.194  45.565  -3.796  1.00  0.00     0.158 HD
HETATM    5  C6  UNL     1      18.588  45.036  -1.795  1.00  0.00     0.065 C 
HETATM    6  C7  UNL     1      17.882  44.048  -0.957  1.00  0.00     0.079 A 
HETATM    7  C8  UNL     1      18.703  43.100  -0.135  1.00  0.00     0.180 A 
HETATM    8  O1  UNL     1      18.138  42.027  -0.834  1.00  0.00    -0.382 OA
HETATM    9  C9  UNL     1      17.313  42.856  -1.591  1.00  0.00     0.164 A 
ENDROOT
BRANCH   1  10
HETATM   10  N1  UNL     1      17.612  41.260  -3.332  1.00  0.00    -0.067 N 
ATOM     11  H12 UNL     1      16.688  40.850  -3.465  1.00  0.00     0.277 HD
ATOM     12  H11 UNL     1      17.915  40.737  -2.511  1.00  0.00     0.277 HD
BRANCH  10  13
HETATM   13  C3  UNL     1      18.461  40.974  -4.458  1.00  0.00     0.232 C 
BRANCH  13  14
HETATM   14  C2  UNL     1      18.371  39.515  -4.808  1.00  0.00     0.023 C 
HETATM   15  C1  UNL     1      19.364  38.642  -4.121  1.00  0.00     0.007 C 
ENDBRANCH  13  14
ENDBRANCH  10  13
ENDBRANCH   1  10
TORSDOF 3
ENDMDL
MODEL 5
REMARK VINA RESULT: -4.893894369      1.736      2.294
REMARK  3 active torsions:
REMARK  status: ('A' for Active; 'I' for Inactive)
REMARK    1  A    between atoms: C2_2  and  C3_3 
REMARK    2  A    between atoms: C3_3  and  N1_4 
REMARK    3  A    between atoms: N1_4  and  C4_7 
ROOT
HETATM    1  C4  UNL     1      18.215  42.938  -1.051  1.00  0.00     0.232 C 
HETATM    2  C5  UNL     1      18.685  44.326  -0.644  1.00  0.00     0.154 C 
HETATM    3  N2  UNL     1      19.400  44.840  -1.746  1.00  0.00    -0.400 N 
ATOM      4  H2  UNL     1      20.399  45.033  -1.675  1.00  0.00     0.158 HD
HETATM    5  C6  UNL     1      18.711  45.080  -2.935  1.00  0.00     0.065 C 
HETATM    6  C7  UNL     1      17.838  43.959  -3.333  1.00  0.00     0.079 A 
HETATM    7  C8  UNL     1      16.354  44.168  -3.296  1.00  0.00     0.180 A 
HETATM    8  O1  UNL     1      16.246  43.139  -2.353  1.00  0.00    -0.382 OA
HETATM    9  C9  UNL     1      17.612  42.864  -2.386  1.00  0.00     0.164 A 
ENDROOT
BRANCH   1  10
HETATM   10  N1  UNL     1      17.371  42.316  -0.082  1.00  0.00    -0.067 N 
ATOM     11  H12 UNL     1      17.698  41.372   0.126  1.00  0.00     0.277 HD
ATOM     12  H11 UNL     1      16.461  42.099  -0.485  1.00  0.00     0.277 HD
BRANCH  10  13
HETATM   13  C3  UNL     1      17.220  43.078   1.130  1.00  0.00     0.232 C 
BRANCH  13  14
HETATM   14  C2  UNL     1      17.817  42.325   2.285  1.00  0.00     0.023 C 
HETATM   15  C1  UNL     1      19.299  42.425   2.401  1.00  0.00     0.007 C 
ENDBRANCH  13  14
ENDBRANCH  10  13
ENDBRANCH   1  10
TORSDOF 3
ENDMDL
