MODEL 1
REMARK VINA RESULT: -8.941237184      0.000      0.000
REMARK  9 active torsions:
REMARK  status: ('A' for Active; 'I' for Inactive)
REMARK    1  A    between atoms: C3_3  and  C4_4 
REMARK    2  A    between atoms: C5_5  and  N1_6 
REMARK    3  A    between atoms: N1_6  and  N2_8 
REMARK    4  A    between atoms: N2_8  and  N3_9 
REMARK    5  A    between atoms: C6_12  and  C7_13 
REMARK       I    between atoms: C7_13  and  N4_15 
REMARK    6  A    between atoms: C8_17  and  C9_18 
REMARK    7  A    between atoms: C9_18  and  C10_19 
REMARK    8  A    between atoms: C10_19  and  C11_20 
REMARK    9  A    between atoms: C11_20  and  N5_21 
REMARK       I    between atoms: N5_21  and  C12_23 
ROOT
HETATM    1  C1  UNL     1      25.103  18.653  14.690  1.00  0.00     0.012 C 
HETATM    2  C2  UNL     1      25.748  19.654  14.529  1.00  0.00    -0.116 C 
HETATM    3  C3  UNL     1      26.545  20.867  14.315  1.00  0.00     0.115 C 
ENDROOT
BRANCH   3   4
HETATM    4  C4  UNL     1      27.442  20.696  13.129  1.00  0.00     0.153 C 
HETATM    5  C5  UNL     1      28.357  21.875  12.910  1.00  0.00     0.173 C 
HETATM    6  C6  UNL     1      29.626  21.436  12.318  1.00  0.00     0.047 C 
HETATM    7  C13 UNL     1      29.976  20.186  12.579  1.00  0.00     0.124 C 
HETATM    8  S1  UNL     1      28.723  19.496  13.582  1.00  0.00     0.173 S 
HETATM    9  O3  UNL     1      29.036  19.588  15.038  1.00  0.00    -0.223 OA
HETATM   10  O4  UNL     1      28.329  18.138  13.137  1.00  0.00    -0.223 OA
BRANCH   5  11
HETATM   11  N1  UNL     1      28.535  22.640  14.125  1.00  0.00    -0.242 N 
ATOM     12  H1  UNL     1      28.616  22.167  15.025  1.00  0.00     0.197 HD
BRANCH  11  13
HETATM   13  N2  UNL     1      28.588  23.856  14.063  1.00  0.00    -0.248 NA
BRANCH  13  14
HETATM   14  N3  UNL     1      28.912  25.001  13.782  1.00  0.00    -0.261 N 
ATOM     15  H32 UNL     1      29.661  24.720  13.149  1.00  0.00     0.193 HD
ATOM     16  H31 UNL     1      28.961  26.018  13.736  1.00  0.00     0.193 HD
ENDBRANCH  13  14
ENDBRANCH  11  13
ENDBRANCH   5  11
BRANCH   6  17
HETATM   17  C7  UNL     1      30.468  22.335  11.475  1.00  0.00     0.254 C 
HETATM   18  O1  UNL     1      30.846  23.403  11.974  1.00  0.00    -0.268 OA
HETATM   19  N4  UNL     1      30.839  22.013  10.151  1.00  0.00    -0.337 N 
HETATM   20  C8  UNL     1      31.548  21.005   9.815  1.00  0.00     0.064 C 
ATOM     21  H4  UNL     1      30.517  22.632   9.408  1.00  0.00     0.168 HD
BRANCH  20  22
HETATM   22  C9  UNL     1      31.870  20.774   8.398  1.00  0.00     0.046 C 
BRANCH  22  23
HETATM   23  C10 UNL     1      31.393  21.902   7.506  1.00  0.00     0.025 C 
BRANCH  23  24
HETATM   24  C11 UNL     1      31.907  21.671   6.128  1.00  0.00     0.124 C 
BRANCH  24  25
HETATM   25  N5  UNL     1      33.221  22.194   5.864  1.00  0.00    -0.345 N 
HETATM   26  C12 UNL     1      34.296  21.291   5.755  1.00  0.00     0.328 C 
HETATM   27  N6  UNL     1      35.592  21.790   5.496  1.00  0.00    -0.040 NA
HETATM   28  O2  UNL     1      34.134  20.063   5.882  1.00  0.00    -0.251 OA
ATOM     29  H5  UNL     1      33.371  23.198   5.758  1.00  0.00     0.163 HD
ENDBRANCH  24  25
ENDBRANCH  23  24
ENDBRANCH  22  23
ENDBRANCH  20  22
ENDBRANCH   6  17
ENDBRANCH   3   4
TORSDOF 9
ENDMDL
MODEL 2
REMARK VINA RESULT: -8.846910029      1.548      1.871
REMARK  9 active torsions:
REMARK  status: ('A' for Active; 'I' for Inactive)
REMARK    1  A    between atoms: C3_3  and  C4_4 
REMARK    2  A    between atoms: C5_5  and  N1_6 
REMARK    3  A    between atoms: N1_6  and  N2_8 
REMARK    4  A    between atoms: N2_8  and  N3_9 
REMARK    5  A    between atoms: C6_12  and  C7_13 
REMARK       I    between atoms: C7_13  and  N4_15 
REMARK    6  A    between atoms: C8_17  and  C9_18 
REMARK    7  A    between atoms: C9_18  and  C10_19 
REMARK    8  A    between atoms: C10_19  and  C11_20 
REMARK    9  A    between atoms: C11_20  and  N5_21 
REMARK       I    between atoms: N5_21  and  C12_23 
ROOT
HETATM    1  C1  UNL     1      25.163  18.562  14.387  1.00  0.00     0.012 C 
HETATM    2  C2  UNL     1      25.794  19.583  14.327  1.00  0.00    -0.116 C 
HETATM    3  C3  UNL     1      26.576  20.821  14.237  1.00  0.00     0.115 C 
ENDROOT
BRANCH   3   4
HETATM    4  C4  UNL     1      27.489  20.774  13.052  1.00  0.00     0.153 C 
HETATM    5  C5  UNL     1      28.347  22.007  12.923  1.00  0.00     0.173 C 
HETATM    6  C6  UNL     1      29.641  21.671  12.316  1.00  0.00     0.047 C 
HETATM    7  C13 UNL     1      30.049  20.424  12.497  1.00  0.00     0.124 C 
HETATM    8  S1  UNL     1      28.824  19.609  13.439  1.00  0.00     0.173 S 
HETATM    9  O3  UNL     1      29.120  19.619  14.901  1.00  0.00    -0.223 OA
HETATM   10  O4  UNL     1      28.500  18.267  12.900  1.00  0.00    -0.223 OA
BRANCH   5  11
HETATM   11  N1  UNL     1      28.479  22.697  14.188  1.00  0.00    -0.242 N 
ATOM     12  H1  UNL     1      28.483  22.173  15.062  1.00  0.00     0.197 HD
BRANCH  11  13
HETATM   13  N2  UNL     1      28.583  23.911  14.198  1.00  0.00    -0.248 NA
BRANCH  13  14
HETATM   14  N3  UNL     1      28.833  25.067  13.887  1.00  0.00    -0.261 N 
ATOM     15  H32 UNL     1      27.856  25.360  13.873  1.00  0.00     0.193 HD
ATOM     16  H31 UNL     1      29.319  25.928  13.638  1.00  0.00     0.193 HD
ENDBRANCH  13  14
ENDBRANCH  11  13
ENDBRANCH   5  11
BRANCH   6  17
HETATM   17  C7  UNL     1      30.444  22.663  11.544  1.00  0.00     0.254 C 
HETATM   18  O1  UNL     1      31.118  23.480  12.185  1.00  0.00    -0.268 OA
HETATM   19  N4  UNL     1      30.459  22.701  10.133  1.00  0.00    -0.337 N 
HETATM   20  C8  UNL     1      30.871  21.755   9.380  1.00  0.00     0.064 C 
ATOM     21  H4  UNL     1      30.113  23.548   9.680  1.00  0.00     0.168 HD
BRANCH  20  22
HETATM   22  C9  UNL     1      30.837  21.913   7.918  1.00  0.00     0.046 C 
BRANCH  22  23
HETATM   23  C10 UNL     1      32.078  21.359   7.248  1.00  0.00     0.025 C 
BRANCH  23  24
HETATM   24  C11 UNL     1      33.240  21.561   8.156  1.00  0.00     0.124 C 
BRANCH  24  25
HETATM   25  N5  UNL     1      33.987  22.771   7.943  1.00  0.00    -0.345 N 
HETATM   26  C12 UNL     1      34.169  23.651   9.028  1.00  0.00     0.328 C 
HETATM   27  N6  UNL     1      34.900  24.844   8.833  1.00  0.00    -0.040 NA
HETATM   28  O2  UNL     1      33.701  23.404  10.155  1.00  0.00    -0.251 OA
ATOM     29  H5  UNL     1      34.377  22.988   7.025  1.00  0.00     0.163 HD
ENDBRANCH  24  25
ENDBRANCH  23  24
ENDBRANCH  22  23
ENDBRANCH  20  22
ENDBRANCH   6  17
ENDBRANCH   3   4
TORSDOF 9
ENDMDL
MODEL 3
REMARK VINA RESULT: -8.738010108      1.594      1.762
REMARK  9 active torsions:
REMARK  status: ('A' for Active; 'I' for Inactive)
REMARK    1  A    between atoms: C3_3  and  C4_4 
REMARK    2  A    between atoms: C5_5  and  N1_6 
REMARK    3  A    between atoms: N1_6  and  N2_8 
REMARK    4  A    between atoms: N2_8  and  N3_9 
REMARK    5  A    between atoms: C6_12  and  C7_13 
REMARK       I    between atoms: C7_13  and  N4_15 
REMARK    6  A    between atoms: C8_17  and  C9_18 
REMARK    7  A    between atoms: C9_18  and  C10_19 
REMARK    8  A    between atoms: C10_19  and  C11_20 
REMARK    9  A    between atoms: C11_20  and  N5_21 
REMARK       I    between atoms: N5_21  and  C12_23 
ROOT
HETATM    1  C1  UNL     1      24.993  18.858  14.917  1.00  0.00     0.012 C 
HETATM    2  C2  UNL     1      26.070  19.388  14.867  1.00  0.00    -0.116 C 
HETATM    3  C3  UNL     1      27.378  20.047  14.788  1.00  0.00     0.115 C 
ENDROOT
BRANCH   3   4
HETATM    4  C4  UNL     1      27.412  20.998  13.632  1.00  0.00     0.153 C 
HETATM    5  C5  UNL     1      28.791  21.544  13.361  1.00  0.00     0.173 C 
HETATM    6  C6  UNL     1      28.965  21.812  11.928  1.00  0.00     0.047 C 
HETATM    7  C13 UNL     1      28.217  21.080  11.116  1.00  0.00     0.124 C 
HETATM    8  S1  UNL     1      27.254  20.018  12.115  1.00  0.00     0.173 S 
HETATM    9  O3  UNL     1      27.877  18.674  12.292  1.00  0.00    -0.223 OA
HETATM   10  O4  UNL     1      25.837  19.972  11.684  1.00  0.00    -0.223 OA
BRANCH   5  11
HETATM   11  N1  UNL     1      29.819  20.682  13.903  1.00  0.00    -0.242 N 
ATOM     12  H1  UNL     1      29.746  19.669  13.806  1.00  0.00     0.197 HD
BRANCH  11  13
HETATM   13  N2  UNL     1      30.773  21.177  14.477  1.00  0.00    -0.248 NA
BRANCH  13  14
HETATM   14  N3  UNL     1      31.519  21.962  15.044  1.00  0.00    -0.261 N 
ATOM     15  H32 UNL     1      30.774  22.411  15.578  1.00  0.00     0.193 HD
ATOM     16  H31 UNL     1      32.345  22.475  15.353  1.00  0.00     0.193 HD
ENDBRANCH  13  14
ENDBRANCH  11  13
ENDBRANCH   5  11
BRANCH   6  17
HETATM   17  C7  UNL     1      29.917  22.841  11.417  1.00  0.00     0.254 C 
HETATM   18  O1  UNL     1      30.074  23.865  12.095  1.00  0.00    -0.268 OA
HETATM   19  N4  UNL     1      30.630  22.688  10.209  1.00  0.00    -0.337 N 
HETATM   20  C8  UNL     1      31.477  21.761   9.972  1.00  0.00     0.064 C 
ATOM     21  H4  UNL     1      30.456  23.368   9.469  1.00  0.00     0.168 HD
BRANCH  20  22
HETATM   22  C9  UNL     1      32.160  21.706   8.669  1.00  0.00     0.046 C 
BRANCH  22  23
HETATM   23  C10 UNL     1      31.213  21.945   7.511  1.00  0.00     0.025 C 
BRANCH  23  24
HETATM   24  C11 UNL     1      31.864  21.473   6.257  1.00  0.00     0.124 C 
BRANCH  24  25
HETATM   25  N5  UNL     1      33.141  22.067   5.964  1.00  0.00    -0.345 N 
HETATM   26  C12 UNL     1      34.260  21.224   5.822  1.00  0.00     0.328 C 
HETATM   27  N6  UNL     1      35.520  21.794   5.533  1.00  0.00    -0.040 NA
HETATM   28  O2  UNL     1      34.167  19.988   5.943  1.00  0.00    -0.251 OA
ATOM     29  H5  UNL     1      33.234  23.078   5.862  1.00  0.00     0.163 HD
ENDBRANCH  24  25
ENDBRANCH  23  24
ENDBRANCH  22  23
ENDBRANCH  20  22
ENDBRANCH   6  17
ENDBRANCH   3   4
TORSDOF 9
ENDMDL
MODEL 4
REMARK VINA RESULT: -8.704215901      1.984      2.301
REMARK  9 active torsions:
REMARK  status: ('A' for Active; 'I' for Inactive)
REMARK    1  A    between atoms: C3_3  and  C4_4 
REMARK    2  A    between atoms: C5_5  and  N1_6 
REMARK    3  A    between atoms: N1_6  and  N2_8 
REMARK    4  A    between atoms: N2_8  and  N3_9 
REMARK    5  A    between atoms: C6_12  and  C7_13 
REMARK       I    between atoms: C7_13  and  N4_15 
REMARK    6  A    between atoms: C8_17  and  C9_18 
REMARK    7  A    between atoms: C9_18  and  C10_19 
REMARK    8  A    between atoms: C10_19  and  C11_20 
REMARK    9  A    between atoms: C11_20  and  N5_21 
REMARK       I    between atoms: N5_21  and  C12_23 
ROOT
HETATM    1  C1  UNL     1      26.676  17.727  16.795  1.00  0.00     0.012 C 
HETATM    2  C2  UNL     1      27.541  18.500  16.484  1.00  0.00    -0.116 C 
HETATM    3  C3  UNL     1      28.584  19.455  16.092  1.00  0.00     0.115 C 
ENDROOT
BRANCH   3   4
HETATM    4  C4  UNL     1      28.029  20.469  15.141  1.00  0.00     0.153 C 
HETATM    5  C5  UNL     1      29.074  21.426  14.627  1.00  0.00     0.173 C 
HETATM    6  C6  UNL     1      28.748  21.858  13.262  1.00  0.00     0.047 C 
HETATM    7  C13 UNL     1      28.020  21.009  12.553  1.00  0.00     0.124 C 
HETATM    8  S1  UNL     1      27.705  19.623  13.570  1.00  0.00     0.173 S 
HETATM    9  O3  UNL     1      28.685  18.519  13.358  1.00  0.00    -0.223 OA
HETATM   10  O4  UNL     1      26.289  19.190  13.508  1.00  0.00    -0.223 OA
BRANCH   5  11
HETATM   11  N1  UNL     1      30.405  20.870  14.741  1.00  0.00    -0.242 N 
ATOM     12  H1  UNL     1      30.555  19.867  14.629  1.00  0.00     0.197 HD
BRANCH  11  13
HETATM   13  N2  UNL     1      31.345  21.611  14.972  1.00  0.00    -0.248 NA
BRANCH  13  14
HETATM   14  N3  UNL     1      32.023  22.571  15.306  1.00  0.00    -0.261 N 
ATOM     15  H32 UNL     1      32.648  22.026  15.900  1.00  0.00     0.193 HD
ATOM     16  H31 UNL     1      32.397  23.514  15.407  1.00  0.00     0.193 HD
ENDBRANCH  13  14
ENDBRANCH  11  13
ENDBRANCH   5  11
BRANCH   6  17
HETATM   17  C7  UNL     1      29.203  23.166  12.708  1.00  0.00     0.254 C 
HETATM   18  O1  UNL     1      28.995  24.181  13.386  1.00  0.00    -0.268 OA
HETATM   19  N4  UNL     1      29.851  23.283  11.459  1.00  0.00    -0.337 N 
HETATM   20  C8  UNL     1      30.973  22.747  11.164  1.00  0.00     0.064 C 
ATOM     21  H4  UNL     1      29.388  23.835  10.737  1.00  0.00     0.168 HD
BRANCH  20  22
HETATM   22  C9  UNL     1      31.549  22.941   9.824  1.00  0.00     0.046 C 
BRANCH  22  23
HETATM   23  C10 UNL     1      30.980  21.976   8.805  1.00  0.00     0.025 C 
BRANCH  23  24
HETATM   24  C11 UNL     1      32.083  21.115   8.295  1.00  0.00     0.124 C 
BRANCH  24  25
HETATM   25  N5  UNL     1      33.015  21.765   7.414  1.00  0.00    -0.345 N 
HETATM   26  C12 UNL     1      33.770  20.971   6.527  1.00  0.00     0.328 C 
HETATM   27  N6  UNL     1      34.689  21.596   5.656  1.00  0.00    -0.040 NA
HETATM   28  O2  UNL     1      33.646  19.733   6.492  1.00  0.00    -0.251 OA
ATOM     29  H5  UNL     1      33.128  22.779   7.430  1.00  0.00     0.163 HD
ENDBRANCH  24  25
ENDBRANCH  23  24
ENDBRANCH  22  23
ENDBRANCH  20  22
ENDBRANCH   6  17
ENDBRANCH   3   4
TORSDOF 9
ENDMDL
MODEL 5
REMARK VINA RESULT: -8.663774379      3.753      4.257
REMARK  9 active torsions:
REMARK  status: ('A' for Active; 'I' for Inactive)
REMARK    1  A    between atoms: C3_3  and  C4_4 
REMARK    2  A    between atoms: C5_5  and  N1_6 
REMARK    3  A    between atoms: N1_6  and  N2_8 
REMARK    4  A    between atoms: N2_8  and  N3_9 
REMARK    5  A    between atoms: C6_12  and  C7_13 
REMARK       I    between atoms: C7_13  and  N4_15 
REMARK    6  A    between atoms: C8_17  and  C9_18 
REMARK    7  A    between atoms: C9_18  and  C10_19 
REMARK    8  A    between atoms: C10_19  and  C11_20 
REMARK    9  A    between atoms: C11_20  and  N5_21 
REMARK       I    between atoms: N5_21  and  C12_23 
ROOT
HETATM    1  C1  UNL     1      25.837  20.729  14.174  1.00  0.00     0.012 C 
HETATM    2  C2  UNL     1      27.017  20.865  14.001  1.00  0.00    -0.116 C 
HETATM    3  C3  UNL     1      28.458  21.024  13.769  1.00  0.00     0.115 C 
ENDROOT
BRANCH   3   4
HETATM    4  C4  UNL     1      28.804  20.634  12.366  1.00  0.00     0.153 C 
HETATM    5  C5  UNL     1      29.412  21.766  11.576  1.00  0.00     0.173 C 
HETATM    6  C6  UNL     1      30.368  21.247  10.590  1.00  0.00     0.047 C 
HETATM    7  C13 UNL     1      30.930  20.088  10.895  1.00  0.00     0.124 C 
HETATM    8  S1  UNL     1      30.283  19.588  12.439  1.00  0.00     0.173 S 
HETATM    9  O3  UNL     1      31.151  19.988  13.584  1.00  0.00    -0.223 OA
HETATM   10  O4  UNL     1      29.894  18.158  12.450  1.00  0.00    -0.223 OA
BRANCH   5  11
HETATM   11  N1  UNL     1      29.986  22.771  12.445  1.00  0.00    -0.242 N 
ATOM     12  H1  UNL     1      30.906  22.627  12.861  1.00  0.00     0.197 HD
BRANCH  11  13
HETATM   13  N2  UNL     1      29.359  23.790  12.674  1.00  0.00    -0.248 NA
BRANCH  13  14
HETATM   14  N3  UNL     1      28.887  24.775  13.222  1.00  0.00    -0.261 N 
ATOM     15  H32 UNL     1      28.532  24.258  14.026  1.00  0.00     0.193 HD
ATOM     16  H31 UNL     1      28.603  25.731  13.438  1.00  0.00     0.193 HD
ENDBRANCH  13  14
ENDBRANCH  11  13
ENDBRANCH   5  11
BRANCH   6  17
HETATM   17  C7  UNL     1      30.685  21.973   9.326  1.00  0.00     0.254 C 
HETATM   18  O1  UNL     1      29.753  22.195   8.541  1.00  0.00    -0.268 OA
HETATM   19  N4  UNL     1      31.989  22.408   9.001  1.00  0.00    -0.337 N 
HETATM   20  C8  UNL     1      32.668  23.252   9.678  1.00  0.00     0.064 C 
ATOM     21  H4  UNL     1      32.421  22.018   8.164  1.00  0.00     0.168 HD
BRANCH  20  22
HETATM   22  C9  UNL     1      34.020  23.628   9.237  1.00  0.00     0.046 C 
BRANCH  22  23
HETATM   23  C10 UNL     1      34.701  24.575  10.205  1.00  0.00     0.025 C 
BRANCH  23  24
HETATM   24  C11 UNL     1      34.869  25.897   9.540  1.00  0.00     0.124 C 
BRANCH  24  25
HETATM   25  N5  UNL     1      35.214  26.987  10.413  1.00  0.00    -0.345 N 
HETATM   26  C12 UNL     1      34.856  28.294  10.032  1.00  0.00     0.328 C 
HETATM   27  N6  UNL     1      35.189  29.374  10.879  1.00  0.00    -0.040 NA
HETATM   28  O2  UNL     1      34.253  28.523   8.966  1.00  0.00    -0.251 OA
ATOM     29  H5  UNL     1      35.708  26.816  11.289  1.00  0.00     0.163 HD
ENDBRANCH  24  25
ENDBRANCH  23  24
ENDBRANCH  22  23
ENDBRANCH  20  22
ENDBRANCH   6  17
ENDBRANCH   3   4
TORSDOF 9
ENDMDL
