MODEL 1
REMARK VINA RESULT: -9.475542905      0.000      0.000
REMARK  8 active torsions:
REMARK  status: ('A' for Active; 'I' for Inactive)
REMARK    1  A    between atoms: C3_3  and  C4_4 
REMARK    2  A    between atoms: C4_4  and  C5_5 
REMARK    3  A    between atoms: C5_5  and  C6_6 
REMARK    4  A    between atoms: C6_6  and  C7_7 
REMARK    5  A    between atoms: C11_13  and  N2_14 
REMARK    6  A    between atoms: N2_14  and  C12_16 
REMARK    7  A    between atoms: C12_16  and  C13_17 
REMARK    8  A    between atoms: C13_17  and  S1_18 
ROOT
HETATM    1  C1  UNL     1      35.746  21.003   5.296  1.00  0.00     0.012 C 
HETATM    2  C2  UNL     1      34.659  21.505   5.451  1.00  0.00    -0.117 C 
HETATM    3  C3  UNL     1      33.330  22.118   5.662  1.00  0.00     0.093 C 
ENDROOT
BRANCH   3   4
HETATM    4  C4  UNL     1      32.452  21.183   6.506  1.00  0.00     0.012 C 
BRANCH   4   5
HETATM    5  C5  UNL     1      33.085  21.020   7.847  1.00  0.00     0.007 C 
BRANCH   5   6
HETATM    6  C6  UNL     1      32.897  22.126   8.813  1.00  0.00     0.057 C 
BRANCH   6   7
HETATM    7  C7  UNL     1      31.769  21.953   9.750  1.00  0.00     0.011 A 
HETATM    8  C8  UNL     1      31.198  20.692   9.891  1.00  0.00     0.027 A 
HETATM    9  C9  UNL     1      30.163  20.413  10.734  1.00  0.00     0.035 A 
HETATM   10  C10 UNL     1      29.649  21.456  11.497  1.00  0.00     0.078 A 
HETATM   11  N1  UNL     1      28.626  21.245  12.346  1.00  0.00    -0.335 N 
HETATM   12  C16 UNL     1      30.201  22.699  11.367  1.00  0.00     0.135 A 
HETATM   13  C11 UNL     1      28.105  22.228  13.099  1.00  0.00     0.171 A 
ATOM     14  H1  UNL     1      28.234  20.307  12.421  1.00  0.00     0.168 HD
HETATM   15  C15 UNL     1      28.673  23.481  12.958  1.00  0.00     0.290 A 
HETATM   16  O3  UNL     1      28.212  24.440  13.648  1.00  0.00    -0.264 OA
HETATM   17  N3  UNL     1      29.694  23.720  12.117  1.00  0.00    -0.304 N 
ATOM     18  H3  UNL     1      30.087  24.658  12.039  1.00  0.00     0.171 HD
HETATM   19  N4  UNL     1      31.225  22.908  10.515  1.00  0.00    -0.344 N 
ATOM     20  H4  UNL     1      31.609  23.850  10.448  1.00  0.00     0.167 HD
BRANCH  13  21
HETATM   21  N2  UNL     1      27.119  22.019  13.917  1.00  0.00    -0.371 N 
ATOM     22  H2  UNL     1      26.658  22.836  14.316  1.00  0.00     0.161 HD
BRANCH  21  23
HETATM   23  C12 UNL     1      26.629  20.732  14.301  1.00  0.00     0.136 C 
BRANCH  23  24
HETATM   24  C13 UNL     1      27.531  20.035  15.299  1.00  0.00     0.159 C 
BRANCH  24  25
HETATM   25  S1  UNL     1      26.822  18.417  15.595  1.00  0.00     0.142 S 
HETATM   26  C14 UNL     1      25.113  18.393  15.089  1.00  0.00     0.161 C 
HETATM   27  O1  UNL     1      26.978  18.074  17.034  1.00  0.00    -0.228 OA
HETATM   28  O2  UNL     1      27.565  17.423  14.769  1.00  0.00    -0.228 OA
ENDBRANCH  24  25
ENDBRANCH  23  24
ENDBRANCH  21  23
ENDBRANCH  13  21
ENDBRANCH   6   7
ENDBRANCH   5   6
ENDBRANCH   4   5
ENDBRANCH   3   4
TORSDOF 8
ENDMDL
MODEL 2
REMARK VINA RESULT: -9.430776109      1.374      2.285
REMARK  8 active torsions:
REMARK  status: ('A' for Active; 'I' for Inactive)
REMARK    1  A    between atoms: C3_3  and  C4_4 
REMARK    2  A    between atoms: C4_4  and  C5_5 
REMARK    3  A    between atoms: C5_5  and  C6_6 
REMARK    4  A    between atoms: C6_6  and  C7_7 
REMARK    5  A    between atoms: C11_13  and  N2_14 
REMARK    6  A    between atoms: N2_14  and  C12_16 
REMARK    7  A    between atoms: C12_16  and  C13_17 
REMARK    8  A    between atoms: C13_17  and  S1_18 
ROOT
HETATM    1  C1  UNL     1      33.876  24.720  11.325  1.00  0.00     0.012 C 
HETATM    2  C2  UNL     1      34.464  24.580  10.279  1.00  0.00    -0.117 C 
HETATM    3  C3  UNL     1      35.170  24.420   8.990  1.00  0.00     0.093 C 
ENDROOT
BRANCH   3   4
HETATM    4  C4  UNL     1      34.231  23.781   7.957  1.00  0.00     0.012 C 
BRANCH   4   5
HETATM    5  C5  UNL     1      33.728  22.490   8.508  1.00  0.00     0.007 C 
BRANCH   5   6
HETATM    6  C6  UNL     1      32.325  22.134   8.200  1.00  0.00     0.057 C 
BRANCH   6   7
HETATM    7  C7  UNL     1      31.462  21.915   9.378  1.00  0.00     0.011 A 
HETATM    8  C8  UNL     1      31.228  20.613   9.809  1.00  0.00     0.027 A 
HETATM    9  C9  UNL     1      30.460  20.294  10.891  1.00  0.00     0.035 A 
HETATM   10  C10 UNL     1      29.877  21.337  11.603  1.00  0.00     0.078 A 
HETATM   11  N1  UNL     1      29.107  21.087  12.678  1.00  0.00    -0.335 N 
HETATM   12  C16 UNL     1      30.099  22.620  11.189  1.00  0.00     0.135 A 
HETATM   13  C11 UNL     1      28.529  22.068  13.389  1.00  0.00     0.171 A 
ATOM     14  H1  UNL     1      28.958  20.118  12.962  1.00  0.00     0.168 HD
HETATM   15  C15 UNL     1      28.761  23.362  12.960  1.00  0.00     0.290 A 
HETATM   16  O3  UNL     1      28.234  24.321  13.601  1.00  0.00    -0.264 OA
HETATM   17  N3  UNL     1      29.525  23.640  11.889  1.00  0.00    -0.304 N 
ATOM     18  H3  UNL     1      29.675  24.607  11.602  1.00  0.00     0.171 HD
HETATM   19  N4  UNL     1      30.871  22.868  10.110  1.00  0.00    -0.344 N 
ATOM     20  H4  UNL     1      31.012  23.840   9.835  1.00  0.00     0.167 HD
BRANCH  13  21
HETATM   21  N2  UNL     1      27.787  21.821  14.426  1.00  0.00    -0.371 N 
ATOM     22  H2  UNL     1      27.727  22.543  15.143  1.00  0.00     0.161 HD
BRANCH  21  23
HETATM   23  C12 UNL     1      27.049  20.616  14.640  1.00  0.00     0.136 C 
BRANCH  23  24
HETATM   24  C13 UNL     1      27.723  19.682  15.624  1.00  0.00     0.159 C 
BRANCH  24  25
HETATM   25  S1  UNL     1      26.781  18.158  15.622  1.00  0.00     0.142 S 
HETATM   26  C14 UNL     1      25.163  18.439  14.930  1.00  0.00     0.161 C 
HETATM   27  O1  UNL     1      26.706  17.631  17.010  1.00  0.00    -0.228 OA
HETATM   28  O2  UNL     1      27.491  17.172  14.758  1.00  0.00    -0.228 OA
ENDBRANCH  24  25
ENDBRANCH  23  24
ENDBRANCH  21  23
ENDBRANCH  13  21
ENDBRANCH   6   7
ENDBRANCH   5   6
ENDBRANCH   4   5
ENDBRANCH   3   4
TORSDOF 8
ENDMDL
MODEL 3
REMARK VINA RESULT: -9.423112643      2.232      2.907
REMARK  8 active torsions:
REMARK  status: ('A' for Active; 'I' for Inactive)
REMARK    1  A    between atoms: C3_3  and  C4_4 
REMARK    2  A    between atoms: C4_4  and  C5_5 
REMARK    3  A    between atoms: C5_5  and  C6_6 
REMARK    4  A    between atoms: C6_6  and  C7_7 
REMARK    5  A    between atoms: C11_13  and  N2_14 
REMARK    6  A    between atoms: N2_14  and  C12_16 
REMARK    7  A    between atoms: C12_16  and  C13_17 
REMARK    8  A    between atoms: C13_17  and  S1_18 
ROOT
HETATM    1  C1  UNL     1      35.396  23.608   6.451  1.00  0.00     0.012 C 
HETATM    2  C2  UNL     1      34.872  22.555   6.179  1.00  0.00    -0.117 C 
HETATM    3  C3  UNL     1      34.212  21.272   5.853  1.00  0.00     0.093 C 
ENDROOT
BRANCH   3   4
HETATM    4  C4  UNL     1      33.510  20.715   7.099  1.00  0.00     0.012 C 
BRANCH   4   5
HETATM    5  C5  UNL     1      32.499  21.711   7.560  1.00  0.00     0.007 C 
BRANCH   5   6
HETATM    6  C6  UNL     1      32.501  22.047   9.001  1.00  0.00     0.057 C 
BRANCH   6   7
HETATM    7  C7  UNL     1      31.348  21.532   9.765  1.00  0.00     0.011 A 
HETATM    8  C8  UNL     1      30.215  22.329   9.893  1.00  0.00     0.027 A 
HETATM    9  C9  UNL     1      29.089  21.952  10.565  1.00  0.00     0.035 A 
HETATM   10  C10 UNL     1      29.077  20.693  11.156  1.00  0.00     0.078 A 
HETATM   11  N1  UNL     1      27.996  20.264  11.833  1.00  0.00    -0.335 N 
HETATM   12  C16 UNL     1      30.184  19.901  11.037  1.00  0.00     0.135 A 
HETATM   13  C11 UNL     1      27.949  19.055  12.416  1.00  0.00     0.171 A 
ATOM     14  H1  UNL     1      27.185  20.878  11.906  1.00  0.00     0.168 HD
HETATM   15  C15 UNL     1      29.076  18.263  12.289  1.00  0.00     0.290 A 
HETATM   16  O3  UNL     1      29.077  17.114  12.825  1.00  0.00    -0.264 OA
HETATM   17  N3  UNL     1      30.169  18.668  11.619  1.00  0.00    -0.304 N 
ATOM     18  H3  UNL     1      30.982  18.056  11.546  1.00  0.00     0.171 HD
HETATM   19  N4  UNL     1      31.267  20.334  10.358  1.00  0.00    -0.344 N 
ATOM     20  H4  UNL     1      32.072  19.712  10.293  1.00  0.00     0.167 HD
BRANCH  13  21
HETATM   21  N2  UNL     1      26.904  18.646  13.068  1.00  0.00    -0.371 N 
ATOM     22  H2  UNL     1      26.673  17.654  13.010  1.00  0.00     0.161 HD
BRANCH  21  23
HETATM   23  C12 UNL     1      26.052  19.476  13.860  1.00  0.00     0.136 C 
BRANCH  23  24
HETATM   24  C13 UNL     1      25.421  18.733  15.020  1.00  0.00     0.159 C 
BRANCH  24  25
HETATM   25  S1  UNL     1      26.764  18.047  15.988  1.00  0.00     0.142 S 
HETATM   26  C14 UNL     1      28.000  19.295  16.292  1.00  0.00     0.161 C 
HETATM   27  O1  UNL     1      27.328  16.872  15.274  1.00  0.00    -0.228 OA
HETATM   28  O2  UNL     1      26.214  17.608  17.302  1.00  0.00    -0.228 OA
ENDBRANCH  24  25
ENDBRANCH  23  24
ENDBRANCH  21  23
ENDBRANCH  13  21
ENDBRANCH   6   7
ENDBRANCH   5   6
ENDBRANCH   4   5
ENDBRANCH   3   4
TORSDOF 8
ENDMDL
MODEL 4
REMARK VINA RESULT: -9.411127935      1.931      2.582
REMARK  8 active torsions:
REMARK  status: ('A' for Active; 'I' for Inactive)
REMARK    1  A    between atoms: C3_3  and  C4_4 
REMARK    2  A    between atoms: C4_4  and  C5_5 
REMARK    3  A    between atoms: C5_5  and  C6_6 
REMARK    4  A    between atoms: C6_6  and  C7_7 
REMARK    5  A    between atoms: C11_13  and  N2_14 
REMARK    6  A    between atoms: N2_14  and  C12_16 
REMARK    7  A    between atoms: C12_16  and  C13_17 
REMARK    8  A    between atoms: C13_17  and  S1_18 
ROOT
HETATM    1  C1  UNL     1      34.658  26.767  10.168  1.00  0.00     0.012 C 
HETATM    2  C2  UNL     1      35.187  25.875   9.548  1.00  0.00    -0.117 C 
HETATM    3  C3  UNL     1      35.825  24.791   8.772  1.00  0.00     0.093 C 
ENDROOT
BRANCH   3   4
HETATM    4  C4  UNL     1      34.750  23.932   8.093  1.00  0.00     0.012 C 
BRANCH   4   5
HETATM    5  C5  UNL     1      33.855  23.371   9.147  1.00  0.00     0.007 C 
BRANCH   5   6
HETATM    6  C6  UNL     1      32.963  22.261   8.745  1.00  0.00     0.057 C 
BRANCH   6   7
HETATM    7  C7  UNL     1      31.846  21.990   9.671  1.00  0.00     0.011 A 
HETATM    8  C8  UNL     1      31.362  20.690   9.781  1.00  0.00     0.027 A 
HETATM    9  C9  UNL     1      30.344  20.323  10.612  1.00  0.00     0.035 A 
HETATM   10  C10 UNL     1      29.757  21.311  11.395  1.00  0.00     0.078 A 
HETATM   11  N1  UNL     1      28.747  21.011  12.233  1.00  0.00    -0.335 N 
HETATM   12  C16 UNL     1      30.223  22.591  11.296  1.00  0.00     0.135 A 
HETATM   13  C11 UNL     1      28.157  21.938  13.004  1.00  0.00     0.171 A 
ATOM     14  H1  UNL     1      28.420  20.046  12.285  1.00  0.00     0.168 HD
HETATM   15  C15 UNL     1      28.638  23.231  12.895  1.00  0.00     0.290 A 
HETATM   16  O3  UNL     1      28.110  24.140  13.604  1.00  0.00    -0.264 OA
HETATM   17  N3  UNL     1      29.644  23.557  12.065  1.00  0.00    -0.304 N 
ATOM     18  H3  UNL     1      29.973  24.521  12.011  1.00  0.00     0.171 HD
HETATM   19  N4  UNL     1      31.234  22.888  10.454  1.00  0.00    -0.344 N 
ATOM     20  H4  UNL     1      31.553  23.856  10.411  1.00  0.00     0.167 HD
BRANCH  13  21
HETATM   21  N2  UNL     1      27.184  21.644  13.812  1.00  0.00    -0.371 N 
ATOM     22  H2  UNL     1      27.162  22.119  14.714  1.00  0.00     0.161 HD
BRANCH  21  23
HETATM   23  C12 UNL     1      26.141  20.706  13.535  1.00  0.00     0.136 C 
BRANCH  23  24
HETATM   24  C13 UNL     1      25.763  19.876  14.744  1.00  0.00     0.159 C 
BRANCH  24  25
HETATM   25  S1  UNL     1      27.269  19.112  15.340  1.00  0.00     0.142 S 
HETATM   26  C14 UNL     1      26.879  17.744  16.415  1.00  0.00     0.161 C 
HETATM   27  O1  UNL     1      28.096  20.138  16.029  1.00  0.00    -0.228 OA
HETATM   28  O2  UNL     1      28.020  18.581  14.167  1.00  0.00    -0.228 OA
ENDBRANCH  24  25
ENDBRANCH  23  24
ENDBRANCH  21  23
ENDBRANCH  13  21
ENDBRANCH   6   7
ENDBRANCH   5   6
ENDBRANCH   4   5
ENDBRANCH   3   4
TORSDOF 8
ENDMDL
MODEL 5
REMARK VINA RESULT: -9.410501161      0.906      1.352
REMARK  8 active torsions:
REMARK  status: ('A' for Active; 'I' for Inactive)
REMARK    1  A    between atoms: C3_3  and  C4_4 
REMARK    2  A    between atoms: C4_4  and  C5_5 
REMARK    3  A    between atoms: C5_5  and  C6_6 
REMARK    4  A    between atoms: C6_6  and  C7_7 
REMARK    5  A    between atoms: C11_13  and  N2_14 
REMARK    6  A    between atoms: N2_14  and  C12_16 
REMARK    7  A    between atoms: C12_16  and  C13_17 
REMARK    8  A    between atoms: C13_17  and  S1_18 
ROOT
HETATM    1  C1  UNL     1      35.740  23.682   6.335  1.00  0.00     0.012 C 
HETATM    2  C2  UNL     1      35.034  22.758   6.011  1.00  0.00    -0.117 C 
HETATM    3  C3  UNL     1      34.154  21.640   5.609  1.00  0.00     0.093 C 
ENDROOT
BRANCH   3   4
HETATM    4  C4  UNL     1      32.852  21.682   6.421  1.00  0.00     0.012 C 
BRANCH   4   5
HETATM    5  C5  UNL     1      33.162  21.318   7.834  1.00  0.00     0.007 C 
BRANCH   5   6
HETATM    6  C6  UNL     1      32.899  22.349   8.863  1.00  0.00     0.057 C 
BRANCH   6   7
HETATM    7  C7  UNL     1      31.761  22.063   9.758  1.00  0.00     0.011 A 
HETATM    8  C8  UNL     1      31.221  20.781   9.772  1.00  0.00     0.027 A 
HETATM    9  C9  UNL     1      30.179  20.401  10.566  1.00  0.00     0.035 A 
HETATM   10  C10 UNL     1      29.625  21.357  11.411  1.00  0.00     0.078 A 
HETATM   11  N1  UNL     1      28.594  21.044  12.218  1.00  0.00    -0.335 N 
HETATM   12  C16 UNL     1      30.146  22.620  11.406  1.00  0.00     0.135 A 
HETATM   13  C11 UNL     1      28.035  21.940  13.047  1.00  0.00     0.171 A 
ATOM     14  H1  UNL     1      28.225  20.093  12.199  1.00  0.00     0.168 HD
HETATM   15  C15 UNL     1      28.571  23.215  13.032  1.00  0.00     0.290 A 
HETATM   16  O3  UNL     1      28.074  24.095  13.797  1.00  0.00    -0.264 OA
HETATM   17  N3  UNL     1      29.600  23.554  12.235  1.00  0.00    -0.304 N 
ATOM     18  H3  UNL     1      29.970  24.505  12.252  1.00  0.00     0.171 HD
HETATM   19  N4  UNL     1      31.179  22.931  10.596  1.00  0.00    -0.344 N 
ATOM     20  H4  UNL     1      31.539  23.885  10.623  1.00  0.00     0.167 HD
BRANCH  13  21
HETATM   21  N2  UNL     1      27.041  21.633  13.823  1.00  0.00    -0.371 N 
ATOM     22  H2  UNL     1      26.877  22.228  14.635  1.00  0.00     0.161 HD
BRANCH  21  23
HETATM   23  C12 UNL     1      26.158  20.525  13.629  1.00  0.00     0.136 C 
BRANCH  23  24
HETATM   24  C13 UNL     1      25.944  19.717  14.892  1.00  0.00     0.159 C 
BRANCH  24  25
HETATM   25  S1  UNL     1      27.470  18.832  15.206  1.00  0.00     0.142 S 
HETATM   26  C14 UNL     1      28.431  19.686  16.440  1.00  0.00     0.161 C 
HETATM   27  O1  UNL     1      28.217  18.682  13.929  1.00  0.00    -0.228 OA
HETATM   28  O2  UNL     1      27.126  17.482  15.736  1.00  0.00    -0.228 OA
ENDBRANCH  24  25
ENDBRANCH  23  24
ENDBRANCH  21  23
ENDBRANCH  13  21
ENDBRANCH   6   7
ENDBRANCH   5   6
ENDBRANCH   4   5
ENDBRANCH   3   4
TORSDOF 8
ENDMDL
