MODEL 1
REMARK VINA RESULT: -9.566624023      0.000      0.000
REMARK  8 active torsions:
REMARK  status: ('A' for Active; 'I' for Inactive)
REMARK    1  A    between atoms: N1_1  and  S1_4 
REMARK    2  A    between atoms: S1_4  and  C1_7 
REMARK       I    between atoms: N4_13  and  C3_15 
REMARK    3  A    between atoms: C3_15  and  C4_17 
REMARK    4  A    between atoms: C4_17  and  C5_18 
REMARK    5  A    between atoms: C5_18  and  C6_19 
REMARK    6  A    between atoms: C6_19  and  C7_20 
REMARK    7  A    between atoms: C7_20  and  C8_21 
REMARK    8  A    between atoms: C8_21  and  N5_22 
ROOT
HETATM    1  C1  UNL     1      30.399  21.549  16.848  1.00  0.00     0.208 A 
HETATM    2  N2  UNL     1      30.278  20.853  17.968  1.00  0.00    -0.281 N 
ATOM      3  H2  UNL     1      30.839  21.099  18.784  1.00  0.00     0.188 HD
HETATM    4  N3  UNL     1      29.466  19.880  18.028  1.00  0.00    -0.278 N 
ATOM      5  H3  UNL     1      29.367  19.339  18.887  1.00  0.00     0.189 HD
HETATM    6  C2  UNL     1      28.742  19.577  16.946  1.00  0.00     0.168 A 
HETATM    7  N4  UNL     1      27.858  18.611  16.827  1.00  0.00    -0.306 N 
ATOM      8  H4  UNL     1      27.647  17.981  17.602  1.00  0.00     0.171 HD
HETATM    9  C3  UNL     1      27.211  18.484  15.568  1.00  0.00     0.223 C 
HETATM   10  O3  UNL     1      27.464  17.494  14.842  1.00  0.00    -0.273 OA
HETATM   11  S2  UNL     1      29.281  20.757  15.829  1.00  0.00    -0.020 SA
ENDROOT
BRANCH   9  12
HETATM   12  C4  UNL     1      26.242  19.492  15.087  1.00  0.00     0.103 C 
BRANCH  12  13
HETATM   13  C5  UNL     1      26.022  19.310  13.602  1.00  0.00     0.009 C 
BRANCH  13  14
HETATM   14  C6  UNL     1      26.418  20.580  12.926  1.00  0.00     0.002 C 
BRANCH  14  15
HETATM   15  C7  UNL     1      26.863  20.404  11.492  1.00  0.00     0.020 C 
BRANCH  15  16
HETATM   16  C8  UNL     1      27.525  21.671  11.001  1.00  0.00     0.128 C 
BRANCH  16  17
HETATM   17  N5  UNL     1      28.884  21.410  10.544  1.00  0.00    -0.366 N 
HETATM   18  C9  UNL     1      29.576  20.401  11.077  1.00  0.00     0.090 A 
HETATM   19  C10 UNL     1      30.866  20.096  10.694  1.00  0.00     0.017 A 
HETATM   20  C11 UNL     1      31.498  20.841   9.722  1.00  0.00     0.003 A 
HETATM   21  C12 UNL     1      30.790  21.886   9.166  1.00  0.00     0.017 A 
HETATM   22  C13 UNL     1      29.487  22.150   9.594  1.00  0.00     0.090 A 
ENDBRANCH  16  17
ENDBRANCH  15  16
ENDBRANCH  14  15
ENDBRANCH  13  14
ENDBRANCH  12  13
ENDBRANCH   9  12
BRANCH   1  23
HETATM   23  S1  UNL     1      31.450  22.935  16.516  1.00  0.00     0.280 S 
HETATM   24  O1  UNL     1      32.347  22.538  15.391  1.00  0.00    -0.199 OA
HETATM   25  O2  UNL     1      30.548  24.052  16.085  1.00  0.00    -0.199 OA
BRANCH  23  26
HETATM   26  N1  UNL     1      32.345  23.383  17.897  1.00  0.00    -0.323 N 
ATOM     27  H12 UNL     1      33.319  23.118  18.047  1.00  0.00     0.169 HD
ATOM     28  H11 UNL     1      31.783  23.942  18.539  1.00  0.00     0.169 HD
ENDBRANCH  23  26
ENDBRANCH   1  23
TORSDOF 8
ENDMDL
MODEL 2
REMARK VINA RESULT: -9.463049594      0.995      1.630
REMARK  8 active torsions:
REMARK  status: ('A' for Active; 'I' for Inactive)
REMARK    1  A    between atoms: N1_1  and  S1_4 
REMARK    2  A    between atoms: S1_4  and  C1_7 
REMARK       I    between atoms: N4_13  and  C3_15 
REMARK    3  A    between atoms: C3_15  and  C4_17 
REMARK    4  A    between atoms: C4_17  and  C5_18 
REMARK    5  A    between atoms: C5_18  and  C6_19 
REMARK    6  A    between atoms: C6_19  and  C7_20 
REMARK    7  A    between atoms: C7_20  and  C8_21 
REMARK    8  A    between atoms: C8_21  and  N5_22 
ROOT
HETATM    1  C1  UNL     1      30.194  21.724  15.935  1.00  0.00     0.208 A 
HETATM    2  N2  UNL     1      30.289  21.202  17.148  1.00  0.00    -0.281 N 
ATOM      3  H2  UNL     1      30.946  21.596  17.822  1.00  0.00     0.188 HD
HETATM    4  N3  UNL     1      29.565  20.212  17.474  1.00  0.00    -0.278 N 
ATOM      5  H3  UNL     1      29.632  19.804  18.406  1.00  0.00     0.189 HD
HETATM    6  C2  UNL     1      28.712  19.714  16.574  1.00  0.00     0.168 A 
HETATM    7  N4  UNL     1      27.890  18.700  16.735  1.00  0.00    -0.306 N 
ATOM      8  H4  UNL     1      27.841  18.187  17.615  1.00  0.00     0.171 HD
HETATM    9  C3  UNL     1      27.074  18.352  15.624  1.00  0.00     0.223 C 
HETATM   10  O3  UNL     1      27.286  17.275  15.017  1.00  0.00    -0.273 OA
HETATM   11  S2  UNL     1      28.995  20.733  15.228  1.00  0.00    -0.020 SA
ENDROOT
BRANCH   9  12
HETATM   12  C4  UNL     1      25.977  19.227  15.162  1.00  0.00     0.103 C 
BRANCH  12  13
HETATM   13  C5  UNL     1      25.760  19.023  13.679  1.00  0.00     0.009 C 
BRANCH  13  14
HETATM   14  C6  UNL     1      25.930  20.344  13.008  1.00  0.00     0.002 C 
BRANCH  14  15
HETATM   15  C7  UNL     1      26.757  20.293  11.743  1.00  0.00     0.020 C 
BRANCH  15  16
HETATM   16  C8  UNL     1      27.544  21.575  11.594  1.00  0.00     0.128 C 
BRANCH  16  17
HETATM   17  N5  UNL     1      28.836  21.327  10.966  1.00  0.00    -0.366 N 
HETATM   18  C9  UNL     1      29.281  22.158  10.022  1.00  0.00     0.090 A 
HETATM   19  C10 UNL     1      30.492  21.986   9.386  1.00  0.00     0.017 A 
HETATM   20  C11 UNL     1      31.306  20.922   9.714  1.00  0.00     0.003 A 
HETATM   21  C12 UNL     1      30.854  20.058  10.689  1.00  0.00     0.017 A 
HETATM   22  C13 UNL     1      29.617  20.281  11.299  1.00  0.00     0.090 A 
ENDBRANCH  16  17
ENDBRANCH  15  16
ENDBRANCH  14  15
ENDBRANCH  13  14
ENDBRANCH  12  13
ENDBRANCH   9  12
BRANCH   1  23
HETATM   23  S1  UNL     1      31.084  23.091  15.246  1.00  0.00     0.280 S 
HETATM   24  O1  UNL     1      30.692  24.301  16.028  1.00  0.00    -0.199 OA
HETATM   25  O2  UNL     1      32.539  22.792  15.454  1.00  0.00    -0.199 OA
BRANCH  23  26
HETATM   26  N1  UNL     1      30.741  23.284  13.586  1.00  0.00    -0.323 N 
ATOM     27  H12 UNL     1      31.120  24.042  13.018  1.00  0.00     0.169 HD
ATOM     28  H11 UNL     1      30.117  22.551  13.248  1.00  0.00     0.169 HD
ENDBRANCH  23  26
ENDBRANCH   1  23
TORSDOF 8
ENDMDL
MODEL 3
REMARK VINA RESULT: -9.190611851      1.938      2.709
REMARK  8 active torsions:
REMARK  status: ('A' for Active; 'I' for Inactive)
REMARK    1  A    between atoms: N1_1  and  S1_4 
REMARK    2  A    between atoms: S1_4  and  C1_7 
REMARK       I    between atoms: N4_13  and  C3_15 
REMARK    3  A    between atoms: C3_15  and  C4_17 
REMARK    4  A    between atoms: C4_17  and  C5_18 
REMARK    5  A    between atoms: C5_18  and  C6_19 
REMARK    6  A    between atoms: C6_19  and  C7_20 
REMARK    7  A    between atoms: C7_20  and  C8_21 
REMARK    8  A    between atoms: C8_21  and  N5_22 
ROOT
HETATM    1  C1  UNL     1      30.416  21.932  15.647  1.00  0.00     0.208 A 
HETATM    2  N2  UNL     1      30.054  20.923  16.425  1.00  0.00    -0.281 N 
ATOM      3  H2  UNL     1      30.372  20.888  17.394  1.00  0.00     0.188 HD
HETATM    4  N3  UNL     1      29.314  20.000  15.969  1.00  0.00    -0.278 N 
ATOM      5  H3  UNL     1      29.031  19.220  16.561  1.00  0.00     0.189 HD
HETATM    6  C2  UNL     1      28.909  20.068  14.696  1.00  0.00     0.168 A 
HETATM    7  N4  UNL     1      28.145  19.209  14.059  1.00  0.00    -0.306 N 
ATOM      8  H4  UNL     1      27.781  18.374  14.519  1.00  0.00     0.171 HD
HETATM    9  C3  UNL     1      27.850  19.499  12.699  1.00  0.00     0.223 C 
HETATM   10  O3  UNL     1      28.339  18.779  11.795  1.00  0.00    -0.273 OA
HETATM   11  S2  UNL     1      29.644  21.525  14.178  1.00  0.00    -0.020 SA
ENDROOT
BRANCH   9  12
HETATM   12  C4  UNL     1      26.978  20.628  12.316  1.00  0.00     0.103 C 
BRANCH  12  13
HETATM   13  C5  UNL     1      27.152  20.922  10.843  1.00  0.00     0.009 C 
BRANCH  13  14
HETATM   14  C6  UNL     1      27.953  22.175  10.721  1.00  0.00     0.002 C 
BRANCH  14  15
HETATM   15  C7  UNL     1      29.051  22.107   9.684  1.00  0.00     0.020 C 
BRANCH  15  16
HETATM   16  C8  UNL     1      30.385  22.400  10.331  1.00  0.00     0.128 C 
BRANCH  16  17
HETATM   17  N5  UNL     1      31.465  22.353   9.352  1.00  0.00    -0.366 N 
HETATM   18  C9  UNL     1      31.279  21.713   8.197  1.00  0.00     0.090 A 
HETATM   19  C10 UNL     1      32.254  21.627   7.225  1.00  0.00     0.017 A 
HETATM   20  C11 UNL     1      33.485  22.217   7.421  1.00  0.00     0.003 A 
HETATM   21  C12 UNL     1      33.686  22.881   8.613  1.00  0.00     0.017 A 
HETATM   22  C13 UNL     1      32.662  22.935   9.561  1.00  0.00     0.090 A 
ENDBRANCH  16  17
ENDBRANCH  15  16
ENDBRANCH  14  15
ENDBRANCH  13  14
ENDBRANCH  12  13
ENDBRANCH   9  12
BRANCH   1  23
HETATM   23  S1  UNL     1      31.432  23.326  16.044  1.00  0.00     0.280 S 
HETATM   24  O1  UNL     1      32.561  23.331  15.068  1.00  0.00    -0.199 OA
HETATM   25  O2  UNL     1      30.575  24.540  15.846  1.00  0.00    -0.199 OA
BRANCH  23  26
HETATM   26  N1  UNL     1      31.998  23.246  17.651  1.00  0.00    -0.323 N 
ATOM     27  H12 UNL     1      31.994  24.042  18.290  1.00  0.00     0.169 HD
ATOM     28  H11 UNL     1      32.335  22.311  17.880  1.00  0.00     0.169 HD
ENDBRANCH  23  26
ENDBRANCH   1  23
TORSDOF 8
ENDMDL
MODEL 4
REMARK VINA RESULT: -9.162789029      2.990      5.427
REMARK  8 active torsions:
REMARK  status: ('A' for Active; 'I' for Inactive)
REMARK    1  A    between atoms: N1_1  and  S1_4 
REMARK    2  A    between atoms: S1_4  and  C1_7 
REMARK       I    between atoms: N4_13  and  C3_15 
REMARK    3  A    between atoms: C3_15  and  C4_17 
REMARK    4  A    between atoms: C4_17  and  C5_18 
REMARK    5  A    between atoms: C5_18  and  C6_19 
REMARK    6  A    between atoms: C6_19  and  C7_20 
REMARK    7  A    between atoms: C7_20  and  C8_21 
REMARK    8  A    between atoms: C8_21  and  N5_22 
ROOT
HETATM    1  C1  UNL     1      27.755  19.574  15.366  1.00  0.00     0.208 A 
HETATM    2  N2  UNL     1      28.883  19.910  15.974  1.00  0.00    -0.281 N 
ATOM      3  H2  UNL     1      29.267  19.308  16.703  1.00  0.00     0.188 HD
HETATM    4  N3  UNL     1      29.486  20.978  15.652  1.00  0.00    -0.278 N 
ATOM      5  H3  UNL     1      30.355  21.244  16.116  1.00  0.00     0.189 HD
HETATM    6  C2  UNL     1      28.963  21.750  14.694  1.00  0.00     0.168 A 
HETATM    7  N4  UNL     1      29.447  22.883  14.235  1.00  0.00    -0.306 N 
ATOM      8  H4  UNL     1      30.313  23.281  14.599  1.00  0.00     0.171 HD
HETATM    9  C3  UNL     1      28.706  23.527  13.206  1.00  0.00     0.223 C 
HETATM   10  O3  UNL     1      28.115  24.604  13.455  1.00  0.00    -0.273 OA
HETATM   11  S2  UNL     1      27.556  20.871  14.272  1.00  0.00    -0.020 SA
ENDROOT
BRANCH   9  12
HETATM   12  C4  UNL     1      28.614  22.961  11.844  1.00  0.00     0.103 C 
BRANCH  12  13
HETATM   13  C5  UNL     1      30.001  22.836  11.255  1.00  0.00     0.009 C 
BRANCH  13  14
HETATM   14  C6  UNL     1      29.985  21.700  10.289  1.00  0.00     0.002 C 
BRANCH  14  15
HETATM   15  C7  UNL     1      30.610  22.017   8.951  1.00  0.00     0.020 C 
BRANCH  15  16
HETATM   16  C8  UNL     1      31.967  21.360   8.850  1.00  0.00     0.128 C 
BRANCH  16  17
HETATM   17  N5  UNL     1      33.024  22.355   8.712  1.00  0.00    -0.366 N 
HETATM   18  C9  UNL     1      33.656  22.487   7.545  1.00  0.00     0.090 A 
HETATM   19  C10 UNL     1      34.665  23.406   7.342  1.00  0.00     0.017 A 
HETATM   20  C11 UNL     1      35.061  24.242   8.365  1.00  0.00     0.003 A 
HETATM   21  C12 UNL     1      34.412  24.111   9.575  1.00  0.00     0.017 A 
HETATM   22  C13 UNL     1      33.399  23.162   9.723  1.00  0.00     0.090 A 
ENDBRANCH  16  17
ENDBRANCH  15  16
ENDBRANCH  14  15
ENDBRANCH  13  14
ENDBRANCH  12  13
ENDBRANCH   9  12
BRANCH   1  23
HETATM   23  S1  UNL     1      26.737  18.150  15.633  1.00  0.00     0.280 S 
HETATM   24  O1  UNL     1      27.354  17.027  14.868  1.00  0.00    -0.199 OA
HETATM   25  O2  UNL     1      26.792  17.864  17.103  1.00  0.00    -0.199 OA
BRANCH  23  26
HETATM   26  N1  UNL     1      25.130  18.432  15.135  1.00  0.00    -0.323 N 
ATOM     27  H12 UNL     1      24.810  18.318  14.173  1.00  0.00     0.169 HD
ATOM     28  H11 UNL     1      24.544  18.725  15.918  1.00  0.00     0.169 HD
ENDBRANCH  23  26
ENDBRANCH   1  23
TORSDOF 8
ENDMDL
MODEL 5
REMARK VINA RESULT: -9.059983949      3.037      5.488
REMARK  8 active torsions:
REMARK  status: ('A' for Active; 'I' for Inactive)
REMARK    1  A    between atoms: N1_1  and  S1_4 
REMARK    2  A    between atoms: S1_4  and  C1_7 
REMARK       I    between atoms: N4_13  and  C3_15 
REMARK    3  A    between atoms: C3_15  and  C4_17 
REMARK    4  A    between atoms: C4_17  and  C5_18 
REMARK    5  A    between atoms: C5_18  and  C6_19 
REMARK    6  A    between atoms: C6_19  and  C7_20 
REMARK    7  A    between atoms: C7_20  and  C8_21 
REMARK    8  A    between atoms: C8_21  and  N5_22 
ROOT
HETATM    1  C1  UNL     1      27.768  19.599  15.371  1.00  0.00     0.208 A 
HETATM    2  N2  UNL     1      28.885  19.963  15.981  1.00  0.00    -0.281 N 
ATOM      3  H2  UNL     1      29.270  19.383  16.727  1.00  0.00     0.188 HD
HETATM    4  N3  UNL     1      29.479  21.030  15.639  1.00  0.00    -0.278 N 
ATOM      5  H3  UNL     1      30.340  21.317  16.104  1.00  0.00     0.189 HD
HETATM    6  C2  UNL     1      28.956  21.773  14.659  1.00  0.00     0.168 A 
HETATM    7  N4  UNL     1      29.431  22.900  14.177  1.00  0.00    -0.306 N 
ATOM      8  H4  UNL     1      30.289  23.317  14.539  1.00  0.00     0.171 HD
HETATM    9  C3  UNL     1      28.693  23.510  13.126  1.00  0.00     0.223 C 
HETATM   10  O3  UNL     1      28.087  24.587  13.344  1.00  0.00    -0.273 OA
HETATM   11  S2  UNL     1      27.564  20.867  14.245  1.00  0.00    -0.020 SA
ENDROOT
BRANCH   9  12
HETATM   12  C4  UNL     1      28.620  22.911  11.777  1.00  0.00     0.103 C 
BRANCH  12  13
HETATM   13  C5  UNL     1      30.007  22.847  11.179  1.00  0.00     0.009 C 
BRANCH  13  14
HETATM   14  C6  UNL     1      29.910  22.115   9.883  1.00  0.00     0.002 C 
BRANCH  14  15
HETATM   15  C7  UNL     1      31.178  21.395   9.483  1.00  0.00     0.020 C 
BRANCH  15  16
HETATM   16  C8  UNL     1      32.321  22.380   9.398  1.00  0.00     0.128 C 
BRANCH  16  17
HETATM   17  N5  UNL     1      33.096  22.181   8.180  1.00  0.00    -0.366 N 
HETATM   18  C9  UNL     1      33.937  23.132   7.771  1.00  0.00     0.090 A 
HETATM   19  C10 UNL     1      34.702  23.013   6.629  1.00  0.00     0.017 A 
HETATM   20  C11 UNL     1      34.621  21.876   5.853  1.00  0.00     0.003 A 
HETATM   21  C12 UNL     1      33.754  20.887   6.269  1.00  0.00     0.017 A 
HETATM   22  C13 UNL     1      33.004  21.064   7.433  1.00  0.00     0.090 A 
ENDBRANCH  16  17
ENDBRANCH  15  16
ENDBRANCH  14  15
ENDBRANCH  13  14
ENDBRANCH  12  13
ENDBRANCH   9  12
BRANCH   1  23
HETATM   23  S1  UNL     1      26.763  18.170  15.662  1.00  0.00     0.280 S 
HETATM   24  O1  UNL     1      27.372  17.048  14.889  1.00  0.00    -0.199 OA
HETATM   25  O2  UNL     1      26.849  17.889  17.133  1.00  0.00    -0.199 OA
BRANCH  23  26
HETATM   26  N1  UNL     1      25.145  18.441  15.195  1.00  0.00    -0.323 N 
ATOM     27  H12 UNL     1      24.342  18.140  15.748  1.00  0.00     0.169 HD
ATOM     28  H11 UNL     1      25.093  18.935  14.304  1.00  0.00     0.169 HD
ENDBRANCH  23  26
ENDBRANCH   1  23
TORSDOF 8
ENDMDL
