MODEL 1
REMARK VINA RESULT: -8.543573147      0.000      0.000
REMARK  8 active torsions:
REMARK  status: ('A' for Active; 'I' for Inactive)
REMARK    1  A    between atoms: C3_3  and  O1_4 
REMARK    2  A    between atoms: O1_4  and  C4_5 
REMARK    3  A    between atoms: C4_5  and  C5_6 
REMARK    4  A    between atoms: C5_6  and  O2_7 
REMARK    5  A    between atoms: C5_6  and  C6_9 
REMARK    6  A    between atoms: C6_9  and  N1_10 
REMARK    7  A    between atoms: N2_13  and  C9_14 
REMARK    8  A    between atoms: C18_23  and  C19_24 
ROOT
HETATM    1  C1  UNL     1      28.623  19.467  17.707  1.00  0.00     0.014 C 
HETATM    2  C2  UNL     1      27.878  18.799  17.036  1.00  0.00    -0.091 C 
HETATM    3  C3  UNL     1      26.954  18.007  16.222  1.00  0.00     0.260 C 
ENDROOT
BRANCH   3   4
HETATM    4  O1  UNL     1      27.482  17.640  15.026  1.00  0.00    -0.377 OA
BRANCH   4   5
HETATM    5  C4  UNL     1      27.398  18.475  13.967  1.00  0.00     0.202 C 
BRANCH   5   6
HETATM    6  C5  UNL     1      28.073  18.046  12.697  1.00  0.00     0.170 C 
BRANCH   6   7
HETATM    7  O2  UNL     1      28.844  16.913  12.951  1.00  0.00    -0.392 OA
ATOM      8  H2  UNL     1      29.764  17.147  12.907  1.00  0.00     0.210 HD
ENDBRANCH   6   7
BRANCH   6   9
HETATM    9  C6  UNL     1      28.952  19.082  12.071  1.00  0.00     0.307 C 
BRANCH   9  10
HETATM   10  N1  UNL     1      28.451  20.439  12.193  1.00  0.00     0.109 N 
HETATM   11  C7  UNL     1      27.908  20.901  10.927  1.00  0.00     0.293 C 
HETATM   12  C8  UNL     1      28.896  21.821  10.270  1.00  0.00     0.147 C 
HETATM   13  N2  UNL     1      30.224  21.365  10.449  1.00  0.00    -0.404 N 
HETATM   14  C17 UNL     1      30.662  21.349  11.811  1.00  0.00     0.164 C 
HETATM   15  C18 UNL     1      29.431  21.347  12.702  1.00  0.00     0.340 C 
BRANCH  13  16
HETATM   16  C9  UNL     1      31.172  21.871   9.505  1.00  0.00     0.080 C 
HETATM   17  C10 UNL     1      32.538  21.294   9.624  1.00  0.00     0.029 C 
HETATM   18  C11 UNL     1      33.370  21.528   8.404  1.00  0.00    -0.012 C 
HETATM   19  C12 UNL     1      33.358  20.319   7.491  1.00  0.00     0.005 C 
HETATM   20  C15 UNL     1      32.781  22.593   7.498  1.00  0.00     0.009 C 
HETATM   21  C13 UNL     1      32.029  20.422   6.805  1.00  0.00     0.005 C 
HETATM   22  C14 UNL     1      31.536  21.857   7.007  1.00  0.00    -0.012 C 
HETATM   23  C16 UNL     1      30.560  21.820   8.140  1.00  0.00     0.029 C 
ENDBRANCH  13  16
BRANCH  15  24
HETATM   24  C19 UNL     1      29.720  21.218  14.126  1.00  0.00     0.209 C 
HETATM   25  O3  UNL     1      28.894  21.663  14.993  1.00  0.00    -0.646 OA
HETATM   26  O4  UNL     1      30.856  20.632  14.648  1.00  0.00    -0.646 OA
ENDBRANCH  15  24
ENDBRANCH   9  10
ENDBRANCH   6   9
ENDBRANCH   5   6
ENDBRANCH   4   5
ENDBRANCH   3   4
TORSDOF 8
ENDMDL
MODEL 2
REMARK VINA RESULT: -8.424685070      1.459      1.900
REMARK  8 active torsions:
REMARK  status: ('A' for Active; 'I' for Inactive)
REMARK    1  A    between atoms: C3_3  and  O1_4 
REMARK    2  A    between atoms: O1_4  and  C4_5 
REMARK    3  A    between atoms: C4_5  and  C5_6 
REMARK    4  A    between atoms: C5_6  and  O2_7 
REMARK    5  A    between atoms: C5_6  and  C6_9 
REMARK    6  A    between atoms: C6_9  and  N1_10 
REMARK    7  A    between atoms: N2_13  and  C9_14 
REMARK    8  A    between atoms: C18_23  and  C19_24 
ROOT
HETATM    1  C1  UNL     1      25.253  19.860  14.297  1.00  0.00     0.014 C 
HETATM    2  C2  UNL     1      26.111  19.025  14.443  1.00  0.00    -0.091 C 
HETATM    3  C3  UNL     1      27.135  17.992  14.613  1.00  0.00     0.260 C 
ENDROOT
BRANCH   3   4
HETATM    4  O1  UNL     1      28.258  18.237  13.890  1.00  0.00    -0.377 OA
BRANCH   4   5
HETATM    5  C4  UNL     1      28.219  18.171  12.542  1.00  0.00     0.202 C 
BRANCH   5   6
HETATM    6  C5  UNL     1      28.854  19.298  11.779  1.00  0.00     0.170 C 
BRANCH   6   7
HETATM    7  O2  UNL     1      30.131  18.913  11.378  1.00  0.00    -0.392 OA
ATOM      8  H2  UNL     1      30.174  18.920  10.428  1.00  0.00     0.210 HD
ENDBRANCH   6   7
BRANCH   6   9
HETATM    9  C6  UNL     1      28.966  20.584  12.534  1.00  0.00     0.307 C 
BRANCH   9  10
HETATM   10  N1  UNL     1      28.189  21.673  11.972  1.00  0.00     0.109 N 
HETATM   11  C7  UNL     1      27.786  21.366  10.609  1.00  0.00     0.293 C 
HETATM   12  C8  UNL     1      28.666  22.116   9.651  1.00  0.00     0.147 C 
HETATM   13  N2  UNL     1      30.009  22.146  10.099  1.00  0.00    -0.404 N 
HETATM   14  C17 UNL     1      30.203  22.852  11.327  1.00  0.00     0.164 C 
HETATM   15  C18 UNL     1      28.866  22.931  12.043  1.00  0.00     0.340 C 
BRANCH  13  16
HETATM   16  C9  UNL     1      30.981  22.403   9.082  1.00  0.00     0.080 C 
HETATM   17  C10 UNL     1      32.386  22.110   9.475  1.00  0.00     0.029 C 
HETATM   18  C11 UNL     1      33.303  22.000   8.299  1.00  0.00    -0.012 C 
HETATM   19  C12 UNL     1      33.519  20.553   7.907  1.00  0.00     0.005 C 
HETATM   20  C15 UNL     1      32.688  22.566   7.033  1.00  0.00     0.009 C 
HETATM   21  C13 UNL     1      32.261  20.208   7.166  1.00  0.00     0.005 C 
HETATM   22  C14 UNL     1      31.590  21.532   6.793  1.00  0.00    -0.012 C 
HETATM   23  C16 UNL     1      30.518  21.772   7.807  1.00  0.00     0.029 C 
ENDBRANCH  13  16
BRANCH  15  24
HETATM   24  C19 UNL     1      28.929  23.529  13.373  1.00  0.00     0.209 C 
HETATM   25  O3  UNL     1      28.166  24.507  13.675  1.00  0.00    -0.646 OA
HETATM   26  O4  UNL     1      29.776  23.116  14.381  1.00  0.00    -0.646 OA
ENDBRANCH  15  24
ENDBRANCH   9  10
ENDBRANCH   6   9
ENDBRANCH   5   6
ENDBRANCH   4   5
ENDBRANCH   3   4
TORSDOF 8
ENDMDL
MODEL 3
REMARK VINA RESULT: -8.403387911      1.475      2.097
REMARK  8 active torsions:
REMARK  status: ('A' for Active; 'I' for Inactive)
REMARK    1  A    between atoms: C3_3  and  O1_4 
REMARK    2  A    between atoms: O1_4  and  C4_5 
REMARK    3  A    between atoms: C4_5  and  C5_6 
REMARK    4  A    between atoms: C5_6  and  O2_7 
REMARK    5  A    between atoms: C5_6  and  C6_9 
REMARK    6  A    between atoms: C6_9  and  N1_10 
REMARK    7  A    between atoms: N2_13  and  C9_14 
REMARK    8  A    between atoms: C18_23  and  C19_24 
ROOT
HETATM    1  C1  UNL     1      29.393  20.146  17.581  1.00  0.00     0.014 C 
HETATM    2  C2  UNL     1      28.544  19.344  17.281  1.00  0.00    -0.091 C 
HETATM    3  C3  UNL     1      27.494  18.387  16.927  1.00  0.00     0.260 C 
ENDROOT
BRANCH   3   4
HETATM    4  O1  UNL     1      27.496  18.063  15.609  1.00  0.00    -0.377 OA
BRANCH   4   5
HETATM    5  C4  UNL     1      26.863  18.857  14.718  1.00  0.00     0.202 C 
BRANCH   5   6
HETATM    6  C5  UNL     1      27.666  19.366  13.556  1.00  0.00     0.170 C 
BRANCH   6   7
HETATM    7  O2  UNL     1      28.731  18.499  13.325  1.00  0.00    -0.392 OA
ATOM      8  H2  UNL     1      28.461  17.835  12.700  1.00  0.00     0.210 HD
ENDBRANCH   6   7
BRANCH   6   9
HETATM    9  C6  UNL     1      28.213  20.748  13.727  1.00  0.00     0.307 C 
BRANCH   9  10
HETATM   10  N1  UNL     1      27.576  21.747  12.889  1.00  0.00     0.109 N 
HETATM   11  C7  UNL     1      26.987  21.130  11.712  1.00  0.00     0.293 C 
HETATM   12  C8  UNL     1      27.875  21.376  10.527  1.00  0.00     0.147 C 
HETATM   13  N2  UNL     1      29.243  21.279  10.878  1.00  0.00    -0.404 N 
HETATM   14  C17 UNL     1      29.682  22.269  11.813  1.00  0.00     0.164 C 
HETATM   15  C18 UNL     1      28.459  22.814  12.531  1.00  0.00     0.340 C 
BRANCH  13  16
HETATM   16  C9  UNL     1      30.134  21.028   9.788  1.00  0.00     0.080 C 
HETATM   17  C10 UNL     1      30.294  22.163   8.840  1.00  0.00     0.029 C 
HETATM   18  C11 UNL     1      31.504  22.023   7.972  1.00  0.00    -0.012 C 
HETATM   19  C12 UNL     1      32.669  22.820   8.521  1.00  0.00     0.005 C 
HETATM   20  C15 UNL     1      32.068  20.615   7.991  1.00  0.00     0.009 C 
HETATM   21  C13 UNL     1      33.172  21.962   9.643  1.00  0.00     0.005 C 
HETATM   22  C14 UNL     1      32.589  20.564   9.427  1.00  0.00    -0.012 C 
HETATM   23  C16 UNL     1      31.403  20.449  10.330  1.00  0.00     0.029 C 
ENDBRANCH  13  16
BRANCH  15  24
HETATM   24  C19 UNL     1      28.760  23.758  13.602  1.00  0.00     0.209 C 
HETATM   25  O3  UNL     1      28.104  24.849  13.701  1.00  0.00    -0.646 OA
HETATM   26  O4  UNL     1      29.735  23.573  14.562  1.00  0.00    -0.646 OA
ENDBRANCH  15  24
ENDBRANCH   9  10
ENDBRANCH   6   9
ENDBRANCH   5   6
ENDBRANCH   4   5
ENDBRANCH   3   4
TORSDOF 8
ENDMDL
MODEL 4
REMARK VINA RESULT: -8.297029890      1.332      1.504
REMARK  8 active torsions:
REMARK  status: ('A' for Active; 'I' for Inactive)
REMARK    1  A    between atoms: C3_3  and  O1_4 
REMARK    2  A    between atoms: O1_4  and  C4_5 
REMARK    3  A    between atoms: C4_5  and  C5_6 
REMARK    4  A    between atoms: C5_6  and  O2_7 
REMARK    5  A    between atoms: C5_6  and  C6_9 
REMARK    6  A    between atoms: C6_9  and  N1_10 
REMARK    7  A    between atoms: N2_13  and  C9_14 
REMARK    8  A    between atoms: C18_23  and  C19_24 
ROOT
HETATM    1  C1  UNL     1      28.628  19.830  16.697  1.00  0.00     0.014 C 
HETATM    2  C2  UNL     1      27.867  19.172  16.034  1.00  0.00    -0.091 C 
HETATM    3  C3  UNL     1      26.920  18.381  15.244  1.00  0.00     0.260 C 
ENDROOT
BRANCH   3   4
HETATM    4  O1  UNL     1      26.932  18.705  13.925  1.00  0.00    -0.377 OA
BRANCH   4   5
HETATM    5  C4  UNL     1      27.939  18.275  13.134  1.00  0.00     0.202 C 
BRANCH   5   6
HETATM    6  C5  UNL     1      28.512  19.257  12.154  1.00  0.00     0.170 C 
BRANCH   6   7
HETATM    7  O2  UNL     1      29.711  18.755  11.655  1.00  0.00    -0.392 OA
ATOM      8  H2  UNL     1      29.748  18.912  10.718  1.00  0.00     0.210 HD
ENDBRANCH   6   7
BRANCH   6   9
HETATM    9  C6  UNL     1      28.768  20.623  12.709  1.00  0.00     0.307 C 
BRANCH   9  10
HETATM   10  N1  UNL     1      28.013  21.679  12.059  1.00  0.00     0.109 N 
HETATM   11  C7  UNL     1      27.713  21.323  10.682  1.00  0.00     0.293 C 
HETATM   12  C8  UNL     1      28.645  22.061   9.765  1.00  0.00     0.147 C 
HETATM   13  N2  UNL     1      29.952  22.131  10.304  1.00  0.00    -0.404 N 
HETATM   14  C17 UNL     1      30.048  22.877  11.520  1.00  0.00     0.164 C 
HETATM   15  C18 UNL     1      28.662  22.951  12.138  1.00  0.00     0.340 C 
BRANCH  13  16
HETATM   16  C9  UNL     1      30.989  22.376   9.350  1.00  0.00     0.080 C 
HETATM   17  C10 UNL     1      32.323  21.835   9.727  1.00  0.00     0.029 C 
HETATM   18  C11 UNL     1      33.259  21.749   8.564  1.00  0.00    -0.012 C 
HETATM   19  C12 UNL     1      33.286  20.350   7.984  1.00  0.00     0.005 C 
HETATM   20  C15 UNL     1      32.779  22.558   7.375  1.00  0.00     0.009 C 
HETATM   21  C13 UNL     1      32.021  20.290   7.180  1.00  0.00     0.005 C 
HETATM   22  C14 UNL     1      31.557  21.734   6.976  1.00  0.00    -0.012 C 
HETATM   23  C16 UNL     1      30.491  21.991   7.992  1.00  0.00     0.029 C 
ENDBRANCH  13  16
BRANCH  15  24
HETATM   24  C19 UNL     1      28.621  23.590  13.450  1.00  0.00     0.209 C 
HETATM   25  O3  UNL     1      28.130  24.761  13.579  1.00  0.00    -0.646 OA
HETATM   26  O4  UNL     1      29.085  23.019  14.617  1.00  0.00    -0.646 OA
ENDBRANCH  15  24
ENDBRANCH   9  10
ENDBRANCH   6   9
ENDBRANCH   5   6
ENDBRANCH   4   5
ENDBRANCH   3   4
TORSDOF 8
ENDMDL
MODEL 5
REMARK VINA RESULT: -8.263027387      1.632      2.782
REMARK  8 active torsions:
REMARK  status: ('A' for Active; 'I' for Inactive)
REMARK    1  A    between atoms: C3_3  and  O1_4 
REMARK    2  A    between atoms: O1_4  and  C4_5 
REMARK    3  A    between atoms: C4_5  and  C5_6 
REMARK    4  A    between atoms: C5_6  and  O2_7 
REMARK    5  A    between atoms: C5_6  and  C6_9 
REMARK    6  A    between atoms: C6_9  and  N1_10 
REMARK    7  A    between atoms: N2_13  and  C9_14 
REMARK    8  A    between atoms: C18_23  and  C19_24 
ROOT
HETATM    1  C1  UNL     1      25.239  18.398  14.761  1.00  0.00     0.014 C 
HETATM    2  C2  UNL     1      26.295  18.657  15.280  1.00  0.00    -0.091 C 
HETATM    3  C3  UNL     1      27.591  18.952  15.895  1.00  0.00     0.260 C 
ENDROOT
BRANCH   3   4
HETATM    4  O1  UNL     1      27.969  20.246  15.739  1.00  0.00    -0.377 OA
BRANCH   4   5
HETATM    5  C4  UNL     1      29.262  20.597  15.911  1.00  0.00     0.202 C 
BRANCH   5   6
HETATM    6  C5  UNL     1      30.133  20.635  14.689  1.00  0.00     0.170 C 
BRANCH   6   7
HETATM    7  O2  UNL     1      31.179  21.529  14.903  1.00  0.00    -0.392 OA
ATOM      8  H2  UNL     1      31.222  21.742  15.828  1.00  0.00     0.210 HD
ENDBRANCH   6   7
BRANCH   6   9
HETATM    9  C6  UNL     1      29.431  21.026  13.427  1.00  0.00     0.307 C 
BRANCH   9  10
HETATM   10  N1  UNL     1      29.208  19.927  12.506  1.00  0.00     0.109 N 
HETATM   11  C7  UNL     1      30.458  19.249  12.204  1.00  0.00     0.293 C 
HETATM   12  C8  UNL     1      30.939  19.677  10.848  1.00  0.00     0.147 C 
HETATM   13  N2  UNL     1      30.707  21.056  10.629  1.00  0.00    -0.404 N 
HETATM   14  C17 UNL     1      29.325  21.423  10.605  1.00  0.00     0.164 C 
HETATM   15  C18 UNL     1      28.535  20.333  11.311  1.00  0.00     0.340 C 
BRANCH  13  16
HETATM   16  C9  UNL     1      31.518  21.655   9.615  1.00  0.00     0.080 C 
HETATM   17  C10 UNL     1      32.864  21.042   9.450  1.00  0.00     0.029 C 
HETATM   18  C11 UNL     1      33.509  21.406   8.152  1.00  0.00    -0.012 C 
HETATM   19  C12 UNL     1      33.312  20.318   7.117  1.00  0.00     0.005 C 
HETATM   20  C15 UNL     1      32.829  22.585   7.480  1.00  0.00     0.009 C 
HETATM   21  C13 UNL     1      31.899  20.530   6.662  1.00  0.00     0.005 C 
HETATM   22  C14 UNL     1      31.497  21.938   7.106  1.00  0.00    -0.012 C 
HETATM   23  C16 UNL     1      30.705  21.783   8.365  1.00  0.00     0.029 C 
ENDBRANCH  13  16
BRANCH  15  24
HETATM   24  C19 UNL     1      27.114  20.624  11.466  1.00  0.00     0.209 C 
HETATM   25  O3  UNL     1      26.345  20.632  10.447  1.00  0.00    -0.646 OA
HETATM   26  O4  UNL     1      26.495  20.903  12.668  1.00  0.00    -0.646 OA
ENDBRANCH  15  24
ENDBRANCH   9  10
ENDBRANCH   6   9
ENDBRANCH   5   6
ENDBRANCH   4   5
ENDBRANCH   3   4
TORSDOF 8
ENDMDL
