MODEL 1
REMARK VINA RESULT: -7.591382503      0.000      0.000
REMARK  7 active torsions:
REMARK  status: ('A' for Active; 'I' for Inactive)
REMARK    1  A    between atoms: C6_6  and  C7_7 
REMARK    2  A    between atoms: C7_7  and  C8_8 
REMARK    3  A    between atoms: C7_7  and  N1_11 
REMARK    4  A    between atoms: C11_14  and  C12_15 
REMARK    5  A    between atoms: C12_15  and  O4_17 
REMARK    6  A    between atoms: O4_17  and  C13_18 
REMARK    7  A    between atoms: C13_18  and  C14_19 
ROOT
HETATM    1  N1  UNL     1      35.350   3.719   9.444  1.00  0.00     0.103 N 
HETATM    2  C9  UNL     1      36.765   3.790   9.679  1.00  0.00     0.274 C 
HETATM    3  C10 UNL     1      37.096   5.145  10.295  1.00  0.00     0.045 C 
HETATM    4  C11 UNL     1      36.676   6.309   9.469  1.00  0.00     0.089 C 
HETATM    5  C15 UNL     1      35.323   6.101   8.824  1.00  0.00     0.045 C 
HETATM    6  C16 UNL     1      35.146   4.690   8.337  1.00  0.00     0.274 C 
ENDROOT
BRANCH   1   7
HETATM    7  C7  UNL     1      34.844   2.451   9.043  1.00  0.00     0.326 C 
BRANCH   7   8
HETATM    8  C6  UNL     1      33.475   2.190   9.686  1.00  0.00     0.030 C 
HETATM    9  C5  UNL     1      33.541   2.277  11.191  1.00  0.00     0.007 C 
HETATM   10  C4  UNL     1      32.167   2.262  11.820  1.00  0.00     0.001 C 
HETATM   11  C3  UNL     1      31.719   0.862  12.176  1.00  0.00     0.004 C 
HETATM   12  C2  UNL     1      31.218   0.187  10.940  1.00  0.00    -0.019 C 
HETATM   13  C1  UNL     1      30.693  -1.190  11.357  1.00  0.00     0.010 C 
HETATM   14  C18 UNL     1      32.448  -0.092  10.064  1.00  0.00     0.005 C 
HETATM   15  C17 UNL     1      32.748   1.033   9.149  1.00  0.00     0.007 C 
ENDBRANCH   7   8
BRANCH   7  16
HETATM   16  C8  UNL     1      35.719   1.307   9.100  1.00  0.00     0.208 C 
HETATM   17  O1  UNL     1      36.208   0.917   7.955  1.00  0.00    -0.646 OA
HETATM   18  O2  UNL     1      36.164   0.511  10.102  1.00  0.00    -0.646 OA
ENDBRANCH   7  16
ENDBRANCH   1   7
BRANCH   4  19
HETATM   19  C12 UNL     1      37.728   6.576   8.446  1.00  0.00     0.263 C 
HETATM   20  O3  UNL     1      38.903   6.242   8.707  1.00  0.00    -0.265 OA
BRANCH  19  21
HETATM   21  O4  UNL     1      37.437   7.171   7.246  1.00  0.00    -0.312 OA
BRANCH  21  22
HETATM   22  C13 UNL     1      37.682   6.529   6.026  1.00  0.00     0.278 C 
BRANCH  22  23
HETATM   23  C14 UNL     1      36.552   6.696   5.117  1.00  0.00     0.255 C 
HETATM   24  N2  UNL     1      36.559   7.735   4.153  1.00  0.00    -0.060 NA
HETATM   25  O5  UNL     1      35.528   5.942   5.130  1.00  0.00    -0.274 OA
ENDBRANCH  22  23
ENDBRANCH  21  22
ENDBRANCH  19  21
ENDBRANCH   4  19
TORSDOF 7
ENDMDL
MODEL 2
REMARK VINA RESULT: -7.520359806      2.909      4.233
REMARK  7 active torsions:
REMARK  status: ('A' for Active; 'I' for Inactive)
REMARK    1  A    between atoms: C6_6  and  C7_7 
REMARK    2  A    between atoms: C7_7  and  C8_8 
REMARK    3  A    between atoms: C7_7  and  N1_11 
REMARK    4  A    between atoms: C11_14  and  C12_15 
REMARK    5  A    between atoms: C12_15  and  O4_17 
REMARK    6  A    between atoms: O4_17  and  C13_18 
REMARK    7  A    between atoms: C13_18  and  C14_19 
ROOT
HETATM    1  N1  UNL     1      35.323   2.131   8.273  1.00  0.00     0.103 N 
HETATM    2  C9  UNL     1      35.971   2.647   7.099  1.00  0.00     0.274 C 
HETATM    3  C10 UNL     1      36.187   1.504   6.112  1.00  0.00     0.045 C 
HETATM    4  C11 UNL     1      36.985   0.373   6.657  1.00  0.00     0.089 C 
HETATM    5  C15 UNL     1      36.628   0.052   8.093  1.00  0.00     0.045 C 
HETATM    6  C16 UNL     1      36.382   1.296   8.899  1.00  0.00     0.274 C 
ENDROOT
BRANCH   1   7
HETATM    7  C7  UNL     1      34.880   3.097   9.219  1.00  0.00     0.326 C 
BRANCH   7   8
HETATM    8  C6  UNL     1      33.549   2.662   9.848  1.00  0.00     0.030 C 
HETATM    9  C5  UNL     1      33.656   2.537  11.348  1.00  0.00     0.007 C 
HETATM   10  C4  UNL     1      32.304   2.347  11.998  1.00  0.00     0.001 C 
HETATM   11  C3  UNL     1      31.950   0.886  12.159  1.00  0.00     0.004 C 
HETATM   12  C2  UNL     1      31.452   0.364  10.850  1.00  0.00    -0.019 C 
HETATM   13  C1  UNL     1      31.022  -1.088  11.076  1.00  0.00     0.010 C 
HETATM   14  C18 UNL     1      32.669   0.290   9.916  1.00  0.00     0.005 C 
HETATM   15  C17 UNL     1      32.874   1.550   9.166  1.00  0.00     0.007 C 
ENDBRANCH   7   8
BRANCH   7  16
HETATM   16  C8  UNL     1      34.896   4.489   8.847  1.00  0.00     0.208 C 
HETATM   17  O1  UNL     1      35.834   5.207   9.400  1.00  0.00    -0.646 OA
HETATM   18  O2  UNL     1      34.133   5.254   8.029  1.00  0.00    -0.646 OA
ENDBRANCH   7  16
ENDBRANCH   1   7
BRANCH   4  19
HETATM   19  C12 UNL     1      38.434   0.696   6.519  1.00  0.00     0.263 C 
HETATM   20  O3  UNL     1      39.259  -0.018   7.128  1.00  0.00    -0.265 OA
BRANCH  19  21
HETATM   21  O4  UNL     1      38.873   1.744   5.752  1.00  0.00    -0.312 OA
BRANCH  21  22
HETATM   22  C13 UNL     1      39.570   1.539   4.555  1.00  0.00     0.278 C 
BRANCH  22  23
HETATM   23  C14 UNL     1      38.682   1.691   3.406  1.00  0.00     0.255 C 
HETATM   24  N2  UNL     1      38.696   2.888   2.647  1.00  0.00    -0.060 NA
HETATM   25  O5  UNL     1      37.872   0.788   3.025  1.00  0.00    -0.274 OA
ENDBRANCH  22  23
ENDBRANCH  21  22
ENDBRANCH  19  21
ENDBRANCH   4  19
TORSDOF 7
ENDMDL
MODEL 3
REMARK VINA RESULT: -7.513993353      2.690      4.593
REMARK  7 active torsions:
REMARK  status: ('A' for Active; 'I' for Inactive)
REMARK    1  A    between atoms: C6_6  and  C7_7 
REMARK    2  A    between atoms: C7_7  and  C8_8 
REMARK    3  A    between atoms: C7_7  and  N1_11 
REMARK    4  A    between atoms: C11_14  and  C12_15 
REMARK    5  A    between atoms: C12_15  and  O4_17 
REMARK    6  A    between atoms: O4_17  and  C13_18 
REMARK    7  A    between atoms: C13_18  and  C14_19 
ROOT
HETATM    1  N1  UNL     1      35.323   2.172   8.231  1.00  0.00     0.103 N 
HETATM    2  C9  UNL     1      36.035   2.681   7.091  1.00  0.00     0.274 C 
HETATM    3  C10 UNL     1      36.222   1.553   6.081  1.00  0.00     0.045 C 
HETATM    4  C11 UNL     1      36.940   0.367   6.620  1.00  0.00     0.089 C 
HETATM    5  C15 UNL     1      36.520   0.030   8.035  1.00  0.00     0.045 C 
HETATM    6  C16 UNL     1      36.315   1.265   8.866  1.00  0.00     0.274 C 
ENDROOT
BRANCH   1   7
HETATM    7  C7  UNL     1      34.902   3.136   9.188  1.00  0.00     0.326 C 
BRANCH   7   8
HETATM    8  C6  UNL     1      33.582   2.704   9.841  1.00  0.00     0.030 C 
HETATM    9  C5  UNL     1      33.724   2.544  11.334  1.00  0.00     0.007 C 
HETATM   10  C4  UNL     1      32.387   2.357  12.014  1.00  0.00     0.001 C 
HETATM   11  C3  UNL     1      32.016   0.897  12.150  1.00  0.00     0.004 C 
HETATM   12  C2  UNL     1      31.478   0.413  10.842  1.00  0.00    -0.019 C 
HETATM   13  C1  UNL     1      31.033  -1.039  11.046  1.00  0.00     0.010 C 
HETATM   14  C18 UNL     1      32.670   0.344   9.876  1.00  0.00     0.005 C 
HETATM   15  C17 UNL     1      32.874   1.618   9.150  1.00  0.00     0.007 C 
ENDBRANCH   7   8
BRANCH   7  16
HETATM   16  C8  UNL     1      34.917   4.530   8.820  1.00  0.00     0.208 C 
HETATM   17  O1  UNL     1      35.854   5.247   9.376  1.00  0.00    -0.646 OA
HETATM   18  O2  UNL     1      34.154   5.296   8.004  1.00  0.00    -0.646 OA
ENDBRANCH   7  16
ENDBRANCH   1   7
BRANCH   4  19
HETATM   19  C12 UNL     1      38.408   0.614   6.535  1.00  0.00     0.263 C 
HETATM   20  O3  UNL     1      38.849   1.210   5.529  1.00  0.00    -0.265 OA
BRANCH  19  21
HETATM   21  O4  UNL     1      39.269   0.209   7.521  1.00  0.00    -0.312 OA
BRANCH  21  22
HETATM   22  C13 UNL     1      40.276   1.049   8.012  1.00  0.00     0.278 C 
BRANCH  22  23
HETATM   23  C14 UNL     1      39.736   1.985   8.994  1.00  0.00     0.255 C 
HETATM   24  N2  UNL     1      39.482   3.331   8.631  1.00  0.00    -0.060 NA
HETATM   25  O5  UNL     1      39.467   1.661  10.193  1.00  0.00    -0.274 OA
ENDBRANCH  22  23
ENDBRANCH  21  22
ENDBRANCH  19  21
ENDBRANCH   4  19
TORSDOF 7
ENDMDL
MODEL 4
REMARK VINA RESULT: -7.446183668      1.343      1.809
REMARK  7 active torsions:
REMARK  status: ('A' for Active; 'I' for Inactive)
REMARK    1  A    between atoms: C6_6  and  C7_7 
REMARK    2  A    between atoms: C7_7  and  C8_8 
REMARK    3  A    between atoms: C7_7  and  N1_11 
REMARK    4  A    between atoms: C11_14  and  C12_15 
REMARK    5  A    between atoms: C12_15  and  O4_17 
REMARK    6  A    between atoms: O4_17  and  C13_18 
REMARK    7  A    between atoms: C13_18  and  C14_19 
ROOT
HETATM    1  N1  UNL     1      35.388   3.785   9.256  1.00  0.00     0.103 N 
HETATM    2  C9  UNL     1      36.620   4.125   8.598  1.00  0.00     0.274 C 
HETATM    3  C10 UNL     1      36.779   5.641   8.601  1.00  0.00     0.045 C 
HETATM    4  C11 UNL     1      35.657   6.372   7.952  1.00  0.00     0.089 C 
HETATM    5  C15 UNL     1      34.308   5.770   8.280  1.00  0.00     0.045 C 
HETATM    6  C16 UNL     1      34.356   4.268   8.301  1.00  0.00     0.274 C 
ENDROOT
BRANCH   1   7
HETATM    7  C7  UNL     1      35.173   2.401   9.505  1.00  0.00     0.326 C 
BRANCH   7   8
HETATM    8  C6  UNL     1      33.721   2.153   9.940  1.00  0.00     0.030 C 
HETATM    9  C5  UNL     1      33.555   2.288  11.433  1.00  0.00     0.007 C 
HETATM   10  C4  UNL     1      32.100   2.286  11.843  1.00  0.00     0.001 C 
HETATM   11  C3  UNL     1      31.604   0.896  12.172  1.00  0.00     0.004 C 
HETATM   12  C2  UNL     1      31.300   0.179  10.897  1.00  0.00    -0.019 C 
HETATM   13  C1  UNL     1      30.718  -1.188  11.273  1.00  0.00     0.010 C 
HETATM   14  C18 UNL     1      32.650  -0.121  10.229  1.00  0.00     0.005 C 
HETATM   15  C17 UNL     1      33.086   0.975   9.335  1.00  0.00     0.007 C 
ENDBRANCH   7   8
BRANCH   7  16
HETATM   16  C8  UNL     1      36.130   1.685  10.311  1.00  0.00     0.208 C 
HETATM   17  O1  UNL     1      36.219   0.406  10.072  1.00  0.00    -0.646 OA
HETATM   18  O2  UNL     1      36.986   2.045  11.298  1.00  0.00    -0.646 OA
ENDBRANCH   7  16
ENDBRANCH   1   7
BRANCH   4  19
HETATM   19  C12 UNL     1      35.892   6.402   6.479  1.00  0.00     0.263 C 
HETATM   20  O3  UNL     1      34.897   6.447   5.724  1.00  0.00    -0.265 OA
BRANCH  19  21
HETATM   21  O4  UNL     1      37.154   6.382   5.946  1.00  0.00    -0.312 OA
BRANCH  21  22
HETATM   22  C13 UNL     1      37.543   5.418   5.009  1.00  0.00     0.278 C 
BRANCH  22  23
HETATM   23  C14 UNL     1      37.540   5.975   3.659  1.00  0.00     0.255 C 
HETATM   24  N2  UNL     1      37.281   5.140   2.543  1.00  0.00    -0.060 NA
HETATM   25  O5  UNL     1      37.758   7.202   3.410  1.00  0.00    -0.274 OA
ENDBRANCH  22  23
ENDBRANCH  21  22
ENDBRANCH  19  21
ENDBRANCH   4  19
TORSDOF 7
ENDMDL
MODEL 5
REMARK VINA RESULT: -7.390464296      2.799      3.668
REMARK  7 active torsions:
REMARK  status: ('A' for Active; 'I' for Inactive)
REMARK    1  A    between atoms: C6_6  and  C7_7 
REMARK    2  A    between atoms: C7_7  and  C8_8 
REMARK    3  A    between atoms: C7_7  and  N1_11 
REMARK    4  A    between atoms: C11_14  and  C12_15 
REMARK    5  A    between atoms: C12_15  and  O4_17 
REMARK    6  A    between atoms: O4_17  and  C13_18 
REMARK    7  A    between atoms: C13_18  and  C14_19 
ROOT
HETATM    1  N1  UNL     1      35.720   2.607  10.027  1.00  0.00     0.103 N 
HETATM    2  C9  UNL     1      36.625   1.492   9.965  1.00  0.00     0.274 C 
HETATM    3  C10 UNL     1      37.548   1.537  11.178  1.00  0.00     0.045 C 
HETATM    4  C11 UNL     1      38.328   2.797  11.303  1.00  0.00     0.089 C 
HETATM    5  C15 UNL     1      37.511   4.022  10.951  1.00  0.00     0.045 C 
HETATM    6  C16 UNL     1      36.608   3.772   9.775  1.00  0.00     0.274 C 
ENDROOT
BRANCH   1   7
HETATM    7  C7  UNL     1      34.669   2.614   9.069  1.00  0.00     0.326 C 
BRANCH   7   8
HETATM    8  C6  UNL     1      33.327   2.291   9.741  1.00  0.00     0.030 C 
HETATM    9  C5  UNL     1      33.441   2.295  11.245  1.00  0.00     0.007 C 
HETATM   10  C4  UNL     1      32.089   2.218  11.916  1.00  0.00     0.001 C 
HETATM   11  C3  UNL     1      31.678   0.792  12.207  1.00  0.00     0.004 C 
HETATM   12  C2  UNL     1      31.148   0.178  10.952  1.00  0.00    -0.019 C 
HETATM   13  C1  UNL     1      30.662  -1.231  11.307  1.00  0.00     0.010 C 
HETATM   14  C18 UNL     1      32.353  -0.028  10.022  1.00  0.00     0.005 C 
HETATM   15  C17 UNL     1      32.603   1.151   9.162  1.00  0.00     0.007 C 
ENDBRANCH   7   8
BRANCH   7  16
HETATM   16  C8  UNL     1      34.859   1.909   7.827  1.00  0.00     0.208 C 
HETATM   17  O1  UNL     1      34.671   2.615   6.746  1.00  0.00    -0.646 OA
HETATM   18  O2  UNL     1      35.196   0.635   7.509  1.00  0.00    -0.646 OA
ENDBRANCH   7  16
ENDBRANCH   1   7
BRANCH   4  19
HETATM   19  C12 UNL     1      39.545   2.696  10.447  1.00  0.00     0.263 C 
HETATM   20  O3  UNL     1      40.266   3.709  10.323  1.00  0.00    -0.265 OA
BRANCH  19  21
HETATM   21  O4  UNL     1      39.885   1.534   9.805  1.00  0.00    -0.312 OA
BRANCH  21  22
HETATM   22  C13 UNL     1      40.472   1.539   8.534  1.00  0.00     0.278 C 
BRANCH  22  23
HETATM   23  C14 UNL     1      39.506   1.136   7.515  1.00  0.00     0.255 C 
HETATM   24  N2  UNL     1      38.601   2.084   6.975  1.00  0.00    -0.060 NA
HETATM   25  O5  UNL     1      39.422  -0.049   7.062  1.00  0.00    -0.274 OA
ENDBRANCH  22  23
ENDBRANCH  21  22
ENDBRANCH  19  21
ENDBRANCH   4  19
TORSDOF 7
ENDMDL
