MODEL 1
REMARK VINA RESULT: -6.475899221      0.000      0.000
REMARK  10 active torsions:
REMARK  status: ('A' for Active; 'I' for Inactive)
REMARK    1  A    between atoms: C2_2  and  O1_3 
REMARK    2  A    between atoms: C2_2  and  C3_5 
REMARK    3  A    between atoms: C3_5  and  C10_15 
REMARK    4  A    between atoms: C4_6  and  O2_7 
REMARK    5  A    between atoms: C4_6  and  N1_9 
REMARK    6  A    between atoms: N1_9  and  C5_10 
REMARK    7  A    between atoms: N1_9  and  C7_12 
REMARK    8  A    between atoms: N2_17  and  C12_19 
REMARK    9  A    between atoms: C16_24  and  O3_25 
REMARK   10  A    between atoms: C17_27  and  O4_29 
ROOT
HETATM    1  C10 UNL     1      35.769   3.826   7.132  1.00  0.00     0.020 C 
HETATM    2  C11 UNL     1      37.126   3.377   7.565  1.00  0.00     0.069 C 
HETATM    3  N2  UNL     1      34.751   3.378   7.716  1.00  0.00    -0.361 N 
ATOM      4  H2  UNL     1      33.849   3.712   7.377  1.00  0.00     0.161 HD
ENDROOT
BRANCH   1   5
HETATM    5  C3  UNL     1      35.731   4.813   5.980  1.00  0.00     0.069 C 
HETATM    6  C4  UNL     1      35.537   6.180   6.336  1.00  0.00     0.153 C 
BRANCH   5   7
HETATM    7  C2  UNL     1      36.586   4.375   4.870  1.00  0.00     0.072 C 
HETATM    8  C1  UNL     1      36.180   3.390   4.053  1.00  0.00     0.051 C 
BRANCH   7   9
HETATM    9  O1  UNL     1      37.837   4.883   4.556  1.00  0.00    -0.360 OA
ATOM     10  H1  UNL     1      38.389   5.037   5.313  1.00  0.00     0.217 HD
ENDBRANCH   7   9
ENDBRANCH   5   7
BRANCH   6  11
HETATM   11  O2  UNL     1      34.216   6.433   6.535  1.00  0.00    -0.345 OA
ATOM     12  H2  UNL     1      34.003   7.314   6.251  1.00  0.00     0.219 HD
ENDBRANCH   6  11
BRANCH   6  13
HETATM   13  N1  UNL     1      36.250   7.337   6.551  1.00  0.00    -0.358 N 
BRANCH  13  14
HETATM   14  C5  UNL     1      37.102   7.353   7.788  1.00  0.00     0.121 C 
HETATM   15  C6  UNL     1      36.319   6.998   8.997  1.00  0.00     0.026 C 
ENDBRANCH  13  14
BRANCH  13  16
HETATM   16  C7  UNL     1      36.275   8.540   5.791  1.00  0.00     0.078 C 
HETATM   17  C8  UNL     1      36.960   8.418   4.438  1.00  0.00     0.032 C 
HETATM   18  C9  UNL     1      36.788   9.744   6.504  1.00  0.00     0.032 C 
ENDBRANCH  13  16
ENDBRANCH   6  13
ENDBRANCH   1   5
BRANCH   3  19
HETATM   19  C12 UNL     1      34.720   2.467   8.785  1.00  0.00     0.358 C 
HETATM   20  N3  UNL     1      34.107   2.983   9.988  1.00  0.00     0.117 N 
HETATM   21  C13 UNL     1      35.087   3.139  11.037  1.00  0.00     0.313 C 
HETATM   22  C14 UNL     1      33.039   2.086  10.350  1.00  0.00     0.252 C 
HETATM   23  C15 UNL     1      32.759   2.024  11.812  1.00  0.00     0.046 C 
HETATM   24  C16 UNL     1      33.575   0.739   9.845  1.00  0.00     0.189 C 
HETATM   25  C17 UNL     1      34.012   1.167   8.455  1.00  0.00     0.130 C 
HETATM   26  C18 UNL     1      32.736   1.421   7.670  1.00  0.00     0.052 C 
BRANCH  24  27
HETATM   27  O3  UNL     1      34.620   0.308  10.628  1.00  0.00    -0.390 OA
ATOM     28  H3  UNL     1      34.579  -0.633  10.752  1.00  0.00     0.210 HD
ENDBRANCH  24  27
BRANCH  25  29
HETATM   29  O4  UNL     1      34.834   0.246   7.844  1.00  0.00    -0.383 OA
ATOM     30  H4  UNL     1      35.003  -0.517   8.384  1.00  0.00     0.210 HD
ENDBRANCH  25  29
ENDBRANCH   3  19
TORSDOF 10
ENDMDL
MODEL 2
REMARK VINA RESULT: -6.431510325      0.784      1.664
REMARK  10 active torsions:
REMARK  status: ('A' for Active; 'I' for Inactive)
REMARK    1  A    between atoms: C2_2  and  O1_3 
REMARK    2  A    between atoms: C2_2  and  C3_5 
REMARK    3  A    between atoms: C3_5  and  C10_15 
REMARK    4  A    between atoms: C4_6  and  O2_7 
REMARK    5  A    between atoms: C4_6  and  N1_9 
REMARK    6  A    between atoms: N1_9  and  C5_10 
REMARK    7  A    between atoms: N1_9  and  C7_12 
REMARK    8  A    between atoms: N2_17  and  C12_19 
REMARK    9  A    between atoms: C16_24  and  O3_25 
REMARK   10  A    between atoms: C17_27  and  O4_29 
ROOT
HETATM    1  C10 UNL     1      35.611   4.135   7.264  1.00  0.00     0.020 C 
HETATM    2  C11 UNL     1      36.982   3.620   7.561  1.00  0.00     0.069 C 
HETATM    3  N2  UNL     1      34.622   3.649   7.866  1.00  0.00    -0.361 N 
ATOM      4  H2  UNL     1      33.708   4.031   7.621  1.00  0.00     0.161 HD
ENDROOT
BRANCH   1   5
HETATM    5  C3  UNL     1      35.524   5.231   6.219  1.00  0.00     0.069 C 
HETATM    6  C4  UNL     1      35.539   6.568   6.715  1.00  0.00     0.153 C 
BRANCH   5   7
HETATM    7  C2  UNL     1      36.159   4.825   4.959  1.00  0.00     0.072 C 
HETATM    8  C1  UNL     1      37.120   5.586   4.411  1.00  0.00     0.051 C 
BRANCH   7   9
HETATM    9  O1  UNL     1      35.857   3.688   4.225  1.00  0.00    -0.360 OA
ATOM     10  H1  UNL     1      36.315   2.909   4.519  1.00  0.00     0.217 HD
ENDBRANCH   7   9
ENDBRANCH   5   7
BRANCH   6  11
HETATM   11  O2  UNL     1      34.297   6.931   7.132  1.00  0.00    -0.345 OA
ATOM     12  H2  UNL     1      34.279   7.015   8.079  1.00  0.00     0.219 HD
ENDBRANCH   6  11
BRANCH   6  13
HETATM   13  N1  UNL     1      36.403   7.620   6.918  1.00  0.00    -0.358 N 
BRANCH  13  14
HETATM   14  C5  UNL     1      36.231   8.789   5.992  1.00  0.00     0.121 C 
HETATM   15  C6  UNL     1      36.915  10.000   6.507  1.00  0.00     0.026 C 
ENDBRANCH  13  14
BRANCH  13  16
HETATM   16  C7  UNL     1      37.465   7.751   7.858  1.00  0.00     0.078 C 
HETATM   17  C8  UNL     1      38.719   6.964   7.507  1.00  0.00     0.032 C 
HETATM   18  C9  UNL     1      37.101   7.504   9.281  1.00  0.00     0.032 C 
ENDBRANCH  13  16
ENDBRANCH   6  13
ENDBRANCH   1   5
BRANCH   3  19
HETATM   19  C12 UNL     1      34.637   2.636   8.840  1.00  0.00     0.358 C 
HETATM   20  N3  UNL     1      34.062   3.024  10.109  1.00  0.00     0.117 N 
HETATM   21  C13 UNL     1      35.076   3.089  11.135  1.00  0.00     0.313 C 
HETATM   22  C14 UNL     1      33.015   2.083  10.417  1.00  0.00     0.252 C 
HETATM   23  C15 UNL     1      32.787   1.874  11.874  1.00  0.00     0.046 C 
HETATM   24  C16 UNL     1      33.545   0.799   9.763  1.00  0.00     0.189 C 
HETATM   25  C17 UNL     1      33.929   1.367   8.408  1.00  0.00     0.130 C 
HETATM   26  C18 UNL     1      32.624   1.681   7.696  1.00  0.00     0.052 C 
BRANCH  24  27
HETATM   27  O3  UNL     1      34.620   0.306  10.464  1.00  0.00    -0.390 OA
ATOM     28  H3  UNL     1      34.430  -0.561  10.804  1.00  0.00     0.210 HD
ENDBRANCH  24  27
BRANCH  25  29
HETATM   29  O4  UNL     1      34.737   0.520   7.681  1.00  0.00    -0.383 OA
ATOM     30  H4  UNL     1      34.606   0.596   6.743  1.00  0.00     0.210 HD
ENDBRANCH  25  29
ENDBRANCH   3  19
TORSDOF 10
ENDMDL
MODEL 3
REMARK VINA RESULT: -6.388536280      2.872      6.501
REMARK  10 active torsions:
REMARK  status: ('A' for Active; 'I' for Inactive)
REMARK    1  A    between atoms: C2_2  and  O1_3 
REMARK    2  A    between atoms: C2_2  and  C3_5 
REMARK    3  A    between atoms: C3_5  and  C10_15 
REMARK    4  A    between atoms: C4_6  and  O2_7 
REMARK    5  A    between atoms: C4_6  and  N1_9 
REMARK    6  A    between atoms: N1_9  and  C5_10 
REMARK    7  A    between atoms: N1_9  and  C7_12 
REMARK    8  A    between atoms: N2_17  and  C12_19 
REMARK    9  A    between atoms: C16_24  and  O3_25 
REMARK   10  A    between atoms: C17_27  and  O4_29 
ROOT
HETATM    1  C10 UNL     1      35.448   2.783   7.149  1.00  0.00     0.020 C 
HETATM    2  C11 UNL     1      35.021   2.185   5.848  1.00  0.00     0.069 C 
HETATM    3  N2  UNL     1      36.653   2.717   7.497  1.00  0.00    -0.361 N 
ATOM      4  H2  UNL     1      36.890   3.136   8.397  1.00  0.00     0.161 HD
ENDROOT
BRANCH   1   5
HETATM    5  C3  UNL     1      34.353   3.436   7.972  1.00  0.00     0.069 C 
HETATM    6  C4  UNL     1      33.504   2.548   8.697  1.00  0.00     0.153 C 
BRANCH   5   7
HETATM    7  C2  UNL     1      34.770   4.752   8.474  1.00  0.00     0.072 C 
HETATM    8  C1  UNL     1      34.332   5.872   7.875  1.00  0.00     0.051 C 
BRANCH   7   9
HETATM    9  O1  UNL     1      35.617   4.984   9.546  1.00  0.00    -0.360 OA
ATOM     10  H1  UNL     1      35.397   5.760  10.047  1.00  0.00     0.217 HD
ENDBRANCH   7   9
ENDBRANCH   5   7
BRANCH   6  11
HETATM   11  O2  UNL     1      32.534   2.055   7.882  1.00  0.00    -0.345 OA
ATOM     12  H2  UNL     1      31.680   2.155   8.288  1.00  0.00     0.219 HD
ENDBRANCH   6  11
BRANCH   6  13
HETATM   13  N1  UNL     1      33.343   2.017   9.955  1.00  0.00    -0.358 N 
BRANCH  13  14
HETATM   14  C5  UNL     1      34.599   1.879  10.767  1.00  0.00     0.121 C 
HETATM   15  C6  UNL     1      35.478   0.808  10.237  1.00  0.00     0.026 C 
ENDBRANCH  13  14
BRANCH  13  16
HETATM   16  C7  UNL     1      32.162   1.544  10.595  1.00  0.00     0.078 C 
HETATM   17  C8  UNL     1      31.863   2.200  11.934  1.00  0.00     0.032 C 
HETATM   18  C9  UNL     1      32.048   0.064  10.726  1.00  0.00     0.032 C 
ENDBRANCH  13  16
ENDBRANCH   6  13
ENDBRANCH   1   5
BRANCH   3  19
HETATM   19  C12 UNL     1      37.710   2.130   6.782  1.00  0.00     0.358 C 
HETATM   20  N3  UNL     1      38.618   3.079   6.177  1.00  0.00     0.117 N 
HETATM   21  C13 UNL     1      38.519   3.038   4.737  1.00  0.00     0.313 C 
HETATM   22  C14 UNL     1      39.943   2.777   6.654  1.00  0.00     0.252 C 
HETATM   23  C15 UNL     1      41.034   3.127   5.701  1.00  0.00     0.046 C 
HETATM   24  C16 UNL     1      39.867   1.256   6.852  1.00  0.00     0.189 C 
HETATM   25  C17 UNL     1      38.555   1.185   7.613  1.00  0.00     0.130 C 
HETATM   26  C18 UNL     1      38.833   1.764   8.990  1.00  0.00     0.052 C 
BRANCH  24  27
HETATM   27  O3  UNL     1      39.820   0.611   5.639  1.00  0.00    -0.390 OA
ATOM     28  H3  UNL     1      40.496   0.941   5.058  1.00  0.00     0.210 HD
ENDBRANCH  24  27
BRANCH  25  29
HETATM   29  O4  UNL     1      38.038  -0.091   7.671  1.00  0.00    -0.383 OA
ATOM     30  H4  UNL     1      38.702  -0.755   7.811  1.00  0.00     0.210 HD
ENDBRANCH  25  29
ENDBRANCH   3  19
TORSDOF 10
ENDMDL
MODEL 4
REMARK VINA RESULT: -6.379203882      3.422      6.479
REMARK  10 active torsions:
REMARK  status: ('A' for Active; 'I' for Inactive)
REMARK    1  A    between atoms: C2_2  and  O1_3 
REMARK    2  A    between atoms: C2_2  and  C3_5 
REMARK    3  A    between atoms: C3_5  and  C10_15 
REMARK    4  A    between atoms: C4_6  and  O2_7 
REMARK    5  A    between atoms: C4_6  and  N1_9 
REMARK    6  A    between atoms: N1_9  and  C5_10 
REMARK    7  A    between atoms: N1_9  and  C7_12 
REMARK    8  A    between atoms: N2_17  and  C12_19 
REMARK    9  A    between atoms: C16_24  and  O3_25 
REMARK   10  A    between atoms: C17_27  and  O4_29 
ROOT
HETATM    1  C10 UNL     1      36.925   1.241   7.956  1.00  0.00     0.020 C 
HETATM    2  C11 UNL     1      37.641   0.078   7.349  1.00  0.00     0.069 C 
HETATM    3  N2  UNL     1      37.585   2.205   8.414  1.00  0.00    -0.361 N 
ATOM      4  H2  UNL     1      37.048   2.970   8.823  1.00  0.00     0.161 HD
ENDROOT
BRANCH   1   5
HETATM    5  C3  UNL     1      35.410   1.152   7.976  1.00  0.00     0.069 C 
HETATM    6  C4  UNL     1      34.800   1.188   9.264  1.00  0.00     0.153 C 
BRANCH   5   7
HETATM    7  C2  UNL     1      34.821   1.767   6.780  1.00  0.00     0.072 C 
HETATM    8  C1  UNL     1      35.611   2.207   5.787  1.00  0.00     0.051 C 
BRANCH   7   9
HETATM    9  O1  UNL     1      33.469   1.966   6.549  1.00  0.00    -0.360 OA
ATOM     10  H1  UNL     1      32.928   1.218   6.770  1.00  0.00     0.217 HD
ENDBRANCH   7   9
ENDBRANCH   5   7
BRANCH   6  11
HETATM   11  O2  UNL     1      34.833  -0.045   9.836  1.00  0.00    -0.345 OA
ATOM     12  H2  UNL     1      34.174  -0.110  10.517  1.00  0.00     0.219 HD
ENDBRANCH   6  11
BRANCH   6  13
HETATM   13  N1  UNL     1      34.188   2.065  10.130  1.00  0.00    -0.358 N 
BRANCH  13  14
HETATM   14  C5  UNL     1      35.097   3.058  10.796  1.00  0.00     0.121 C 
HETATM   15  C6  UNL     1      35.372   4.223   9.920  1.00  0.00     0.026 C 
ENDBRANCH  13  14
BRANCH  13  16
HETATM   16  C7  UNL     1      32.821   2.151  10.516  1.00  0.00     0.078 C 
HETATM   17  C8  UNL     1      32.585   2.100  12.019  1.00  0.00     0.032 C 
HETATM   18  C9  UNL     1      31.896   1.203   9.833  1.00  0.00     0.032 C 
ENDBRANCH  13  16
ENDBRANCH   6  13
ENDBRANCH   1   5
BRANCH   3  19
HETATM   19  C12 UNL     1      38.983   2.346   8.425  1.00  0.00     0.358 C 
HETATM   20  N3  UNL     1      39.454   3.629   7.952  1.00  0.00     0.117 N 
HETATM   21  C13 UNL     1      40.157   3.487   6.698  1.00  0.00     0.313 C 
HETATM   22  C14 UNL     1      40.274   4.200   8.990  1.00  0.00     0.252 C 
HETATM   23  C15 UNL     1      41.351   5.102   8.495  1.00  0.00     0.046 C 
HETATM   24  C16 UNL     1      40.875   2.947   9.641  1.00  0.00     0.189 C 
HETATM   25  C17 UNL     1      39.605   2.128   9.790  1.00  0.00     0.130 C 
HETATM   26  C18 UNL     1      38.791   2.805  10.880  1.00  0.00     0.052 C 
BRANCH  24  27
HETATM   27  O3  UNL     1      41.798   2.361   8.806  1.00  0.00    -0.390 OA
ATOM     28  H3  UNL     1      42.609   2.190   9.270  1.00  0.00     0.210 HD
ENDBRANCH  24  27
BRANCH  25  29
HETATM   29  O4  UNL     1      39.852   0.800  10.063  1.00  0.00    -0.383 OA
ATOM     30  H4  UNL     1      40.573   0.445   9.556  1.00  0.00     0.210 HD
ENDBRANCH  25  29
ENDBRANCH   3  19
TORSDOF 10
ENDMDL
MODEL 5
REMARK VINA RESULT: -6.347771749      3.307      4.478
REMARK  10 active torsions:
REMARK  status: ('A' for Active; 'I' for Inactive)
REMARK    1  A    between atoms: C2_2  and  O1_3 
REMARK    2  A    between atoms: C2_2  and  C3_5 
REMARK    3  A    between atoms: C3_5  and  C10_15 
REMARK    4  A    between atoms: C4_6  and  O2_7 
REMARK    5  A    between atoms: C4_6  and  N1_9 
REMARK    6  A    between atoms: N1_9  and  C5_10 
REMARK    7  A    between atoms: N1_9  and  C7_12 
REMARK    8  A    between atoms: N2_17  and  C12_19 
REMARK    9  A    between atoms: C16_24  and  O3_25 
REMARK   10  A    between atoms: C17_27  and  O4_29 
ROOT
HETATM    1  C10 UNL     1      37.283   1.752   8.456  1.00  0.00     0.020 C 
HETATM    2  C11 UNL     1      37.272   0.341   7.964  1.00  0.00     0.069 C 
HETATM    3  N2  UNL     1      36.201   2.309   8.767  1.00  0.00    -0.361 N 
ATOM      4  H2  UNL     1      36.264   3.274   9.091  1.00  0.00     0.161 HD
ENDROOT
BRANCH   1   5
HETATM    5  C3  UNL     1      38.643   2.419   8.534  1.00  0.00     0.069 C 
HETATM    6  C4  UNL     1      38.639   3.813   8.837  1.00  0.00     0.153 C 
BRANCH   5   7
HETATM    7  C2  UNL     1      39.672   1.486   9.013  1.00  0.00     0.072 C 
HETATM    8  C1  UNL     1      40.756   1.234   8.263  1.00  0.00     0.051 C 
BRANCH   7   9
HETATM    9  O1  UNL     1      39.646   0.791  10.212  1.00  0.00    -0.360 OA
ATOM     10  H1  UNL     1      39.374  -0.114  10.125  1.00  0.00     0.217 HD
ENDBRANCH   7   9
ENDBRANCH   5   7
BRANCH   6  11
HETATM   11  O2  UNL     1      38.400   4.538   7.712  1.00  0.00    -0.345 OA
ATOM     12  H2  UNL     1      37.490   4.451   7.452  1.00  0.00     0.219 HD
ENDBRANCH   6  11
BRANCH   6  13
HETATM   13  N1  UNL     1      38.793   4.673   9.899  1.00  0.00    -0.358 N 
BRANCH  13  14
HETATM   14  C5  UNL     1      39.654   5.876   9.640  1.00  0.00     0.121 C 
HETATM   15  C6  UNL     1      39.290   7.009  10.525  1.00  0.00     0.026 C 
ENDBRANCH  13  14
BRANCH  13  16
HETATM   16  C7  UNL     1      38.283   4.574  11.225  1.00  0.00     0.078 C 
HETATM   17  C8  UNL     1      39.023   3.586  12.114  1.00  0.00     0.032 C 
HETATM   18  C9  UNL     1      36.815   4.346  11.337  1.00  0.00     0.032 C 
ENDBRANCH  13  16
ENDBRANCH   6  13
ENDBRANCH   1   5
BRANCH   3  19
HETATM   19  C12 UNL     1      34.914   1.748   8.717  1.00  0.00     0.358 C 
HETATM   20  N3  UNL     1      34.284   1.591  10.009  1.00  0.00     0.117 N 
HETATM   21  C13 UNL     1      34.144   0.194  10.347  1.00  0.00     0.313 C 
HETATM   22  C14 UNL     1      33.022   2.285   9.964  1.00  0.00     0.252 C 
HETATM   23  C15 UNL     1      31.973   1.710  10.853  1.00  0.00     0.046 C 
HETATM   24  C16 UNL     1      32.628   2.123   8.489  1.00  0.00     0.189 C 
HETATM   25  C17 UNL     1      33.945   2.525   7.849  1.00  0.00     0.130 C 
HETATM   26  C18 UNL     1      34.084   4.021   8.074  1.00  0.00     0.052 C 
BRANCH  24  27
HETATM   27  O3  UNL     1      32.276   0.821   8.221  1.00  0.00    -0.390 OA
ATOM     28  H3  UNL     1      32.477   0.598   7.319  1.00  0.00     0.210 HD
ENDBRANCH  24  27
BRANCH  25  29
HETATM   29  O4  UNL     1      34.021   2.182   6.517  1.00  0.00    -0.383 OA
ATOM     30  H4  UNL     1      33.232   2.395   6.033  1.00  0.00     0.210 HD
ENDBRANCH  25  29
ENDBRANCH   3  19
TORSDOF 10
ENDMDL
