MODEL 1
REMARK VINA RESULT: -6.860831358      0.000      0.000
REMARK  7 active torsions:
REMARK  status: ('A' for Active; 'I' for Inactive)
REMARK    1  A    between atoms: C2_2  and  C4_4 
REMARK    2  A    between atoms: C4_4  and  O1_5 
REMARK    3  A    between atoms: O1_5  and  C5_6 
REMARK       I    between atoms: C5_6  and  N1_8 
REMARK    4  A    between atoms: N1_8  and  C6_10 
REMARK    5  A    between atoms: C6_10  and  C8_12 
REMARK       I    between atoms: C8_12  and  N2_14 
REMARK    6  A    between atoms: C13_20  and  C14_21 
REMARK       I    between atoms: C14_21  and  N4_23 
REMARK    7  A    between atoms: N4_23  and  C15_25 
ROOT
HETATM    1  C8  UNL     1      36.244   3.597   9.605  1.00  0.00     0.244 C 
HETATM    2  O3  UNL     1      35.335   4.462   9.539  1.00  0.00    -0.271 OA
HETATM    3  N2  UNL     1      37.306   3.683  10.551  1.00  0.00    -0.320 N 
HETATM    4  C9  UNL     1      38.413   2.795  10.763  1.00  0.00     0.195 C 
HETATM    5  C10 UNL     1      37.941   1.547  11.359  1.00  0.00     0.085 C 
HETATM    6  N3  UNL     1      37.577   0.571  11.824  1.00  0.00    -0.195 NA
HETATM    7  C11 UNL     1      39.370   3.525  11.679  1.00  0.00     0.043 C 
HETATM    8  C12 UNL     1      38.406   4.328  12.545  1.00  0.00     0.038 C 
HETATM    9  C13 UNL     1      37.410   4.776  11.503  1.00  0.00     0.180 C 
ENDROOT
BRANCH   1  10
HETATM   10  C6  UNL     1      36.156   2.462   8.633  1.00  0.00     0.175 C 
HETATM   11  C7  UNL     1      36.703   2.884   7.286  1.00  0.00     0.042 C 
BRANCH  10  12
HETATM   12  N1  UNL     1      34.778   2.071   8.441  1.00  0.00    -0.324 N 
HETATM   13  C5  UNL     1      34.307   0.886   9.061  1.00  0.00     0.361 C 
HETATM   14  O2  UNL     1      35.062   0.175   9.769  1.00  0.00    -0.238 OA
ATOM     15  H1  UNL     1      34.154   2.638   7.867  1.00  0.00     0.165 HD
BRANCH  13  16
HETATM   16  O1  UNL     1      32.994   0.448   8.922  1.00  0.00    -0.304 OA
BRANCH  16  17
HETATM   17  C4  UNL     1      31.906   1.056   9.588  1.00  0.00     0.184 C 
BRANCH  17  18
HETATM   18  C2  UNL     1      32.030   0.656  11.060  1.00  0.00     0.002 C 
HETATM   19  C1  UNL     1      31.694   1.888  11.874  1.00  0.00     0.011 C 
HETATM   20  C3  UNL     1      31.124  -0.487  11.407  1.00  0.00     0.011 C 
ENDBRANCH  17  18
ENDBRANCH  16  17
ENDBRANCH  13  16
ENDBRANCH  10  12
ENDBRANCH   1  10
BRANCH   9  21
HETATM   21  C14 UNL     1      37.912   6.010  10.893  1.00  0.00     0.241 C 
HETATM   22  O4  UNL     1      38.229   6.058   9.679  1.00  0.00    -0.271 OA
HETATM   23  N4  UNL     1      38.047   7.175  11.672  1.00  0.00    -0.355 N 
ATOM     24  H4  UNL     1      37.790   7.141  12.659  1.00  0.00     0.162 HD
BRANCH  23  25
HETATM   25  C15 UNL     1      38.542   8.429  11.115  1.00  0.00     0.076 C 
HETATM   26  C16 UNL     1      39.528   9.029  12.073  1.00  0.00     0.032 C 
HETATM   27  C17 UNL     1      37.395   9.418  10.951  1.00  0.00     0.032 C 
ENDBRANCH  23  25
ENDBRANCH   9  21
TORSDOF 7
ENDMDL
MODEL 2
REMARK VINA RESULT: -6.784974846      1.826      7.057
REMARK  7 active torsions:
REMARK  status: ('A' for Active; 'I' for Inactive)
REMARK    1  A    between atoms: C2_2  and  C4_4 
REMARK    2  A    between atoms: C4_4  and  O1_5 
REMARK    3  A    between atoms: O1_5  and  C5_6 
REMARK       I    between atoms: C5_6  and  N1_8 
REMARK    4  A    between atoms: N1_8  and  C6_10 
REMARK    5  A    between atoms: C6_10  and  C8_12 
REMARK       I    between atoms: C8_12  and  N2_14 
REMARK    6  A    between atoms: C13_20  and  C14_21 
REMARK       I    between atoms: C14_21  and  N4_23 
REMARK    7  A    between atoms: N4_23  and  C15_25 
ROOT
HETATM    1  C8  UNL     1      36.108   3.603   9.506  1.00  0.00     0.244 C 
HETATM    2  O3  UNL     1      35.309   4.531   9.787  1.00  0.00    -0.271 OA
HETATM    3  N2  UNL     1      35.876   2.705   8.423  1.00  0.00    -0.320 N 
HETATM    4  C9  UNL     1      36.674   1.603   7.966  1.00  0.00     0.195 C 
HETATM    5  C10 UNL     1      37.893   2.101   7.333  1.00  0.00     0.085 C 
HETATM    6  N3  UNL     1      38.846   2.487   6.838  1.00  0.00    -0.195 NA
HETATM    7  C11 UNL     1      35.811   0.835   6.989  1.00  0.00     0.043 C 
HETATM    8  C12 UNL     1      34.997   1.958   6.357  1.00  0.00     0.038 C 
HETATM    9  C13 UNL     1      34.702   2.802   7.574  1.00  0.00     0.180 C 
ENDROOT
BRANCH   1  10
HETATM   10  C6  UNL     1      37.326   3.486  10.369  1.00  0.00     0.175 C 
HETATM   11  C7  UNL     1      37.249   2.231  11.212  1.00  0.00     0.042 C 
BRANCH  10  12
HETATM   12  N1  UNL     1      37.413   4.612  11.270  1.00  0.00    -0.324 N 
HETATM   13  C5  UNL     1      38.412   5.593  11.050  1.00  0.00     0.361 C 
HETATM   14  O2  UNL     1      39.219   5.500  10.092  1.00  0.00    -0.238 OA
ATOM     15  H1  UNL     1      36.765   4.700  12.053  1.00  0.00     0.165 HD
BRANCH  13  16
HETATM   16  O1  UNL     1      38.555   6.704  11.875  1.00  0.00    -0.304 OA
BRANCH  16  17
HETATM   17  C4  UNL     1      37.684   7.815  11.827  1.00  0.00     0.184 C 
BRANCH  17  18
HETATM   18  C2  UNL     1      37.457   8.243  13.279  1.00  0.00     0.002 C 
HETATM   19  C1  UNL     1      37.546   6.987  14.120  1.00  0.00     0.011 C 
HETATM   20  C3  UNL     1      38.459   9.265  13.723  1.00  0.00     0.011 C 
ENDBRANCH  17  18
ENDBRANCH  16  17
ENDBRANCH  13  16
ENDBRANCH  10  12
ENDBRANCH   1  10
BRANCH   9  21
HETATM   21  C14 UNL     1      33.496   2.271   8.215  1.00  0.00     0.241 C 
HETATM   22  O4  UNL     1      32.463   2.011   7.551  1.00  0.00    -0.271 OA
HETATM   23  N4  UNL     1      33.481   2.042   9.604  1.00  0.00    -0.355 N 
ATOM     24  H4  UNL     1      34.318   2.251  10.148  1.00  0.00     0.162 HD
BRANCH  23  25
HETATM   25  C15 UNL     1      32.307   1.514  10.291  1.00  0.00     0.076 C 
HETATM   26  C16 UNL     1      32.233   2.123  11.660  1.00  0.00     0.032 C 
HETATM   27  C17 UNL     1      32.434   0.006  10.463  1.00  0.00     0.032 C 
ENDBRANCH  23  25
ENDBRANCH   9  21
TORSDOF 7
ENDMDL
MODEL 3
REMARK VINA RESULT: -6.782148645      1.352      1.800
REMARK  7 active torsions:
REMARK  status: ('A' for Active; 'I' for Inactive)
REMARK    1  A    between atoms: C2_2  and  C4_4 
REMARK    2  A    between atoms: C4_4  and  O1_5 
REMARK    3  A    between atoms: O1_5  and  C5_6 
REMARK       I    between atoms: C5_6  and  N1_8 
REMARK    4  A    between atoms: N1_8  and  C6_10 
REMARK    5  A    between atoms: C6_10  and  C8_12 
REMARK       I    between atoms: C8_12  and  N2_14 
REMARK    6  A    between atoms: C13_20  and  C14_21 
REMARK       I    between atoms: C14_21  and  N4_23 
REMARK    7  A    between atoms: N4_23  and  C15_25 
ROOT
HETATM    1  C8  UNL     1      36.076   3.397   9.660  1.00  0.00     0.244 C 
HETATM    2  O3  UNL     1      35.132   4.227   9.631  1.00  0.00    -0.271 OA
HETATM    3  N2  UNL     1      37.209   3.567  10.507  1.00  0.00    -0.320 N 
HETATM    4  C9  UNL     1      38.363   2.728  10.665  1.00  0.00     0.195 C 
HETATM    5  C10 UNL     1      37.989   1.496  11.359  1.00  0.00     0.085 C 
HETATM    6  N3  UNL     1      37.702   0.533  11.899  1.00  0.00    -0.195 NA
HETATM    7  C11 UNL     1      39.365   3.534  11.460  1.00  0.00     0.043 C 
HETATM    8  C12 UNL     1      38.448   4.348  12.366  1.00  0.00     0.038 C 
HETATM    9  C13 UNL     1      37.351   4.709  11.392  1.00  0.00     0.180 C 
ENDROOT
BRANCH   1  10
HETATM   10  C6  UNL     1      35.949   2.211   8.754  1.00  0.00     0.175 C 
HETATM   11  C7  UNL     1      36.407   2.571   7.357  1.00  0.00     0.042 C 
BRANCH  10  12
HETATM   12  N1  UNL     1      34.569   1.792   8.667  1.00  0.00    -0.324 N 
HETATM   13  C5  UNL     1      34.114   0.743   9.506  1.00  0.00     0.361 C 
HETATM   14  O2  UNL     1      34.887   0.176  10.318  1.00  0.00    -0.238 OA
ATOM     15  H1  UNL     1      33.931   2.242   8.010  1.00  0.00     0.165 HD
BRANCH  13  16
HETATM   16  O1  UNL     1      32.801   0.287   9.478  1.00  0.00    -0.304 OA
BRANCH  16  17
HETATM   17  C4  UNL     1      31.686   1.145   9.607  1.00  0.00     0.184 C 
BRANCH  17  18
HETATM   18  C2  UNL     1      31.176   0.970  11.039  1.00  0.00     0.002 C 
HETATM   19  C1  UNL     1      31.260  -0.509  11.352  1.00  0.00     0.011 C 
HETATM   20  C3  UNL     1      31.973   1.778  12.019  1.00  0.00     0.011 C 
ENDBRANCH  17  18
ENDBRANCH  16  17
ENDBRANCH  13  16
ENDBRANCH  10  12
ENDBRANCH   1  10
BRANCH   9  21
HETATM   21  C14 UNL     1      37.754   5.927  10.684  1.00  0.00     0.241 C 
HETATM   22  O4  UNL     1      38.164   6.939  11.303  1.00  0.00    -0.271 OA
HETATM   23  N4  UNL     1      37.685   5.977   9.278  1.00  0.00    -0.355 N 
ATOM     24  H4  UNL     1      37.353   5.157   8.771  1.00  0.00     0.162 HD
BRANCH  23  25
HETATM   25  C15 UNL     1      38.074   7.164   8.524  1.00  0.00     0.076 C 
HETATM   26  C16 UNL     1      36.838   7.930   8.155  1.00  0.00     0.032 C 
HETATM   27  C17 UNL     1      38.771   6.759   7.231  1.00  0.00     0.032 C 
ENDBRANCH  23  25
ENDBRANCH   9  21
TORSDOF 7
ENDMDL
MODEL 4
REMARK VINA RESULT: -6.714229580      2.129      2.931
REMARK  7 active torsions:
REMARK  status: ('A' for Active; 'I' for Inactive)
REMARK    1  A    between atoms: C2_2  and  C4_4 
REMARK    2  A    between atoms: C4_4  and  O1_5 
REMARK    3  A    between atoms: O1_5  and  C5_6 
REMARK       I    between atoms: C5_6  and  N1_8 
REMARK    4  A    between atoms: N1_8  and  C6_10 
REMARK    5  A    between atoms: C6_10  and  C8_12 
REMARK       I    between atoms: C8_12  and  N2_14 
REMARK    6  A    between atoms: C13_20  and  C14_21 
REMARK       I    between atoms: C14_21  and  N4_23 
REMARK    7  A    between atoms: N4_23  and  C15_25 
ROOT
HETATM    1  C8  UNL     1      36.527   3.625   9.307  1.00  0.00     0.244 C 
HETATM    2  O3  UNL     1      36.519   4.283  10.378  1.00  0.00    -0.271 OA
HETATM    3  N2  UNL     1      37.639   2.824   8.917  1.00  0.00    -0.320 N 
HETATM    4  C9  UNL     1      37.816   2.018   7.742  1.00  0.00     0.195 C 
HETATM    5  C10 UNL     1      36.953   0.840   7.815  1.00  0.00     0.085 C 
HETATM    6  N3  UNL     1      36.280  -0.080   7.867  1.00  0.00    -0.195 NA
HETATM    7  C11 UNL     1      39.279   1.637   7.708  1.00  0.00     0.043 C 
HETATM    8  C12 UNL     1      39.596   1.522   9.195  1.00  0.00     0.038 C 
HETATM    9  C13 UNL     1      38.838   2.714   9.730  1.00  0.00     0.180 C 
ENDROOT
BRANCH   1  10
HETATM   10  C6  UNL     1      35.300   3.724   8.453  1.00  0.00     0.175 C 
HETATM   11  C7  UNL     1      34.845   5.165   8.361  1.00  0.00     0.042 C 
BRANCH  10  12
HETATM   12  N1  UNL     1      34.220   2.962   9.037  1.00  0.00    -0.324 N 
HETATM   13  C5  UNL     1      33.417   2.152   8.194  1.00  0.00     0.361 C 
HETATM   14  O2  UNL     1      33.627   2.087   6.958  1.00  0.00    -0.238 OA
ATOM     15  H1  UNL     1      34.038   3.006  10.039  1.00  0.00     0.165 HD
BRANCH  13  16
HETATM   16  O1  UNL     1      32.362   1.390   8.684  1.00  0.00    -0.304 OA
BRANCH  16  17
HETATM   17  C4  UNL     1      32.507   0.465   9.742  1.00  0.00     0.184 C 
BRANCH  17  18
HETATM   18  C2  UNL     1      31.387   0.776  10.738  1.00  0.00     0.002 C 
HETATM   19  C1  UNL     1      31.020  -0.536  11.400  1.00  0.00     0.011 C 
HETATM   20  C3  UNL     1      31.807   1.796  11.752  1.00  0.00     0.011 C 
ENDBRANCH  17  18
ENDBRANCH  16  17
ENDBRANCH  13  16
ENDBRANCH  10  12
ENDBRANCH   1  10
BRANCH   9  21
HETATM   21  C14 UNL     1      39.704   3.891   9.621  1.00  0.00     0.241 C 
HETATM   22  O4  UNL     1      40.918   3.841   9.938  1.00  0.00    -0.271 OA
HETATM   23  N4  UNL     1      39.178   5.110   9.155  1.00  0.00    -0.355 N 
ATOM     24  H4  UNL     1      38.192   5.156   8.897  1.00  0.00     0.162 HD
BRANCH  23  25
HETATM   25  C15 UNL     1      39.996   6.312   9.028  1.00  0.00     0.076 C 
HETATM   26  C16 UNL     1      39.680   7.236  10.167  1.00  0.00     0.032 C 
HETATM   27  C17 UNL     1      39.659   7.041   7.734  1.00  0.00     0.032 C 
ENDBRANCH  23  25
ENDBRANCH   9  21
TORSDOF 7
ENDMDL
MODEL 5
REMARK VINA RESULT: -6.620047624      3.660      7.221
REMARK  7 active torsions:
REMARK  status: ('A' for Active; 'I' for Inactive)
REMARK    1  A    between atoms: C2_2  and  C4_4 
REMARK    2  A    between atoms: C4_4  and  O1_5 
REMARK    3  A    between atoms: O1_5  and  C5_6 
REMARK       I    between atoms: C5_6  and  N1_8 
REMARK    4  A    between atoms: N1_8  and  C6_10 
REMARK    5  A    between atoms: C6_10  and  C8_12 
REMARK       I    between atoms: C8_12  and  N2_14 
REMARK    6  A    between atoms: C13_20  and  C14_21 
REMARK       I    between atoms: C14_21  and  N4_23 
REMARK    7  A    between atoms: N4_23  and  C15_25 
ROOT
HETATM    1  C8  UNL     1      34.713   3.259   7.805  1.00  0.00     0.244 C 
HETATM    2  O3  UNL     1      33.467   3.102   7.751  1.00  0.00    -0.271 OA
HETATM    3  N2  UNL     1      35.594   2.208   8.191  1.00  0.00    -0.320 N 
HETATM    4  C9  UNL     1      37.025   2.213   8.305  1.00  0.00     0.195 C 
HETATM    5  C10 UNL     1      37.628   2.274   6.975  1.00  0.00     0.085 C 
HETATM    6  N3  UNL     1      38.103   2.322   5.939  1.00  0.00    -0.195 NA
HETATM    7  C11 UNL     1      37.395   0.937   9.028  1.00  0.00     0.043 C 
HETATM    8  C12 UNL     1      36.322  -0.020   8.521  1.00  0.00     0.038 C 
HETATM    9  C13 UNL     1      35.113   0.885   8.548  1.00  0.00     0.180 C 
ENDROOT
BRANCH   1  10
HETATM   10  C6  UNL     1      35.230   4.617   7.441  1.00  0.00     0.175 C 
HETATM   11  C7  UNL     1      34.296   5.688   7.960  1.00  0.00     0.042 C 
BRANCH  10  12
HETATM   12  N1  UNL     1      35.300   4.758   6.004  1.00  0.00    -0.324 N 
HETATM   13  C5  UNL     1      36.433   5.388   5.429  1.00  0.00     0.361 C 
HETATM   14  O2  UNL     1      37.370   5.823   6.143  1.00  0.00    -0.238 OA
ATOM     15  H1  UNL     1      34.546   4.409   5.412  1.00  0.00     0.165 HD
BRANCH  13  16
HETATM   16  O1  UNL     1      36.569   5.558   4.055  1.00  0.00    -0.304 OA
BRANCH  16  17
HETATM   17  C4  UNL     1      37.588   4.933   3.302  1.00  0.00     0.184 C 
BRANCH  17  18
HETATM   18  C2  UNL     1      36.876   4.090   2.240  1.00  0.00     0.002 C 
HETATM   19  C1  UNL     1      37.910   3.762   1.183  1.00  0.00     0.011 C 
HETATM   20  C3  UNL     1      36.281   2.844   2.823  1.00  0.00     0.011 C 
ENDBRANCH  17  18
ENDBRANCH  16  17
ENDBRANCH  13  16
ENDBRANCH  10  12
ENDBRANCH   1  10
BRANCH   9  21
HETATM   21  C14 UNL     1      34.538   0.838   9.895  1.00  0.00     0.241 C 
HETATM   22  O4  UNL     1      35.268   0.791  10.916  1.00  0.00    -0.271 OA
HETATM   23  N4  UNL     1      33.141   0.844  10.064  1.00  0.00    -0.355 N 
ATOM     24  H4  UNL     1      32.544   0.882   9.238  1.00  0.00     0.162 HD
BRANCH  23  25
HETATM   25  C15 UNL     1      32.518   0.798  11.383  1.00  0.00     0.076 C 
HETATM   26  C16 UNL     1      31.380  -0.180  11.347  1.00  0.00     0.032 C 
HETATM   27  C17 UNL     1      31.943   2.163  11.738  1.00  0.00     0.032 C 
ENDBRANCH  23  25
ENDBRANCH   9  21
TORSDOF 7
ENDMDL
