MODEL 1
REMARK VINA RESULT: -7.426214878      0.000      0.000
REMARK  6 active torsions:
REMARK  status: ('A' for Active; 'I' for Inactive)
REMARK    1  A    between atoms: N1_2  and  C2_5 
REMARK    2  A    between atoms: C2_5  and  C4_7 
REMARK       I    between atoms: C4_7  and  N2_9 
REMARK    3  A    between atoms: C7_12  and  N3_13 
REMARK    4  A    between atoms: C9_15  and  C10_16 
REMARK    5  A    between atoms: C10_16  and  C11_17 
REMARK    6  A    between atoms: C11_17  and  C12_18 
ROOT
HETATM    1  N3  UNL     1      37.626   2.139   9.710  1.00  0.00    -0.347 N 
HETATM    2  C8  UNL     1      36.481   2.543   8.892  1.00  0.00     0.151 C 
HETATM    3  C9  UNL     1      35.955   1.174   8.535  1.00  0.00     0.102 C 
HETATM    4  N4  UNL     1      36.177   0.453   9.752  1.00  0.00    -0.358 N 
ATOM      5  H4  UNL     1      35.662  -0.375  10.052  1.00  0.00     0.162 HD
HETATM    6  C18 UNL     1      37.132   1.015  10.407  1.00  0.00     0.187 C 
HETATM    7  N5  UNL     1      37.545   0.465  11.663  1.00  0.00    -0.064 NA
ENDROOT
BRANCH   1   8
HETATM    8  C7  UNL     1      38.898   2.723   9.772  1.00  0.00     0.106 C 
HETATM    9  C6  UNL     1      40.020   1.929   9.127  1.00  0.00     0.047 C 
HETATM   10  C5  UNL     1      41.173   2.863   9.247  1.00  0.00     0.128 C 
HETATM   11  N2  UNL     1      40.538   4.190   9.133  1.00  0.00    -0.348 N 
HETATM   12  C4  UNL     1      41.194   5.447   9.117  1.00  0.00     0.250 C 
HETATM   13  C19 UNL     1      39.117   4.008   9.020  1.00  0.00     0.151 C 
HETATM   14  O1  UNL     1      42.454   5.412   9.198  1.00  0.00    -0.271 OA
BRANCH  12  15
HETATM   15  C2  UNL     1      40.514   6.733   9.016  1.00  0.00     0.272 C 
HETATM   16  C3  UNL     1      41.067   7.811   9.934  1.00  0.00     0.050 C 
BRANCH  15  17
HETATM   17  N1  UNL     1      40.712   7.229   7.634  1.00  0.00    -0.067 N 
HETATM   18  C1  UNL     1      39.448   7.160   6.965  1.00  0.00     0.267 C 
ATOM     19  H12 UNL     1      41.452   6.735   7.136  1.00  0.00     0.277 HD
ATOM     20  H11 UNL     1      41.128   8.160   7.602  1.00  0.00     0.277 HD
ENDBRANCH  15  17
ENDBRANCH  12  15
ENDBRANCH   1   8
BRANCH   3  21
HETATM   21  C10 UNL     1      34.573   1.169   8.004  1.00  0.00     0.027 C 
BRANCH  21  22
HETATM   22  C11 UNL     1      33.631   2.188   8.467  1.00  0.00     0.007 C 
BRANCH  22  23
HETATM   23  C12 UNL     1      32.837   1.963   9.679  1.00  0.00    -0.014 C 
HETATM   24  C13 UNL     1      32.560   0.449   9.768  1.00  0.00     0.004 C 
HETATM   25  C14 UNL     1      31.403   0.316  10.738  1.00  0.00     0.000 C 
HETATM   26  C15 UNL     1      31.712   0.906  12.079  1.00  0.00     0.000 C 
HETATM   27  C16 UNL     1      32.382   2.236  12.042  1.00  0.00     0.000 C 
HETATM   28  C17 UNL     1      33.455   2.344  10.973  1.00  0.00     0.004 C 
ENDBRANCH  22  23
ENDBRANCH  21  22
ENDBRANCH   3  21
TORSDOF 6
ENDMDL
MODEL 2
REMARK VINA RESULT: -7.282712833      3.255      4.265
REMARK  6 active torsions:
REMARK  status: ('A' for Active; 'I' for Inactive)
REMARK    1  A    between atoms: N1_2  and  C2_5 
REMARK    2  A    between atoms: C2_5  and  C4_7 
REMARK       I    between atoms: C4_7  and  N2_9 
REMARK    3  A    between atoms: C7_12  and  N3_13 
REMARK    4  A    between atoms: C9_15  and  C10_16 
REMARK    5  A    between atoms: C10_16  and  C11_17 
REMARK    6  A    between atoms: C11_17  and  C12_18 
ROOT
HETATM    1  N3  UNL     1      37.295   3.020   7.064  1.00  0.00    -0.347 N 
HETATM    2  C8  UNL     1      36.285   2.635   8.051  1.00  0.00     0.151 C 
HETATM    3  C9  UNL     1      36.429   1.136   7.961  1.00  0.00     0.102 C 
HETATM    4  N4  UNL     1      37.843   0.990   7.790  1.00  0.00    -0.358 N 
ATOM      5  H4  UNL     1      38.387   0.163   8.034  1.00  0.00     0.162 HD
HETATM    6  C18 UNL     1      38.319   2.072   7.277  1.00  0.00     0.187 C 
HETATM    7  N5  UNL     1      39.722   2.164   7.003  1.00  0.00    -0.064 NA
ENDROOT
BRANCH   1   8
HETATM    8  C7  UNL     1      37.245   4.065   6.133  1.00  0.00     0.106 C 
HETATM    9  C6  UNL     1      36.409   3.804   4.892  1.00  0.00     0.047 C 
HETATM   10  C5  UNL     1      36.457   5.121   4.200  1.00  0.00     0.128 C 
HETATM   11  N2  UNL     1      36.523   6.082   5.317  1.00  0.00    -0.348 N 
HETATM   12  C4  UNL     1      36.522   7.496   5.223  1.00  0.00     0.250 C 
HETATM   13  C19 UNL     1      36.572   5.345   6.550  1.00  0.00     0.151 C 
HETATM   14  O1  UNL     1      36.445   7.971   4.055  1.00  0.00    -0.271 OA
BRANCH  12  15
HETATM   15  C2  UNL     1      36.603   8.400   6.364  1.00  0.00     0.272 C 
HETATM   16  C3  UNL     1      38.006   8.591   6.918  1.00  0.00     0.050 C 
BRANCH  15  17
HETATM   17  N1  UNL     1      36.161   9.736   5.900  1.00  0.00    -0.067 N 
HETATM   18  C1  UNL     1      37.201  10.669   6.215  1.00  0.00     0.267 C 
ATOM     19  H12 UNL     1      35.254  10.009   6.280  1.00  0.00     0.277 HD
ATOM     20  H11 UNL     1      35.901   9.749   4.913  1.00  0.00     0.277 HD
ENDBRANCH  15  17
ENDBRANCH  12  15
ENDBRANCH   1   8
BRANCH   3  21
HETATM   21  C10 UNL     1      35.817   0.393   9.085  1.00  0.00     0.027 C 
BRANCH  21  22
HETATM   22  C11 UNL     1      35.504   1.110  10.322  1.00  0.00     0.007 C 
BRANCH  22  23
HETATM   23  C12 UNL     1      34.168   1.010  10.916  1.00  0.00    -0.014 C 
HETATM   24  C13 UNL     1      33.646   2.448  11.108  1.00  0.00     0.004 C 
HETATM   25  C14 UNL     1      32.507   2.324  12.101  1.00  0.00     0.000 C 
HETATM   26  C15 UNL     1      31.431   1.400  11.623  1.00  0.00     0.000 C 
HETATM   27  C16 UNL     1      31.916   0.124  11.027  1.00  0.00     0.000 C 
HETATM   28  C17 UNL     1      33.129   0.298  10.131  1.00  0.00     0.004 C 
ENDBRANCH  22  23
ENDBRANCH  21  22
ENDBRANCH   3  21
TORSDOF 6
ENDMDL
MODEL 3
REMARK VINA RESULT: -7.256261857      3.317      4.165
REMARK  6 active torsions:
REMARK  status: ('A' for Active; 'I' for Inactive)
REMARK    1  A    between atoms: N1_2  and  C2_5 
REMARK    2  A    between atoms: C2_5  and  C4_7 
REMARK       I    between atoms: C4_7  and  N2_9 
REMARK    3  A    between atoms: C7_12  and  N3_13 
REMARK    4  A    between atoms: C9_15  and  C10_16 
REMARK    5  A    between atoms: C10_16  and  C11_17 
REMARK    6  A    between atoms: C11_17  and  C12_18 
ROOT
HETATM    1  N3  UNL     1      36.007   5.085   7.828  1.00  0.00    -0.347 N 
HETATM    2  C8  UNL     1      35.799   3.668   7.528  1.00  0.00     0.151 C 
HETATM    3  C9  UNL     1      34.320   3.583   7.811  1.00  0.00     0.102 C 
HETATM    4  N4  UNL     1      33.858   4.844   7.313  1.00  0.00    -0.358 N 
ATOM      5  H4  UNL     1      32.909   5.043   6.995  1.00  0.00     0.162 HD
HETATM    6  C18 UNL     1      34.831   5.686   7.331  1.00  0.00     0.187 C 
HETATM    7  N5  UNL     1      34.610   7.029   6.883  1.00  0.00    -0.064 NA
ENDROOT
BRANCH   1   8
HETATM    8  C7  UNL     1      37.102   5.687   8.463  1.00  0.00     0.106 C 
HETATM    9  C6  UNL     1      37.872   6.697   7.630  1.00  0.00     0.047 C 
HETATM   10  C5  UNL     1      38.855   7.228   8.615  1.00  0.00     0.128 C 
HETATM   11  N2  UNL     1      38.114   7.168   9.889  1.00  0.00    -0.348 N 
HETATM   12  C4  UNL     1      38.563   7.619  11.156  1.00  0.00     0.250 C 
HETATM   13  C19 UNL     1      36.825   6.582   9.640  1.00  0.00     0.151 C 
HETATM   14  O1  UNL     1      39.716   8.135  11.180  1.00  0.00    -0.271 OA
BRANCH  12  15
HETATM   15  C2  UNL     1      37.791   7.523  12.389  1.00  0.00     0.272 C 
HETATM   16  C3  UNL     1      38.018   6.241  13.175  1.00  0.00     0.050 C 
BRANCH  15  17
HETATM   17  N1  UNL     1      38.230   8.628  13.273  1.00  0.00    -0.067 N 
HETATM   18  C1  UNL     1      37.405   9.763  12.986  1.00  0.00     0.267 C 
ATOM     19  H12 UNL     1      39.226   8.830  13.191  1.00  0.00     0.277 HD
ATOM     20  H11 UNL     1      38.226   8.373  14.260  1.00  0.00     0.277 HD
ENDBRANCH  15  17
ENDBRANCH  12  15
ENDBRANCH   1   8
BRANCH   3  21
HETATM   21  C10 UNL     1      33.660   2.374   7.269  1.00  0.00     0.027 C 
BRANCH  21  22
HETATM   22  C11 UNL     1      33.396   1.249   8.167  1.00  0.00     0.007 C 
BRANCH  22  23
HETATM   23  C12 UNL     1      32.769   1.476   9.472  1.00  0.00    -0.014 C 
HETATM   24  C13 UNL     1      32.128   0.143   9.908  1.00  0.00     0.004 C 
HETATM   25  C14 UNL     1      31.141   0.517  10.996  1.00  0.00     0.000 C 
HETATM   26  C15 UNL     1      31.796   1.222  12.143  1.00  0.00     0.000 C 
HETATM   27  C16 UNL     1      32.772   2.279  11.756  1.00  0.00     0.000 C 
HETATM   28  C17 UNL     1      33.657   1.888  10.587  1.00  0.00     0.004 C 
ENDBRANCH  22  23
ENDBRANCH  21  22
ENDBRANCH   3  21
TORSDOF 6
ENDMDL
MODEL 4
REMARK VINA RESULT: -7.231397656      3.439      4.479
REMARK  6 active torsions:
REMARK  status: ('A' for Active; 'I' for Inactive)
REMARK    1  A    between atoms: N1_2  and  C2_5 
REMARK    2  A    between atoms: C2_5  and  C4_7 
REMARK       I    between atoms: C4_7  and  N2_9 
REMARK    3  A    between atoms: C7_12  and  N3_13 
REMARK    4  A    between atoms: C9_15  and  C10_16 
REMARK    5  A    between atoms: C10_16  and  C11_17 
REMARK    6  A    between atoms: C11_17  and  C12_18 
ROOT
HETATM    1  N3  UNL     1      35.995   4.127   6.925  1.00  0.00    -0.347 N 
HETATM    2  C8  UNL     1      35.821   3.068   7.921  1.00  0.00     0.151 C 
HETATM    3  C9  UNL     1      34.697   2.308   7.259  1.00  0.00     0.102 C 
HETATM    4  N4  UNL     1      35.058   2.405   5.876  1.00  0.00    -0.358 N 
ATOM      5  H4  UNL     1      34.775   1.753   5.144  1.00  0.00     0.162 HD
HETATM    6  C18 UNL     1      35.795   3.446   5.705  1.00  0.00     0.187 C 
HETATM    7  N5  UNL     1      36.277   3.760   4.393  1.00  0.00    -0.064 NA
ENDROOT
BRANCH   1   8
HETATM    8  C7  UNL     1      36.280   5.482   7.139  1.00  0.00     0.106 C 
HETATM    9  C6  UNL     1      35.298   6.466   6.527  1.00  0.00     0.047 C 
HETATM   10  C5  UNL     1      35.803   7.770   7.040  1.00  0.00     0.128 C 
HETATM   11  N2  UNL     1      36.347   7.417   8.365  1.00  0.00    -0.348 N 
HETATM   12  C4  UNL     1      36.899   8.306   9.321  1.00  0.00     0.250 C 
HETATM   13  C19 UNL     1      36.211   5.998   8.551  1.00  0.00     0.151 C 
HETATM   14  O1  UNL     1      36.910   9.527   8.997  1.00  0.00    -0.271 OA
BRANCH  12  15
HETATM   15  C2  UNL     1      37.436   7.900  10.614  1.00  0.00     0.272 C 
HETATM   16  C3  UNL     1      38.925   7.591  10.608  1.00  0.00     0.050 C 
BRANCH  15  17
HETATM   17  N1  UNL     1      37.258   9.040  11.544  1.00  0.00    -0.067 N 
HETATM   18  C1  UNL     1      37.296   8.519  12.878  1.00  0.00     0.267 C 
ATOM     19  H12 UNL     1      36.415   9.581  11.353  1.00  0.00     0.277 HD
ATOM     20  H11 UNL     1      37.935   9.788  11.390  1.00  0.00     0.277 HD
ENDBRANCH  15  17
ENDBRANCH  12  15
ENDBRANCH   1   8
BRANCH   3  21
HETATM   21  C10 UNL     1      34.480   0.946   7.794  1.00  0.00     0.027 C 
BRANCH  21  22
HETATM   22  C11 UNL     1      34.705   0.700   9.219  1.00  0.00     0.007 C 
BRANCH  22  23
HETATM   23  C12 UNL     1      33.605   0.843  10.176  1.00  0.00    -0.014 C 
HETATM   24  C13 UNL     1      33.741   2.236  10.823  1.00  0.00     0.004 C 
HETATM   25  C14 UNL     1      32.897   2.172  12.080  1.00  0.00     0.000 C 
HETATM   26  C15 UNL     1      31.469   1.829  11.792  1.00  0.00     0.000 C 
HETATM   27  C16 UNL     1      31.273   0.718  10.819  1.00  0.00     0.000 C 
HETATM   28  C17 UNL     1      32.224   0.774   9.637  1.00  0.00     0.004 C 
ENDBRANCH  22  23
ENDBRANCH  21  22
ENDBRANCH   3  21
TORSDOF 6
ENDMDL
MODEL 5
REMARK VINA RESULT: -7.136713115      2.682      3.026
REMARK  6 active torsions:
REMARK  status: ('A' for Active; 'I' for Inactive)
REMARK    1  A    between atoms: N1_2  and  C2_5 
REMARK    2  A    between atoms: C2_5  and  C4_7 
REMARK       I    between atoms: C4_7  and  N2_9 
REMARK    3  A    between atoms: C7_12  and  N3_13 
REMARK    4  A    between atoms: C9_15  and  C10_16 
REMARK    5  A    between atoms: C10_16  and  C11_17 
REMARK    6  A    between atoms: C11_17  and  C12_18 
ROOT
HETATM    1  N3  UNL     1      37.203   2.977  10.340  1.00  0.00    -0.347 N 
HETATM    2  C8  UNL     1      35.940   3.003   9.601  1.00  0.00     0.151 C 
HETATM    3  C9  UNL     1      36.056   1.676   8.893  1.00  0.00     0.102 C 
HETATM    4  N4  UNL     1      36.670   0.863   9.899  1.00  0.00    -0.358 N 
ATOM      5  H4  UNL     1      36.605  -0.153   9.962  1.00  0.00     0.162 HD
HETATM    6  C18 UNL     1      37.320   1.621  10.713  1.00  0.00     0.187 C 
HETATM    7  N5  UNL     1      38.031   1.032  11.809  1.00  0.00    -0.064 NA
ENDROOT
BRANCH   1   8
HETATM    8  C7  UNL     1      38.080   4.038  10.599  1.00  0.00     0.106 C 
HETATM    9  C6  UNL     1      38.834   4.578   9.396  1.00  0.00     0.047 C 
HETATM   10  C5  UNL     1      39.552   5.747   9.976  1.00  0.00     0.128 C 
HETATM   11  N2  UNL     1      38.619   6.227  11.014  1.00  0.00    -0.348 N 
HETATM   12  C4  UNL     1      38.779   7.369  11.838  1.00  0.00     0.250 C 
HETATM   13  C19 UNL     1      37.485   5.344  11.052  1.00  0.00     0.151 C 
HETATM   14  O1  UNL     1      39.829   8.046  11.644  1.00  0.00    -0.271 OA
BRANCH  12  15
HETATM   15  C2  UNL     1      37.830   7.791  12.860  1.00  0.00     0.272 C 
HETATM   16  C3  UNL     1      37.740   6.859  14.058  1.00  0.00     0.050 C 
BRANCH  15  17
HETATM   17  N1  UNL     1      38.299   9.094  13.388  1.00  0.00    -0.067 N 
HETATM   18  C1  UNL     1      37.419  10.106  12.886  1.00  0.00     0.267 C 
ATOM     19  H12 UNL     1      39.279   9.279  13.176  1.00  0.00     0.277 HD
ATOM     20  H11 UNL     1      38.378   9.105  14.406  1.00  0.00     0.277 HD
ENDBRANCH  15  17
ENDBRANCH  12  15
ENDBRANCH   1   8
BRANCH   3  21
HETATM   21  C10 UNL     1      34.787   1.174   8.319  1.00  0.00     0.027 C 
BRANCH  21  22
HETATM   22  C11 UNL     1      33.553   1.922   8.565  1.00  0.00     0.007 C 
BRANCH  22  23
HETATM   23  C12 UNL     1      32.680   1.558   9.685  1.00  0.00    -0.014 C 
HETATM   24  C13 UNL     1      33.001   0.097  10.057  1.00  0.00     0.004 C 
HETATM   25  C14 UNL     1      31.815  -0.371  10.877  1.00  0.00     0.000 C 
HETATM   26  C15 UNL     1      31.589   0.477  12.090  1.00  0.00     0.000 C 
HETATM   27  C16 UNL     1      31.681   1.945  11.857  1.00  0.00     0.000 C 
HETATM   28  C17 UNL     1      32.822   2.342  10.936  1.00  0.00     0.004 C 
ENDBRANCH  22  23
ENDBRANCH  21  22
ENDBRANCH   3  21
TORSDOF 6
ENDMDL
