MODEL 1
REMARK VINA RESULT: -7.938118249      0.000      0.000
REMARK  6 active torsions:
REMARK  status: ('A' for Active; 'I' for Inactive)
REMARK    1  A    between atoms: N2_9  and  C8_10 
REMARK    2  A    between atoms: C8_10  and  C9_11 
REMARK    3  A    between atoms: C9_11  and  C10_12 
REMARK    4  A    between atoms: C12_16  and  C13_17 
REMARK    5  A    between atoms: C13_17  and  C14_18 
REMARK    6  A    between atoms: C14_18  and  O3_19 
ROOT
HETATM    1  C1  UNL     1      36.574   9.789   7.644  1.00  0.00     0.154 C 
HETATM    2  N1  UNL     1      36.583   8.452   7.081  1.00  0.00    -0.378 N 
HETATM    3  C2  UNL     1      35.291   7.942   6.945  1.00  0.00     0.063 C 
HETATM    4  C3  UNL     1      35.130   6.471   6.804  1.00  0.00     0.050 C 
HETATM    5  C4  UNL     1      35.902   5.827   7.939  1.00  0.00     0.001 C 
HETATM    6  C5  UNL     1      35.829   4.329   7.923  1.00  0.00     0.032 C 
HETATM    7  C6  UNL     1      35.519   3.748   9.283  1.00  0.00     0.112 C 
HETATM    8  C7  UNL     1      34.169   3.127   9.189  1.00  0.00     0.297 C 
HETATM    9  N2  UNL     1      33.960   2.044  10.116  1.00  0.00     0.092 N 
HETATM   10  C11 UNL     1      35.036   1.113   9.870  1.00  0.00     0.297 C 
HETATM   11  C12 UNL     1      36.277   1.839  10.558  1.00  0.00     0.114 C 
HETATM   12  N3  UNL     1      36.607   2.941   9.742  1.00  0.00    -0.381 N 
HETATM   13  C15 UNL     1      37.725   3.650  10.209  1.00  0.00     0.059 C 
HETATM   14  C16 UNL     1      37.826   5.126   9.889  1.00  0.00     0.045 C 
HETATM   15  C17 UNL     1      38.306   5.425   8.512  1.00  0.00     0.015 C 
HETATM   16  C18 UNL     1      37.364   6.177   7.636  1.00  0.00     0.029 C 
HETATM   17  C19 UNL     1      37.608   7.640   7.593  1.00  0.00     0.067 C 
ENDROOT
BRANCH   9  18
HETATM   18  C8  UNL     1      32.692   1.427   9.904  1.00  0.00     0.283 C 
BRANCH  18  19
HETATM   19  C9  UNL     1      32.512   0.081  10.516  1.00  0.00     0.143 C 
BRANCH  19  20
HETATM   20  C10 UNL     1      31.397   0.125  11.488  1.00  0.00     0.174 C 
HETATM   21  O1  UNL     1      31.371   1.044  12.339  1.00  0.00    -0.648 OA
HETATM   22  O2  UNL     1      30.394  -0.861  11.438  1.00  0.00    -0.648 OA
ENDBRANCH  19  20
ENDBRANCH  18  19
ENDBRANCH   9  18
BRANCH  11  23
HETATM   23  C13 UNL     1      37.232   0.776  10.859  1.00  0.00     0.053 C 
BRANCH  23  24
HETATM   24  C14 UNL     1      37.838   0.624  12.195  1.00  0.00     0.166 C 
BRANCH  24  25
HETATM   25  O3  UNL     1      38.287  -0.750  12.345  1.00  0.00    -0.401 OA
ATOM     26  H3  UNL     1      39.219  -0.744  12.532  1.00  0.00     0.209 HD
ENDBRANCH  24  25
ENDBRANCH  23  24
ENDBRANCH  11  23
TORSDOF 6
ENDMDL
MODEL 2
REMARK VINA RESULT: -7.436551225      3.071      3.459
REMARK  6 active torsions:
REMARK  status: ('A' for Active; 'I' for Inactive)
REMARK    1  A    between atoms: N2_9  and  C8_10 
REMARK    2  A    between atoms: C8_10  and  C9_11 
REMARK    3  A    between atoms: C9_11  and  C10_12 
REMARK    4  A    between atoms: C12_16  and  C13_17 
REMARK    5  A    between atoms: C13_17  and  C14_18 
REMARK    6  A    between atoms: C14_18  and  O3_19 
ROOT
HETATM    1  C1  UNL     1      37.827   4.557   2.334  1.00  0.00     0.154 C 
HETATM    2  N1  UNL     1      37.506   3.345   3.062  1.00  0.00    -0.378 N 
HETATM    3  C2  UNL     1      36.176   3.334   3.483  1.00  0.00     0.063 C 
HETATM    4  C3  UNL     1      35.797   2.410   4.584  1.00  0.00     0.050 C 
HETATM    5  C4  UNL     1      36.774   2.644   5.719  1.00  0.00     0.001 C 
HETATM    6  C5  UNL     1      36.511   1.770   6.909  1.00  0.00     0.032 C 
HETATM    7  C6  UNL     1      36.533   2.538   8.211  1.00  0.00     0.112 C 
HETATM    8  C7  UNL     1      35.145   2.511   8.750  1.00  0.00     0.297 C 
HETATM    9  N2  UNL     1      35.075   2.629  10.184  1.00  0.00     0.092 N 
HETATM   10  C11 UNL     1      35.909   1.569  10.699  1.00  0.00     0.297 C 
HETATM   11  C12 UNL     1      37.376   2.135  10.440  1.00  0.00     0.114 C 
HETATM   12  N3  UNL     1      37.595   2.075   9.048  1.00  0.00    -0.381 N 
HETATM   13  C15 UNL     1      38.880   2.503   8.679  1.00  0.00     0.059 C 
HETATM   14  C16 UNL     1      39.071   3.105   7.303  1.00  0.00     0.045 C 
HETATM   15  C17 UNL     1      39.171   2.105   6.204  1.00  0.00     0.015 C 
HETATM   16  C18 UNL     1      38.120   2.180   5.150  1.00  0.00     0.029 C 
HETATM   17  C19 UNL     1      38.524   2.937   3.940  1.00  0.00     0.067 C 
ENDROOT
BRANCH   9  18
HETATM   18  C8  UNL     1      33.732   2.492  10.643  1.00  0.00     0.283 C 
BRANCH  18  19
HETATM   19  C9  UNL     1      33.401   1.203  11.315  1.00  0.00     0.143 C 
BRANCH  19  20
HETATM   20  C10 UNL     1      32.066   1.302  11.944  1.00  0.00     0.174 C 
HETATM   21  O1  UNL     1      31.607   2.435  12.219  1.00  0.00    -0.648 OA
HETATM   22  O2  UNL     1      31.341   0.128  12.220  1.00  0.00    -0.648 OA
ENDBRANCH  19  20
ENDBRANCH  18  19
ENDBRANCH   9  18
BRANCH  11  23
HETATM   23  C13 UNL     1      38.235   1.443  11.397  1.00  0.00     0.053 C 
BRANCH  23  24
HETATM   24  C14 UNL     1      37.700   0.462  12.360  1.00  0.00     0.166 C 
BRANCH  24  25
HETATM   25  O3  UNL     1      38.455  -0.773  12.229  1.00  0.00    -0.401 OA
ATOM     26  H3  UNL     1      38.678  -0.894  11.314  1.00  0.00     0.209 HD
ENDBRANCH  24  25
ENDBRANCH  23  24
ENDBRANCH  11  23
TORSDOF 6
ENDMDL
MODEL 3
REMARK VINA RESULT: -7.346477759      1.317      1.471
REMARK  6 active torsions:
REMARK  status: ('A' for Active; 'I' for Inactive)
REMARK    1  A    between atoms: N2_9  and  C8_10 
REMARK    2  A    between atoms: C8_10  and  C9_11 
REMARK    3  A    between atoms: C9_11  and  C10_12 
REMARK    4  A    between atoms: C12_16  and  C13_17 
REMARK    5  A    between atoms: C13_17  and  C14_18 
REMARK    6  A    between atoms: C14_18  and  O3_19 
ROOT
HETATM    1  C1  UNL     1      37.307  10.715   9.092  1.00  0.00     0.154 C 
HETATM    2  N1  UNL     1      37.435   9.449   8.396  1.00  0.00    -0.378 N 
HETATM    3  C2  UNL     1      36.188   8.904   8.086  1.00  0.00     0.063 C 
HETATM    4  C3  UNL     1      36.116   7.452   7.778  1.00  0.00     0.050 C 
HETATM    5  C4  UNL     1      36.815   6.721   8.907  1.00  0.00     0.001 C 
HETATM    6  C5  UNL     1      36.820   5.232   8.728  1.00  0.00     0.032 C 
HETATM    7  C6  UNL     1      36.421   4.494   9.985  1.00  0.00     0.112 C 
HETATM    8  C7  UNL     1      35.118   3.831   9.699  1.00  0.00     0.297 C 
HETATM    9  N2  UNL     1      34.882   2.647  10.484  1.00  0.00     0.092 N 
HETATM   10  C11 UNL     1      36.022   1.793  10.245  1.00  0.00     0.297 C 
HETATM   11  C12 UNL     1      37.158   2.491  11.120  1.00  0.00     0.114 C 
HETATM   12  N3  UNL     1      37.502   3.687  10.458  1.00  0.00    -0.381 N 
HETATM   13  C15 UNL     1      38.536   4.387  11.099  1.00  0.00     0.059 C 
HETATM   14  C16 UNL     1      38.590   5.892  10.947  1.00  0.00     0.045 C 
HETATM   15  C17 UNL     1      39.176   6.358   9.660  1.00  0.00     0.015 C 
HETATM   16  C18 UNL     1      38.278   7.162   8.782  1.00  0.00     0.029 C 
HETATM   17  C19 UNL     1      38.450   8.629   8.915  1.00  0.00     0.067 C 
ENDROOT
BRANCH   9  18
HETATM   18  C8  UNL     1      33.672   2.005  10.091  1.00  0.00     0.283 C 
BRANCH  18  19
HETATM   19  C9  UNL     1      33.208   0.893  10.968  1.00  0.00     0.143 C 
BRANCH  19  20
HETATM   20  C10 UNL     1      32.107   1.373  11.833  1.00  0.00     0.174 C 
HETATM   21  O1  UNL     1      32.042   2.592  12.112  1.00  0.00    -0.648 OA
HETATM   22  O2  UNL     1      31.161   0.454  12.323  1.00  0.00    -0.648 OA
ENDBRANCH  19  20
ENDBRANCH  18  19
ENDBRANCH   9  18
BRANCH  11  23
HETATM   23  C13 UNL     1      38.135   1.441  11.397  1.00  0.00     0.053 C 
BRANCH  23  24
HETATM   24  C14 UNL     1      38.069   0.613  12.617  1.00  0.00     0.166 C 
BRANCH  24  25
HETATM   25  O3  UNL     1      38.250  -0.778  12.240  1.00  0.00    -0.401 OA
ATOM     26  H3  UNL     1      39.164  -0.915  12.021  1.00  0.00     0.209 HD
ENDBRANCH  24  25
ENDBRANCH  23  24
ENDBRANCH  11  23
TORSDOF 6
ENDMDL
MODEL 4
REMARK VINA RESULT: -7.339124851      4.582      6.865
REMARK  6 active torsions:
REMARK  status: ('A' for Active; 'I' for Inactive)
REMARK    1  A    between atoms: N2_9  and  C8_10 
REMARK    2  A    between atoms: C8_10  and  C9_11 
REMARK    3  A    between atoms: C9_11  and  C10_12 
REMARK    4  A    between atoms: C12_16  and  C13_17 
REMARK    5  A    between atoms: C13_17  and  C14_18 
REMARK    6  A    between atoms: C14_18  and  O3_19 
ROOT
HETATM    1  C1  UNL     1      31.335   0.292  11.248  1.00  0.00     0.154 C 
HETATM    2  N1  UNL     1      32.048   1.358  10.571  1.00  0.00    -0.378 N 
HETATM    3  C2  UNL     1      32.016   1.199   9.185  1.00  0.00     0.063 C 
HETATM    4  C3  UNL     1      33.029   1.924   8.373  1.00  0.00     0.050 C 
HETATM    5  C4  UNL     1      34.386   1.612   8.972  1.00  0.00     0.001 C 
HETATM    6  C5  UNL     1      35.515   2.284   8.247  1.00  0.00     0.032 C 
HETATM    7  C6  UNL     1      36.662   1.343   7.960  1.00  0.00     0.112 C 
HETATM    8  C7  UNL     1      36.725   1.178   6.482  1.00  0.00     0.297 C 
HETATM    9  N2  UNL     1      38.037   0.853   5.986  1.00  0.00     0.092 N 
HETATM   10  C11 UNL     1      38.906   1.894   6.483  1.00  0.00     0.297 C 
HETATM   11  C12 UNL     1      39.075   1.493   8.016  1.00  0.00     0.114 C 
HETATM   12  N3  UNL     1      37.843   1.768   8.646  1.00  0.00    -0.381 N 
HETATM   13  C15 UNL     1      37.864   1.504  10.024  1.00  0.00     0.059 C 
HETATM   14  C16 UNL     1      36.567   1.122  10.704  1.00  0.00     0.045 C 
HETATM   15  C17 UNL     1      35.674   2.272  11.015  1.00  0.00     0.015 C 
HETATM   16  C18 UNL     1      34.335   2.261  10.360  1.00  0.00     0.029 C 
HETATM   17  C19 UNL     1      33.246   1.720  11.208  1.00  0.00     0.067 C 
ENDROOT
BRANCH   9  18
HETATM   18  C8  UNL     1      38.051   0.812   4.561  1.00  0.00     0.283 C 
BRANCH  18  19
HETATM   19  C9  UNL     1      37.727   2.092   3.869  1.00  0.00     0.143 C 
BRANCH  19  20
HETATM   20  C10 UNL     1      37.288   1.808   2.485  1.00  0.00     0.174 C 
HETATM   21  O1  UNL     1      38.040   1.145   1.734  1.00  0.00    -0.648 OA
HETATM   22  O2  UNL     1      36.041   2.285   2.042  1.00  0.00    -0.648 OA
ENDBRANCH  19  20
ENDBRANCH  18  19
ENDBRANCH   9  18
BRANCH  11  23
HETATM   23  C13 UNL     1      40.326   2.111   8.445  1.00  0.00     0.053 C 
BRANCH  23  24
HETATM   24  C14 UNL     1      41.518   1.310   8.783  1.00  0.00     0.166 C 
BRANCH  24  25
HETATM   25  O3  UNL     1      41.092   0.146   9.541  1.00  0.00    -0.401 OA
ATOM     26  H3  UNL     1      41.640   0.072  10.314  1.00  0.00     0.209 HD
ENDBRANCH  24  25
ENDBRANCH  23  24
ENDBRANCH  11  23
TORSDOF 6
ENDMDL
MODEL 5
REMARK VINA RESULT: -7.268661553      4.476      6.864
REMARK  6 active torsions:
REMARK  status: ('A' for Active; 'I' for Inactive)
REMARK    1  A    between atoms: N2_9  and  C8_10 
REMARK    2  A    between atoms: C8_10  and  C9_11 
REMARK    3  A    between atoms: C9_11  and  C10_12 
REMARK    4  A    between atoms: C12_16  and  C13_17 
REMARK    5  A    between atoms: C13_17  and  C14_18 
REMARK    6  A    between atoms: C14_18  and  O3_19 
ROOT
HETATM    1  C1  UNL     1      31.655   0.486  12.113  1.00  0.00     0.154 C 
HETATM    2  N1  UNL     1      32.070   1.423  11.086  1.00  0.00    -0.378 N 
HETATM    3  C2  UNL     1      32.074   0.833   9.821  1.00  0.00     0.063 C 
HETATM    4  C3  UNL     1      32.865   1.487   8.746  1.00  0.00     0.050 C 
HETATM    5  C4  UNL     1      34.259   1.716   9.295  1.00  0.00     0.001 C 
HETATM    6  C5  UNL     1      35.177   2.376   8.309  1.00  0.00     0.032 C 
HETATM    7  C6  UNL     1      36.525   1.698   8.225  1.00  0.00     0.112 C 
HETATM    8  C7  UNL     1      36.621   1.097   6.867  1.00  0.00     0.297 C 
HETATM    9  N2  UNL     1      37.972   0.958   6.385  1.00  0.00     0.092 N 
HETATM   10  C11 UNL     1      38.548   2.280   6.467  1.00  0.00     0.297 C 
HETATM   11  C12 UNL     1      38.819   2.435   8.030  1.00  0.00     0.114 C 
HETATM   12  N3  UNL     1      37.561   2.589   8.648  1.00  0.00    -0.381 N 
HETATM   13  C15 UNL     1      37.654   2.786  10.034  1.00  0.00     0.059 C 
HETATM   14  C16 UNL     1      36.500   2.336  10.905  1.00  0.00     0.045 C 
HETATM   15  C17 UNL     1      35.345   3.275  10.926  1.00  0.00     0.015 C 
HETATM   16  C18 UNL     1      34.051   2.737  10.420  1.00  0.00     0.029 C 
HETATM   17  C19 UNL     1      33.139   2.244  11.481  1.00  0.00     0.067 C 
ENDROOT
BRANCH   9  18
HETATM   18  C8  UNL     1      37.989   0.476   5.043  1.00  0.00     0.283 C 
BRANCH  18  19
HETATM   19  C9  UNL     1      38.622   1.374   4.036  1.00  0.00     0.143 C 
BRANCH  19  20
HETATM   20  C10 UNL     1      37.721   1.522   2.871  1.00  0.00     0.174 C 
HETATM   21  O1  UNL     1      36.590   2.033   3.040  1.00  0.00    -0.648 OA
HETATM   22  O2  UNL     1      38.150   1.089   1.604  1.00  0.00    -0.648 OA
ENDBRANCH  19  20
ENDBRANCH  18  19
ENDBRANCH   9  18
BRANCH  11  23
HETATM   23  C13 UNL     1      39.874   3.439   8.144  1.00  0.00     0.053 C 
BRANCH  23  24
HETATM   24  C14 UNL     1      41.266   3.077   8.472  1.00  0.00     0.166 C 
BRANCH  24  25
HETATM   25  O3  UNL     1      41.555   3.526   9.823  1.00  0.00    -0.401 OA
ATOM     26  H3  UNL     1      42.023   4.351   9.773  1.00  0.00     0.209 HD
ENDBRANCH  24  25
ENDBRANCH  23  24
ENDBRANCH  11  23
TORSDOF 6
ENDMDL
