MODEL 1
REMARK VINA RESULT: -8.035830160      0.000      0.000
REMARK  7 active torsions:
REMARK  status: ('A' for Active; 'I' for Inactive)
REMARK    1  A    between atoms: C2_2  and  O1_3 
REMARK    2  A    between atoms: O1_3  and  C3_4 
REMARK    3  A    between atoms: C7_9  and  C8_10 
REMARK    4  A    between atoms: C8_10  and  C10_12 
REMARK    5  A    between atoms: C13_16  and  N1_17 
REMARK    6  A    between atoms: N1_17  and  C14_19 
REMARK    7  A    between atoms: C17_25  and  N3_26 
ROOT
HETATM    1  C10 UNL     1     -29.766  -4.764  -4.659  1.00  0.00    -0.045 A 
HETATM    2  C11 UNL     1     -30.744  -5.404  -5.396  1.00  0.00     0.034 A 
HETATM    3  C12 UNL     1     -30.600  -6.738  -5.780  1.00  0.00     0.063 A 
HETATM    4 CL2  UNL     1     -31.892  -7.492  -6.723  1.00  0.00    -0.082 Cl
HETATM    5  C13 UNL     1     -29.479  -7.447  -5.435  1.00  0.00     0.077 A 
HETATM    6  C18 UNL     1     -28.506  -6.798  -4.697  1.00  0.00     0.063 A 
HETATM    7 CL4  UNL     1     -27.051  -7.639  -4.220  1.00  0.00    -0.082 Cl
HETATM    8  C19 UNL     1     -28.643  -5.465  -4.308  1.00  0.00     0.034 A 
ENDROOT
BRANCH   5   9
HETATM    9  N1  UNL     1     -29.302  -8.791  -5.805  1.00  0.00    -0.339 N 
ATOM     10  H1  UNL     1     -29.709  -9.504  -5.200  1.00  0.00     0.167 HD
BRANCH   9  11
HETATM   11  C14 UNL     1     -28.666  -9.191  -6.850  1.00  0.00     0.124 A 
HETATM   12  C15 UNL     1     -29.249  -9.352  -8.080  1.00  0.00     0.092 A 
HETATM   13  C16 UNL     1     -28.480  -9.786  -9.132  1.00  0.00     0.122 A 
HETATM   14 CL3  UNL     1     -29.159 -10.017 -10.749  1.00  0.00    -0.064 Cl
HETATM   15  N2  UNL     1     -27.172 -10.047  -8.949  1.00  0.00    -0.181 N 
HETATM   16  C17 UNL     1     -26.607  -9.885  -7.732  1.00  0.00     0.678 A 
ATOM     17  H2  UNL     1     -26.605 -10.369  -9.733  1.00  0.00     0.185 HD
HETATM   18  N4  UNL     1     -27.360  -9.463  -6.713  1.00  0.00    -0.177 N 
ATOM     19  H4  UNL     1     -26.927  -9.343  -5.798  1.00  0.00     0.185 HD
BRANCH  16  20
HETATM   20  N3  UNL     1     -25.334 -10.146  -7.579  1.00  0.00    -0.234 N 
ATOM     21  H32 UNL     1     -25.016 -10.987  -7.095  1.00  0.00     0.174 HD
ATOM     22  H31 UNL     1     -24.643  -9.495  -7.953  1.00  0.00     0.174 HD
ENDBRANCH  16  20
ENDBRANCH   9  11
ENDBRANCH   5   9
BRANCH   1  23
HETATM   23  C8  UNL     1     -29.956  -3.367  -4.278  1.00  0.00     0.064 C 
HETATM   24  C9  UNL     1     -29.451  -3.029  -2.896  1.00  0.00     0.021 C 
BRANCH  23  25
HETATM   25  C7  UNL     1     -29.274  -2.456  -5.245  1.00  0.00     0.021 A 
HETATM   26  C6  UNL     1     -29.222  -1.097  -5.033  1.00  0.00     0.049 A 
HETATM   27  C5  UNL     1     -28.570  -0.309  -5.977  1.00  0.00     0.040 A 
HETATM   28  C4  UNL     1     -27.991  -0.868  -7.096  1.00  0.00     0.079 A 
HETATM   29 CL1  UNL     1     -28.501   1.431  -5.710  1.00  0.00    -0.084 Cl
HETATM   30  C3  UNL     1     -28.064  -2.238  -7.274  1.00  0.00     0.143 A 
HETATM   31  N5  UNL     1     -28.692  -2.964  -6.355  1.00  0.00    -0.340 N 
ATOM     32  H5  UNL     1     -28.739  -3.973  -6.497  1.00  0.00     0.167 HD
BRANCH  30  33
HETATM   33  O1  UNL     1     -27.470  -2.775  -8.413  1.00  0.00    -0.336 OA
BRANCH  33  34
HETATM   34  C2  UNL     1     -27.673  -2.128  -9.657  1.00  0.00     0.173 C 
HETATM   35  C1  UNL     1     -26.400  -1.797 -10.368  1.00  0.00     0.034 C 
ENDBRANCH  33  34
ENDBRANCH  30  33
ENDBRANCH  23  25
ENDBRANCH   1  23
TORSDOF 7
ENDMDL
MODEL 2
REMARK VINA RESULT: -7.927057843     13.252     15.930
REMARK  7 active torsions:
REMARK  status: ('A' for Active; 'I' for Inactive)
REMARK    1  A    between atoms: C2_2  and  O1_3 
REMARK    2  A    between atoms: O1_3  and  C3_4 
REMARK    3  A    between atoms: C7_9  and  C8_10 
REMARK    4  A    between atoms: C8_10  and  C10_12 
REMARK    5  A    between atoms: C13_16  and  N1_17 
REMARK    6  A    between atoms: N1_17  and  C14_19 
REMARK    7  A    between atoms: C17_25  and  N3_26 
ROOT
HETATM    1  C10 UNL     1     -14.769  -0.902 -13.289  1.00  0.00    -0.045 A 
HETATM    2  C11 UNL     1     -15.513  -1.653 -12.399  1.00  0.00     0.034 A 
HETATM    3  C12 UNL     1     -15.485  -3.048 -12.432  1.00  0.00     0.063 A 
HETATM    4 CL2  UNL     1     -16.464  -3.943 -11.263  1.00  0.00    -0.082 Cl
HETATM    5  C13 UNL     1     -14.714  -3.709 -13.353  1.00  0.00     0.077 A 
HETATM    6  C18 UNL     1     -13.971  -2.949 -14.239  1.00  0.00     0.063 A 
HETATM    7 CL4  UNL     1     -12.966  -3.723 -15.439  1.00  0.00    -0.082 Cl
HETATM    8  C19 UNL     1     -13.994  -1.555 -14.212  1.00  0.00     0.034 A 
ENDROOT
BRANCH   5   9
HETATM    9  N1  UNL     1     -14.662  -5.112 -13.413  1.00  0.00    -0.339 N 
ATOM     10  H1  UNL     1     -15.233  -5.575 -14.120  1.00  0.00     0.167 HD
BRANCH   9  11
HETATM   11  C14 UNL     1     -13.948  -5.858 -12.645  1.00  0.00     0.124 A 
HETATM   12  C15 UNL     1     -12.973  -5.376 -11.810  1.00  0.00     0.092 A 
HETATM   13  C16 UNL     1     -12.267  -6.259 -11.029  1.00  0.00     0.122 A 
HETATM   14 CL3  UNL     1     -10.995  -5.715  -9.927  1.00  0.00    -0.064 Cl
HETATM   15  N2  UNL     1     -12.535  -7.576 -11.089  1.00  0.00    -0.181 N 
HETATM   16  C17 UNL     1     -13.498  -8.040 -11.916  1.00  0.00     0.678 A 
ATOM     17  H2  UNL     1     -12.008  -8.227 -10.508  1.00  0.00     0.185 HD
HETATM   18  N4  UNL     1     -14.182  -7.177 -12.673  1.00  0.00    -0.177 N 
ATOM     19  H4  UNL     1     -14.907  -7.535 -13.294  1.00  0.00     0.185 HD
BRANCH  16  20
HETATM   20  N3  UNL     1     -13.740  -9.326 -11.957  1.00  0.00    -0.234 N 
ATOM     21  H32 UNL     1     -13.807  -9.883 -11.104  1.00  0.00     0.174 HD
ATOM     22  H31 UNL     1     -13.865  -9.781 -12.862  1.00  0.00     0.174 HD
ENDBRANCH  16  20
ENDBRANCH   9  11
ENDBRANCH   5   9
BRANCH   1  23
HETATM   23  C8  UNL     1     -14.827   0.555 -13.221  1.00  0.00     0.064 C 
HETATM   24  C9  UNL     1     -13.509   1.240 -13.490  1.00  0.00     0.021 C 
BRANCH  23  25
HETATM   25  C7  UNL     1     -15.825   1.091 -14.195  1.00  0.00     0.021 A 
HETATM   26  C6  UNL     1     -15.502   2.111 -15.060  1.00  0.00     0.049 A 
HETATM   27  C5  UNL     1     -16.480   2.561 -15.941  1.00  0.00     0.040 A 
HETATM   28  C4  UNL     1     -17.742   2.005 -15.951  1.00  0.00     0.079 A 
HETATM   29 CL1  UNL     1     -16.072   3.867 -17.051  1.00  0.00    -0.084 Cl
HETATM   30  C3  UNL     1     -18.028   0.981 -15.066  1.00  0.00     0.143 A 
HETATM   31  N5  UNL     1     -17.072   0.573 -14.238  1.00  0.00    -0.340 N 
ATOM     32  H5  UNL     1     -17.296  -0.183 -13.590  1.00  0.00     0.167 HD
BRANCH  30  33
HETATM   33  O1  UNL     1     -19.311   0.437 -15.098  1.00  0.00    -0.336 OA
BRANCH  33  34
HETATM   34  C2  UNL     1     -20.423   1.313 -15.046  1.00  0.00     0.173 C 
HETATM   35  C1  UNL     1     -21.538   0.806 -14.189  1.00  0.00     0.034 C 
ENDBRANCH  33  34
ENDBRANCH  30  33
ENDBRANCH  23  25
ENDBRANCH   1  23
TORSDOF 7
ENDMDL
MODEL 3
REMARK VINA RESULT: -7.905211589     13.278     15.964
REMARK  7 active torsions:
REMARK  status: ('A' for Active; 'I' for Inactive)
REMARK    1  A    between atoms: C2_2  and  O1_3 
REMARK    2  A    between atoms: O1_3  and  C3_4 
REMARK    3  A    between atoms: C7_9  and  C8_10 
REMARK    4  A    between atoms: C8_10  and  C10_12 
REMARK    5  A    between atoms: C13_16  and  N1_17 
REMARK    6  A    between atoms: N1_17  and  C14_19 
REMARK    7  A    between atoms: C17_25  and  N3_26 
ROOT
HETATM    1  C10 UNL     1     -14.758  -0.912 -13.240  1.00  0.00    -0.045 A 
HETATM    2  C11 UNL     1     -13.974  -1.587 -14.156  1.00  0.00     0.034 A 
HETATM    3  C12 UNL     1     -13.947  -2.982 -14.192  1.00  0.00     0.063 A 
HETATM    4 CL2  UNL     1     -12.919  -3.778 -15.390  1.00  0.00    -0.082 Cl
HETATM    5  C13 UNL     1     -14.700  -3.718 -13.315  1.00  0.00     0.077 A 
HETATM    6  C18 UNL     1     -15.483  -3.034 -12.403  1.00  0.00     0.063 A 
HETATM    7 CL4  UNL     1     -16.470  -3.906 -11.256  1.00  0.00    -0.082 Cl
HETATM    8  C19 UNL     1     -15.516  -1.640 -12.361  1.00  0.00     0.034 A 
ENDROOT
BRANCH   5   9
HETATM    9  N1  UNL     1     -14.697  -5.123 -13.325  1.00  0.00    -0.339 N 
ATOM     10  H1  UNL     1     -15.326  -5.592 -13.977  1.00  0.00     0.167 HD
BRANCH   9  11
HETATM   11  C14 UNL     1     -13.960  -5.865 -12.575  1.00  0.00     0.124 A 
HETATM   12  C15 UNL     1     -12.975  -5.377 -11.757  1.00  0.00     0.092 A 
HETATM   13  C16 UNL     1     -12.244  -6.255 -10.994  1.00  0.00     0.122 A 
HETATM   14 CL3  UNL     1     -10.956  -5.703  -9.914  1.00  0.00    -0.064 Cl
HETATM   15  N2  UNL     1     -12.498  -7.575 -11.056  1.00  0.00    -0.181 N 
HETATM   16  C17 UNL     1     -13.472  -8.046 -11.866  1.00  0.00     0.678 A 
ATOM     17  H2  UNL     1     -11.952  -8.224 -10.489  1.00  0.00     0.185 HD
HETATM   18  N4  UNL     1     -14.179  -7.187 -12.605  1.00  0.00    -0.177 N 
ATOM     19  H4  UNL     1     -14.913  -7.550 -13.214  1.00  0.00     0.185 HD
BRANCH  16  20
HETATM   20  N3  UNL     1     -13.700  -9.335 -11.910  1.00  0.00    -0.234 N 
ATOM     21  H32 UNL     1     -13.976  -9.798 -12.776  1.00  0.00     0.174 HD
ATOM     22  H31 UNL     1     -13.598  -9.887 -11.058  1.00  0.00     0.174 HD
ENDBRANCH  16  20
ENDBRANCH   9  11
ENDBRANCH   5   9
BRANCH   1  23
HETATM   23  C8  UNL     1     -14.757   0.548 -13.235  1.00  0.00     0.064 C 
HETATM   24  C9  UNL     1     -13.422   1.167 -13.573  1.00  0.00     0.021 C 
BRANCH  23  25
HETATM   25  C7  UNL     1     -15.763   1.082 -14.201  1.00  0.00     0.021 A 
HETATM   26  C6  UNL     1     -15.451   2.109 -15.063  1.00  0.00     0.049 A 
HETATM   27  C5  UNL     1     -16.437   2.556 -15.937  1.00  0.00     0.040 A 
HETATM   28  C4  UNL     1     -17.695   1.991 -15.943  1.00  0.00     0.079 A 
HETATM   29 CL1  UNL     1     -16.044   3.870 -17.042  1.00  0.00    -0.084 Cl
HETATM   30  C3  UNL     1     -17.970   0.960 -15.062  1.00  0.00     0.143 A 
HETATM   31  N5  UNL     1     -17.007   0.555 -14.240  1.00  0.00    -0.340 N 
ATOM     32  H5  UNL     1     -17.222  -0.206 -13.595  1.00  0.00     0.167 HD
BRANCH  30  33
HETATM   33  O1  UNL     1     -19.248   0.408 -15.090  1.00  0.00    -0.336 OA
BRANCH  33  34
HETATM   34  C2  UNL     1     -20.367   1.278 -15.074  1.00  0.00     0.173 C 
HETATM   35  C1  UNL     1     -21.486   0.789 -14.212  1.00  0.00     0.034 C 
ENDBRANCH  33  34
ENDBRANCH  30  33
ENDBRANCH  23  25
ENDBRANCH   1  23
TORSDOF 7
ENDMDL
MODEL 4
REMARK VINA RESULT: -7.835257428     13.329     15.876
REMARK  7 active torsions:
REMARK  status: ('A' for Active; 'I' for Inactive)
REMARK    1  A    between atoms: C2_2  and  O1_3 
REMARK    2  A    between atoms: O1_3  and  C3_4 
REMARK    3  A    between atoms: C7_9  and  C8_10 
REMARK    4  A    between atoms: C8_10  and  C10_12 
REMARK    5  A    between atoms: C13_16  and  N1_17 
REMARK    6  A    between atoms: N1_17  and  C14_19 
REMARK    7  A    between atoms: C17_25  and  N3_26 
ROOT
HETATM    1  C10 UNL     1     -14.747  -1.105 -13.320  1.00  0.00    -0.045 A 
HETATM    2  C11 UNL     1     -15.531  -1.834 -12.448  1.00  0.00     0.034 A 
HETATM    3  C12 UNL     1     -15.564  -3.229 -12.503  1.00  0.00     0.063 A 
HETATM    4 CL2  UNL     1     -16.592  -4.097 -11.355  1.00  0.00    -0.082 Cl
HETATM    5  C13 UNL     1     -14.817  -3.909 -13.428  1.00  0.00     0.077 A 
HETATM    6  C18 UNL     1     -14.034  -3.170 -14.296  1.00  0.00     0.063 A 
HETATM    7 CL4  UNL     1     -13.055  -3.970 -15.501  1.00  0.00    -0.082 Cl
HETATM    8  C19 UNL     1     -13.994  -1.777 -14.248  1.00  0.00     0.034 A 
ENDROOT
BRANCH   5   9
HETATM    9  N1  UNL     1     -14.827  -5.312 -13.510  1.00  0.00    -0.339 N 
ATOM     10  H1  UNL     1     -15.470  -5.741 -14.177  1.00  0.00     0.167 HD
BRANCH   9  11
HETATM   11  C14 UNL     1     -14.088  -6.098 -12.809  1.00  0.00     0.124 A 
HETATM   12  C15 UNL     1     -13.791  -7.386 -13.171  1.00  0.00     0.092 A 
HETATM   13  C16 UNL     1     -12.990  -8.143 -12.350  1.00  0.00     0.122 A 
HETATM   14 CL3  UNL     1     -12.562  -9.812 -12.749  1.00  0.00    -0.064 Cl
HETATM   15  N2  UNL     1     -12.509  -7.620 -11.208  1.00  0.00    -0.181 N 
HETATM   16  C17 UNL     1     -12.808  -6.349 -10.860  1.00  0.00     0.678 A 
ATOM     17  H2  UNL     1     -11.916  -8.186 -10.601  1.00  0.00     0.185 HD
HETATM   18  N4  UNL     1     -13.587  -5.617 -11.662  1.00  0.00    -0.177 N 
ATOM     19  H4  UNL     1     -13.808  -4.659 -11.393  1.00  0.00     0.185 HD
BRANCH  16  20
HETATM   20  N3  UNL     1     -12.329  -5.862  -9.743  1.00  0.00    -0.234 N 
ATOM     21  H32 UNL     1     -12.941  -5.480  -9.022  1.00  0.00     0.174 HD
ATOM     22  H31 UNL     1     -11.320  -5.865  -9.591  1.00  0.00     0.174 HD
ENDBRANCH  16  20
ENDBRANCH   9  11
ENDBRANCH   5   9
BRANCH   1  23
HETATM   23  C8  UNL     1     -14.741   0.353 -13.230  1.00  0.00     0.064 C 
HETATM   24  C9  UNL     1     -13.394   0.983 -13.492  1.00  0.00     0.021 C 
BRANCH  23  25
HETATM   25  C7  UNL     1     -15.716   0.947 -14.192  1.00  0.00     0.021 A 
HETATM   26  C6  UNL     1     -15.352   1.970 -15.038  1.00  0.00     0.049 A 
HETATM   27  C5  UNL     1     -16.312   2.476 -15.909  1.00  0.00     0.040 A 
HETATM   28  C4  UNL     1     -17.596   1.971 -15.928  1.00  0.00     0.079 A 
HETATM   29 CL1  UNL     1     -15.852   3.785 -16.994  1.00  0.00    -0.084 Cl
HETATM   30  C3  UNL     1     -17.922   0.943 -15.062  1.00  0.00     0.143 A 
HETATM   31  N5  UNL     1     -16.983   0.481 -14.243  1.00  0.00    -0.340 N 
ATOM     32  H5  UNL     1     -17.237  -0.278 -13.610  1.00  0.00     0.167 HD
BRANCH  30  33
HETATM   33  O1  UNL     1     -19.226   0.453 -15.103  1.00  0.00    -0.336 OA
BRANCH  33  34
HETATM   34  C2  UNL     1     -20.302   1.369 -14.999  1.00  0.00     0.173 C 
HETATM   35  C1  UNL     1     -21.465   0.831 -14.229  1.00  0.00     0.034 C 
ENDBRANCH  33  34
ENDBRANCH  30  33
ENDBRANCH  23  25
ENDBRANCH   1  23
TORSDOF 7
ENDMDL
MODEL 5
REMARK VINA RESULT: -7.834782096     13.342     15.907
REMARK  7 active torsions:
REMARK  status: ('A' for Active; 'I' for Inactive)
REMARK    1  A    between atoms: C2_2  and  O1_3 
REMARK    2  A    between atoms: O1_3  and  C3_4 
REMARK    3  A    between atoms: C7_9  and  C8_10 
REMARK    4  A    between atoms: C8_10  and  C10_12 
REMARK    5  A    between atoms: C13_16  and  N1_17 
REMARK    6  A    between atoms: N1_17  and  C14_19 
REMARK    7  A    between atoms: C17_25  and  N3_26 
ROOT
HETATM    1  C10 UNL     1     -14.764  -1.083 -13.293  1.00  0.00    -0.045 A 
HETATM    2  C11 UNL     1     -13.981  -1.756 -14.211  1.00  0.00     0.034 A 
HETATM    3  C12 UNL     1     -13.995  -3.150 -14.285  1.00  0.00     0.063 A 
HETATM    4 CL2  UNL     1     -12.967  -3.944 -15.485  1.00  0.00    -0.082 Cl
HETATM    5  C13 UNL     1     -14.789  -3.887 -13.445  1.00  0.00     0.077 A 
HETATM    6  C18 UNL     1     -15.569  -3.204 -12.530  1.00  0.00     0.063 A 
HETATM    7 CL4  UNL     1     -16.605  -4.077 -11.427  1.00  0.00    -0.082 Cl
HETATM    8  C19 UNL     1     -15.562  -1.811 -12.449  1.00  0.00     0.034 A 
ENDROOT
BRANCH   5   9
HETATM    9  N1  UNL     1     -14.826  -5.290 -13.493  1.00  0.00    -0.339 N 
ATOM     10  H1  UNL     1     -15.492  -5.722 -14.135  1.00  0.00     0.167 HD
BRANCH   9  11
HETATM   11  C14 UNL     1     -14.086  -6.074 -12.791  1.00  0.00     0.124 A 
HETATM   12  C15 UNL     1     -13.785  -7.362 -13.152  1.00  0.00     0.092 A 
HETATM   13  C16 UNL     1     -12.983  -8.116 -12.330  1.00  0.00     0.122 A 
HETATM   14 CL3  UNL     1     -12.551  -9.784 -12.726  1.00  0.00    -0.064 Cl
HETATM   15  N2  UNL     1     -12.504  -7.590 -11.187  1.00  0.00    -0.181 N 
HETATM   16  C17 UNL     1     -12.807  -6.319 -10.841  1.00  0.00     0.678 A 
ATOM     17  H2  UNL     1     -11.910  -8.154 -10.580  1.00  0.00     0.185 HD
HETATM   18  N4  UNL     1     -13.587  -5.591 -11.644  1.00  0.00    -0.177 N 
ATOM     19  H4  UNL     1     -13.810  -4.632 -11.376  1.00  0.00     0.185 HD
BRANCH  16  20
HETATM   20  N3  UNL     1     -12.329  -5.830  -9.724  1.00  0.00    -0.234 N 
ATOM     21  H32 UNL     1     -11.390  -6.062  -9.400  1.00  0.00     0.174 HD
ATOM     22  H31 UNL     1     -12.910  -5.203  -9.167  1.00  0.00     0.174 HD
ENDBRANCH  16  20
ENDBRANCH   9  11
ENDBRANCH   5   9
BRANCH   1  23
HETATM   23  C8  UNL     1     -14.720   0.376 -13.247  1.00  0.00     0.064 C 
HETATM   24  C9  UNL     1     -13.367   0.964 -13.566  1.00  0.00     0.021 C 
BRANCH  23  25
HETATM   25  C7  UNL     1     -15.708   0.966 -14.200  1.00  0.00     0.021 A 
HETATM   26  C6  UNL     1     -15.359   1.995 -15.044  1.00  0.00     0.049 A 
HETATM   27  C5  UNL     1     -16.330   2.496 -15.906  1.00  0.00     0.040 A 
HETATM   28  C4  UNL     1     -17.609   1.980 -15.917  1.00  0.00     0.079 A 
HETATM   29 CL1  UNL     1     -15.889   3.813 -16.990  1.00  0.00    -0.084 Cl
HETATM   30  C3  UNL     1     -17.920   0.946 -15.054  1.00  0.00     0.143 A 
HETATM   31  N5  UNL     1     -16.972   0.489 -14.244  1.00  0.00    -0.340 N 
ATOM     32  H5  UNL     1     -17.214  -0.274 -13.611  1.00  0.00     0.167 HD
BRANCH  30  33
HETATM   33  O1  UNL     1     -19.220   0.445 -15.087  1.00  0.00    -0.336 OA
BRANCH  33  34
HETATM   34  C2  UNL     1     -20.303   1.356 -15.039  1.00  0.00     0.173 C 
HETATM   35  C1  UNL     1     -21.459   0.861 -14.230  1.00  0.00     0.034 C 
ENDBRANCH  33  34
ENDBRANCH  30  33
ENDBRANCH  23  25
ENDBRANCH   1  23
TORSDOF 7
ENDMDL
