MODEL 1
REMARK VINA RESULT: -10.169084379      0.000      0.000
REMARK  8 active torsions:
REMARK  status: ('A' for Active; 'I' for Inactive)
REMARK    1  A    between atoms: N1_2  and  C1_4 
REMARK    2  A    between atoms: C4_7  and  N2_8 
REMARK    3  A    between atoms: N3_10  and  C5_12 
REMARK    4  A    between atoms: C9_16  and  C10_17 
REMARK    5  A    between atoms: C10_17  and  C11_18 
REMARK    6  A    between atoms: C11_18  and  C12_19 
REMARK    7  A    between atoms: N4_26  and  O3_28 
REMARK    8  A    between atoms: C18_30  and  O4_31 
ROOT
HETATM    1  C5  UNL     1     -26.433  -1.334 -11.780  1.00  0.00     0.082 A 
HETATM    2  C6  UNL     1     -26.983  -1.666 -12.982  1.00  0.00     0.034 A 
HETATM    3  C7  UNL     1     -26.308  -1.305 -14.122  1.00  0.00     0.003 A 
HETATM    4  C8  UNL     1     -25.087  -0.615 -14.047  1.00  0.00     0.016 A 
HETATM    5  C9  UNL     1     -24.511  -0.268 -12.847  1.00  0.00     0.024 A 
HETATM    6  C18 UNL     1     -25.208  -0.642 -11.718  1.00  0.00     0.106 A 
ENDROOT
BRANCH   1   7
HETATM    7  N3  UNL     1     -27.095  -1.685 -10.563  1.00  0.00    -0.298 N 
HETATM    8  N2  UNL     1     -26.558  -2.458  -9.708  1.00  0.00    -0.300 N 
ATOM      9  H2  UNL     1     -25.631  -2.851  -9.868  1.00  0.00     0.187 HD
ATOM     10  H3  UNL     1     -28.024  -1.307 -10.375  1.00  0.00     0.187 HD
BRANCH   8  11
HETATM   11  C4  UNL     1     -27.280  -2.757  -8.528  1.00  0.00     0.048 A 
HETATM   12  C3  UNL     1     -27.560  -1.749  -7.633  1.00  0.00     0.033 A 
HETATM   13  C2  UNL     1     -28.263  -1.988  -6.463  1.00  0.00     0.038 A 
HETATM   14  C1  UNL     1     -28.685  -3.276  -6.205  1.00  0.00     0.103 A 
HETATM   15  C20 UNL     1     -28.421  -4.306  -7.082  1.00  0.00     0.038 A 
HETATM   16  C19 UNL     1     -27.717  -4.056  -8.249  1.00  0.00     0.033 A 
BRANCH  14  17
HETATM   17  N1  UNL     1     -29.404  -3.508  -5.003  1.00  0.00    -0.116 N 
HETATM   18  O1  UNL     1     -29.466  -2.621  -4.109  1.00  0.00    -0.532 OA
HETATM   19  O2  UNL     1     -30.061  -4.682  -4.743  1.00  0.00    -0.532 OA
ENDBRANCH  14  17
ENDBRANCH   8  11
ENDBRANCH   1   7
BRANCH   6  20
HETATM   20  O4  UNL     1     -24.715  -0.340 -10.476  1.00  0.00    -0.357 OA
ATOM     21  H4  UNL     1     -23.771  -0.275 -10.383  1.00  0.00     0.217 HD
ENDBRANCH   6  20
BRANCH   5  22
HETATM   22  C10 UNL     1     -23.230   0.453 -12.796  1.00  0.00     0.049 C 
HETATM   23  N4  UNL     1     -22.270   0.096 -12.072  1.00  0.00    -0.272 N 
ATOM     24  H4  UNL     1     -21.495   0.746 -12.205  1.00  0.00     0.194 HD
BRANCH  22  25
HETATM   25  C11 UNL     1     -22.999   1.688 -13.626  1.00  0.00     0.098 C 
BRANCH  25  26
HETATM   26  C12 UNL     1     -21.581   1.658 -14.066  1.00  0.00    -0.052 A 
HETATM   27  C13 UNL     1     -20.885   2.834 -14.211  1.00  0.00     0.009 A 
HETATM   28  C14 UNL     1     -19.552   2.834 -14.623  1.00  0.00     0.019 A 
HETATM   29  C15 UNL     1     -18.919   1.636 -14.888  1.00  0.00     0.011 A 
HETATM   30 BR1  UNL     1     -17.090   1.684 -15.450  1.00  0.00    -0.051 Br
HETATM   31  C16 UNL     1     -19.606   0.452 -14.746  1.00  0.00     0.019 A 
HETATM   32  C17 UNL     1     -20.944   0.476 -14.331  1.00  0.00     0.009 A 
ENDBRANCH  25  26
ENDBRANCH  22  25
BRANCH  23  33
HETATM   33  O3  UNL     1     -21.920  -0.809 -11.217  1.00  0.00    -0.290 OA
ATOM     34  H3  UNL     1     -22.058  -1.082 -10.318  1.00  0.00     0.244 HD
ENDBRANCH  23  33
ENDBRANCH   5  22
TORSDOF 8
ENDMDL
MODEL 2
REMARK VINA RESULT: -9.801858642      1.489      1.850
REMARK  8 active torsions:
REMARK  status: ('A' for Active; 'I' for Inactive)
REMARK    1  A    between atoms: N1_2  and  C1_4 
REMARK    2  A    between atoms: C4_7  and  N2_8 
REMARK    3  A    between atoms: N3_10  and  C5_12 
REMARK    4  A    between atoms: C9_16  and  C10_17 
REMARK    5  A    between atoms: C10_17  and  C11_18 
REMARK    6  A    between atoms: C11_18  and  C12_19 
REMARK    7  A    between atoms: N4_26  and  O3_28 
REMARK    8  A    between atoms: C18_30  and  O4_31 
ROOT
HETATM    1  C5  UNL     1     -25.678  -0.865 -12.343  1.00  0.00     0.082 A 
HETATM    2  C6  UNL     1     -26.212  -1.393 -13.481  1.00  0.00     0.034 A 
HETATM    3  C7  UNL     1     -25.536  -1.202 -14.660  1.00  0.00     0.003 A 
HETATM    4  C8  UNL     1     -24.330  -0.483 -14.689  1.00  0.00     0.016 A 
HETATM    5  C9  UNL     1     -23.770   0.061 -13.555  1.00  0.00     0.024 A 
HETATM    6  C18 UNL     1     -24.469  -0.146 -12.384  1.00  0.00     0.106 A 
ENDROOT
BRANCH   1   7
HETATM    7  N3  UNL     1     -26.343  -1.036 -11.089  1.00  0.00    -0.298 N 
HETATM    8  N2  UNL     1     -26.144  -2.058 -10.360  1.00  0.00    -0.300 N 
ATOM      9  H2  UNL     1     -25.498  -2.792 -10.652  1.00  0.00     0.187 HD
ATOM     10  H3  UNL     1     -26.994  -0.319 -10.770  1.00  0.00     0.187 HD
BRANCH   8  11
HETATM   11  C4  UNL     1     -26.841  -2.152  -9.132  1.00  0.00     0.048 A 
HETATM   12  C3  UNL     1     -26.869  -1.066  -8.285  1.00  0.00     0.033 A 
HETATM   13  C2  UNL     1     -27.537  -1.105  -7.072  1.00  0.00     0.038 A 
HETATM   14  C1  UNL     1     -28.185  -2.271  -6.720  1.00  0.00     0.103 A 
HETATM   15  C20 UNL     1     -28.176  -3.374  -7.545  1.00  0.00     0.038 A 
HETATM   16  C19 UNL     1     -27.505  -3.325  -8.757  1.00  0.00     0.033 A 
BRANCH  14  17
HETATM   17  N1  UNL     1     -28.865  -2.298  -5.474  1.00  0.00    -0.116 N 
HETATM   18  O1  UNL     1     -29.613  -3.267  -5.169  1.00  0.00    -0.532 OA
HETATM   19  O2  UNL     1     -28.757  -1.297  -4.544  1.00  0.00    -0.532 OA
ENDBRANCH  14  17
ENDBRANCH   8  11
ENDBRANCH   1   7
BRANCH   6  20
HETATM   20  O4  UNL     1     -23.991   0.357 -11.203  1.00  0.00    -0.357 OA
ATOM     21  H4  UNL     1     -23.724   1.269 -11.190  1.00  0.00     0.217 HD
ENDBRANCH   6  20
BRANCH   5  22
HETATM   22  C10 UNL     1     -22.504   0.808 -13.611  1.00  0.00     0.049 C 
HETATM   23  N4  UNL     1     -22.441   2.057 -13.531  1.00  0.00    -0.272 N 
ATOM     24  H4  UNL     1     -21.464   2.345 -13.595  1.00  0.00     0.194 HD
BRANCH  22  25
HETATM   25  C11 UNL     1     -21.188   0.095 -13.777  1.00  0.00     0.098 C 
BRANCH  25  26
HETATM   26  C12 UNL     1     -20.208   1.099 -14.263  1.00  0.00    -0.052 A 
HETATM   27  C13 UNL     1     -19.011   1.259 -13.607  1.00  0.00     0.009 A 
HETATM   28  C14 UNL     1     -18.072   2.195 -14.042  1.00  0.00     0.019 A 
HETATM   29  C15 UNL     1     -18.347   2.973 -15.150  1.00  0.00     0.011 A 
HETATM   30 BR1  UNL     1     -17.031   4.244 -15.712  1.00  0.00    -0.051 Br
HETATM   31  C16 UNL     1     -19.542   2.821 -15.814  1.00  0.00     0.019 A 
HETATM   32  C17 UNL     1     -20.470   1.875 -15.359  1.00  0.00     0.009 A 
ENDBRANCH  25  26
ENDBRANCH  22  25
BRANCH  23  33
HETATM   33  O3  UNL     1     -23.181   3.109 -13.394  1.00  0.00    -0.290 OA
ATOM     34  H3  UNL     1     -24.055   3.381 -13.140  1.00  0.00     0.244 HD
ENDBRANCH  23  33
ENDBRANCH   5  22
TORSDOF 8
ENDMDL
MODEL 3
REMARK VINA RESULT: -9.730743030      4.319     10.317
REMARK  8 active torsions:
REMARK  status: ('A' for Active; 'I' for Inactive)
REMARK    1  A    between atoms: N1_2  and  C1_4 
REMARK    2  A    between atoms: C4_7  and  N2_8 
REMARK    3  A    between atoms: N3_10  and  C5_12 
REMARK    4  A    between atoms: C9_16  and  C10_17 
REMARK    5  A    between atoms: C10_17  and  C11_18 
REMARK    6  A    between atoms: C11_18  and  C12_19 
REMARK    7  A    between atoms: N4_26  and  O3_28 
REMARK    8  A    between atoms: C18_30  and  O4_31 
ROOT
HETATM    1  C5  UNL     1     -27.245  -1.538  -7.794  1.00  0.00     0.082 A 
HETATM    2  C6  UNL     1     -27.072  -0.796  -6.663  1.00  0.00     0.034 A 
HETATM    3  C7  UNL     1     -27.707  -1.208  -5.518  1.00  0.00     0.003 A 
HETATM    4  C8  UNL     1     -28.509  -2.360  -5.515  1.00  0.00     0.016 A 
HETATM    5  C9  UNL     1     -28.700  -3.126  -6.642  1.00  0.00     0.024 A 
HETATM    6  C18 UNL     1     -28.052  -2.691  -7.779  1.00  0.00     0.106 A 
ENDROOT
BRANCH   1   7
HETATM    7  N3  UNL     1     -26.607  -1.152  -9.013  1.00  0.00    -0.298 N 
HETATM    8  N2  UNL     1     -25.901  -1.967  -9.686  1.00  0.00    -0.300 N 
ATOM      9  H2  UNL     1     -25.770  -2.928  -9.372  1.00  0.00     0.187 HD
ATOM     10  H3  UNL     1     -26.720  -0.196  -9.353  1.00  0.00     0.187 HD
BRANCH   8  11
HETATM   11  C4  UNL     1     -25.303  -1.506 -10.883  1.00  0.00     0.048 A 
HETATM   12  C3  UNL     1     -26.079  -1.345 -12.009  1.00  0.00     0.033 A 
HETATM   13  C2  UNL     1     -25.544  -0.898 -13.206  1.00  0.00     0.038 A 
HETATM   14  C1  UNL     1     -24.195  -0.611 -13.252  1.00  0.00     0.103 A 
HETATM   15  C20 UNL     1     -23.392  -0.762 -12.143  1.00  0.00     0.038 A 
HETATM   16  C19 UNL     1     -23.938  -1.210 -10.950  1.00  0.00     0.033 A 
BRANCH  14  17
HETATM   17  N1  UNL     1     -23.658  -0.154 -14.484  1.00  0.00    -0.116 N 
HETATM   18  O1  UNL     1     -22.554   0.454 -14.519  1.00  0.00    -0.532 OA
HETATM   19  O2  UNL     1     -24.291  -0.338 -15.686  1.00  0.00    -0.532 OA
ENDBRANCH  14  17
ENDBRANCH   8  11
ENDBRANCH   1   7
BRANCH   6  20
HETATM   20  O4  UNL     1     -28.182  -3.388  -8.951  1.00  0.00    -0.357 OA
ATOM     21  H4  UNL     1     -28.687  -4.192  -8.930  1.00  0.00     0.217 HD
ENDBRANCH   6  20
BRANCH   5  22
HETATM   22  C10 UNL     1     -29.543  -4.331  -6.612  1.00  0.00     0.049 C 
HETATM   23  N4  UNL     1     -30.641  -4.415  -7.211  1.00  0.00    -0.272 N 
ATOM     24  H4  UNL     1     -31.041  -5.339  -7.045  1.00  0.00     0.194 HD
BRANCH  22  25
HETATM   25  C11 UNL     1     -29.125  -5.554  -5.839  1.00  0.00     0.098 C 
BRANCH  25  26
HETATM   26  C12 UNL     1     -28.965  -6.656  -6.822  1.00  0.00    -0.052 A 
HETATM   27  C13 UNL     1     -27.882  -6.667  -7.668  1.00  0.00     0.009 A 
HETATM   28  C14 UNL     1     -27.708  -7.690  -8.600  1.00  0.00     0.019 A 
HETATM   29  C15 UNL     1     -28.637  -8.709  -8.676  1.00  0.00     0.011 A 
HETATM   30 BR1  UNL     1     -28.358 -10.092  -9.969  1.00  0.00    -0.051 Br
HETATM   31  C16 UNL     1     -29.725  -8.709  -7.834  1.00  0.00     0.019 A 
HETATM   32  C17 UNL     1     -29.879  -7.671  -6.905  1.00  0.00     0.009 A 
ENDBRANCH  25  26
ENDBRANCH  22  25
BRANCH  23  33
HETATM   33  O3  UNL     1     -31.444  -3.739  -7.967  1.00  0.00    -0.290 OA
ATOM     34  H3  UNL     1     -32.097  -3.845  -8.649  1.00  0.00     0.244 HD
ENDBRANCH  23  33
ENDBRANCH   5  22
TORSDOF 8
ENDMDL
MODEL 4
REMARK VINA RESULT: -9.669684549      4.089     10.328
REMARK  8 active torsions:
REMARK  status: ('A' for Active; 'I' for Inactive)
REMARK    1  A    between atoms: N1_2  and  C1_4 
REMARK    2  A    between atoms: C4_7  and  N2_8 
REMARK    3  A    between atoms: N3_10  and  C5_12 
REMARK    4  A    between atoms: C9_16  and  C10_17 
REMARK    5  A    between atoms: C10_17  and  C11_18 
REMARK    6  A    between atoms: C11_18  and  C12_19 
REMARK    7  A    between atoms: N4_26  and  O3_28 
REMARK    8  A    between atoms: C18_30  and  O4_31 
ROOT
HETATM    1  C5  UNL     1     -23.849  -0.217 -14.259  1.00  0.00     0.082 A 
HETATM    2  C6  UNL     1     -24.702  -0.565 -15.264  1.00  0.00     0.034 A 
HETATM    3  C7  UNL     1     -25.921  -1.094 -14.921  1.00  0.00     0.003 A 
HETATM    4  C8  UNL     1     -26.276  -1.270 -13.574  1.00  0.00     0.016 A 
HETATM    5  C9  UNL     1     -25.433  -0.928 -12.541  1.00  0.00     0.024 A 
HETATM    6  C18 UNL     1     -24.216  -0.399 -12.912  1.00  0.00     0.106 A 
ENDROOT
BRANCH   1   7
HETATM    7  N3  UNL     1     -22.567   0.338 -14.562  1.00  0.00    -0.298 N 
HETATM    8  N2  UNL     1     -22.179   1.439 -14.060  1.00  0.00    -0.300 N 
ATOM      9  H2  UNL     1     -22.778   1.963 -13.421  1.00  0.00     0.187 HD
ATOM     10  H3  UNL     1     -21.946  -0.163 -15.198  1.00  0.00     0.187 HD
BRANCH   8  11
HETATM   11  C4  UNL     1     -20.896   1.921 -14.411  1.00  0.00     0.048 A 
HETATM   12  C3  UNL     1     -19.858   1.030 -14.566  1.00  0.00     0.033 A 
HETATM   13  C2  UNL     1     -18.582   1.448 -14.908  1.00  0.00     0.038 A 
HETATM   14  C1  UNL     1     -18.365   2.798 -15.094  1.00  0.00     0.103 A 
HETATM   15  C20 UNL     1     -19.382   3.714 -14.946  1.00  0.00     0.038 A 
HETATM   16  C19 UNL     1     -20.655   3.285 -14.604  1.00  0.00     0.033 A 
BRANCH  14  17
HETATM   17  N1  UNL     1     -17.053   3.214 -15.444  1.00  0.00    -0.116 N 
HETATM   18  O1  UNL     1     -16.060   2.470 -15.219  1.00  0.00    -0.532 OA
HETATM   19  O2  UNL     1     -16.788   4.422 -16.033  1.00  0.00    -0.532 OA
ENDBRANCH  14  17
ENDBRANCH   8  11
ENDBRANCH   1   7
BRANCH   6  20
HETATM   20  O4  UNL     1     -23.309  -0.029 -11.954  1.00  0.00    -0.357 OA
ATOM     21  H4  UNL     1     -23.584   0.620 -11.317  1.00  0.00     0.217 HD
ENDBRANCH   6  20
BRANCH   5  22
HETATM   22  C10 UNL     1     -25.829  -1.121 -11.138  1.00  0.00     0.049 C 
HETATM   23  N4  UNL     1     -25.036  -1.506 -10.247  1.00  0.00    -0.272 N 
ATOM     24  H4  UNL     1     -25.536  -1.566  -9.360  1.00  0.00     0.194 HD
BRANCH  22  25
HETATM   25  C11 UNL     1     -27.243  -0.863 -10.687  1.00  0.00     0.098 C 
BRANCH  25  26
HETATM   26  C12 UNL     1     -27.394  -1.488  -9.349  1.00  0.00    -0.052 A 
HETATM   27  C13 UNL     1     -27.169  -0.742  -8.216  1.00  0.00     0.009 A 
HETATM   28  C14 UNL     1     -27.303  -1.305  -6.947  1.00  0.00     0.019 A 
HETATM   29  C15 UNL     1     -27.669  -2.631  -6.823  1.00  0.00     0.011 A 
HETATM   30 BR1  UNL     1     -27.842  -3.361  -5.062  1.00  0.00    -0.051 Br
HETATM   31  C16 UNL     1     -27.897  -3.387  -7.949  1.00  0.00     0.019 A 
HETATM   32  C17 UNL     1     -27.756  -2.801  -9.214  1.00  0.00     0.009 A 
ENDBRANCH  25  26
ENDBRANCH  22  25
BRANCH  23  33
HETATM   33  O3  UNL     1     -23.804  -1.855 -10.061  1.00  0.00    -0.290 OA
ATOM     34  H3  UNL     1     -23.004  -1.575  -9.632  1.00  0.00     0.244 HD
ENDBRANCH  23  33
ENDBRANCH   5  22
TORSDOF 8
ENDMDL
MODEL 5
REMARK VINA RESULT: -9.321816724      4.483     10.344
REMARK  8 active torsions:
REMARK  status: ('A' for Active; 'I' for Inactive)
REMARK    1  A    between atoms: N1_2  and  C1_4 
REMARK    2  A    between atoms: C4_7  and  N2_8 
REMARK    3  A    between atoms: N3_10  and  C5_12 
REMARK    4  A    between atoms: C9_16  and  C10_17 
REMARK    5  A    between atoms: C10_17  and  C11_18 
REMARK    6  A    between atoms: C11_18  and  C12_19 
REMARK    7  A    between atoms: N4_26  and  O3_28 
REMARK    8  A    between atoms: C18_30  and  O4_31 
ROOT
HETATM    1  C5  UNL     1     -27.511  -1.445  -7.159  1.00  0.00     0.082 A 
HETATM    2  C6  UNL     1     -27.980  -0.406  -6.411  1.00  0.00     0.034 A 
HETATM    3  C7  UNL     1     -28.666  -0.697  -5.259  1.00  0.00     0.003 A 
HETATM    4  C8  UNL     1     -28.876  -2.028  -4.865  1.00  0.00     0.016 A 
HETATM    5  C9  UNL     1     -28.415  -3.095  -5.601  1.00  0.00     0.024 A 
HETATM    6  C18 UNL     1     -27.729  -2.775  -6.753  1.00  0.00     0.106 A 
ENDROOT
BRANCH   1   7
HETATM    7  N3  UNL     1     -26.791  -1.196  -8.368  1.00  0.00    -0.298 N 
HETATM    8  N2  UNL     1     -27.137  -1.719  -9.473  1.00  0.00    -0.300 N 
ATOM      9  H2  UNL     1     -27.947  -2.337  -9.529  1.00  0.00     0.187 HD
ATOM     10  H3  UNL     1     -25.976  -0.582  -8.343  1.00  0.00     0.187 HD
BRANCH   8  11
HETATM   11  C4  UNL     1     -26.371  -1.422 -10.625  1.00  0.00     0.048 A 
HETATM   12  C3  UNL     1     -25.028  -1.146 -10.491  1.00  0.00     0.033 A 
HETATM   13  C2  UNL     1     -24.232  -0.849 -11.586  1.00  0.00     0.038 A 
HETATM   14  C1  UNL     1     -24.818  -0.834 -12.835  1.00  0.00     0.103 A 
HETATM   15  C20 UNL     1     -26.158  -1.106 -13.002  1.00  0.00     0.038 A 
HETATM   16  C19 UNL     1     -26.945  -1.402 -11.900  1.00  0.00     0.033 A 
BRANCH  14  17
HETATM   17  N1  UNL     1     -23.992  -0.528 -13.949  1.00  0.00    -0.116 N 
HETATM   18  O1  UNL     1     -22.771  -0.252 -13.789  1.00  0.00    -0.532 OA
HETATM   19  O2  UNL     1     -24.456  -0.512 -15.238  1.00  0.00    -0.532 OA
ENDBRANCH  14  17
ENDBRANCH   8  11
ENDBRANCH   1   7
BRANCH   6  20
HETATM   20  O4  UNL     1     -27.231  -3.770  -7.554  1.00  0.00    -0.357 OA
ATOM     21  H4  UNL     1     -27.396  -4.668  -7.291  1.00  0.00     0.217 HD
ENDBRANCH   6  20
BRANCH   5  22
HETATM   22  C10 UNL     1     -28.647  -4.481  -5.165  1.00  0.00     0.049 C 
HETATM   23  N4  UNL     1     -27.852  -5.110  -4.428  1.00  0.00    -0.272 N 
ATOM     24  H4  UNL     1     -28.223  -6.046  -4.262  1.00  0.00     0.194 HD
BRANCH  22  25
HETATM   25  C11 UNL     1     -29.878  -5.235  -5.593  1.00  0.00     0.098 C 
BRANCH  25  26
HETATM   26  C12 UNL     1     -29.419  -6.418  -6.362  1.00  0.00    -0.052 A 
HETATM   27  C13 UNL     1     -28.652  -6.246  -7.490  1.00  0.00     0.009 A 
HETATM   28  C14 UNL     1     -28.208  -7.340  -8.231  1.00  0.00     0.019 A 
HETATM   29  C15 UNL     1     -28.541  -8.619  -7.828  1.00  0.00     0.011 A 
HETATM   30 BR1  UNL     1     -27.909 -10.091  -8.875  1.00  0.00    -0.051 Br
HETATM   31  C16 UNL     1     -29.308  -8.804  -6.701  1.00  0.00     0.019 A 
HETATM   32  C17 UNL     1     -29.743  -7.689  -5.972  1.00  0.00     0.009 A 
ENDBRANCH  25  26
ENDBRANCH  22  25
BRANCH  23  33
HETATM   33  O3  UNL     1     -26.725  -4.988  -3.805  1.00  0.00    -0.290 OA
ATOM     34  H3  UNL     1     -26.328  -5.093  -2.948  1.00  0.00     0.244 HD
ENDBRANCH  23  33
ENDBRANCH   5  22
TORSDOF 8
ENDMDL
