MODEL 1
REMARK VINA RESULT: -9.328772779      0.000      0.000
REMARK  10 active torsions:
REMARK  status: ('A' for Active; 'I' for Inactive)
REMARK    1  A    between atoms: O1_2  and  C2_3 
REMARK    2  A    between atoms: C2_3  and  C3_5 
REMARK    3  A    between atoms: C5_7  and  C6_8 
REMARK    4  A    between atoms: C11_16  and  O6_17 
REMARK    5  A    between atoms: C12_19  and  C13_20 
REMARK    6  A    between atoms: C13_20  and  C14_21 
REMARK    7  A    between atoms: C15_22  and  C17_24 
REMARK    8  A    between atoms: C17_24  and  C18_25 
REMARK    9  A    between atoms: C18_25  and  C19_26 
REMARK   10  A    between atoms: C25_32  and  O7_33 
ROOT
HETATM    1  C3  UNL     1     -14.747   0.837 -14.000  1.00  0.00     0.073 A 
HETATM    2  C4  UNL     1     -14.648  -0.535 -13.921  1.00  0.00     0.033 A 
HETATM    3  C5  UNL     1     -15.628  -1.354 -14.429  1.00  0.00     0.015 A 
HETATM    4  C11 UNL     1     -16.724  -0.770 -15.028  1.00  0.00     0.084 A 
HETATM    5  C12 UNL     1     -16.889   0.613 -15.142  1.00  0.00     0.013 A 
HETATM    6  C25 UNL     1     -15.878   1.388 -14.616  1.00  0.00     0.091 A 
ENDROOT
BRANCH   5   7
HETATM    7  C13 UNL     1     -18.110   1.164 -15.790  1.00  0.00     0.072 C 
BRANCH   7   8
HETATM    8  C14 UNL     1     -19.347   0.910 -15.044  1.00  0.00    -0.020 C 
HETATM    9  C15 UNL     1     -20.239   1.841 -14.747  1.00  0.00    -0.087 C 
HETATM   10  C16 UNL     1     -20.106   3.270 -15.126  1.00  0.00     0.043 C 
BRANCH   9  11
HETATM   11  C17 UNL     1     -21.463   1.424 -13.969  1.00  0.00     0.034 C 
BRANCH  11  12
HETATM   12  C18 UNL     1     -21.600  -0.079 -13.940  1.00  0.00     0.009 C 
BRANCH  12  13
HETATM   13  C19 UNL     1     -22.825  -0.516 -13.212  1.00  0.00    -0.014 C 
HETATM   14  C20 UNL     1     -23.969  -0.626 -14.219  1.00  0.00     0.004 C 
HETATM   15  C21 UNL     1     -25.082  -1.359 -13.486  1.00  0.00     0.000 C 
HETATM   16  C22 UNL     1     -25.584  -0.446 -12.403  1.00  0.00     0.000 C 
HETATM   17  C23 UNL     1     -24.526   0.084 -11.499  1.00  0.00     0.000 C 
HETATM   18  C24 UNL     1     -23.254   0.475 -12.177  1.00  0.00     0.004 C 
ENDBRANCH  12  13
ENDBRANCH  11  12
ENDBRANCH   9  11
ENDBRANCH   7   8
ENDBRANCH   5   7
BRANCH   4  19
HETATM   19  O6  UNL     1     -17.678  -1.610 -15.524  1.00  0.00    -0.359 OA
ATOM     20  H6  UNL     1     -18.582  -1.329 -15.447  1.00  0.00     0.217 HD
ENDBRANCH   4  19
BRANCH   6  21
HETATM   21  O7  UNL     1     -15.928   2.754 -14.671  1.00  0.00    -0.359 OA
ATOM     22  H7  UNL     1     -15.645   3.215 -13.890  1.00  0.00     0.217 HD
ENDBRANCH   6  21
BRANCH   3  23
HETATM   23  C6  UNL     1     -15.515  -2.830 -14.340  1.00  0.00     0.260 C 
HETATM   24  O3  UNL     1     -15.824  -3.328 -13.089  1.00  0.00    -0.335 OA
HETATM   25  C7  UNL     1     -14.896  -4.282 -12.753  1.00  0.00     0.167 C 
HETATM   26  C8  UNL     1     -15.500  -5.625 -12.459  1.00  0.00     0.079 C 
HETATM   27  C9  UNL     1     -14.166  -3.803 -11.507  1.00  0.00     0.079 C 
HETATM   28  O4  UNL     1     -13.973  -4.414 -13.799  1.00  0.00    -0.282 OA
HETATM   29  C10 UNL     1     -14.126  -3.287 -14.622  1.00  0.00     0.295 C 
HETATM   30  O5  UNL     1     -13.308  -2.781 -15.403  1.00  0.00    -0.262 OA
ENDBRANCH   3  23
BRANCH   1  31
HETATM   31  C2  UNL     1     -13.694   1.662 -13.454  1.00  0.00     0.295 C 
HETATM   32  O2  UNL     1     -13.399   1.555 -12.247  1.00  0.00    -0.259 OA
BRANCH  31  33
HETATM   33  O1  UNL     1     -13.018   2.560 -14.244  1.00  0.00    -0.322 OA
HETATM   34  C1  UNL     1     -12.263   3.654 -13.710  1.00  0.00     0.213 C 
ENDBRANCH  31  33
ENDBRANCH   1  31
TORSDOF 10
ENDMDL
MODEL 2
REMARK VINA RESULT: -8.988485526      9.031     13.653
REMARK  10 active torsions:
REMARK  status: ('A' for Active; 'I' for Inactive)
REMARK    1  A    between atoms: O1_2  and  C2_3 
REMARK    2  A    between atoms: C2_3  and  C3_5 
REMARK    3  A    between atoms: C5_7  and  C6_8 
REMARK    4  A    between atoms: C11_16  and  O6_17 
REMARK    5  A    between atoms: C12_19  and  C13_20 
REMARK    6  A    between atoms: C13_20  and  C14_21 
REMARK    7  A    between atoms: C15_22  and  C17_24 
REMARK    8  A    between atoms: C17_24  and  C18_25 
REMARK    9  A    between atoms: C18_25  and  C19_26 
REMARK   10  A    between atoms: C25_32  and  O7_33 
ROOT
HETATM    1  C3  UNL     1     -27.996  -3.947  -4.843  1.00  0.00     0.073 A 
HETATM    2  C4  UNL     1     -28.442  -5.046  -5.545  1.00  0.00     0.033 A 
HETATM    3  C5  UNL     1     -28.662  -4.989  -6.900  1.00  0.00     0.015 A 
HETATM    4  C11 UNL     1     -28.423  -3.798  -7.553  1.00  0.00     0.084 A 
HETATM    5  C12 UNL     1     -27.971  -2.646  -6.905  1.00  0.00     0.013 A 
HETATM    6  C25 UNL     1     -27.767  -2.757  -5.546  1.00  0.00     0.091 A 
ENDROOT
BRANCH   5   7
HETATM    7  C13 UNL     1     -27.752  -1.395  -7.680  1.00  0.00     0.072 C 
BRANCH   7   8
HETATM    8  C14 UNL     1     -26.492  -1.370  -8.430  1.00  0.00    -0.020 C 
HETATM    9  C15 UNL     1     -26.413  -1.236  -9.743  1.00  0.00    -0.087 C 
HETATM   10  C16 UNL     1     -27.591  -1.092 -10.637  1.00  0.00     0.043 C 
BRANCH   9  11
HETATM   11  C17 UNL     1     -25.042  -1.233 -10.372  1.00  0.00     0.034 C 
BRANCH  11  12
HETATM   12  C18 UNL     1     -24.994  -2.145 -11.573  1.00  0.00     0.009 C 
BRANCH  12  13
HETATM   13  C19 UNL     1     -24.083  -1.629 -12.634  1.00  0.00    -0.014 C 
HETATM   14  C20 UNL     1     -23.152  -0.594 -12.006  1.00  0.00     0.004 C 
HETATM   15  C21 UNL     1     -22.070  -0.342 -13.045  1.00  0.00     0.000 C 
HETATM   16  C22 UNL     1     -22.718   0.351 -14.210  1.00  0.00     0.000 C 
HETATM   17  C23 UNL     1     -23.917  -0.343 -14.757  1.00  0.00     0.000 C 
HETATM   18  C24 UNL     1     -24.827  -0.934 -13.731  1.00  0.00     0.004 C 
ENDBRANCH  12  13
ENDBRANCH  11  12
ENDBRANCH   9  11
ENDBRANCH   7   8
ENDBRANCH   5   7
BRANCH   4  19
HETATM   19  O6  UNL     1     -28.649  -3.776  -8.899  1.00  0.00    -0.359 OA
ATOM     20  H6  UNL     1     -28.452  -2.966  -9.355  1.00  0.00     0.217 HD
ENDBRANCH   4  19
BRANCH   6  21
HETATM   21  O7  UNL     1     -27.323  -1.696  -4.805  1.00  0.00    -0.359 OA
ATOM     22  H7  UNL     1     -26.695  -1.123  -5.230  1.00  0.00     0.217 HD
ENDBRANCH   6  21
BRANCH   3  23
HETATM   23  C6  UNL     1     -29.142  -6.176  -7.649  1.00  0.00     0.260 C 
HETATM   24  O3  UNL     1     -29.869  -7.057  -6.871  1.00  0.00    -0.335 OA
HETATM   25  C7  UNL     1     -29.467  -8.336  -7.162  1.00  0.00     0.167 C 
HETATM   26  C8  UNL     1     -30.586  -9.220  -7.634  1.00  0.00     0.079 C 
HETATM   27  C9  UNL     1     -28.884  -8.940  -5.893  1.00  0.00     0.079 C 
HETATM   28  O4  UNL     1     -28.470  -8.293  -8.145  1.00  0.00    -0.282 OA
HETATM   29  C10 UNL     1     -28.007  -6.969  -8.198  1.00  0.00     0.295 C 
HETATM   30  O5  UNL     1     -26.916  -6.545  -8.604  1.00  0.00    -0.262 OA
ENDBRANCH   3  23
BRANCH   1  31
HETATM   31  C2  UNL     1     -27.777  -4.049  -3.418  1.00  0.00     0.295 C 
HETATM   32  O2  UNL     1     -27.291  -5.097  -2.949  1.00  0.00    -0.259 OA
BRANCH  31  33
HETATM   33  O1  UNL     1     -28.097  -3.010  -2.579  1.00  0.00    -0.322 OA
HETATM   34  C1  UNL     1     -29.312  -2.968  -1.820  1.00  0.00     0.213 C 
ENDBRANCH  31  33
ENDBRANCH   1  31
TORSDOF 10
ENDMDL
MODEL 3
REMARK VINA RESULT: -8.843909307      1.162      1.235
REMARK  10 active torsions:
REMARK  status: ('A' for Active; 'I' for Inactive)
REMARK    1  A    between atoms: O1_2  and  C2_3 
REMARK    2  A    between atoms: C2_3  and  C3_5 
REMARK    3  A    between atoms: C5_7  and  C6_8 
REMARK    4  A    between atoms: C11_16  and  O6_17 
REMARK    5  A    between atoms: C12_19  and  C13_20 
REMARK    6  A    between atoms: C13_20  and  C14_21 
REMARK    7  A    between atoms: C15_22  and  C17_24 
REMARK    8  A    between atoms: C17_24  and  C18_25 
REMARK    9  A    between atoms: C18_25  and  C19_26 
REMARK   10  A    between atoms: C25_32  and  O7_33 
ROOT
HETATM    1  C3  UNL     1     -14.203   0.230 -13.796  1.00  0.00     0.073 A 
HETATM    2  C4  UNL     1     -14.153  -1.141 -13.667  1.00  0.00     0.033 A 
HETATM    3  C5  UNL     1     -15.144  -1.944 -14.178  1.00  0.00     0.015 A 
HETATM    4  C11 UNL     1     -16.201  -1.346 -14.831  1.00  0.00     0.084 A 
HETATM    5  C12 UNL     1     -16.315   0.037 -14.998  1.00  0.00     0.013 A 
HETATM    6  C25 UNL     1     -15.295   0.797 -14.466  1.00  0.00     0.091 A 
ENDROOT
BRANCH   5   7
HETATM    7  C13 UNL     1     -17.496   0.605 -15.702  1.00  0.00     0.072 C 
BRANCH   7   8
HETATM    8  C14 UNL     1     -18.706   0.677 -14.877  1.00  0.00    -0.020 C 
HETATM    9  C15 UNL     1     -19.480   1.746 -14.787  1.00  0.00    -0.087 C 
HETATM   10  C16 UNL     1     -19.229   3.018 -15.512  1.00  0.00     0.043 C 
BRANCH   9  11
HETATM   11  C17 UNL     1     -20.691   1.668 -13.891  1.00  0.00     0.034 C 
BRANCH  11  12
HETATM   12  C18 UNL     1     -21.355   0.315 -13.992  1.00  0.00     0.009 C 
BRANCH  12  13
HETATM   13  C19 UNL     1     -22.144  -0.015 -12.773  1.00  0.00    -0.014 C 
HETATM   14  C20 UNL     1     -22.478  -1.506 -12.806  1.00  0.00     0.004 C 
HETATM   15  C21 UNL     1     -23.001  -1.832 -11.416  1.00  0.00     0.000 C 
HETATM   16  C22 UNL     1     -24.318  -1.127 -11.254  1.00  0.00     0.000 C 
HETATM   17  C23 UNL     1     -24.281   0.332 -11.547  1.00  0.00     0.000 C 
HETATM   18  C24 UNL     1     -23.447   0.718 -12.725  1.00  0.00     0.004 C 
ENDBRANCH  12  13
ENDBRANCH  11  12
ENDBRANCH   9  11
ENDBRANCH   7   8
ENDBRANCH   5   7
BRANCH   4  19
HETATM   19  O6  UNL     1     -17.167  -2.171 -15.329  1.00  0.00    -0.359 OA
ATOM     20  H6  UNL     1     -18.065  -1.978 -15.087  1.00  0.00     0.217 HD
ENDBRANCH   4  19
BRANCH   6  21
HETATM   21  O7  UNL     1     -15.296   2.161 -14.569  1.00  0.00    -0.359 OA
ATOM     22  H7  UNL     1     -14.459   2.566 -14.763  1.00  0.00     0.217 HD
ENDBRANCH   6  21
BRANCH   3  23
HETATM   23  C6  UNL     1     -15.084  -3.419 -14.035  1.00  0.00     0.260 C 
HETATM   24  O3  UNL     1     -15.011  -3.839 -12.721  1.00  0.00    -0.335 OA
HETATM   25  C7  UNL     1     -14.075  -4.839 -12.630  1.00  0.00     0.167 C 
HETATM   26  C8  UNL     1     -14.625  -6.123 -12.078  1.00  0.00     0.079 C 
HETATM   27  C9  UNL     1     -12.968  -4.356 -11.703  1.00  0.00     0.079 C 
HETATM   28  O4  UNL     1     -13.533  -5.079 -13.899  1.00  0.00    -0.282 OA
HETATM   29  C10 UNL     1     -13.878  -3.982 -14.703  1.00  0.00     0.295 C 
HETATM   30  O5  UNL     1     -13.321  -3.568 -15.730  1.00  0.00    -0.262 OA
ENDBRANCH   3  23
BRANCH   1  31
HETATM   31  C2  UNL     1     -13.140   1.039 -13.244  1.00  0.00     0.295 C 
HETATM   32  O2  UNL     1     -13.379   1.778 -12.269  1.00  0.00    -0.259 OA
BRANCH  31  33
HETATM   33  O1  UNL     1     -11.875   1.004 -13.780  1.00  0.00    -0.322 OA
HETATM   34  C1  UNL     1     -11.619   1.153 -15.182  1.00  0.00     0.213 C 
ENDBRANCH  31  33
ENDBRANCH   1  31
TORSDOF 10
ENDMDL
MODEL 4
REMARK VINA RESULT: -8.721749653      1.204      4.570
REMARK  10 active torsions:
REMARK  status: ('A' for Active; 'I' for Inactive)
REMARK    1  A    between atoms: O1_2  and  C2_3 
REMARK    2  A    between atoms: C2_3  and  C3_5 
REMARK    3  A    between atoms: C5_7  and  C6_8 
REMARK    4  A    between atoms: C11_16  and  O6_17 
REMARK    5  A    between atoms: C12_19  and  C13_20 
REMARK    6  A    between atoms: C13_20  and  C14_21 
REMARK    7  A    between atoms: C15_22  and  C17_24 
REMARK    8  A    between atoms: C17_24  and  C18_25 
REMARK    9  A    between atoms: C18_25  and  C19_26 
REMARK   10  A    between atoms: C25_32  and  O7_33 
ROOT
HETATM    1  C3  UNL     1     -15.276  -0.701 -14.750  1.00  0.00     0.073 A 
HETATM    2  C4  UNL     1     -14.216   0.154 -14.538  1.00  0.00     0.033 A 
HETATM    3  C5  UNL     1     -14.350   1.513 -14.692  1.00  0.00     0.015 A 
HETATM    4  C11 UNL     1     -15.581   2.011 -15.066  1.00  0.00     0.084 A 
HETATM    5  C12 UNL     1     -16.697   1.203 -15.298  1.00  0.00     0.013 A 
HETATM    6  C25 UNL     1     -16.508  -0.152 -15.129  1.00  0.00     0.091 A 
ENDROOT
BRANCH   5   7
HETATM    7  C13 UNL     1     -17.986   1.818 -15.713  1.00  0.00     0.072 C 
BRANCH   7   8
HETATM    8  C14 UNL     1     -19.132   1.414 -14.893  1.00  0.00    -0.020 C 
HETATM    9  C15 UNL     1     -20.189   2.178 -14.668  1.00  0.00    -0.087 C 
HETATM   10  C16 UNL     1     -20.357   3.547 -15.216  1.00  0.00     0.043 C 
BRANCH   9  11
HETATM   11  C17 UNL     1     -21.289   1.622 -13.796  1.00  0.00     0.034 C 
BRANCH  11  12
HETATM   12  C18 UNL     1     -21.354   0.118 -13.899  1.00  0.00     0.009 C 
BRANCH  12  13
HETATM   13  C19 UNL     1     -22.590  -0.434 -13.276  1.00  0.00    -0.014 C 
HETATM   14  C20 UNL     1     -23.717  -0.370 -14.306  1.00  0.00     0.004 C 
HETATM   15  C21 UNL     1     -24.841  -1.214 -13.726  1.00  0.00     0.000 C 
HETATM   16  C22 UNL     1     -25.361  -0.497 -12.512  1.00  0.00     0.000 C 
HETATM   17  C23 UNL     1     -24.320  -0.129 -11.514  1.00  0.00     0.000 C 
HETATM   18  C24 UNL     1     -23.037   0.368 -12.095  1.00  0.00     0.004 C 
ENDBRANCH  12  13
ENDBRANCH  11  12
ENDBRANCH   9  11
ENDBRANCH   7   8
ENDBRANCH   5   7
BRANCH   4  19
HETATM   19  O6  UNL     1     -15.682   3.364 -15.209  1.00  0.00    -0.359 OA
ATOM     20  H6  UNL     1     -16.451   3.780 -14.838  1.00  0.00     0.217 HD
ENDBRANCH   4  19
BRANCH   6  21
HETATM   21  O7  UNL     1     -17.529  -1.042 -15.325  1.00  0.00    -0.359 OA
ATOM     22  H7  UNL     1     -17.985  -1.334 -14.544  1.00  0.00     0.217 HD
ENDBRANCH   6  21
BRANCH   3  23
HETATM   23  C6  UNL     1     -13.205   2.426 -14.464  1.00  0.00     0.260 C 
HETATM   24  O3  UNL     1     -12.177   2.254 -15.370  1.00  0.00    -0.335 OA
HETATM   25  C7  UNL     1     -10.984   2.277 -14.693  1.00  0.00     0.167 C 
HETATM   26  C8  UNL     1     -10.043   3.342 -15.179  1.00  0.00     0.079 C 
HETATM   27  C9  UNL     1     -10.314   0.924 -14.885  1.00  0.00     0.079 C 
HETATM   28  O4  UNL     1     -11.233   2.472 -13.328  1.00  0.00    -0.282 OA
HETATM   29  C10 UNL     1     -12.596   2.209 -13.122  1.00  0.00     0.295 C 
HETATM   30  O5  UNL     1     -13.171   1.876 -12.076  1.00  0.00    -0.262 OA
ENDBRANCH   3  23
BRANCH   1  31
HETATM   31  C2  UNL     1     -15.093  -2.124 -14.576  1.00  0.00     0.295 C 
HETATM   32  O2  UNL     1     -14.052  -2.662 -15.003  1.00  0.00    -0.259 OA
BRANCH  31  33
HETATM   33  O1  UNL     1     -16.048  -2.888 -13.950  1.00  0.00    -0.322 OA
HETATM   34  C1  UNL     1     -16.013  -4.320 -13.935  1.00  0.00     0.213 C 
ENDBRANCH  31  33
ENDBRANCH   1  31
TORSDOF 10
ENDMDL
MODEL 5
REMARK VINA RESULT: -8.719757303      1.673      2.642
REMARK  10 active torsions:
REMARK  status: ('A' for Active; 'I' for Inactive)
REMARK    1  A    between atoms: O1_2  and  C2_3 
REMARK    2  A    between atoms: C2_3  and  C3_5 
REMARK    3  A    between atoms: C5_7  and  C6_8 
REMARK    4  A    between atoms: C11_16  and  O6_17 
REMARK    5  A    between atoms: C12_19  and  C13_20 
REMARK    6  A    between atoms: C13_20  and  C14_21 
REMARK    7  A    between atoms: C15_22  and  C17_24 
REMARK    8  A    between atoms: C17_24  and  C18_25 
REMARK    9  A    between atoms: C18_25  and  C19_26 
REMARK   10  A    between atoms: C25_32  and  O7_33 
ROOT
HETATM    1  C3  UNL     1     -16.523   3.033 -15.478  1.00  0.00     0.073 A 
HETATM    2  C4  UNL     1     -15.811   1.857 -15.380  1.00  0.00     0.033 A 
HETATM    3  C5  UNL     1     -16.445   0.646 -15.236  1.00  0.00     0.015 A 
HETATM    4  C11 UNL     1     -17.824   0.629 -15.194  1.00  0.00     0.084 A 
HETATM    5  C12 UNL     1     -18.607   1.782 -15.287  1.00  0.00     0.013 A 
HETATM    6  C25 UNL     1     -17.922   2.970 -15.430  1.00  0.00     0.091 A 
ENDROOT
BRANCH   5   7
HETATM    7  C13 UNL     1     -20.090   1.680 -15.218  1.00  0.00     0.072 C 
BRANCH   7   8
HETATM    8  C14 UNL     1     -20.577   0.770 -14.176  1.00  0.00    -0.020 C 
HETATM    9  C15 UNL     1     -21.736   0.908 -13.553  1.00  0.00    -0.087 C 
HETATM   10  C16 UNL     1     -22.700   2.005 -13.824  1.00  0.00     0.043 C 
BRANCH   9  11
HETATM   11  C17 UNL     1     -22.097  -0.110 -12.500  1.00  0.00     0.034 C 
BRANCH  11  12
HETATM   12  C18 UNL     1     -22.677  -1.355 -13.125  1.00  0.00     0.009 C 
BRANCH  12  13
HETATM   13  C19 UNL     1     -24.061  -1.630 -12.647  1.00  0.00    -0.014 C 
HETATM   14  C20 UNL     1     -25.044  -0.973 -13.614  1.00  0.00     0.004 C 
HETATM   15  C21 UNL     1     -26.407  -1.542 -13.252  1.00  0.00     0.000 C 
HETATM   16  C22 UNL     1     -26.767  -1.016 -11.890  1.00  0.00     0.000 C 
HETATM   17  C23 UNL     1     -25.732  -1.241 -10.845  1.00  0.00     0.000 C 
HETATM   18  C24 UNL     1     -24.322  -1.040 -11.297  1.00  0.00     0.004 C 
ENDBRANCH  12  13
ENDBRANCH  11  12
ENDBRANCH   9  11
ENDBRANCH   7   8
ENDBRANCH   5   7
BRANCH   4  19
HETATM   19  O6  UNL     1     -18.423  -0.589 -15.053  1.00  0.00    -0.359 OA
ATOM     20  H6  UNL     1     -19.370  -0.612 -15.118  1.00  0.00     0.217 HD
ENDBRANCH   4  19
BRANCH   6  21
HETATM   21  O7  UNL     1     -18.582   4.164 -15.534  1.00  0.00    -0.359 OA
ATOM     22  H7  UNL     1     -19.224   4.346 -14.859  1.00  0.00     0.217 HD
ENDBRANCH   6  21
BRANCH   3  23
HETATM   23  C6  UNL     1     -15.673  -0.615 -15.130  1.00  0.00     0.260 C 
HETATM   24  O3  UNL     1     -16.057  -1.405 -14.063  1.00  0.00    -0.335 OA
HETATM   25  C7  UNL     1     -14.930  -1.886 -13.443  1.00  0.00     0.167 C 
HETATM   26  C8  UNL     1     -14.876  -3.386 -13.385  1.00  0.00     0.079 C 
HETATM   27  C9  UNL     1     -14.920  -1.352 -12.018  1.00  0.00     0.079 C 
HETATM   28  O4  UNL     1     -13.797  -1.411 -14.116  1.00  0.00    -0.282 OA
HETATM   29  C10 UNL     1     -14.221  -0.349 -14.929  1.00  0.00     0.295 C 
HETATM   30  O5  UNL     1     -13.557   0.594 -15.382  1.00  0.00    -0.262 OA
ENDBRANCH   3  23
BRANCH   1  31
HETATM   31  C2  UNL     1     -15.817   4.285 -15.629  1.00  0.00     0.295 C 
HETATM   32  O2  UNL     1     -16.236   5.127 -16.447  1.00  0.00    -0.259 OA
BRANCH  31  33
HETATM   33  O1  UNL     1     -14.695   4.557 -14.884  1.00  0.00    -0.322 OA
HETATM   34  C1  UNL     1     -13.386   4.662 -15.458  1.00  0.00     0.213 C 
ENDBRANCH  31  33
ENDBRANCH   1  31
TORSDOF 10
ENDMDL
