MODEL 1
REMARK VINA RESULT: -8.919683541      0.000      0.000
REMARK  8 active torsions:
REMARK  status: ('A' for Active; 'I' for Inactive)
REMARK    1  A    between atoms: C2_2  and  O1_3 
REMARK    2  A    between atoms: C2_2  and  C21_30 
REMARK    3  A    between atoms: O1_3  and  C3_4 
REMARK    4  A    between atoms: C3_4  and  C4_6 
REMARK    5  A    between atoms: C4_6  and  C5_7 
REMARK    6  A    between atoms: C5_7  and  N1_8 
REMARK    7  A    between atoms: N1_8  and  C6_10 
REMARK    8  A    between atoms: N2_21  and  O3_23 
ROOT
HETATM    1  C6  UNL     1     -19.616   1.636 -15.114  1.00  0.00     0.076 C 
HETATM    2  C7  UNL     1     -19.021   2.858 -15.713  1.00  0.00     0.024 C 
HETATM    3  C8  UNL     1     -18.016   3.589 -14.907  1.00  0.00     0.002 C 
HETATM    4  C9  UNL     1     -16.965   4.164 -15.866  1.00  0.00     0.000 C 
HETATM    5  C10 UNL     1     -15.824   3.194 -16.078  1.00  0.00     0.000 C 
HETATM    6  C11 UNL     1     -14.469   3.787 -15.879  1.00  0.00     0.000 C 
HETATM    7  C12 UNL     1     -13.637   2.995 -14.861  1.00  0.00     0.000 C 
HETATM    8  C13 UNL     1     -13.366   1.633 -15.431  1.00  0.00     0.000 C 
HETATM    9  C14 UNL     1     -12.680   0.706 -14.478  1.00  0.00     0.008 C 
HETATM   10  C15 UNL     1     -13.402   0.477 -13.192  1.00  0.00     0.086 C 
HETATM   11  C16 UNL     1     -13.931  -0.913 -13.054  1.00  0.00     0.137 C 
HETATM   12  N2  UNL     1     -13.339  -1.683 -12.205  1.00  0.00    -0.251 N 
ATOM     13  H2  UNL     1     -12.550  -1.313 -11.675  1.00  0.00     0.196 HD
HETATM   14  O4  UNL     1     -15.004  -1.306 -13.823  1.00  0.00    -0.338 OA
HETATM   15  C17 UNL     1     -16.214  -0.567 -13.965  1.00  0.00     0.177 C 
HETATM   16  C18 UNL     1     -16.734  -0.848 -15.341  1.00  0.00     0.027 C 
HETATM   17  C19 UNL     1     -17.953  -0.049 -15.703  1.00  0.00     0.004 C 
HETATM   18  C20 UNL     1     -18.584   0.661 -14.561  1.00  0.00     0.024 C 
ENDROOT
BRANCH   1  19
HETATM   19  N1  UNL     1     -20.698   1.834 -14.203  1.00  0.00    -0.417 N 
ATOM     20  H1  UNL     1     -20.910   2.746 -13.799  1.00  0.00     0.153 HD
BRANCH  19  21
HETATM   21  C5  UNL     1     -21.469   0.655 -13.893  1.00  0.00     0.124 C 
BRANCH  21  22
HETATM   22  C4  UNL     1     -22.953   0.931 -13.881  1.00  0.00     0.130 C 
BRANCH  22  23
HETATM   23  C3  UNL     1     -23.691  -0.362 -14.021  1.00  0.00     0.261 C 
HETATM   24  O2  UNL     1     -24.244  -0.670 -15.130  1.00  0.00    -0.265 OA
BRANCH  23  25
HETATM   25  O1  UNL     1     -23.821  -1.285 -12.995  1.00  0.00    -0.309 OA
BRANCH  25  26
HETATM   26  C2  UNL     1     -23.792  -0.864 -11.638  1.00  0.00     0.188 C 
HETATM   27  C1  UNL     1     -22.644  -1.587 -10.975  1.00  0.00     0.047 C 
BRANCH  26  28
HETATM   28  C21 UNL     1     -25.080  -1.132 -10.959  1.00  0.00     0.120 A 
HETATM   29  O5  UNL     1     -25.224  -1.476  -9.716  1.00  0.00    -0.321 OA
HETATM   30  C22 UNL     1     -26.479  -1.642  -9.405  1.00  0.00     0.145 A 
HETATM   31  C23 UNL     1     -27.231  -1.386 -10.541  1.00  0.00     0.069 A 
HETATM   32  C24 UNL     1     -26.323  -1.061 -11.524  1.00  0.00     0.150 A 
HETATM   33  F1  UNL     1     -26.668  -0.735 -12.815  1.00  0.00    -0.203 F 
ENDBRANCH  26  28
ENDBRANCH  25  26
ENDBRANCH  23  25
ENDBRANCH  22  23
ENDBRANCH  21  22
ENDBRANCH  19  21
ENDBRANCH   1  19
BRANCH  12  34
HETATM   34  O3  UNL     1     -13.730  -2.979 -11.987  1.00  0.00    -0.288 OA
ATOM     35  H3  UNL     1     -13.123  -3.658 -11.714  1.00  0.00     0.244 HD
ENDBRANCH  12  34
TORSDOF 8
ENDMDL
MODEL 2
REMARK VINA RESULT: -8.905405848      2.035      2.487
REMARK  8 active torsions:
REMARK  status: ('A' for Active; 'I' for Inactive)
REMARK    1  A    between atoms: C2_2  and  O1_3 
REMARK    2  A    between atoms: C2_2  and  C21_30 
REMARK    3  A    between atoms: O1_3  and  C3_4 
REMARK    4  A    between atoms: C3_4  and  C4_6 
REMARK    5  A    between atoms: C4_6  and  C5_7 
REMARK    6  A    between atoms: C5_7  and  N1_8 
REMARK    7  A    between atoms: N1_8  and  C6_10 
REMARK    8  A    between atoms: N2_21  and  O3_23 
ROOT
HETATM    1  C6  UNL     1     -17.727   2.367 -15.060  1.00  0.00     0.076 C 
HETATM    2  C7  UNL     1     -17.403   3.446 -16.028  1.00  0.00     0.024 C 
HETATM    3  C8  UNL     1     -16.413   4.463 -15.605  1.00  0.00     0.002 C 
HETATM    4  C9  UNL     1     -15.598   4.875 -16.840  1.00  0.00     0.000 C 
HETATM    5  C10 UNL     1     -14.369   4.009 -17.003  1.00  0.00     0.000 C 
HETATM    6  C11 UNL     1     -13.101   4.771 -17.187  1.00  0.00     0.000 C 
HETATM    7  C12 UNL     1     -12.030   4.364 -16.166  1.00  0.00     0.000 C 
HETATM    8  C13 UNL     1     -11.647   2.936 -16.429  1.00  0.00     0.000 C 
HETATM    9  C14 UNL     1     -10.709   2.367 -15.411  1.00  0.00     0.008 C 
HETATM   10  C15 UNL     1     -11.204   2.407 -14.005  1.00  0.00     0.086 C 
HETATM   11  C16 UNL     1     -11.503   1.053 -13.448  1.00  0.00     0.137 C 
HETATM   12  N2  UNL     1     -10.694   0.598 -12.552  1.00  0.00    -0.251 N 
ATOM     13  H2  UNL     1      -9.901   1.174 -12.269  1.00  0.00     0.196 HD
HETATM   14  O4  UNL     1     -12.604   0.364 -13.904  1.00  0.00    -0.338 OA
HETATM   15  C17 UNL     1     -13.915   0.909 -14.011  1.00  0.00     0.177 C 
HETATM   16  C18 UNL     1     -14.575   0.226 -15.170  1.00  0.00     0.027 C 
HETATM   17  C19 UNL     1     -15.935   0.771 -15.501  1.00  0.00     0.004 C 
HETATM   18  C20 UNL     1     -16.498   1.685 -14.472  1.00  0.00     0.024 C 
ENDROOT
BRANCH   1  19
HETATM   19  N1  UNL     1     -18.689   2.682 -14.052  1.00  0.00    -0.417 N 
ATOM     20  H1  UNL     1     -18.422   3.064 -13.145  1.00  0.00     0.153 HD
BRANCH  19  21
HETATM   21  C5  UNL     1     -20.063   2.423 -14.407  1.00  0.00     0.124 C 
BRANCH  21  22
HETATM   22  C4  UNL     1     -20.401   0.954 -14.344  1.00  0.00     0.130 C 
BRANCH  22  23
HETATM   23  C3  UNL     1     -21.800   0.796 -13.838  1.00  0.00     0.261 C 
HETATM   24  O2  UNL     1     -22.600   1.791 -13.837  1.00  0.00    -0.265 OA
BRANCH  23  25
HETATM   25  O1  UNL     1     -22.310  -0.399 -13.355  1.00  0.00    -0.309 OA
BRANCH  25  26
HETATM   26  C2  UNL     1     -23.120  -0.419 -12.187  1.00  0.00     0.188 C 
HETATM   27  C1  UNL     1     -22.503  -1.419 -11.238  1.00  0.00     0.047 C 
BRANCH  26  28
HETATM   28  C21 UNL     1     -24.526  -0.754 -12.508  1.00  0.00     0.120 A 
HETATM   29  O5  UNL     1     -25.514  -0.760 -11.666  1.00  0.00    -0.321 OA
HETATM   30  C22 UNL     1     -26.634  -1.096 -12.241  1.00  0.00     0.145 A 
HETATM   31  C23 UNL     1     -26.364  -1.332 -13.580  1.00  0.00     0.069 A 
HETATM   32  C24 UNL     1     -25.014  -1.109 -13.734  1.00  0.00     0.150 A 
HETATM   33  F1  UNL     1     -24.343  -1.236 -14.928  1.00  0.00    -0.203 F 
ENDBRANCH  26  28
ENDBRANCH  25  26
ENDBRANCH  23  25
ENDBRANCH  22  23
ENDBRANCH  21  22
ENDBRANCH  19  21
ENDBRANCH   1  19
BRANCH  12  34
HETATM   34  O3  UNL     1     -10.859  -0.630 -11.964  1.00  0.00    -0.288 OA
ATOM     35  H3  UNL     1     -10.400  -0.885 -11.172  1.00  0.00     0.244 HD
ENDBRANCH  12  34
TORSDOF 8
ENDMDL
MODEL 3
REMARK VINA RESULT: -8.789637911      1.582      1.990
REMARK  8 active torsions:
REMARK  status: ('A' for Active; 'I' for Inactive)
REMARK    1  A    between atoms: C2_2  and  O1_3 
REMARK    2  A    between atoms: C2_2  and  C21_30 
REMARK    3  A    between atoms: O1_3  and  C3_4 
REMARK    4  A    between atoms: C3_4  and  C4_6 
REMARK    5  A    between atoms: C4_6  and  C5_7 
REMARK    6  A    between atoms: C5_7  and  N1_8 
REMARK    7  A    between atoms: N1_8  and  C6_10 
REMARK    8  A    between atoms: N2_21  and  O3_23 
ROOT
HETATM    1  C6  UNL     1     -18.231   2.646 -14.999  1.00  0.00     0.076 C 
HETATM    2  C7  UNL     1     -17.371   3.429 -15.922  1.00  0.00     0.024 C 
HETATM    3  C8  UNL     1     -16.057   3.880 -15.408  1.00  0.00     0.002 C 
HETATM    4  C9  UNL     1     -15.053   3.839 -16.568  1.00  0.00     0.000 C 
HETATM    5  C10 UNL     1     -14.358   2.498 -16.648  1.00  0.00     0.000 C 
HETATM    6  C11 UNL     1     -12.870   2.581 -16.721  1.00  0.00     0.000 C 
HETATM    7  C12 UNL     1     -12.192   1.748 -15.625  1.00  0.00     0.000 C 
HETATM    8  C13 UNL     1     -12.496   0.299 -15.879  1.00  0.00     0.000 C 
HETATM    9  C14 UNL     1     -12.010  -0.617 -14.800  1.00  0.00     0.008 C 
HETATM   10  C15 UNL     1     -12.536  -0.319 -13.436  1.00  0.00     0.086 C 
HETATM   11  C16 UNL     1     -13.471  -1.367 -12.924  1.00  0.00     0.137 C 
HETATM   12  N2  UNL     1     -13.036  -2.125 -11.975  1.00  0.00    -0.251 N 
ATOM     13  H2  UNL     1     -12.090  -1.976 -11.622  1.00  0.00     0.196 HD
HETATM   14  O4  UNL     1     -14.728  -1.478 -13.476  1.00  0.00    -0.338 OA
HETATM   15  C17 UNL     1     -15.623  -0.389 -13.677  1.00  0.00     0.177 C 
HETATM   16  C18 UNL     1     -16.434  -0.715 -14.894  1.00  0.00     0.027 C 
HETATM   17  C19 UNL     1     -17.357   0.391 -15.322  1.00  0.00     0.004 C 
HETATM   18  C20 UNL     1     -17.508   1.485 -14.327  1.00  0.00     0.024 C 
ENDROOT
BRANCH   1  19
HETATM   19  N1  UNL     1     -19.011   3.393 -14.065  1.00  0.00    -0.417 N 
ATOM     20  H1  UNL     1     -18.589   3.908 -13.292  1.00  0.00     0.153 HD
BRANCH  19  21
HETATM   21  C5  UNL     1     -20.435   3.371 -14.290  1.00  0.00     0.124 C 
BRANCH  21  22
HETATM   22  C4  UNL     1     -20.941   1.985 -14.606  1.00  0.00     0.130 C 
BRANCH  22  23
HETATM   23  C3  UNL     1     -22.228   1.757 -13.878  1.00  0.00     0.261 C 
HETATM   24  O2  UNL     1     -22.906   2.747 -13.444  1.00  0.00    -0.265 OA
BRANCH  23  25
HETATM   25  O1  UNL     1     -22.757   0.499 -13.634  1.00  0.00    -0.309 OA
BRANCH  25  26
HETATM   26  C2  UNL     1     -23.334   0.191 -12.372  1.00  0.00     0.188 C 
HETATM   27  C1  UNL     1     -22.382  -0.745 -11.667  1.00  0.00     0.047 C 
BRANCH  26  28
HETATM   28  C21 UNL     1     -24.683  -0.401 -12.522  1.00  0.00     0.120 A 
HETATM   29  O5  UNL     1     -25.627  -0.367 -11.632  1.00  0.00    -0.321 OA
HETATM   30  C22 UNL     1     -26.703  -0.973 -12.049  1.00  0.00     0.145 A 
HETATM   31  C23 UNL     1     -26.449  -1.448 -13.326  1.00  0.00     0.069 A 
HETATM   32  C24 UNL     1     -25.155  -1.074 -13.613  1.00  0.00     0.150 A 
HETATM   33  F1  UNL     1     -24.516  -1.356 -14.798  1.00  0.00    -0.203 F 
ENDBRANCH  26  28
ENDBRANCH  25  26
ENDBRANCH  23  25
ENDBRANCH  22  23
ENDBRANCH  21  22
ENDBRANCH  19  21
ENDBRANCH   1  19
BRANCH  12  34
HETATM   34  O3  UNL     1     -13.797  -3.122 -11.421  1.00  0.00    -0.288 OA
ATOM     35  H3  UNL     1     -13.973  -3.941 -11.870  1.00  0.00     0.244 HD
ENDBRANCH  12  34
TORSDOF 8
ENDMDL
MODEL 4
REMARK VINA RESULT: -8.765851421      4.344      7.704
REMARK  8 active torsions:
REMARK  status: ('A' for Active; 'I' for Inactive)
REMARK    1  A    between atoms: C2_2  and  O1_3 
REMARK    2  A    between atoms: C2_2  and  C21_30 
REMARK    3  A    between atoms: O1_3  and  C3_4 
REMARK    4  A    between atoms: C3_4  and  C4_6 
REMARK    5  A    between atoms: C4_6  and  C5_7 
REMARK    6  A    between atoms: C5_7  and  N1_8 
REMARK    7  A    between atoms: N1_8  and  C6_10 
REMARK    8  A    between atoms: N2_21  and  O3_23 
ROOT
HETATM    1  C6  UNL     1     -15.989  -3.411 -13.584  1.00  0.00     0.076 C 
HETATM    2  C7  UNL     1     -15.552  -4.688 -14.204  1.00  0.00     0.024 C 
HETATM    3  C8  UNL     1     -14.127  -4.803 -14.590  1.00  0.00     0.002 C 
HETATM    4  C9  UNL     1     -13.688  -6.256 -14.357  1.00  0.00     0.000 C 
HETATM    5  C10 UNL     1     -13.138  -6.449 -12.961  1.00  0.00     0.000 C 
HETATM    6  C11 UNL     1     -11.809  -7.123 -12.913  1.00  0.00     0.000 C 
HETATM    7  C12 UNL     1     -10.774  -6.302 -12.132  1.00  0.00     0.000 C 
HETATM    8  C13 UNL     1     -11.210  -6.238 -10.696  1.00  0.00     0.000 C 
HETATM    9  C14 UNL     1     -10.361  -5.345  -9.847  1.00  0.00     0.008 C 
HETATM   10  C15 UNL     1     -10.271  -3.931 -10.314  1.00  0.00     0.086 C 
HETATM   11  C16 UNL     1     -10.953  -2.966  -9.400  1.00  0.00     0.137 C 
HETATM   12  N2  UNL     1     -10.198  -2.189  -8.700  1.00  0.00    -0.251 N 
ATOM     13  H2  UNL     1      -9.186  -2.267  -8.802  1.00  0.00     0.196 HD
HETATM   14  O4  UNL     1     -12.329  -2.947  -9.343  1.00  0.00    -0.338 OA
HETATM   15  C17 UNL     1     -13.187  -2.899 -10.479  1.00  0.00     0.177 C 
HETATM   16  C18 UNL     1     -14.436  -3.639 -10.110  1.00  0.00     0.027 C 
HETATM   17  C19 UNL     1     -15.410  -3.787 -11.244  1.00  0.00     0.004 C 
HETATM   18  C20 UNL     1     -15.099  -2.954 -12.435  1.00  0.00     0.024 C 
ENDROOT
BRANCH   1  19
HETATM   19  N1  UNL     1     -16.289  -2.338 -14.478  1.00  0.00    -0.417 N 
ATOM     20  H1  UNL     1     -16.828  -2.476 -15.333  1.00  0.00     0.153 HD
BRANCH  19  21
HETATM   21  C5  UNL     1     -15.778  -1.047 -14.088  1.00  0.00     0.124 C 
BRANCH  21  22
HETATM   22  C4  UNL     1     -16.609   0.086 -14.640  1.00  0.00     0.130 C 
BRANCH  22  23
HETATM   23  C3  UNL     1     -16.631   1.204 -13.647  1.00  0.00     0.261 C 
HETATM   24  O2  UNL     1     -15.973   1.110 -12.557  1.00  0.00    -0.265 OA
BRANCH  23  25
HETATM   25  O1  UNL     1     -17.339   2.381 -13.835  1.00  0.00    -0.309 OA
BRANCH  25  26
HETATM   26  C2  UNL     1     -18.131   2.568 -15.001  1.00  0.00     0.188 C 
HETATM   27  C1  UNL     1     -17.595   3.791 -15.708  1.00  0.00     0.047 C 
BRANCH  26  28
HETATM   28  C21 UNL     1     -19.566   2.708 -14.665  1.00  0.00     0.120 A 
HETATM   29  O5  UNL     1     -20.204   3.829 -14.522  1.00  0.00    -0.321 OA
HETATM   30  C22 UNL     1     -21.459   3.635 -14.227  1.00  0.00     0.145 A 
HETATM   31  C23 UNL     1     -21.669   2.266 -14.170  1.00  0.00     0.069 A 
HETATM   32  C24 UNL     1     -20.452   1.689 -14.453  1.00  0.00     0.150 A 
HETATM   33  F1  UNL     1     -20.234   0.332 -14.499  1.00  0.00    -0.203 F 
ENDBRANCH  26  28
ENDBRANCH  25  26
ENDBRANCH  23  25
ENDBRANCH  22  23
ENDBRANCH  21  22
ENDBRANCH  19  21
ENDBRANCH   1  19
BRANCH  12  34
HETATM   34  O3  UNL     1     -10.702  -1.261  -7.825  1.00  0.00    -0.288 OA
ATOM     35  H3  UNL     1     -10.839  -1.448  -6.903  1.00  0.00     0.244 HD
ENDBRANCH  12  34
TORSDOF 8
ENDMDL
MODEL 5
REMARK VINA RESULT: -8.646226455      0.979      1.113
REMARK  8 active torsions:
REMARK  status: ('A' for Active; 'I' for Inactive)
REMARK    1  A    between atoms: C2_2  and  O1_3 
REMARK    2  A    between atoms: C2_2  and  C21_30 
REMARK    3  A    between atoms: O1_3  and  C3_4 
REMARK    4  A    between atoms: C3_4  and  C4_6 
REMARK    5  A    between atoms: C4_6  and  C5_7 
REMARK    6  A    between atoms: C5_7  and  N1_8 
REMARK    7  A    between atoms: N1_8  and  C6_10 
REMARK    8  A    between atoms: N2_21  and  O3_23 
ROOT
HETATM    1  C6  UNL     1     -18.883   2.014 -15.017  1.00  0.00     0.076 C 
HETATM    2  C7  UNL     1     -18.130   3.033 -15.792  1.00  0.00     0.024 C 
HETATM    3  C8  UNL     1     -16.955   3.652 -15.138  1.00  0.00     0.002 C 
HETATM    4  C9  UNL     1     -15.894   3.916 -16.216  1.00  0.00     0.000 C 
HETATM    5  C10 UNL     1     -14.961   2.736 -16.372  1.00  0.00     0.000 C 
HETATM    6  C11 UNL     1     -13.512   3.089 -16.322  1.00  0.00     0.000 C 
HETATM    7  C12 UNL     1     -12.757   2.276 -15.262  1.00  0.00     0.000 C 
HETATM    8  C13 UNL     1     -12.773   0.832 -15.677  1.00  0.00     0.000 C 
HETATM    9  C14 UNL     1     -12.190  -0.094 -14.657  1.00  0.00     0.008 C 
HETATM   10  C15 UNL     1     -12.839  -0.044 -13.315  1.00  0.00     0.086 C 
HETATM   11  C16 UNL     1     -13.592  -1.290 -12.980  1.00  0.00     0.137 C 
HETATM   12  N2  UNL     1     -13.081  -2.058 -12.077  1.00  0.00    -0.251 N 
ATOM     13  H2  UNL     1     -12.201  -1.782 -11.640  1.00  0.00     0.196 HD
HETATM   14  O4  UNL     1     -14.773  -1.562 -13.634  1.00  0.00    -0.338 OA
HETATM   15  C17 UNL     1     -15.841  -0.634 -13.798  1.00  0.00     0.177 C 
HETATM   16  C18 UNL     1     -16.507  -0.965 -15.099  1.00  0.00     0.027 C 
HETATM   17  C19 UNL     1     -17.591  -0.001 -15.487  1.00  0.00     0.004 C 
HETATM   18  C20 UNL     1     -17.999   0.934 -14.407  1.00  0.00     0.024 C 
ENDROOT
BRANCH   1  19
HETATM   19  N1  UNL     1     -19.840   2.506 -14.078  1.00  0.00    -0.417 N 
ATOM     20  H1  UNL     1     -19.578   3.105 -13.295  1.00  0.00     0.153 HD
BRANCH  19  21
HETATM   21  C5  UNL     1     -21.203   2.097 -14.312  1.00  0.00     0.124 C 
BRANCH  21  22
HETATM   22  C4  UNL     1     -21.439   0.654 -13.937  1.00  0.00     0.130 C 
BRANCH  22  23
HETATM   23  C3  UNL     1     -22.779   0.532 -13.285  1.00  0.00     0.261 C 
HETATM   24  O2  UNL     1     -23.320   1.546 -12.730  1.00  0.00    -0.265 OA
BRANCH  23  25
HETATM   25  O1  UNL     1     -23.504  -0.649 -13.241  1.00  0.00    -0.309 OA
BRANCH  25  26
HETATM   26  C2  UNL     1     -23.485  -1.465 -12.077  1.00  0.00     0.188 C 
HETATM   27  C1  UNL     1     -23.131  -2.863 -12.523  1.00  0.00     0.047 C 
BRANCH  26  28
HETATM   28  C21 UNL     1     -24.782  -1.423 -11.364  1.00  0.00     0.120 A 
HETATM   29  O5  UNL     1     -24.938  -1.405 -10.075  1.00  0.00    -0.321 OA
HETATM   30  C22 UNL     1     -26.197  -1.368  -9.743  1.00  0.00     0.145 A 
HETATM   31  C23 UNL     1     -26.940  -1.361 -10.913  1.00  0.00     0.069 A 
HETATM   32  C24 UNL     1     -26.022  -1.397 -11.938  1.00  0.00     0.150 A 
HETATM   33  F1  UNL     1     -26.356  -1.400 -13.273  1.00  0.00    -0.203 F 
ENDBRANCH  26  28
ENDBRANCH  25  26
ENDBRANCH  23  25
ENDBRANCH  22  23
ENDBRANCH  21  22
ENDBRANCH  19  21
ENDBRANCH   1  19
BRANCH  12  34
HETATM   34  O3  UNL     1     -13.676  -3.229 -11.681  1.00  0.00    -0.288 OA
ATOM     35  H3  UNL     1     -13.531  -4.053 -12.131  1.00  0.00     0.244 HD
ENDBRANCH  12  34
TORSDOF 8
ENDMDL
