MODEL 1
REMARK VINA RESULT: -9.336192176      0.000      0.000
REMARK  6 active torsions:
REMARK  status: ('A' for Active; 'I' for Inactive)
REMARK       I    between atoms: N2_7  and  C5_8 
REMARK    1  A    between atoms: C5_8  and  C6_10 
REMARK    2  A    between atoms: C6_10  and  C7_11 
REMARK    3  A    between atoms: C7_11  and  C8_12 
REMARK    4  A    between atoms: C8_12  and  C9_13 
REMARK    5  A    between atoms: N3_16  and  C12_17 
REMARK    6  A    between atoms: C15_20  and  N4_21 
ROOT
HETATM    1  N1  UNL     1      39.119 -26.830  63.192  1.00  0.00    -0.194 NA
HETATM    2  C1  UNL     1      38.129 -26.269  63.390  1.00  0.00     0.099 C 
HETATM    3  C2  UNL     1      36.875 -25.575  63.646  1.00  0.00     0.294 C 
HETATM    4  O1  UNL     1      35.811 -26.354  63.266  1.00  0.00    -0.362 OA
HETATM    5  C3  UNL     1      35.686 -26.405  61.888  1.00  0.00     0.190 C 
HETATM    6  C4  UNL     1      35.063 -25.152  61.313  1.00  0.00     0.160 C 
HETATM    7  N2  UNL     1      35.672 -24.030  62.047  1.00  0.00    -0.303 N 
HETATM    8  C5  UNL     1      35.127 -22.719  61.984  1.00  0.00     0.225 C 
HETATM    9  O2  UNL     1      35.631 -21.778  62.607  1.00  0.00    -0.273 OA
HETATM   10  C20 UNL     1      36.839 -24.309  62.829  1.00  0.00     0.123 C 
HETATM   11  N5  UNL     1      37.821 -23.495  62.824  1.00  0.00    -0.386 N 
ATOM     12  H51 UNL     1      37.796 -22.639  62.271  1.00  0.00     0.157 HD
ATOM     13  H52 UNL     1      38.652 -23.693  63.381  1.00  0.00     0.157 HD
ENDROOT
BRANCH   8  14
HETATM   14  C6  UNL     1      33.927 -22.535  61.136  1.00  0.00     0.103 C 
BRANCH  14  15
HETATM   15  C7  UNL     1      32.958 -21.524  61.647  1.00  0.00     0.010 C 
BRANCH  15  16
HETATM   16  C8  UNL     1      33.034 -20.217  60.943  1.00  0.00     0.005 C 
BRANCH  16  17
HETATM   17  C9  UNL     1      32.965 -20.379  59.417  1.00  0.00    -0.011 C 
HETATM   18  C10 UNL     1      31.484 -20.475  59.105  1.00  0.00     0.035 C 
HETATM   19  C11 UNL     1      31.080 -19.078  58.608  1.00  0.00     0.273 C 
HETATM   20  N3  UNL     1      31.677 -18.963  57.306  1.00  0.00     0.093 N 
HETATM   21  C18 UNL     1      33.076 -18.761  57.473  1.00  0.00     0.273 C 
HETATM   22  C19 UNL     1      33.633 -19.210  58.789  1.00  0.00     0.035 C 
BRANCH  20  23
HETATM   23  C12 UNL     1      30.989 -18.081  56.441  1.00  0.00     0.223 C 
HETATM   24  C13 UNL     1      30.194 -17.081  57.236  1.00  0.00     0.038 C 
HETATM   25  C14 UNL     1      29.507 -16.121  56.249  1.00  0.00     0.034 C 
HETATM   26  C15 UNL     1      28.404 -16.901  55.587  1.00  0.00     0.183 C 
HETATM   27  C16 UNL     1      28.632 -18.379  55.590  1.00  0.00     0.034 C 
HETATM   28  C17 UNL     1      30.068 -18.770  55.467  1.00  0.00     0.038 C 
BRANCH  26  29
HETATM   29  N4  UNL     1      27.196 -16.660  56.391  1.00  0.00    -0.075 N 
ATOM     30  H43 UNL     1      26.806 -17.507  56.804  1.00  0.00     0.274 HD
ATOM     31  H42 UNL     1      27.381 -16.169  57.266  1.00  0.00     0.274 HD
ATOM     32  H41 UNL     1      26.544 -16.168  55.779  1.00  0.00     0.274 HD
ENDBRANCH  26  29
ENDBRANCH  20  23
ENDBRANCH  16  17
ENDBRANCH  15  16
ENDBRANCH  14  15
ENDBRANCH   8  14
TORSDOF 6
ENDMDL
MODEL 2
REMARK VINA RESULT: -9.295508044      1.979      2.518
REMARK  6 active torsions:
REMARK  status: ('A' for Active; 'I' for Inactive)
REMARK       I    between atoms: N2_7  and  C5_8 
REMARK    1  A    between atoms: C5_8  and  C6_10 
REMARK    2  A    between atoms: C6_10  and  C7_11 
REMARK    3  A    between atoms: C7_11  and  C8_12 
REMARK    4  A    between atoms: C8_12  and  C9_13 
REMARK    5  A    between atoms: N3_16  and  C12_17 
REMARK    6  A    between atoms: C15_20  and  N4_21 
ROOT
HETATM    1  N1  UNL     1      36.432 -27.280  61.130  1.00  0.00    -0.194 NA
HETATM    2  C1  UNL     1      36.002 -26.333  60.627  1.00  0.00     0.099 C 
HETATM    3  C2  UNL     1      35.473 -25.139  59.984  1.00  0.00     0.294 C 
HETATM    4  O1  UNL     1      36.429 -24.154  59.945  1.00  0.00    -0.362 OA
HETATM    5  C3  UNL     1      36.626 -23.589  61.194  1.00  0.00     0.190 C 
HETATM    6  C4  UNL     1      35.533 -22.611  61.569  1.00  0.00     0.160 C 
HETATM    7  N2  UNL     1      34.273 -23.234  61.133  1.00  0.00    -0.303 N 
HETATM    8  C5  UNL     1      33.065 -22.488  61.056  1.00  0.00     0.225 C 
HETATM    9  O2  UNL     1      32.007 -23.007  60.681  1.00  0.00    -0.273 OA
HETATM   10  C20 UNL     1      34.308 -24.623  60.788  1.00  0.00     0.123 C 
HETATM   11  N5  UNL     1      33.366 -25.398  61.161  1.00  0.00    -0.386 N 
ATOM     12  H51 UNL     1      32.577 -25.049  61.705  1.00  0.00     0.157 HD
ATOM     13  H52 UNL     1      33.390 -26.387  60.915  1.00  0.00     0.157 HD
ENDROOT
BRANCH   8  14
HETATM   14  C6  UNL     1      33.134 -21.063  61.448  1.00  0.00     0.103 C 
BRANCH  14  15
HETATM   15  C7  UNL     1      33.042 -20.103  60.311  1.00  0.00     0.010 C 
BRANCH  15  16
HETATM   16  C8  UNL     1      33.892 -20.475  59.148  1.00  0.00     0.005 C 
BRANCH  16  17
HETATM   17  C9  UNL     1      33.984 -19.341  58.117  1.00  0.00    -0.011 C 
HETATM   18  C10 UNL     1      33.384 -19.920  56.850  1.00  0.00     0.035 C 
HETATM   19  C11 UNL     1      31.951 -19.367  56.788  1.00  0.00     0.273 C 
HETATM   20  N3  UNL     1      32.106 -17.976  56.464  1.00  0.00     0.093 N 
HETATM   21  C18 UNL     1      32.573 -17.297  57.624  1.00  0.00     0.273 C 
HETATM   22  C19 UNL     1      33.245 -18.164  58.644  1.00  0.00     0.035 C 
BRANCH  20  23
HETATM   23  C12 UNL     1      30.996 -17.422  55.786  1.00  0.00     0.223 C 
HETATM   24  C13 UNL     1      30.195 -16.551  56.716  1.00  0.00     0.038 C 
HETATM   25  C14 UNL     1      29.032 -15.939  55.916  1.00  0.00     0.034 C 
HETATM   26  C15 UNL     1      28.054 -17.053  55.658  1.00  0.00     0.183 C 
HETATM   27  C16 UNL     1      28.677 -18.412  55.685  1.00  0.00     0.034 C 
HETATM   28  C17 UNL     1      30.078 -18.448  55.170  1.00  0.00     0.038 C 
BRANCH  26  29
HETATM   29  N4  UNL     1      27.086 -17.010  56.765  1.00  0.00    -0.075 N 
ATOM     30  H43 UNL     1      27.516 -16.845  57.675  1.00  0.00     0.274 HD
ATOM     31  H42 UNL     1      26.493 -16.179  56.755  1.00  0.00     0.274 HD
ATOM     32  H41 UNL     1      26.562 -17.884  56.715  1.00  0.00     0.274 HD
ENDBRANCH  26  29
ENDBRANCH  20  23
ENDBRANCH  16  17
ENDBRANCH  15  16
ENDBRANCH  14  15
ENDBRANCH   8  14
TORSDOF 6
ENDMDL
MODEL 3
REMARK VINA RESULT: -9.229876770      1.254      1.766
REMARK  6 active torsions:
REMARK  status: ('A' for Active; 'I' for Inactive)
REMARK       I    between atoms: N2_7  and  C5_8 
REMARK    1  A    between atoms: C5_8  and  C6_10 
REMARK    2  A    between atoms: C6_10  and  C7_11 
REMARK    3  A    between atoms: C7_11  and  C8_12 
REMARK    4  A    between atoms: C8_12  and  C9_13 
REMARK    5  A    between atoms: N3_16  and  C12_17 
REMARK    6  A    between atoms: C15_20  and  N4_21 
ROOT
HETATM    1  N1  UNL     1      38.362 -24.578  63.753  1.00  0.00    -0.194 NA
HETATM    2  C1  UNL     1      37.230 -24.725  63.575  1.00  0.00     0.099 C 
HETATM    3  C2  UNL     1      35.805 -24.926  63.356  1.00  0.00     0.294 C 
HETATM    4  O1  UNL     1      35.588 -26.085  62.652  1.00  0.00    -0.362 OA
HETATM    5  C3  UNL     1      35.936 -25.941  61.320  1.00  0.00     0.190 C 
HETATM    6  C4  UNL     1      34.895 -25.182  60.525  1.00  0.00     0.160 C 
HETATM    7  N2  UNL     1      34.464 -24.072  61.391  1.00  0.00    -0.303 N 
HETATM    8  C5  UNL     1      33.295 -23.317  61.101  1.00  0.00     0.225 C 
HETATM    9  O2  UNL     1      32.925 -22.390  61.831  1.00  0.00    -0.273 OA
HETATM   10  C20 UNL     1      35.268 -23.779  62.539  1.00  0.00     0.123 C 
HETATM   11  N5  UNL     1      35.517 -22.569  62.852  1.00  0.00    -0.386 N 
ATOM     12  H51 UNL     1      35.153 -21.792  62.299  1.00  0.00     0.157 HD
ATOM     13  H52 UNL     1      36.089 -22.359  63.670  1.00  0.00     0.157 HD
ENDROOT
BRANCH   8  14
HETATM   14  C6  UNL     1      32.542 -23.692  59.882  1.00  0.00     0.103 C 
BRANCH  14  15
HETATM   15  C7  UNL     1      32.171 -22.544  59.007  1.00  0.00     0.010 C 
BRANCH  15  16
HETATM   16  C8  UNL     1      33.343 -21.791  58.485  1.00  0.00     0.005 C 
BRANCH  16  17
HETATM   17  C9  UNL     1      33.145 -20.272  58.593  1.00  0.00    -0.011 C 
HETATM   18  C10 UNL     1      33.566 -19.730  57.241  1.00  0.00     0.035 C 
HETATM   19  C11 UNL     1      32.256 -19.477  56.477  1.00  0.00     0.273 C 
HETATM   20  N3  UNL     1      31.671 -18.331  57.116  1.00  0.00     0.093 N 
HETATM   21  C18 UNL     1      31.139 -18.743  58.370  1.00  0.00     0.273 C 
HETATM   22  C19 UNL     1      31.722 -20.005  58.927  1.00  0.00     0.035 C 
BRANCH  20  23
HETATM   23  C12 UNL     1      30.830 -17.574  56.268  1.00  0.00     0.223 C 
HETATM   24  C13 UNL     1      30.014 -16.599  57.073  1.00  0.00     0.038 C 
HETATM   25  C14 UNL     1      29.157 -15.772  56.099  1.00  0.00     0.034 C 
HETATM   26  C15 UNL     1      28.081 -16.690  55.587  1.00  0.00     0.183 C 
HETATM   27  C16 UNL     1      28.448 -18.138  55.654  1.00  0.00     0.034 C 
HETATM   28  C17 UNL     1      29.899 -18.406  55.423  1.00  0.00     0.038 C 
BRANCH  26  29
HETATM   29  N4  UNL     1      26.928 -16.505  56.483  1.00  0.00    -0.075 N 
ATOM     30  H43 UNL     1      26.513 -17.383  56.797  1.00  0.00     0.274 HD
ATOM     31  H42 UNL     1      27.183 -16.151  57.405  1.00  0.00     0.274 HD
ATOM     32  H41 UNL     1      26.276 -15.903  55.982  1.00  0.00     0.274 HD
ENDBRANCH  26  29
ENDBRANCH  20  23
ENDBRANCH  16  17
ENDBRANCH  15  16
ENDBRANCH  14  15
ENDBRANCH   8  14
TORSDOF 6
ENDMDL
MODEL 4
REMARK VINA RESULT: -9.196646730      2.804      3.682
REMARK  6 active torsions:
REMARK  status: ('A' for Active; 'I' for Inactive)
REMARK       I    between atoms: N2_7  and  C5_8 
REMARK    1  A    between atoms: C5_8  and  C6_10 
REMARK    2  A    between atoms: C6_10  and  C7_11 
REMARK    3  A    between atoms: C7_11  and  C8_12 
REMARK    4  A    between atoms: C8_12  and  C9_13 
REMARK    5  A    between atoms: N3_16  and  C12_17 
REMARK    6  A    between atoms: C15_20  and  N4_21 
ROOT
HETATM    1  N1  UNL     1      35.408 -26.919  55.905  1.00  0.00    -0.194 NA
HETATM    2  C1  UNL     1      34.805 -26.067  56.399  1.00  0.00     0.099 C 
HETATM    3  C2  UNL     1      34.044 -24.985  57.007  1.00  0.00     0.294 C 
HETATM    4  O1  UNL     1      34.576 -23.769  56.655  1.00  0.00    -0.362 OA
HETATM    5  C3  UNL     1      35.764 -23.524  57.323  1.00  0.00     0.190 C 
HETATM    6  C4  UNL     1      35.547 -23.093  58.758  1.00  0.00     0.160 C 
HETATM    7  N2  UNL     1      34.471 -23.953  59.275  1.00  0.00    -0.303 N 
HETATM    8  C5  UNL     1      33.799 -23.651  60.490  1.00  0.00     0.225 C 
HETATM    9  O2  UNL     1      32.888 -24.367  60.922  1.00  0.00    -0.273 OA
HETATM   10  C20 UNL     1      34.124 -25.111  58.507  1.00  0.00     0.123 C 
HETATM   11  N5  UNL     1      33.892 -26.220  59.092  1.00  0.00    -0.386 N 
ATOM     12  H51 UNL     1      33.946 -26.305  60.106  1.00  0.00     0.157 HD
ATOM     13  H52 UNL     1      33.645 -27.044  58.545  1.00  0.00     0.157 HD
ENDROOT
BRANCH   8  14
HETATM   14  C6  UNL     1      34.242 -22.439  61.215  1.00  0.00     0.103 C 
BRANCH  14  15
HETATM   15  C7  UNL     1      33.135 -21.552  61.674  1.00  0.00     0.010 C 
BRANCH  15  16
HETATM   16  C8  UNL     1      33.070 -20.257  60.947  1.00  0.00     0.005 C 
BRANCH  16  17
HETATM   17  C9  UNL     1      32.927 -20.454  59.431  1.00  0.00    -0.011 C 
HETATM   18  C10 UNL     1      31.431 -20.468  59.182  1.00  0.00     0.035 C 
HETATM   19  C11 UNL     1      31.090 -19.062  58.663  1.00  0.00     0.273 C 
HETATM   20  N3  UNL     1      31.638 -19.016  57.335  1.00  0.00     0.093 N 
HETATM   21  C18 UNL     1      33.052 -18.895  57.440  1.00  0.00     0.273 C 
HETATM   22  C19 UNL     1      33.636 -19.343  58.744  1.00  0.00     0.035 C 
BRANCH  20  23
HETATM   23  C12 UNL     1      30.967 -18.117  56.474  1.00  0.00     0.223 C 
HETATM   24  C13 UNL     1      30.183 -17.112  57.273  1.00  0.00     0.038 C 
HETATM   25  C14 UNL     1      29.516 -16.134  56.291  1.00  0.00     0.034 C 
HETATM   26  C15 UNL     1      28.405 -16.892  55.617  1.00  0.00     0.183 C 
HETATM   27  C16 UNL     1      28.611 -18.372  55.609  1.00  0.00     0.034 C 
HETATM   28  C17 UNL     1      30.041 -18.784  55.489  1.00  0.00     0.038 C 
BRANCH  26  29
HETATM   29  N4  UNL     1      27.196 -16.639  56.418  1.00  0.00    -0.075 N 
ATOM     30  H43 UNL     1      26.932 -17.423  57.015  1.00  0.00     0.274 HD
ATOM     31  H42 UNL     1      27.337 -15.956  57.163  1.00  0.00     0.274 HD
ATOM     32  H41 UNL     1      26.469 -16.371  55.754  1.00  0.00     0.274 HD
ENDBRANCH  26  29
ENDBRANCH  20  23
ENDBRANCH  16  17
ENDBRANCH  15  16
ENDBRANCH  14  15
ENDBRANCH   8  14
TORSDOF 6
ENDMDL
MODEL 5
REMARK VINA RESULT: -9.192470040      1.524      2.438
REMARK  6 active torsions:
REMARK  status: ('A' for Active; 'I' for Inactive)
REMARK       I    between atoms: N2_7  and  C5_8 
REMARK    1  A    between atoms: C5_8  and  C6_10 
REMARK    2  A    between atoms: C6_10  and  C7_11 
REMARK    3  A    between atoms: C7_11  and  C8_12 
REMARK    4  A    between atoms: C8_12  and  C9_13 
REMARK    5  A    between atoms: N3_16  and  C12_17 
REMARK    6  A    between atoms: C15_20  and  N4_21 
ROOT
HETATM    1  N1  UNL     1      37.138 -25.275  64.651  1.00  0.00    -0.194 NA
HETATM    2  C1  UNL     1      36.819 -24.837  63.630  1.00  0.00     0.099 C 
HETATM    3  C2  UNL     1      36.428 -24.275  62.346  1.00  0.00     0.294 C 
HETATM    4  O1  UNL     1      36.311 -22.910  62.437  1.00  0.00    -0.362 OA
HETATM    5  C3  UNL     1      35.168 -22.544  63.126  1.00  0.00     0.190 C 
HETATM    6  C4  UNL     1      33.916 -22.664  62.282  1.00  0.00     0.160 C 
HETATM    7  N2  UNL     1      34.062 -23.921  61.530  1.00  0.00    -0.303 N 
HETATM    8  C5  UNL     1      33.222 -24.225  60.424  1.00  0.00     0.225 C 
HETATM    9  O2  UNL     1      33.348 -25.276  59.785  1.00  0.00    -0.273 OA
HETATM   10  C20 UNL     1      35.083 -24.831  61.955  1.00  0.00     0.123 C 
HETATM   11  N5  UNL     1      34.846 -26.083  61.998  1.00  0.00    -0.386 N 
ATOM     12  H51 UNL     1      33.936 -26.459  61.733  1.00  0.00     0.157 HD
ATOM     13  H52 UNL     1      35.573 -26.731  62.300  1.00  0.00     0.157 HD
ENDROOT
BRANCH   8  14
HETATM   14  C6  UNL     1      32.188 -23.225  60.076  1.00  0.00     0.103 C 
BRANCH  14  15
HETATM   15  C7  UNL     1      32.303 -22.672  58.696  1.00  0.00     0.010 C 
BRANCH  15  16
HETATM   16  C8  UNL     1      33.516 -21.837  58.488  1.00  0.00     0.005 C 
BRANCH  16  17
HETATM   17  C9  UNL     1      33.219 -20.339  58.650  1.00  0.00    -0.011 C 
HETATM   18  C10 UNL     1      33.693 -19.708  57.354  1.00  0.00     0.035 C 
HETATM   19  C11 UNL     1      32.423 -19.496  56.515  1.00  0.00     0.273 C 
HETATM   20  N3  UNL     1      31.728 -18.418  57.163  1.00  0.00     0.093 N 
HETATM   21  C18 UNL     1      31.142 -18.920  58.358  1.00  0.00     0.273 C 
HETATM   22  C19 UNL     1      31.763 -20.172  58.897  1.00  0.00     0.035 C 
BRANCH  20  23
HETATM   23  C12 UNL     1      30.900 -17.671  56.294  1.00  0.00     0.223 C 
HETATM   24  C13 UNL     1      30.100 -16.662  57.071  1.00  0.00     0.038 C 
HETATM   25  C14 UNL     1      29.256 -15.848  56.075  1.00  0.00     0.034 C 
HETATM   26  C15 UNL     1      28.165 -16.762  55.587  1.00  0.00     0.183 C 
HETATM   27  C16 UNL     1      28.510 -18.213  55.694  1.00  0.00     0.034 C 
HETATM   28  C17 UNL     1      29.955 -18.511  55.471  1.00  0.00     0.038 C 
BRANCH  26  29
HETATM   29  N4  UNL     1      27.016 -16.535  56.477  1.00  0.00    -0.075 N 
ATOM     30  H43 UNL     1      26.619 -17.394  56.856  1.00  0.00     0.274 HD
ATOM     31  H42 UNL     1      27.270 -16.111  57.370  1.00  0.00     0.274 HD
ATOM     32  H41 UNL     1      26.349 -15.981  55.939  1.00  0.00     0.274 HD
ENDBRANCH  26  29
ENDBRANCH  20  23
ENDBRANCH  16  17
ENDBRANCH  15  16
ENDBRANCH  14  15
ENDBRANCH   8  14
TORSDOF 6
ENDMDL
