MODEL 1
REMARK VINA RESULT: -8.014543609      0.000      0.000
REMARK  8 active torsions:
REMARK  status: ('A' for Active; 'I' for Inactive)
REMARK    1  A    between atoms: C2_2  and  O1_3 
REMARK    2  A    between atoms: C2_2  and  C3_5 
REMARK    3  A    between atoms: C4_6  and  C5_7 
REMARK    4  A    between atoms: C5_7  and  C7_9 
REMARK    5  A    between atoms: C5_7  and  C16_25 
REMARK    6  A    between atoms: C7_9  and  O2_10 
REMARK    7  A    between atoms: O2_10  and  N1_11 
REMARK    8  A    between atoms: C16_25  and  N4_26 
ROOT
HETATM    1  C5  UNL     1      33.457 -18.851  56.445  1.00  0.00     0.070 C 
HETATM    2  C6  UNL     1      33.902 -17.683  55.614  1.00  0.00     0.033 C 
ENDROOT
BRANCH   1   3
HETATM    3  C4  UNL     1      34.065 -20.050  55.802  1.00  0.00    -0.090 C 
HETATM    4  C3  UNL     1      34.580 -21.007  55.277  1.00  0.00    -0.074 C 
BRANCH   4   5
HETATM    5  C2  UNL     1      35.233 -22.161  54.639  1.00  0.00     0.192 C 
HETATM    6  C1  UNL     1      34.450 -22.610  53.440  1.00  0.00     0.053 C 
BRANCH   5   7
HETATM    7  O1  UNL     1      35.403 -23.181  55.574  1.00  0.00    -0.384 OA
ATOM      8  H1  UNL     1      36.320 -23.364  55.748  1.00  0.00     0.211 HD
ENDBRANCH   5   7
ENDBRANCH   4   5
ENDBRANCH   1   3
BRANCH   1   9
HETATM    9  C7  UNL     1      34.084 -18.716  57.811  1.00  0.00     0.225 C 
BRANCH   9  10
HETATM   10  O2  UNL     1      33.154 -18.990  58.803  1.00  0.00    -0.279 OA
BRANCH  10  11
HETATM   11  N1  UNL     1      33.138 -19.952  59.734  1.00  0.00    -0.267 N 
HETATM   12  C8  UNL     1      33.808 -20.992  59.886  1.00  0.00     0.086 C 
HETATM   13  C9  UNL     1      34.900 -21.595  59.100  1.00  0.00     0.102 C 
HETATM   14  C15 UNL     1      33.622 -21.950  61.000  1.00  0.00     0.226 C 
HETATM   15  C10 UNL     1      34.570 -23.083  59.298  1.00  0.00     0.134 C 
HETATM   16  C11 UNL     1      35.744 -23.940  58.872  1.00  0.00     0.047 C 
HETATM   17  C12 UNL     1      33.336 -23.364  58.501  1.00  0.00     0.047 C 
HETATM   18  N2  UNL     1      34.259 -23.162  60.684  1.00  0.00    -0.020 N 
HETATM   19  C13 UNL     1      33.427 -24.319  60.995  1.00  0.00     0.281 C 
HETATM   20  C14 UNL     1      35.450 -23.293  61.516  1.00  0.00     0.281 C 
HETATM   21  N3  UNL     1      32.988 -21.725  62.085  1.00  0.00    -0.378 N 
ATOM     22  H32 UNL     1      32.526 -20.845  62.314  1.00  0.00     0.157 HD
ATOM     23  H31 UNL     1      32.861 -22.385  62.852  1.00  0.00     0.157 HD
ATOM     24  H1  UNL     1      32.439 -19.805  60.462  1.00  0.00     0.194 HD
ENDBRANCH  10  11
ENDBRANCH   9  10
ENDBRANCH   1   9
BRANCH   1  25
HETATM   25  C16 UNL     1      31.996 -19.093  56.491  1.00  0.00     0.296 C 
BRANCH  25  26
HETATM   26  N4  UNL     1      31.126 -18.102  55.992  1.00  0.00     0.093 N 
HETATM   27  C17 UNL     1      30.036 -18.590  55.196  1.00  0.00     0.302 C 
HETATM   28  C18 UNL     1      28.737 -17.857  55.500  1.00  0.00     0.302 C 
HETATM   29  N5  UNL     1      28.975 -16.423  55.626  1.00  0.00     0.087 N 
HETATM   30  C19 UNL     1      27.667 -15.804  55.810  1.00  0.00     0.310 C 
HETATM   31  C20 UNL     1      29.865 -16.128  56.723  1.00  0.00     0.302 C 
HETATM   32  C21 UNL     1      30.548 -17.409  57.131  1.00  0.00     0.302 C 
ENDBRANCH  25  26
ENDBRANCH   1  25
TORSDOF 8
ENDMDL
MODEL 2
REMARK VINA RESULT: -7.981071999      1.873      2.544
REMARK  8 active torsions:
REMARK  status: ('A' for Active; 'I' for Inactive)
REMARK    1  A    between atoms: C2_2  and  O1_3 
REMARK    2  A    between atoms: C2_2  and  C3_5 
REMARK    3  A    between atoms: C4_6  and  C5_7 
REMARK    4  A    between atoms: C5_7  and  C7_9 
REMARK    5  A    between atoms: C5_7  and  C16_25 
REMARK    6  A    between atoms: C7_9  and  O2_10 
REMARK    7  A    between atoms: O2_10  and  N1_11 
REMARK    8  A    between atoms: C16_25  and  N4_26 
ROOT
HETATM    1  C5  UNL     1      33.010 -19.420  58.979  1.00  0.00     0.070 C 
HETATM    2  C6  UNL     1      33.475 -18.002  59.143  1.00  0.00     0.033 C 
ENDROOT
BRANCH   1   3
HETATM    3  C4  UNL     1      34.069 -20.095  58.178  1.00  0.00    -0.090 C 
HETATM    4  C3  UNL     1      34.913 -20.640  57.508  1.00  0.00    -0.074 C 
BRANCH   4   5
HETATM    5  C2  UNL     1      35.926 -21.296  56.667  1.00  0.00     0.192 C 
HETATM    6  C1  UNL     1      35.516 -22.704  56.352  1.00  0.00     0.053 C 
BRANCH   5   7
HETATM    7  O1  UNL     1      37.170 -21.234  57.296  1.00  0.00    -0.384 OA
ATOM      8  H1  UNL     1      37.373 -20.360  57.610  1.00  0.00     0.211 HD
ENDBRANCH   5   7
ENDBRANCH   4   5
ENDBRANCH   1   3
BRANCH   1   9
HETATM    9  C7  UNL     1      33.004 -20.068  60.341  1.00  0.00     0.225 C 
BRANCH   9  10
HETATM   10  O2  UNL     1      32.316 -21.271  60.306  1.00  0.00    -0.279 OA
BRANCH  10  11
HETATM   11  N1  UNL     1      32.745 -22.521  60.520  1.00  0.00    -0.267 N 
HETATM   12  C8  UNL     1      33.727 -22.986  61.132  1.00  0.00     0.086 C 
HETATM   13  C9  UNL     1      34.827 -22.346  61.877  1.00  0.00     0.102 C 
HETATM   14  C15 UNL     1      34.037 -24.429  61.242  1.00  0.00     0.226 C 
HETATM   15  C10 UNL     1      35.971 -23.309  61.526  1.00  0.00     0.134 C 
HETATM   16  C11 UNL     1      37.152 -23.075  62.444  1.00  0.00     0.047 C 
HETATM   17  C12 UNL     1      36.309 -23.078  60.087  1.00  0.00     0.047 C 
HETATM   18  N2  UNL     1      35.367 -24.590  61.664  1.00  0.00    -0.020 N 
HETATM   19  C13 UNL     1      36.068 -25.613  60.896  1.00  0.00     0.281 C 
HETATM   20  C14 UNL     1      35.365 -25.060  63.045  1.00  0.00     0.281 C 
HETATM   21  N3  UNL     1      33.231 -25.390  61.000  1.00  0.00    -0.378 N 
ATOM     22  H32 UNL     1      32.265 -25.272  60.694  1.00  0.00     0.157 HD
ATOM     23  H31 UNL     1      33.444 -26.384  61.077  1.00  0.00     0.157 HD
ATOM     24  H1  UNL     1      32.151 -23.235  60.098  1.00  0.00     0.194 HD
ENDBRANCH  10  11
ENDBRANCH   9  10
ENDBRANCH   1   9
BRANCH   1  25
HETATM   25  C16 UNL     1      31.740 -19.602  58.238  1.00  0.00     0.296 C 
BRANCH  25  26
HETATM   26  N4  UNL     1      31.263 -18.547  57.434  1.00  0.00     0.093 N 
HETATM   27  C17 UNL     1      31.122 -18.857  56.040  1.00  0.00     0.302 C 
HETATM   28  C18 UNL     1      29.849 -18.264  55.451  1.00  0.00     0.302 C 
HETATM   29  N5  UNL     1      29.651 -16.900  55.929  1.00  0.00     0.087 N 
HETATM   30  C19 UNL     1      28.475 -16.387  55.233  1.00  0.00     0.310 C 
HETATM   31  C20 UNL     1      29.485 -16.858  57.362  1.00  0.00     0.302 C 
HETATM   32  C21 UNL     1      29.947 -18.177  57.926  1.00  0.00     0.302 C 
ENDBRANCH  25  26
ENDBRANCH   1  25
TORSDOF 8
ENDMDL
MODEL 3
REMARK VINA RESULT: -7.951165016      2.079      2.861
REMARK  8 active torsions:
REMARK  status: ('A' for Active; 'I' for Inactive)
REMARK    1  A    between atoms: C2_2  and  O1_3 
REMARK    2  A    between atoms: C2_2  and  C3_5 
REMARK    3  A    between atoms: C4_6  and  C5_7 
REMARK    4  A    between atoms: C5_7  and  C7_9 
REMARK    5  A    between atoms: C5_7  and  C16_25 
REMARK    6  A    between atoms: C7_9  and  O2_10 
REMARK    7  A    between atoms: O2_10  and  N1_11 
REMARK    8  A    between atoms: C16_25  and  N4_26 
ROOT
HETATM    1  C5  UNL     1      33.085 -19.666  58.580  1.00  0.00     0.070 C 
HETATM    2  C6  UNL     1      33.483 -18.394  59.270  1.00  0.00     0.033 C 
ENDROOT
BRANCH   1   3
HETATM    3  C4  UNL     1      34.007 -19.791  57.416  1.00  0.00    -0.090 C 
HETATM    4  C3  UNL     1      34.733 -19.898  56.458  1.00  0.00    -0.074 C 
BRANCH   4   5
HETATM    5  C2  UNL     1      35.595 -20.028  55.272  1.00  0.00     0.192 C 
HETATM    6  C1  UNL     1      35.300 -21.307  54.547  1.00  0.00     0.053 C 
BRANCH   5   7
HETATM    7  O1  UNL     1      36.933 -19.929  55.652  1.00  0.00    -0.384 OA
ATOM      8  H1  UNL     1      37.035 -19.618  56.544  1.00  0.00     0.211 HD
ENDBRANCH   5   7
ENDBRANCH   4   5
ENDBRANCH   1   3
BRANCH   1   9
HETATM    9  C7  UNL     1      33.388 -20.814  59.510  1.00  0.00     0.225 C 
BRANCH   9  10
HETATM   10  O2  UNL     1      32.700 -21.953  59.119  1.00  0.00    -0.279 OA
BRANCH  10  11
HETATM   11  N1  UNL     1      33.079 -23.237  59.117  1.00  0.00    -0.267 N 
HETATM   12  C8  UNL     1      34.032 -23.837  58.583  1.00  0.00     0.086 C 
HETATM   13  C9  UNL     1      35.143 -23.376  57.729  1.00  0.00     0.102 C 
HETATM   14  C15 UNL     1      34.272 -25.293  58.695  1.00  0.00     0.226 C 
HETATM   15  C10 UNL     1      35.280 -24.596  56.805  1.00  0.00     0.134 C 
HETATM   16  C11 UNL     1      36.586 -24.528  56.041  1.00  0.00     0.047 C 
HETATM   17  C12 UNL     1      34.088 -24.595  55.902  1.00  0.00     0.047 C 
HETATM   18  N2  UNL     1      35.184 -25.694  57.705  1.00  0.00    -0.020 N 
HETATM   19  C13 UNL     1      34.765 -26.919  57.034  1.00  0.00     0.281 C 
HETATM   20  C14 UNL     1      36.459 -26.005  58.343  1.00  0.00     0.281 C 
HETATM   21  N3  UNL     1      33.744 -26.076  59.555  1.00  0.00    -0.378 N 
ATOM     22  H32 UNL     1      33.082 -25.785  60.274  1.00  0.00     0.157 HD
ATOM     23  H31 UNL     1      33.910 -27.080  59.632  1.00  0.00     0.157 HD
ATOM     24  H1  UNL     1      32.466 -23.845  59.660  1.00  0.00     0.194 HD
ENDBRANCH  10  11
ENDBRANCH   9  10
ENDBRANCH   1   9
BRANCH   1  25
HETATM   25  C16 UNL     1      31.708 -19.702  58.033  1.00  0.00     0.296 C 
BRANCH  25  26
HETATM   26  N4  UNL     1      31.230 -18.585  57.318  1.00  0.00     0.093 N 
HETATM   27  C17 UNL     1      30.946 -18.824  55.932  1.00  0.00     0.302 C 
HETATM   28  C18 UNL     1      29.666 -18.130  55.486  1.00  0.00     0.302 C 
HETATM   29  N5  UNL     1      29.600 -16.778  56.031  1.00  0.00     0.087 N 
HETATM   30  C19 UNL     1      28.402 -16.165  55.467  1.00  0.00     0.310 C 
HETATM   31  C20 UNL     1      29.566 -16.790  57.474  1.00  0.00     0.302 C 
HETATM   32  C21 UNL     1      29.990 -18.158  57.943  1.00  0.00     0.302 C 
ENDBRANCH  25  26
ENDBRANCH   1  25
TORSDOF 8
ENDMDL
MODEL 4
REMARK VINA RESULT: -7.878738011      1.726      2.396
REMARK  8 active torsions:
REMARK  status: ('A' for Active; 'I' for Inactive)
REMARK    1  A    between atoms: C2_2  and  O1_3 
REMARK    2  A    between atoms: C2_2  and  C3_5 
REMARK    3  A    between atoms: C4_6  and  C5_7 
REMARK    4  A    between atoms: C5_7  and  C7_9 
REMARK    5  A    between atoms: C5_7  and  C16_25 
REMARK    6  A    between atoms: C7_9  and  O2_10 
REMARK    7  A    between atoms: O2_10  and  N1_11 
REMARK    8  A    between atoms: C16_25  and  N4_26 
ROOT
HETATM    1  C5  UNL     1      32.983 -19.377  59.036  1.00  0.00     0.070 C 
HETATM    2  C6  UNL     1      33.318 -17.989  59.496  1.00  0.00     0.033 C 
ENDROOT
BRANCH   1   3
HETATM    3  C4  UNL     1      34.037 -19.732  58.044  1.00  0.00    -0.090 C 
HETATM    4  C3  UNL     1      34.878 -20.043  57.237  1.00  0.00    -0.074 C 
BRANCH   4   5
HETATM    5  C2  UNL     1      35.888 -20.443  56.244  1.00  0.00     0.192 C 
HETATM    6  C1  UNL     1      35.268 -21.306  55.185  1.00  0.00     0.053 C 
BRANCH   5   7
HETATM    7  O1  UNL     1      36.954 -21.073  56.886  1.00  0.00    -0.384 OA
ATOM      8  H1  UNL     1      37.045 -20.797  57.790  1.00  0.00     0.211 HD
ENDBRANCH   5   7
ENDBRANCH   4   5
ENDBRANCH   1   3
BRANCH   1   9
HETATM    9  C7  UNL     1      33.149 -20.310  60.211  1.00  0.00     0.225 C 
BRANCH   9  10
HETATM   10  O2  UNL     1      32.408 -21.467  60.023  1.00  0.00    -0.279 OA
BRANCH  10  11
HETATM   11  N1  UNL     1      32.743 -22.750  60.207  1.00  0.00    -0.267 N 
HETATM   12  C8  UNL     1      33.731 -23.424  59.858  1.00  0.00     0.086 C 
HETATM   13  C9  UNL     1      34.946 -23.085  59.093  1.00  0.00     0.102 C 
HETATM   14  C15 UNL     1      33.910 -24.863  60.158  1.00  0.00     0.226 C 
HETATM   15  C10 UNL     1      35.149 -24.405  58.332  1.00  0.00     0.134 C 
HETATM   16  C11 UNL     1      36.535 -24.450  57.724  1.00  0.00     0.047 C 
HETATM   17  C12 UNL     1      34.068 -24.483  57.302  1.00  0.00     0.047 C 
HETATM   18  N2  UNL     1      34.915 -25.391  59.331  1.00  0.00    -0.020 N 
HETATM   19  C13 UNL     1      34.536 -26.676  58.755  1.00  0.00     0.281 C 
HETATM   20  C14 UNL     1      36.098 -25.652  60.144  1.00  0.00     0.281 C 
HETATM   21  N3  UNL     1      33.262 -25.533  61.031  1.00  0.00    -0.378 N 
ATOM     22  H32 UNL     1      32.532 -25.149  61.631  1.00  0.00     0.157 HD
ATOM     23  H31 UNL     1      33.385 -26.524  61.237  1.00  0.00     0.157 HD
ATOM     24  H1  UNL     1      32.053 -23.281  60.739  1.00  0.00     0.194 HD
ENDBRANCH  10  11
ENDBRANCH   9  10
ENDBRANCH   1   9
BRANCH   1  25
HETATM   25  C16 UNL     1      31.682 -19.532  58.344  1.00  0.00     0.296 C 
BRANCH  25  26
HETATM   26  N4  UNL     1      31.225 -18.490  57.512  1.00  0.00     0.093 N 
HETATM   27  C17 UNL     1      31.073 -18.835  56.127  1.00  0.00     0.302 C 
HETATM   28  C18 UNL     1      29.812 -18.232  55.526  1.00  0.00     0.302 C 
HETATM   29  N5  UNL     1      29.644 -16.851  55.965  1.00  0.00     0.087 N 
HETATM   30  C19 UNL     1      28.477 -16.334  55.258  1.00  0.00     0.310 C 
HETATM   31  C20 UNL     1      29.483 -16.766  57.397  1.00  0.00     0.302 C 
HETATM   32  C21 UNL     1      29.919 -18.078  57.997  1.00  0.00     0.302 C 
ENDBRANCH  25  26
ENDBRANCH   1  25
TORSDOF 8
ENDMDL
MODEL 5
REMARK VINA RESULT: -7.823070096      1.579      2.430
REMARK  8 active torsions:
REMARK  status: ('A' for Active; 'I' for Inactive)
REMARK    1  A    between atoms: C2_2  and  O1_3 
REMARK    2  A    between atoms: C2_2  and  C3_5 
REMARK    3  A    between atoms: C4_6  and  C5_7 
REMARK    4  A    between atoms: C5_7  and  C7_9 
REMARK    5  A    between atoms: C5_7  and  C16_25 
REMARK    6  A    between atoms: C7_9  and  O2_10 
REMARK    7  A    between atoms: O2_10  and  N1_11 
REMARK    8  A    between atoms: C16_25  and  N4_26 
ROOT
HETATM    1  C5  UNL     1      32.818 -20.140  58.020  1.00  0.00     0.070 C 
HETATM    2  C6  UNL     1      33.655 -19.509  59.094  1.00  0.00     0.033 C 
ENDROOT
BRANCH   1   3
HETATM    3  C4  UNL     1      33.694 -21.163  57.382  1.00  0.00    -0.090 C 
HETATM    4  C3  UNL     1      34.395 -21.984  56.843  1.00  0.00    -0.074 C 
BRANCH   4   5
HETATM    5  C2  UNL     1      35.243 -22.973  56.159  1.00  0.00     0.192 C 
HETATM    6  C1  UNL     1      35.083 -22.862  54.671  1.00  0.00     0.053 C 
BRANCH   5   7
HETATM    7  O1  UNL     1      34.949 -24.251  56.631  1.00  0.00    -0.384 OA
ATOM      8  H1  UNL     1      35.521 -24.515  57.343  1.00  0.00     0.211 HD
ENDBRANCH   5   7
ENDBRANCH   4   5
ENDBRANCH   1   3
BRANCH   1   9
HETATM    9  C7  UNL     1      31.687 -20.882  58.688  1.00  0.00     0.225 C 
BRANCH   9  10
HETATM   10  O2  UNL     1      32.087 -21.371  59.923  1.00  0.00    -0.279 OA
BRANCH  10  11
HETATM   11  N1  UNL     1      32.581 -22.568  60.262  1.00  0.00    -0.267 N 
HETATM   12  C8  UNL     1      33.589 -22.915  60.907  1.00  0.00     0.086 C 
HETATM   13  C9  UNL     1      34.660 -22.145  61.568  1.00  0.00     0.102 C 
HETATM   14  C15 UNL     1      33.974 -24.321  61.166  1.00  0.00     0.226 C 
HETATM   15  C10 UNL     1      35.850 -23.081  61.307  1.00  0.00     0.134 C 
HETATM   16  C11 UNL     1      37.023 -22.692  62.182  1.00  0.00     0.047 C 
HETATM   17  C12 UNL     1      36.166 -22.986  59.848  1.00  0.00     0.047 C 
HETATM   18  N2  UNL     1      35.313 -24.370  61.586  1.00  0.00    -0.020 N 
HETATM   19  C13 UNL     1      36.061 -25.431  60.921  1.00  0.00     0.281 C 
HETATM   20  C14 UNL     1      35.344 -24.690  63.008  1.00  0.00     0.281 C 
HETATM   21  N3  UNL     1      33.217 -25.342  61.035  1.00  0.00    -0.378 N 
ATOM     22  H32 UNL     1      32.244 -25.306  60.730  1.00  0.00     0.157 HD
ATOM     23  H31 UNL     1      33.482 -26.310  61.213  1.00  0.00     0.157 HD
ATOM     24  H1  UNL     1      32.022 -23.352  59.924  1.00  0.00     0.194 HD
ENDBRANCH  10  11
ENDBRANCH   9  10
ENDBRANCH   1   9
BRANCH   1  25
HETATM   25  C16 UNL     1      32.367 -19.236  56.936  1.00  0.00     0.296 C 
BRANCH  25  26
HETATM   26  N4  UNL     1      31.074 -18.678  57.009  1.00  0.00     0.093 N 
HETATM   27  C17 UNL     1      31.014 -17.337  57.516  1.00  0.00     0.302 C 
HETATM   28  C18 UNL     1      30.022 -16.480  56.743  1.00  0.00     0.302 C 
HETATM   29  N5  UNL     1      28.796 -17.226  56.481  1.00  0.00     0.087 N 
HETATM   30  C19 UNL     1      27.877 -16.294  55.836  1.00  0.00     0.310 C 
HETATM   31  C20 UNL     1      29.046 -18.386  55.660  1.00  0.00     0.302 C 
HETATM   32  C21 UNL     1      30.529 -18.651  55.662  1.00  0.00     0.302 C 
ENDBRANCH  25  26
ENDBRANCH   1  25
TORSDOF 8
ENDMDL
