MODEL 1
REMARK VINA RESULT: -11.139651321      0.000      0.000
REMARK  6 active torsions:
REMARK  status: ('A' for Active; 'I' for Inactive)
REMARK    1  A    between atoms: C2_2  and  O1_3 
REMARK    2  A    between atoms: C2_2  and  C3_5 
REMARK    3  A    between atoms: C3_5  and  C4_6 
REMARK    4  A    between atoms: C4_6  and  N1_7 
REMARK    5  A    between atoms: C13_16  and  O2_17 
REMARK    6  A    between atoms: C14_19  and  O3_20 
ROOT
HETATM    1  N1  UNL     1      11.294 -29.940 -19.448  1.00  0.00     0.089 N 
HETATM    2  C5  UNL     1       9.997 -30.004 -18.766  1.00  0.00     0.278 C 
HETATM    3  C6  UNL     1       9.758 -28.591 -18.409  1.00  0.00     0.028 C 
HETATM    4  C7  UNL     1       8.644 -28.237 -17.529  1.00  0.00    -0.003 C 
HETATM    5  C8  UNL     1       8.569 -28.918 -16.213  1.00  0.00     0.006 C 
HETATM    6  C9  UNL     1       7.790 -28.209 -15.148  1.00  0.00     0.006 C 
HETATM    7  C10 UNL     1       7.886 -26.714 -15.195  1.00  0.00    -0.003 C 
HETATM    8  C11 UNL     1       6.824 -26.196 -14.214  1.00  0.00     0.008 C 
HETATM    9  C12 UNL     1       6.749 -24.703 -14.219  1.00  0.00     0.035 C 
HETATM   10  C13 UNL     1       7.604 -24.060 -15.284  1.00  0.00     0.147 C 
HETATM   11  C14 UNL     1       7.421 -24.725 -16.631  1.00  0.00     0.155 C 
HETATM   12  C15 UNL     1       7.531 -26.220 -16.552  1.00  0.00    -0.008 C 
HETATM   13  C16 UNL     1       6.214 -26.780 -17.053  1.00  0.00     0.019 C 
HETATM   14  C17 UNL     1       8.592 -26.739 -17.512  1.00  0.00     0.001 C 
HETATM   15  C18 UNL     1       9.879 -26.009 -17.453  1.00  0.00     0.007 C 
HETATM   16  C19 UNL     1      11.129 -26.695 -17.787  1.00  0.00     0.012 C 
HETATM   17  C20 UNL     1      11.122 -28.144 -18.038  1.00  0.00    -0.012 C 
HETATM   18  C21 UNL     1      11.856 -28.926 -17.022  1.00  0.00     0.017 C 
HETATM   19  C22 UNL     1      11.769 -28.564 -19.372  1.00  0.00     0.282 C 
ENDROOT
BRANCH   1  20
HETATM   20  C4  UNL     1      11.136 -30.235 -20.865  1.00  0.00     0.275 C 
BRANCH  20  21
HETATM   21  C3  UNL     1      12.125 -29.339 -21.599  1.00  0.00     0.061 C 
BRANCH  21  22
HETATM   22  C2  UNL     1      13.045 -30.182 -22.481  1.00  0.00     0.115 C 
HETATM   23  C1  UNL     1      14.187 -30.695 -21.664  1.00  0.00     0.039 C 
BRANCH  22  24
HETATM   24  O1  UNL     1      13.470 -29.336 -23.523  1.00  0.00    -0.396 OA
ATOM     25  H1  UNL     1      12.906 -29.391 -24.285  1.00  0.00     0.210 HD
ENDBRANCH  22  24
ENDBRANCH  21  22
ENDBRANCH  20  21
ENDBRANCH   1  20
BRANCH  11  26
HETATM   26  O3  UNL     1       6.150 -24.303 -17.090  1.00  0.00    -0.392 OA
ATOM     27  H3  UNL     1       5.593 -25.069 -17.029  1.00  0.00     0.210 HD
ENDBRANCH  11  26
BRANCH  10  28
HETATM   28  O2  UNL     1       7.198 -22.729 -15.393  1.00  0.00    -0.393 OA
ATOM     29  H2  UNL     1       6.542 -22.691 -16.079  1.00  0.00     0.210 HD
ENDBRANCH  10  28
TORSDOF 6
ENDMDL
MODEL 2
REMARK VINA RESULT: -10.531446991      2.123      7.915
REMARK  6 active torsions:
REMARK  status: ('A' for Active; 'I' for Inactive)
REMARK    1  A    between atoms: C2_2  and  O1_3 
REMARK    2  A    between atoms: C2_2  and  C3_5 
REMARK    3  A    between atoms: C3_5  and  C4_6 
REMARK    4  A    between atoms: C4_6  and  N1_7 
REMARK    5  A    between atoms: C13_16  and  O2_17 
REMARK    6  A    between atoms: C14_19  and  O3_20 
ROOT
HETATM    1  N1  UNL     1       8.891 -27.677 -15.795  1.00  0.00     0.089 N 
HETATM    2  C5  UNL     1       9.981 -27.275 -16.690  1.00  0.00     0.278 C 
HETATM    3  C6  UNL     1       9.887 -28.276 -17.771  1.00  0.00     0.028 C 
HETATM    4  C7  UNL     1      10.936 -28.354 -18.789  1.00  0.00    -0.003 C 
HETATM    5  C8  UNL     1      12.334 -28.517 -18.320  1.00  0.00     0.006 C 
HETATM    6  C9  UNL     1      13.295 -29.108 -19.305  1.00  0.00     0.006 C 
HETATM    7  C10 UNL     1      12.701 -30.143 -20.211  1.00  0.00    -0.003 C 
HETATM    8  C11 UNL     1      13.760 -30.410 -21.291  1.00  0.00     0.008 C 
HETATM    9  C12 UNL     1      13.267 -31.373 -22.323  1.00  0.00     0.035 C 
HETATM   10  C13 UNL     1      11.810 -31.734 -22.163  1.00  0.00     0.147 C 
HETATM   11  C14 UNL     1      10.947 -30.509 -21.951  1.00  0.00     0.155 C 
HETATM   12  C15 UNL     1      11.492 -29.601 -20.886  1.00  0.00    -0.008 C 
HETATM   13  C16 UNL     1      11.741 -28.259 -21.545  1.00  0.00     0.019 C 
HETATM   14  C17 UNL     1      10.452 -29.343 -19.805  1.00  0.00     0.001 C 
HETATM   15  C18 UNL     1       9.773 -30.561 -19.307  1.00  0.00     0.007 C 
HETATM   16  C19 UNL     1       9.260 -30.609 -17.936  1.00  0.00     0.012 C 
HETATM   17  C20 UNL     1       9.548 -29.503 -17.011  1.00  0.00    -0.012 C 
HETATM   18  C21 UNL     1      10.423 -29.885 -15.883  1.00  0.00     0.017 C 
HETATM   19  C22 UNL     1       8.304 -28.899 -16.330  1.00  0.00     0.282 C 
ENDROOT
BRANCH   1  20
HETATM   20  C4  UNL     1       7.830 -26.680 -15.809  1.00  0.00     0.275 C 
BRANCH  20  21
HETATM   21  C3  UNL     1       7.198 -26.711 -14.424  1.00  0.00     0.061 C 
BRANCH  21  22
HETATM   22  C2  UNL     1       8.283 -26.766 -13.350  1.00  0.00     0.115 C 
HETATM   23  C1  UNL     1       8.166 -28.046 -12.588  1.00  0.00     0.039 C 
BRANCH  22  24
HETATM   24  O1  UNL     1       8.084 -25.637 -12.534  1.00  0.00    -0.396 OA
ATOM     25  H1  UNL     1       8.052 -24.830 -13.035  1.00  0.00     0.210 HD
ENDBRANCH  22  24
ENDBRANCH  21  22
ENDBRANCH  20  21
ENDBRANCH   1  20
BRANCH  11  26
HETATM   26  O3  UNL     1      10.875 -29.874 -23.214  1.00  0.00    -0.392 OA
ATOM     27  H3  UNL     1      10.671 -28.966 -23.028  1.00  0.00     0.210 HD
ENDBRANCH  11  26
BRANCH  10  28
HETATM   28  O2  UNL     1      11.406 -32.355 -23.345  1.00  0.00    -0.393 OA
ATOM     29  H2  UNL     1      10.677 -31.854 -23.692  1.00  0.00     0.210 HD
ENDBRANCH  10  28
TORSDOF 6
ENDMDL
MODEL 3
REMARK VINA RESULT: -10.325651468      1.823      7.856
REMARK  6 active torsions:
REMARK  status: ('A' for Active; 'I' for Inactive)
REMARK    1  A    between atoms: C2_2  and  O1_3 
REMARK    2  A    between atoms: C2_2  and  C3_5 
REMARK    3  A    between atoms: C3_5  and  C4_6 
REMARK    4  A    between atoms: C4_6  and  N1_7 
REMARK    5  A    between atoms: C13_16  and  O2_17 
REMARK    6  A    between atoms: C14_19  and  O3_20 
ROOT
HETATM    1  N1  UNL     1       9.215 -27.622 -15.877  1.00  0.00     0.089 N 
HETATM    2  C5  UNL     1      10.299 -27.271 -16.801  1.00  0.00     0.278 C 
HETATM    3  C6  UNL     1      10.142 -28.278 -17.869  1.00  0.00     0.028 C 
HETATM    4  C7  UNL     1      11.163 -28.407 -18.909  1.00  0.00    -0.003 C 
HETATM    5  C8  UNL     1      12.564 -28.619 -18.470  1.00  0.00     0.006 C 
HETATM    6  C9  UNL     1      13.480 -29.257 -19.470  1.00  0.00     0.006 C 
HETATM    7  C10 UNL     1      12.826 -30.277 -20.352  1.00  0.00    -0.003 C 
HETATM    8  C11 UNL     1      13.849 -30.595 -21.452  1.00  0.00     0.008 C 
HETATM    9  C12 UNL     1      13.295 -31.548 -22.462  1.00  0.00     0.035 C 
HETATM   10  C13 UNL     1      11.829 -31.851 -22.266  1.00  0.00     0.147 C 
HETATM   11  C14 UNL     1      11.019 -30.592 -22.047  1.00  0.00     0.155 C 
HETATM   12  C15 UNL     1      11.623 -29.695 -21.004  1.00  0.00    -0.008 C 
HETATM   13  C16 UNL     1      11.908 -28.370 -21.683  1.00  0.00     0.019 C 
HETATM   14  C17 UNL     1      10.618 -29.387 -19.903  1.00  0.00     0.001 C 
HETATM   15  C18 UNL     1       9.905 -30.573 -19.377  1.00  0.00     0.007 C 
HETATM   16  C19 UNL     1       9.423 -30.587 -17.994  1.00  0.00     0.012 C 
HETATM   17  C20 UNL     1       9.774 -29.484 -17.087  1.00  0.00    -0.012 C 
HETATM   18  C21 UNL     1      10.659 -29.888 -15.976  1.00  0.00     0.017 C 
HETATM   19  C22 UNL     1       8.570 -28.826 -16.385  1.00  0.00     0.282 C 
ENDROOT
BRANCH   1  20
HETATM   20  C4  UNL     1       8.193 -26.585 -15.878  1.00  0.00     0.275 C 
BRANCH  20  21
HETATM   21  C3  UNL     1       6.902 -27.260 -15.435  1.00  0.00     0.061 C 
BRANCH  21  22
HETATM   22  C2  UNL     1       5.695 -26.499 -15.981  1.00  0.00     0.115 C 
HETATM   23  C1  UNL     1       5.891 -26.232 -17.438  1.00  0.00     0.039 C 
BRANCH  22  24
HETATM   24  O1  UNL     1       5.606 -25.313 -15.227  1.00  0.00    -0.396 OA
ATOM     25  H1  UNL     1       6.052 -25.382 -14.391  1.00  0.00     0.210 HD
ENDBRANCH  22  24
ENDBRANCH  21  22
ENDBRANCH  20  21
ENDBRANCH   1  20
BRANCH  11  26
HETATM   26  O3  UNL     1      10.943 -29.968 -23.315  1.00  0.00    -0.392 OA
ATOM     27  H3  UNL     1      11.217 -30.629 -23.938  1.00  0.00     0.210 HD
ENDBRANCH  11  26
BRANCH  10  28
HETATM   28  O2  UNL     1      11.375 -32.469 -23.431  1.00  0.00    -0.393 OA
ATOM     29  H2  UNL     1      10.512 -32.117 -23.618  1.00  0.00     0.210 HD
ENDBRANCH  10  28
TORSDOF 6
ENDMDL
MODEL 4
REMARK VINA RESULT: -10.257617065      1.020      1.127
REMARK  6 active torsions:
REMARK  status: ('A' for Active; 'I' for Inactive)
REMARK    1  A    between atoms: C2_2  and  O1_3 
REMARK    2  A    between atoms: C2_2  and  C3_5 
REMARK    3  A    between atoms: C3_5  and  C4_6 
REMARK    4  A    between atoms: C4_6  and  N1_7 
REMARK    5  A    between atoms: C13_16  and  O2_17 
REMARK    6  A    between atoms: C14_19  and  O3_20 
ROOT
HETATM    1  N1  UNL     1      11.918 -29.516 -19.275  1.00  0.00     0.089 N 
HETATM    2  C5  UNL     1      10.979 -29.942 -18.232  1.00  0.00     0.278 C 
HETATM    3  C6  UNL     1      10.265 -28.688 -17.919  1.00  0.00     0.028 C 
HETATM    4  C7  UNL     1       9.359 -28.628 -16.772  1.00  0.00    -0.003 C 
HETATM    5  C8  UNL     1       9.903 -29.026 -15.450  1.00  0.00     0.006 C 
HETATM    6  C9  UNL     1       9.187 -28.483 -14.251  1.00  0.00     0.006 C 
HETATM    7  C10 UNL     1       8.632 -27.102 -14.430  1.00  0.00    -0.003 C 
HETATM    8  C11 UNL     1       7.727 -26.855 -13.214  1.00  0.00     0.008 C 
HETATM    9  C12 UNL     1       7.033 -25.534 -13.300  1.00  0.00     0.035 C 
HETATM   10  C13 UNL     1       7.249 -24.825 -14.615  1.00  0.00     0.147 C 
HETATM   11  C14 UNL     1       7.037 -25.749 -15.794  1.00  0.00     0.155 C 
HETATM   12  C15 UNL     1       7.780 -27.045 -15.648  1.00  0.00    -0.008 C 
HETATM   13  C16 UNL     1       6.742 -28.149 -15.689  1.00  0.00     0.019 C 
HETATM   14  C17 UNL     1       8.690 -27.289 -16.844  1.00  0.00     0.001 C 
HETATM   15  C18 UNL     1       9.522 -26.126 -17.227  1.00  0.00     0.007 C 
HETATM   16  C19 UNL     1      10.820 -26.331 -17.873  1.00  0.00     0.012 C 
HETATM   17  C20 UNL     1      11.360 -27.693 -18.008  1.00  0.00    -0.012 C 
HETATM   18  C21 UNL     1      12.580 -27.929 -17.208  1.00  0.00     0.017 C 
HETATM   19  C22 UNL     1      11.775 -28.076 -19.442  1.00  0.00     0.282 C 
ENDROOT
BRANCH   1  20
HETATM   20  C4  UNL     1      11.555 -30.109 -20.554  1.00  0.00     0.275 C 
BRANCH  20  21
HETATM   21  C3  UNL     1      12.205 -29.242 -21.625  1.00  0.00     0.061 C 
BRANCH  21  22
HETATM   22  C2  UNL     1      13.041 -30.107 -22.568  1.00  0.00     0.115 C 
HETATM   23  C1  UNL     1      14.158 -30.742 -21.804  1.00  0.00     0.039 C 
BRANCH  22  24
HETATM   24  O1  UNL     1      13.506 -29.245 -23.579  1.00  0.00    -0.396 OA
ATOM     25  H1  UNL     1      14.323 -29.545 -23.961  1.00  0.00     0.210 HD
ENDBRANCH  22  24
ENDBRANCH  21  22
ENDBRANCH  20  21
ENDBRANCH   1  20
BRANCH  11  26
HETATM   26  O3  UNL     1       5.637 -25.938 -15.878  1.00  0.00    -0.392 OA
ATOM     27  H3  UNL     1       5.502 -26.493 -16.636  1.00  0.00     0.210 HD
ENDBRANCH  11  26
BRANCH  10  28
HETATM   28  O2  UNL     1       6.309 -23.796 -14.689  1.00  0.00    -0.393 OA
ATOM     29  H2  UNL     1       5.762 -23.969 -15.447  1.00  0.00     0.210 HD
ENDBRANCH  10  28
TORSDOF 6
ENDMDL
MODEL 5
REMARK VINA RESULT: -9.867532818      1.739      7.816
REMARK  6 active torsions:
REMARK  status: ('A' for Active; 'I' for Inactive)
REMARK    1  A    between atoms: C2_2  and  O1_3 
REMARK    2  A    between atoms: C2_2  and  C3_5 
REMARK    3  A    between atoms: C3_5  and  C4_6 
REMARK    4  A    between atoms: C4_6  and  N1_7 
REMARK    5  A    between atoms: C13_16  and  O2_17 
REMARK    6  A    between atoms: C14_19  and  O3_20 
ROOT
HETATM    1  N1  UNL     1       8.397 -27.328 -16.185  1.00  0.00     0.089 N 
HETATM    2  C5  UNL     1       9.525 -26.946 -17.040  1.00  0.00     0.278 C 
HETATM    3  C6  UNL     1       9.537 -28.025 -18.048  1.00  0.00     0.028 C 
HETATM    4  C7  UNL     1      10.649 -28.133 -18.992  1.00  0.00    -0.003 C 
HETATM    5  C8  UNL     1      12.020 -28.204 -18.429  1.00  0.00     0.006 C 
HETATM    6  C9  UNL     1      13.063 -28.824 -19.307  1.00  0.00     0.006 C 
HETATM    7  C10 UNL     1      12.566 -29.946 -20.168  1.00  0.00    -0.003 C 
HETATM    8  C11 UNL     1      13.700 -30.245 -21.160  1.00  0.00     0.008 C 
HETATM    9  C12 UNL     1      13.308 -31.299 -22.145  1.00  0.00     0.035 C 
HETATM   10  C13 UNL     1      11.858 -31.707 -22.047  1.00  0.00     0.147 C 
HETATM   11  C14 UNL     1      10.939 -30.507 -21.978  1.00  0.00     0.155 C 
HETATM   12  C15 UNL     1      11.382 -29.503 -20.953  1.00  0.00    -0.008 C 
HETATM   13  C16 UNL     1      11.623 -28.203 -21.694  1.00  0.00     0.019 C 
HETATM   14  C17 UNL     1      10.267 -29.212 -19.959  1.00  0.00     0.001 C 
HETATM   15  C18 UNL     1       9.604 -30.418 -19.413  1.00  0.00     0.007 C 
HETATM   16  C19 UNL     1       9.007 -30.388 -18.076  1.00  0.00     0.012 C 
HETATM   17  C20 UNL     1       9.195 -29.207 -17.220  1.00  0.00    -0.012 C 
HETATM   18  C21 UNL     1      10.011 -29.471 -16.017  1.00  0.00     0.017 C 
HETATM   19  C22 UNL     1       7.890 -28.608 -16.662  1.00  0.00     0.282 C 
ENDROOT
BRANCH   1  20
HETATM   20  C4  UNL     1       7.303 -26.379 -16.337  1.00  0.00     0.275 C 
BRANCH  20  21
HETATM   21  C3  UNL     1       7.945 -25.002 -16.451  1.00  0.00     0.061 C 
BRANCH  21  22
HETATM   22  C2  UNL     1       6.941 -23.918 -16.067  1.00  0.00     0.115 C 
HETATM   23  C1  UNL     1       6.731 -22.998 -17.225  1.00  0.00     0.039 C 
BRANCH  22  24
HETATM   24  O1  UNL     1       7.488 -23.256 -14.950  1.00  0.00    -0.396 OA
ATOM     25  H1  UNL     1       8.247 -23.707 -14.600  1.00  0.00     0.210 HD
ENDBRANCH  22  24
ENDBRANCH  21  22
ENDBRANCH  20  21
ENDBRANCH   1  20
BRANCH  11  26
HETATM   26  O3  UNL     1      10.924 -29.968 -23.287  1.00  0.00    -0.392 OA
ATOM     27  H3  UNL     1      10.972 -30.717 -23.869  1.00  0.00     0.210 HD
ENDBRANCH  11  26
BRANCH  10  28
HETATM   28  O2  UNL     1      11.552 -32.428 -23.202  1.00  0.00    -0.393 OA
ATOM     29  H2  UNL     1      10.925 -33.098 -22.957  1.00  0.00     0.210 HD
ENDBRANCH  10  28
TORSDOF 6
ENDMDL
