MODEL 1
REMARK VINA RESULT: -5.258117956      0.000      0.000
REMARK  6 active torsions:
REMARK  status: ('A' for Active; 'I' for Inactive)
REMARK    1  A    between atoms: C2_2  and  N1_4 
REMARK    2  A    between atoms: C5_9  and  N3_10 
REMARK    3  A    between atoms: N5_19  and  C11_21 
REMARK    4  A    between atoms: C11_21  and  C13_23 
REMARK    5  A    between atoms: C13_23  and  N6_24 
REMARK    6  A    between atoms: C14_28  and  N7_29 
ROOT
HETATM    1  N1  UNL     1     -14.546  -2.957 -14.574  1.00  0.00    -0.222 N 
ATOM      2  H1  UNL     1     -15.320  -2.979 -13.910  1.00  0.00     0.178 HD
HETATM    3  C4  UNL     1     -14.036  -1.820 -14.838  1.00  0.00     0.694 C 
HETATM    4  N2  UNL     1     -14.579  -0.739 -14.203  1.00  0.00    -0.022 N 
ATOM      5  H2  UNL     1     -15.515  -0.887 -13.827  1.00  0.00     0.203 HD
HETATM    6  C5  UNL     1     -14.075   0.483 -13.996  1.00  0.00     0.696 C 
HETATM    7  N4  UNL     1     -13.307   1.159 -14.876  1.00  0.00    -0.173 N 
ATOM      8  H4  UNL     1     -13.255   2.166 -14.716  1.00  0.00     0.186 HD
HETATM    9  C10 UNL     1     -12.600   0.719 -15.927  1.00  0.00     0.162 C 
HETATM   10  N5  UNL     1     -12.146   1.443 -16.818  1.00  0.00    -0.367 N 
ATOM     11  H5  UNL     1     -11.631   0.940 -17.541  1.00  0.00     0.161 HD
HETATM   12  C14 UNL     1     -12.313  -0.648 -16.114  1.00  0.00     0.159 C 
HETATM   13  N8  UNL     1     -13.019  -1.745 -15.707  1.00  0.00    -0.173 N 
ATOM     14  H8  UNL     1     -12.731  -2.631 -16.123  1.00  0.00     0.186 HD
ENDROOT
BRANCH  10  15
HETATM   15  C11 UNL     1     -12.205   2.825 -17.021  1.00  0.00     0.104 C 
HETATM   16  C12 UNL     1     -11.127   3.644 -16.355  1.00  0.00     0.034 C 
BRANCH  15  17
HETATM   17  C13 UNL     1     -12.256   3.215 -18.499  1.00  0.00     0.254 C 
BRANCH  17  18
HETATM   18  N6  UNL     1     -11.929   4.583 -18.718  1.00  0.00    -0.077 N 
ATOM     19  H63 UNL     1     -12.705   5.191 -18.458  1.00  0.00     0.274 HD
ATOM     20  H62 UNL     1     -11.234   4.905 -18.045  1.00  0.00     0.274 HD
ATOM     21  H61 UNL     1     -11.625   4.767 -19.674  1.00  0.00     0.274 HD
ENDBRANCH  17  18
ENDBRANCH  15  17
ENDBRANCH  10  15
BRANCH  12  22
HETATM   22  N7  UNL     1     -11.237  -0.932 -16.759  1.00  0.00    -0.382 N 
ATOM     23  H72 UNL     1     -10.486  -0.253 -16.629  1.00  0.00     0.157 HD
ATOM     24  H71 UNL     1     -11.247  -1.785 -17.318  1.00  0.00     0.157 HD
ENDBRANCH  12  22
BRANCH   6  25
HETATM   25  N3  UNL     1     -14.363   1.096 -12.761  1.00  0.00    -0.213 N 
HETATM   26  C6  UNL     1     -13.679   2.289 -12.294  1.00  0.00     0.167 C 
HETATM   27  C7  UNL     1     -14.420   2.832 -11.072  1.00  0.00     0.188 C 
HETATM   28  O1  UNL     1     -14.462   1.917 -10.043  1.00  0.00    -0.388 OA
HETATM   29  C8  UNL     1     -14.814   0.652 -10.435  1.00  0.00     0.188 C 
HETATM   30  C9  UNL     1     -15.369   0.569 -11.845  1.00  0.00     0.167 C 
ENDBRANCH   6  25
BRANCH   1  31
HETATM   31  C2  UNL     1     -14.125  -4.199 -15.129  1.00  0.00     0.091 C 
HETATM   32  C1  UNL     1     -15.216  -4.978 -15.782  1.00  0.00     0.032 C 
HETATM   33  C3  UNL     1     -13.608  -5.045 -13.944  1.00  0.00     0.032 C 
ENDBRANCH   1  31
TORSDOF 6
ENDMDL
MODEL 2
REMARK VINA RESULT: -5.243284105      1.250      1.473
REMARK  6 active torsions:
REMARK  status: ('A' for Active; 'I' for Inactive)
REMARK    1  A    between atoms: C2_2  and  N1_4 
REMARK    2  A    between atoms: C5_9  and  N3_10 
REMARK    3  A    between atoms: N5_19  and  C11_21 
REMARK    4  A    between atoms: C11_21  and  C13_23 
REMARK    5  A    between atoms: C13_23  and  N6_24 
REMARK    6  A    between atoms: C14_28  and  N7_29 
ROOT
HETATM    1  N1  UNL     1     -13.642  -3.427 -13.657  1.00  0.00    -0.222 N 
ATOM      2  H1  UNL     1     -14.281  -3.465 -12.862  1.00  0.00     0.178 HD
HETATM    3  C4  UNL     1     -13.493  -2.301 -14.233  1.00  0.00     0.694 C 
HETATM    4  N2  UNL     1     -14.206  -1.251 -13.727  1.00  0.00    -0.022 N 
ATOM      5  H2  UNL     1     -15.008  -1.513 -13.153  1.00  0.00     0.203 HD
HETATM    6  C5  UNL     1     -14.019   0.066 -13.865  1.00  0.00     0.696 C 
HETATM    7  N4  UNL     1     -13.589   0.669 -14.994  1.00  0.00    -0.173 N 
ATOM      8  H4  UNL     1     -13.783   1.669 -15.047  1.00  0.00     0.186 HD
HETATM    9  C10 UNL     1     -12.948   0.162 -16.058  1.00  0.00     0.162 C 
HETATM   10  N5  UNL     1     -12.832   0.737 -17.145  1.00  0.00    -0.367 N 
ATOM     11  H5  UNL     1     -12.311   0.205 -17.842  1.00  0.00     0.161 HD
HETATM   12  C14 UNL     1     -12.340  -1.109 -16.027  1.00  0.00     0.159 C 
HETATM   13  N8  UNL     1     -12.666  -2.208 -15.283  1.00  0.00    -0.173 N 
ATOM     14  H8  UNL     1     -12.216  -3.079 -15.566  1.00  0.00     0.186 HD
ENDROOT
BRANCH  10  15
HETATM   15  C11 UNL     1     -13.282   1.980 -17.597  1.00  0.00     0.104 C 
HETATM   16  C12 UNL     1     -12.216   2.975 -17.984  1.00  0.00     0.034 C 
BRANCH  15  17
HETATM   17  C13 UNL     1     -14.279   1.875 -18.752  1.00  0.00     0.254 C 
BRANCH  17  18
HETATM   18  N6  UNL     1     -15.608   1.615 -18.310  1.00  0.00    -0.077 N 
ATOM     19  H63 UNL     1     -16.290   1.924 -19.002  1.00  0.00     0.274 HD
ATOM     20  H62 UNL     1     -15.806   0.615 -18.317  1.00  0.00     0.274 HD
ATOM     21  H61 UNL     1     -15.805   2.021 -17.396  1.00  0.00     0.274 HD
ENDBRANCH  17  18
ENDBRANCH  15  17
ENDBRANCH  10  15
BRANCH  12  22
HETATM   22  N7  UNL     1     -11.330  -1.288 -16.803  1.00  0.00    -0.382 N 
ATOM     23  H72 UNL     1     -11.017  -0.439 -17.275  1.00  0.00     0.157 HD
ATOM     24  H71 UNL     1     -10.958  -2.235 -16.863  1.00  0.00     0.157 HD
ENDBRANCH  12  22
BRANCH   6  25
HETATM   25  N3  UNL     1     -14.281   0.874 -12.742  1.00  0.00    -0.213 N 
HETATM   26  C6  UNL     1     -13.499   2.056 -12.422  1.00  0.00     0.167 C 
HETATM   27  C7  UNL     1     -14.218   2.833 -11.318  1.00  0.00     0.188 C 
HETATM   28  O1  UNL     1     -14.373   2.083 -10.173  1.00  0.00    -0.388 OA
HETATM   29  C8  UNL     1     -14.833   0.812 -10.396  1.00  0.00     0.188 C 
HETATM   30  C9  UNL     1     -15.356   0.577 -11.801  1.00  0.00     0.167 C 
ENDBRANCH   6  25
BRANCH   1  31
HETATM   31  C2  UNL     1     -12.992  -4.638 -14.030  1.00  0.00     0.091 C 
HETATM   32  C1  UNL     1     -13.825  -5.548 -14.868  1.00  0.00     0.032 C 
HETATM   33  C3  UNL     1     -12.686  -5.385 -12.712  1.00  0.00     0.032 C 
ENDBRANCH   1  31
TORSDOF 6
ENDMDL
MODEL 3
REMARK VINA RESULT: -5.215854547      1.764      5.541
REMARK  6 active torsions:
REMARK  status: ('A' for Active; 'I' for Inactive)
REMARK    1  A    between atoms: C2_2  and  N1_4 
REMARK    2  A    between atoms: C5_9  and  N3_10 
REMARK    3  A    between atoms: N5_19  and  C11_21 
REMARK    4  A    between atoms: C11_21  and  C13_23 
REMARK    5  A    between atoms: C13_23  and  N6_24 
REMARK    6  A    between atoms: C14_28  and  N7_29 
ROOT
HETATM    1  N1  UNL     1     -10.702   3.571 -15.208  1.00  0.00    -0.222 N 
ATOM      2  H1  UNL     1     -10.371   3.712 -14.253  1.00  0.00     0.178 HD
HETATM    3  C4  UNL     1     -11.654   2.744 -15.379  1.00  0.00     0.694 C 
HETATM    4  N2  UNL     1     -12.140   2.123 -14.263  1.00  0.00    -0.022 N 
ATOM      5  H2  UNL     1     -11.514   2.136 -13.458  1.00  0.00     0.203 HD
HETATM    6  C5  UNL     1     -13.307   1.501 -14.059  1.00  0.00     0.696 C 
HETATM    7  N4  UNL     1     -13.949   0.748 -14.977  1.00  0.00    -0.173 N 
ATOM      8  H4  UNL     1     -14.646   0.108 -14.595  1.00  0.00     0.186 HD
HETATM    9  C10 UNL     1     -13.816   0.706 -16.311  1.00  0.00     0.162 C 
HETATM   10  N5  UNL     1     -14.258  -0.195 -17.031  1.00  0.00    -0.367 N 
ATOM     11  H5  UNL     1     -14.068  -0.064 -18.025  1.00  0.00     0.161 HD
HETATM   12  C14 UNL     1     -13.136   1.713 -17.026  1.00  0.00     0.159 C 
HETATM   13  N8  UNL     1     -12.118   2.528 -16.618  1.00  0.00    -0.173 N 
ATOM     14  H8  UNL     1     -11.645   3.044 -17.360  1.00  0.00     0.186 HD
ENDROOT
BRANCH  10  15
HETATM   15  C11 UNL     1     -14.971  -1.360 -16.737  1.00  0.00     0.104 C 
HETATM   16  C12 UNL     1     -15.782  -1.949 -17.866  1.00  0.00     0.034 C 
BRANCH  15  17
HETATM   17  C13 UNL     1     -14.097  -2.469 -16.149  1.00  0.00     0.254 C 
BRANCH  17  18
HETATM   18  N6  UNL     1     -14.543  -2.899 -14.867  1.00  0.00    -0.077 N 
ATOM     19  H63 UNL     1     -13.791  -3.359 -14.354  1.00  0.00     0.274 HD
ATOM     20  H62 UNL     1     -14.702  -2.103 -14.249  1.00  0.00     0.274 HD
ATOM     21  H61 UNL     1     -15.369  -3.494 -14.916  1.00  0.00     0.274 HD
ENDBRANCH  17  18
ENDBRANCH  15  17
ENDBRANCH  10  15
BRANCH  12  22
HETATM   22  N7  UNL     1     -13.507   1.913 -18.241  1.00  0.00    -0.382 N 
ATOM     23  H72 UNL     1     -14.225   2.631 -18.341  1.00  0.00     0.157 HD
ATOM     24  H71 UNL     1     -13.056   1.346 -18.959  1.00  0.00     0.157 HD
ENDBRANCH  12  22
BRANCH   6  25
HETATM   25  N3  UNL     1     -13.907   1.661 -12.796  1.00  0.00    -0.213 N 
HETATM   26  C6  UNL     1     -13.602   2.772 -11.912  1.00  0.00     0.167 C 
HETATM   27  C7  UNL     1     -14.619   2.784 -10.771  1.00  0.00     0.188 C 
HETATM   28  O1  UNL     1     -14.590   1.618 -10.039  1.00  0.00    -0.388 OA
HETATM   29  C8  UNL     1     -14.571   0.480 -10.802  1.00  0.00     0.188 C 
HETATM   30  C9  UNL     1     -14.881   0.710 -12.269  1.00  0.00     0.167 C 
ENDBRANCH   6  25
BRANCH   1  31
HETATM   31  C2  UNL     1     -10.061   4.318 -16.237  1.00  0.00     0.091 C 
HETATM   32  C1  UNL     1      -8.576   4.386 -16.111  1.00  0.00     0.032 C 
HETATM   33  C3  UNL     1     -10.595   5.763 -16.117  1.00  0.00     0.032 C 
ENDBRANCH   1  31
TORSDOF 6
ENDMDL
MODEL 4
REMARK VINA RESULT: -5.152668247      1.254      5.459
REMARK  6 active torsions:
REMARK  status: ('A' for Active; 'I' for Inactive)
REMARK    1  A    between atoms: C2_2  and  N1_4 
REMARK    2  A    between atoms: C5_9  and  N3_10 
REMARK    3  A    between atoms: N5_19  and  C11_21 
REMARK    4  A    between atoms: C11_21  and  C13_23 
REMARK    5  A    between atoms: C13_23  and  N6_24 
REMARK    6  A    between atoms: C14_28  and  N7_29 
ROOT
HETATM    1  N1  UNL     1     -11.858   2.784 -16.370  1.00  0.00    -0.222 N 
ATOM      2  H1  UNL     1     -11.487   3.363 -15.616  1.00  0.00     0.178 HD
HETATM    3  C4  UNL     1     -12.522   1.750 -16.038  1.00  0.00     0.694 C 
HETATM    4  N2  UNL     1     -12.673   1.518 -14.700  1.00  0.00    -0.022 N 
ATOM      5  H2  UNL     1     -12.000   1.997 -14.102  1.00  0.00     0.203 HD
HETATM    6  C5  UNL     1     -13.564   0.761 -14.050  1.00  0.00     0.696 C 
HETATM    7  N4  UNL     1     -14.037  -0.424 -14.492  1.00  0.00    -0.173 N 
ATOM      8  H4  UNL     1     -14.460  -1.012 -13.774  1.00  0.00     0.186 HD
HETATM    9  C10 UNL     1     -14.040  -0.950 -15.726  1.00  0.00     0.162 C 
HETATM   10  N5  UNL     1     -14.258  -2.139 -15.979  1.00  0.00    -0.367 N 
ATOM     11  H5  UNL     1     -14.223  -2.366 -16.973  1.00  0.00     0.161 HD
HETATM   12  C14 UNL     1     -13.781  -0.170 -16.871  1.00  0.00     0.159 C 
HETATM   13  N8  UNL     1     -13.026   0.961 -16.996  1.00  0.00    -0.173 N 
ATOM     14  H8  UNL     1     -12.815   1.244 -17.954  1.00  0.00     0.186 HD
ENDROOT
BRANCH  10  15
HETATM   15  C11 UNL     1     -14.543  -3.233 -15.157  1.00  0.00     0.104 C 
HETATM   16  C12 UNL     1     -15.374  -4.332 -15.773  1.00  0.00     0.034 C 
BRANCH  15  17
HETATM   17  C13 UNL     1     -13.294  -3.866 -14.542  1.00  0.00     0.254 C 
BRANCH  17  18
HETATM   18  N6  UNL     1     -13.198  -3.644 -13.139  1.00  0.00    -0.077 N 
ATOM     19  H63 UNL     1     -13.994  -3.104 -12.799  1.00  0.00     0.274 HD
ATOM     20  H62 UNL     1     -13.352  -4.508 -12.620  1.00  0.00     0.274 HD
ATOM     21  H61 UNL     1     -12.318  -3.206 -12.868  1.00  0.00     0.274 HD
ENDBRANCH  17  18
ENDBRANCH  15  17
ENDBRANCH  10  15
BRANCH  12  22
HETATM   22  N7  UNL     1     -14.322  -0.559 -17.972  1.00  0.00    -0.382 N 
ATOM     23  H72 UNL     1     -15.327  -0.721 -17.903  1.00  0.00     0.157 HD
ATOM     24  H71 UNL     1     -13.704  -0.662 -18.777  1.00  0.00     0.157 HD
ENDBRANCH  12  22
BRANCH   6  25
HETATM   25  N3  UNL     1     -14.048   1.250 -12.822  1.00  0.00    -0.213 N 
HETATM   26  C6  UNL     1     -13.534   2.456 -12.195  1.00  0.00     0.167 C 
HETATM   27  C7  UNL     1     -14.458   2.839 -11.039  1.00  0.00     0.188 C 
HETATM   28  O1  UNL     1     -14.536   1.846 -10.087  1.00  0.00    -0.388 OA
HETATM   29  C8  UNL     1     -14.724   0.591 -10.603  1.00  0.00     0.188 C 
HETATM   30  C9  UNL     1     -15.102   0.573 -12.073  1.00  0.00     0.167 C 
ENDBRANCH   6  25
BRANCH   1  31
HETATM   31  C2  UNL     1     -11.589   3.200 -17.705  1.00  0.00     0.091 C 
HETATM   32  C1  UNL     1     -10.278   2.733 -18.240  1.00  0.00     0.032 C 
HETATM   33  C3  UNL     1     -11.544   4.745 -17.673  1.00  0.00     0.032 C 
ENDBRANCH   1  31
TORSDOF 6
ENDMDL
MODEL 5
REMARK VINA RESULT: -5.083851449      1.877      2.231
REMARK  6 active torsions:
REMARK  status: ('A' for Active; 'I' for Inactive)
REMARK    1  A    between atoms: C2_2  and  N1_4 
REMARK    2  A    between atoms: C5_9  and  N3_10 
REMARK    3  A    between atoms: N5_19  and  C11_21 
REMARK    4  A    between atoms: C11_21  and  C13_23 
REMARK    5  A    between atoms: C13_23  and  N6_24 
REMARK    6  A    between atoms: C14_28  and  N7_29 
ROOT
HETATM    1  N1  UNL     1     -14.976  -0.935 -16.473  1.00  0.00    -0.222 N 
ATOM      2  H1  UNL     1     -15.881  -0.931 -16.002  1.00  0.00     0.178 HD
HETATM    3  C4  UNL     1     -14.104  -0.101 -16.068  1.00  0.00     0.694 C 
HETATM    4  N2  UNL     1     -14.469   0.720 -15.037  1.00  0.00    -0.022 N 
ATOM      5  H2  UNL     1     -15.474   0.810 -14.895  1.00  0.00     0.203 HD
HETATM    6  C5  UNL     1     -13.714   1.424 -14.187  1.00  0.00     0.696 C 
HETATM    7  N4  UNL     1     -12.561   2.046 -14.512  1.00  0.00    -0.173 N 
ATOM      8  H4  UNL     1     -12.268   2.775 -13.861  1.00  0.00     0.186 HD
HETATM    9  C10 UNL     1     -11.740   1.859 -15.556  1.00  0.00     0.162 C 
HETATM   10  N5  UNL     1     -10.856   2.650 -15.901  1.00  0.00    -0.367 N 
ATOM     11  H5  UNL     1     -10.323   2.347 -16.717  1.00  0.00     0.161 HD
HETATM   12  C14 UNL     1     -11.822   0.715 -16.375  1.00  0.00     0.159 C 
HETATM   13  N8  UNL     1     -12.902  -0.070 -16.660  1.00  0.00    -0.173 N 
ATOM     14  H8  UNL     1     -12.777  -0.726 -17.432  1.00  0.00     0.186 HD
ENDROOT
BRANCH  10  15
HETATM   15  C11 UNL     1     -10.449   3.882 -15.383  1.00  0.00     0.104 C 
HETATM   16  C12 UNL     1      -9.043   3.946 -14.839  1.00  0.00     0.034 C 
BRANCH  15  17
HETATM   17  C13 UNL     1     -10.634   5.039 -16.365  1.00  0.00     0.254 C 
BRANCH  17  18
HETATM   18  N6  UNL     1     -10.467   6.314 -15.752  1.00  0.00    -0.077 N 
ATOM     19  H63 UNL     1     -10.691   6.273 -14.758  1.00  0.00     0.274 HD
ATOM     20  H62 UNL     1      -9.480   6.562 -15.688  1.00  0.00     0.274 HD
ATOM     21  H61 UNL     1     -10.999   7.048 -16.218  1.00  0.00     0.274 HD
ENDBRANCH  17  18
ENDBRANCH  15  17
ENDBRANCH  10  15
BRANCH  12  22
HETATM   22  N7  UNL     1     -10.736   0.336 -16.951  1.00  0.00    -0.382 N 
ATOM     23  H72 UNL     1      -9.889   0.588 -16.442  1.00  0.00     0.157 HD
ATOM     24  H71 UNL     1     -10.835  -0.166 -17.834  1.00  0.00     0.157 HD
ENDBRANCH  12  22
BRANCH   6  25
HETATM   25  N3  UNL     1     -14.157   1.507 -12.853  1.00  0.00    -0.213 N 
HETATM   26  C6  UNL     1     -13.783   2.592 -11.963  1.00  0.00     0.167 C 
HETATM   27  C7  UNL     1     -14.649   2.515 -10.705  1.00  0.00     0.188 C 
HETATM   28  O1  UNL     1     -14.487   1.322 -10.037  1.00  0.00    -0.388 OA
HETATM   29  C8  UNL     1     -14.523   0.219 -10.848  1.00  0.00     0.188 C 
HETATM   30  C9  UNL     1     -15.022   0.496 -12.254  1.00  0.00     0.167 C 
ENDBRANCH   6  25
BRANCH   1  31
HETATM   31  C2  UNL     1     -14.794  -1.873 -17.529  1.00  0.00     0.091 C 
HETATM   32  C1  UNL     1     -15.859  -1.836 -18.572  1.00  0.00     0.032 C 
HETATM   33  C3  UNL     1     -14.845  -3.272 -16.875  1.00  0.00     0.032 C 
ENDBRANCH   1  31
TORSDOF 6
ENDMDL
