MODEL 1
REMARK VINA RESULT: -9.215025782      0.000      0.000
REMARK  3 active torsions:
REMARK  status: ('A' for Active; 'I' for Inactive)
REMARK    1  A    between atoms: C2_5  and  C3_6 
REMARK    2  A    between atoms: C3_6  and  O2_7 
REMARK    3  A    between atoms: N2_17  and  C11_18 
ROOT
HETATM    1  O1  UNL     1      -9.023  25.702  47.029  1.00  0.00    -0.244 OA
HETATM    2  C1  UNL     1      -8.149  26.549  46.760  1.00  0.00     0.348 A 
HETATM    3  N1  UNL     1      -7.278  26.423  45.725  1.00  0.00    -0.286 N 
ATOM      4  H1  UNL     1      -7.217  25.657  45.053  1.00  0.00     0.172 HD
HETATM    5  C2  UNL     1      -6.515  27.527  45.780  1.00  0.00     0.186 A 
HETATM    6  O3  UNL     1      -6.889  28.265  46.767  1.00  0.00    -0.214 OA
HETATM    7  N2  UNL     1      -7.883  27.697  47.382  1.00  0.00    -0.195 N 
ENDROOT
BRANCH   5   8
HETATM    8  C3  UNL     1      -5.386  27.899  44.860  1.00  0.00     0.125 C 
HETATM    9  C4  UNL     1      -4.651  26.662  44.471  1.00  0.00     0.051 C 
HETATM   10  C5  UNL     1      -3.254  26.932  43.965  1.00  0.00    -0.011 C 
HETATM   11  C6  UNL     1      -3.211  27.952  42.876  1.00  0.00     0.005 C 
HETATM   12  C9  UNL     1      -2.520  27.607  45.130  1.00  0.00     0.009 C 
HETATM   13  C7  UNL     1      -3.029  29.290  43.568  1.00  0.00     0.005 C 
HETATM   14  C8  UNL     1      -3.127  29.009  45.047  1.00  0.00    -0.011 C 
HETATM   15  C10 UNL     1      -4.534  28.931  45.545  1.00  0.00     0.051 C 
BRANCH   8  16
HETATM   16  O2  UNL     1      -5.980  28.500  43.758  1.00  0.00    -0.381 OA
ATOM     17  H2  UNL     1      -6.350  27.791  43.245  1.00  0.00     0.211 HD
ENDBRANCH   8  16
ENDBRANCH   5   8
BRANCH   7  18
HETATM   18  C11 UNL     1      -8.521  28.284  48.536  1.00  0.00     0.120 C 
HETATM   19  C12 UNL     1      -7.580  29.235  49.221  1.00  0.00     0.028 C 
HETATM   20  C13 UNL     1      -7.531  29.078  50.706  1.00  0.00     0.002 C 
HETATM   21  C14 UNL     1      -8.883  28.936  51.353  1.00  0.00     0.000 C 
HETATM   22  C15 UNL     1      -9.838  28.090  50.574  1.00  0.00     0.002 C 
HETATM   23  C16 UNL     1      -9.194  27.315  49.445  1.00  0.00     0.028 C 
ENDBRANCH   7  18
TORSDOF 3
ENDMDL
MODEL 2
REMARK VINA RESULT: -8.449975222      2.811      8.106
REMARK  3 active torsions:
REMARK  status: ('A' for Active; 'I' for Inactive)
REMARK    1  A    between atoms: C2_5  and  C3_6 
REMARK    2  A    between atoms: C3_6  and  O2_7 
REMARK    3  A    between atoms: N2_17  and  C11_18 
ROOT
HETATM    1  O1  UNL     1      -7.061  30.234  48.531  1.00  0.00    -0.244 OA
HETATM    2  C1  UNL     1      -7.666  29.403  49.235  1.00  0.00     0.348 A 
HETATM    3  N1  UNL     1      -8.254  29.711  50.420  1.00  0.00    -0.286 N 
ATOM      4  H1  UNL     1      -8.285  30.621  50.880  1.00  0.00     0.172 HD
HETATM    5  C2  UNL     1      -8.787  28.556  50.852  1.00  0.00     0.186 A 
HETATM    6  O3  UNL     1      -8.542  27.620  50.001  1.00  0.00    -0.214 OA
HETATM    7  N2  UNL     1      -7.863  28.106  49.005  1.00  0.00    -0.195 N 
ENDROOT
BRANCH   5   8
HETATM    8  C3  UNL     1      -9.559  28.329  52.121  1.00  0.00     0.125 C 
HETATM    9  C4  UNL     1      -8.626  28.422  53.279  1.00  0.00     0.051 C 
HETATM   10  C5  UNL     1      -9.153  27.754  54.527  1.00  0.00    -0.011 C 
HETATM   11  C6  UNL     1     -10.525  28.210  54.900  1.00  0.00     0.005 C 
HETATM   12  C9  UNL     1      -9.344  26.280  54.152  1.00  0.00     0.009 C 
HETATM   13  C7  UNL     1     -11.481  27.262  54.201  1.00  0.00     0.005 C 
HETATM   14  C8  UNL     1     -10.626  26.383  53.322  1.00  0.00    -0.011 C 
HETATM   15  C10 UNL     1     -10.276  27.012  52.013  1.00  0.00     0.051 C 
BRANCH   8  16
HETATM   16  O2  UNL     1     -10.517  29.333  52.165  1.00  0.00    -0.381 OA
ATOM     17  H2  UNL     1     -10.410  29.827  51.360  1.00  0.00     0.211 HD
ENDBRANCH   8  16
ENDBRANCH   5   8
BRANCH   7  18
HETATM   18  C11 UNL     1      -7.435  27.296  47.889  1.00  0.00     0.120 C 
HETATM   19  C12 UNL     1      -6.038  27.669  47.481  1.00  0.00     0.028 C 
HETATM   20  C13 UNL     1      -5.857  27.833  46.007  1.00  0.00     0.002 C 
HETATM   21  C14 UNL     1      -6.495  26.743  45.186  1.00  0.00     0.000 C 
HETATM   22  C15 UNL     1      -7.828  26.302  45.701  1.00  0.00     0.002 C 
HETATM   23  C16 UNL     1      -8.407  27.210  46.764  1.00  0.00     0.028 C 
ENDBRANCH   7  18
TORSDOF 3
ENDMDL
MODEL 3
REMARK VINA RESULT: -8.449107260      1.983      7.282
REMARK  3 active torsions:
REMARK  status: ('A' for Active; 'I' for Inactive)
REMARK    1  A    between atoms: C2_5  and  C3_6 
REMARK    2  A    between atoms: C3_6  and  O2_7 
REMARK    3  A    between atoms: N2_17  and  C11_18 
ROOT
HETATM    1  O1  UNL     1      -4.469  30.614  47.914  1.00  0.00    -0.244 OA
HETATM    2  C1  UNL     1      -5.456  29.930  48.251  1.00  0.00     0.348 A 
HETATM    3  N1  UNL     1      -6.283  30.264  49.276  1.00  0.00    -0.286 N 
ATOM      4  H1  UNL     1      -6.221  31.079  49.885  1.00  0.00     0.172 HD
HETATM    5  C2  UNL     1      -7.202  29.284  49.310  1.00  0.00     0.186 A 
HETATM    6  O3  UNL     1      -6.954  28.424  48.384  1.00  0.00    -0.214 OA
HETATM    7  N2  UNL     1      -5.898  28.791  47.721  1.00  0.00    -0.195 N 
ENDROOT
BRANCH   5   8
HETATM    8  C3  UNL     1      -8.361  29.157  50.257  1.00  0.00     0.125 C 
HETATM    9  C4  UNL     1      -7.846  28.790  51.607  1.00  0.00     0.051 C 
HETATM   10  C5  UNL     1      -8.896  28.174  52.501  1.00  0.00    -0.011 C 
HETATM   11  C6  UNL     1     -10.137  28.998  52.601  1.00  0.00     0.005 C 
HETATM   12  C9  UNL     1      -9.355  26.903  51.776  1.00  0.00     0.009 C 
HETATM   13  C7  UNL     1     -11.049  28.510  51.490  1.00  0.00     0.005 C 
HETATM   14  C8  UNL     1     -10.236  27.524  50.689  1.00  0.00    -0.011 C 
HETATM   15  C10 UNL     1      -9.339  28.169  49.683  1.00  0.00     0.051 C 
BRANCH   8  16
HETATM   16  O2  UNL     1      -8.973  30.402  50.274  1.00  0.00    -0.381 OA
ATOM     17  H2  UNL     1      -9.636  30.373  49.593  1.00  0.00     0.211 HD
ENDBRANCH   8  16
ENDBRANCH   5   8
BRANCH   7  18
HETATM   18  C11 UNL     1      -5.367  28.025  46.618  1.00  0.00     0.120 C 
HETATM   19  C12 UNL     1      -4.160  28.710  46.043  1.00  0.00     0.028 C 
HETATM   20  C13 UNL     1      -4.155  28.786  44.551  1.00  0.00     0.002 C 
HETATM   21  C14 UNL     1      -4.549  27.501  43.871  1.00  0.00     0.000 C 
HETATM   22  C15 UNL     1      -5.668  26.778  44.549  1.00  0.00     0.002 C 
HETATM   23  C16 UNL     1      -6.375  27.594  45.609  1.00  0.00     0.028 C 
ENDBRANCH   7  18
TORSDOF 3
ENDMDL
MODEL 4
REMARK VINA RESULT: -8.376654555      1.662      7.080
REMARK  3 active torsions:
REMARK  status: ('A' for Active; 'I' for Inactive)
REMARK    1  A    between atoms: C2_5  and  C3_6 
REMARK    2  A    between atoms: C3_6  and  O2_7 
REMARK    3  A    between atoms: N2_17  and  C11_18 
ROOT
HETATM    1  O1  UNL     1      -8.603  25.593  46.020  1.00  0.00    -0.244 OA
HETATM    2  C1  UNL     1      -8.388  26.365  46.975  1.00  0.00     0.348 A 
HETATM    3  N1  UNL     1      -9.270  26.568  47.988  1.00  0.00    -0.286 N 
ATOM      4  H1  UNL     1     -10.189  26.140  48.107  1.00  0.00     0.172 HD
HETATM    5  C2  UNL     1      -8.669  27.455  48.797  1.00  0.00     0.186 A 
HETATM    6  O3  UNL     1      -7.515  27.768  48.317  1.00  0.00    -0.214 OA
HETATM    7  N2  UNL     1      -7.315  27.119  47.209  1.00  0.00    -0.195 N 
ENDROOT
BRANCH   5   8
HETATM    8  C3  UNL     1      -9.207  28.029  50.077  1.00  0.00     0.125 C 
HETATM    9  C4  UNL     1      -8.185  27.868  51.148  1.00  0.00     0.051 C 
HETATM   10  C5  UNL     1      -8.760  27.953  52.542  1.00  0.00    -0.011 C 
HETATM   11  C6  UNL     1      -9.585  29.178  52.762  1.00  0.00     0.005 C 
HETATM   12  C9  UNL     1      -9.772  26.805  52.637  1.00  0.00     0.009 C 
HETATM   13  C7  UNL     1     -11.005  28.792  52.389  1.00  0.00     0.005 C 
HETATM   14  C8  UNL     1     -10.921  27.399  51.819  1.00  0.00    -0.011 C 
HETATM   15  C10 UNL     1     -10.524  27.367  50.379  1.00  0.00     0.051 C 
BRANCH   8  16
HETATM   16  O2  UNL     1      -9.455  29.370  49.814  1.00  0.00    -0.381 OA
ATOM     17  H2  UNL     1     -10.010  29.674  50.523  1.00  0.00     0.211 HD
ENDBRANCH   8  16
ENDBRANCH   5   8
BRANCH   7  18
HETATM   18  C11 UNL     1      -6.106  27.262  46.433  1.00  0.00     0.120 C 
HETATM   19  C12 UNL     1      -5.145  28.182  47.131  1.00  0.00     0.028 C 
HETATM   20  C13 UNL     1      -4.524  29.206  46.239  1.00  0.00     0.002 C 
HETATM   21  C14 UNL     1      -4.045  28.661  44.920  1.00  0.00     0.000 C 
HETATM   22  C15 UNL     1      -4.964  27.646  44.318  1.00  0.00     0.002 C 
HETATM   23  C16 UNL     1      -6.317  27.566  44.990  1.00  0.00     0.028 C 
ENDBRANCH   7  18
TORSDOF 3
ENDMDL
MODEL 5
REMARK VINA RESULT: -8.260201177      2.864      8.204
REMARK  3 active torsions:
REMARK  status: ('A' for Active; 'I' for Inactive)
REMARK    1  A    between atoms: C2_5  and  C3_6 
REMARK    2  A    between atoms: C3_6  and  O2_7 
REMARK    3  A    between atoms: N2_17  and  C11_18 
ROOT
HETATM    1  O1  UNL     1      -7.492  30.730  48.728  1.00  0.00    -0.244 OA
HETATM    2  C1  UNL     1      -7.970  29.734  49.305  1.00  0.00     0.348 A 
HETATM    3  N1  UNL     1      -8.435  29.760  50.581  1.00  0.00    -0.286 N 
ATOM      4  H1  UNL     1      -8.460  30.556  51.218  1.00  0.00     0.172 HD
HETATM    5  C2  UNL     1      -8.856  28.507  50.820  1.00  0.00     0.186 A 
HETATM    6  O3  UNL     1      -8.662  27.777  49.777  1.00  0.00    -0.214 OA
HETATM    7  N2  UNL     1      -8.126  28.497  48.836  1.00  0.00    -0.195 N 
ENDROOT
BRANCH   5   8
HETATM    8  C3  UNL     1      -9.466  27.979  52.088  1.00  0.00     0.125 C 
HETATM    9  C4  UNL     1     -10.805  28.604  52.278  1.00  0.00     0.051 C 
HETATM   10  C5  UNL     1     -11.298  28.540  53.704  1.00  0.00    -0.011 C 
HETATM   11  C6  UNL     1     -11.259  27.162  54.277  1.00  0.00     0.005 C 
HETATM   12  C9  UNL     1     -10.262  29.311  54.530  1.00  0.00     0.009 C 
HETATM   13  C7  UNL     1      -9.895  27.023  54.928  1.00  0.00     0.005 C 
HETATM   14  C8  UNL     1      -9.135  28.276  54.572  1.00  0.00    -0.011 C 
HETATM   15  C10 UNL     1      -8.505  28.227  53.218  1.00  0.00     0.051 C 
BRANCH   8  16
HETATM   16  O2  UNL     1      -9.572  26.606  51.913  1.00  0.00    -0.381 OA
ATOM     17  H2  UNL     1     -10.386  26.354  52.333  1.00  0.00     0.211 HD
ENDBRANCH   8  16
ENDBRANCH   5   8
BRANCH   7  18
HETATM   18  C11 UNL     1      -7.787  27.956  47.541  1.00  0.00     0.120 C 
HETATM   19  C12 UNL     1      -8.686  26.798  47.211  1.00  0.00     0.028 C 
HETATM   20  C13 UNL     1      -7.968  25.605  46.669  1.00  0.00     0.002 C 
HETATM   21  C14 UNL     1      -6.934  25.934  45.624  1.00  0.00     0.000 C 
HETATM   22  C15 UNL     1      -6.149  27.171  45.921  1.00  0.00     0.002 C 
HETATM   23  C16 UNL     1      -6.336  27.696  47.327  1.00  0.00     0.028 C 
ENDBRANCH   7  18
TORSDOF 3
ENDMDL
