MODEL 1
REMARK VINA RESULT: -8.541940294      0.000      0.000
REMARK  4 active torsions:
REMARK  status: ('A' for Active; 'I' for Inactive)
REMARK    1  A    between atoms: C2_2  and  O2_4 
REMARK    2  A    between atoms: O2_4  and  C3_5 
REMARK    3  A    between atoms: C8_12  and  C9_13 
REMARK    4  A    between atoms: C14_18  and  O5_20 
ROOT
HETATM    1  C3  UNL     1      -5.447  27.727  44.978  1.00  0.00     0.070 C 
HETATM    2  C4  UNL     1      -5.993  28.253  43.667  1.00  0.00     0.047 C 
HETATM    3  C5  UNL     1      -5.430  28.943  45.885  1.00  0.00     0.048 C 
HETATM    4  C6  UNL     1      -4.748  28.777  47.187  1.00  0.00     0.114 C 
HETATM    5  C7  UNL     1      -5.402  29.576  48.257  1.00  0.00     0.259 C 
HETATM    6  O3  UNL     1      -4.872  30.688  48.513  1.00  0.00    -0.265 OA
HETATM    7  O4  UNL     1      -6.496  29.092  48.883  1.00  0.00    -0.316 OA
HETATM    8  C8  UNL     1      -7.756  28.729  48.421  1.00  0.00     0.135 C 
HETATM    9  C12 UNL     1      -7.853  27.326  47.878  1.00  0.00     0.036 C 
HETATM   10  C13 UNL     1      -8.303  27.243  46.465  1.00  0.00     0.040 C 
HETATM   11  C14 UNL     1      -7.519  26.370  45.573  1.00  0.00     0.057 C 
HETATM   12  C15 UNL     1      -7.770  24.917  46.024  1.00  0.00     0.045 C 
HETATM   13  C16 UNL     1      -6.053  26.524  45.506  1.00  0.00     0.075 C 
ENDROOT
BRANCH   1  14
HETATM   14  O2  UNL     1      -4.063  27.494  44.747  1.00  0.00    -0.311 OA
BRANCH  14  15
HETATM   15  C2  UNL     1      -3.240  28.241  43.966  1.00  0.00     0.255 C 
HETATM   16  C1  UNL     1      -2.854  27.754  42.621  1.00  0.00     0.126 C 
HETATM   17  O1  UNL     1      -2.801  29.332  44.361  1.00  0.00    -0.266 OA
ENDBRANCH  14  15
ENDBRANCH   1  14
BRANCH  11  18
HETATM   18  O5  UNL     1      -8.026  26.397  44.269  1.00  0.00    -0.390 OA
ATOM     19  H5  UNL     1      -7.574  25.773  43.713  1.00  0.00     0.210 HD
ENDBRANCH  11  18
BRANCH   8  20
HETATM   20  C9  UNL     1      -8.695  28.911  49.616  1.00  0.00     0.007 C 
HETATM   21  C10 UNL     1      -9.614  27.717  49.758  1.00  0.00     0.012 C 
HETATM   22  C11 UNL     1      -7.980  29.118  50.899  1.00  0.00     0.012 C 
ENDBRANCH   8  20
TORSDOF 4
ENDMDL
MODEL 2
REMARK VINA RESULT: -8.109426464      1.481      6.413
REMARK  4 active torsions:
REMARK  status: ('A' for Active; 'I' for Inactive)
REMARK    1  A    between atoms: C2_2  and  O2_4 
REMARK    2  A    between atoms: O2_4  and  C3_5 
REMARK    3  A    between atoms: C8_12  and  C9_13 
REMARK    4  A    between atoms: C14_18  and  O5_20 
ROOT
HETATM    1  C3  UNL     1      -7.576  28.536  48.415  1.00  0.00     0.070 C 
HETATM    2  C4  UNL     1      -8.539  29.695  48.260  1.00  0.00     0.047 C 
HETATM    3  C5  UNL     1      -7.738  27.749  47.128  1.00  0.00     0.048 C 
HETATM    4  C6  UNL     1      -7.062  26.434  47.079  1.00  0.00     0.114 C 
HETATM    5  C7  UNL     1      -6.574  26.117  45.710  1.00  0.00     0.259 C 
HETATM    6  O3  UNL     1      -7.318  25.372  45.022  1.00  0.00    -0.265 OA
HETATM    7  O4  UNL     1      -5.398  26.625  45.282  1.00  0.00    -0.316 OA
HETATM    8  C8  UNL     1      -4.948  27.930  45.112  1.00  0.00     0.135 C 
HETATM    9  C12 UNL     1      -4.396  28.577  46.356  1.00  0.00     0.036 C 
HETATM   10  C13 UNL     1      -5.089  29.828  46.758  1.00  0.00     0.040 C 
HETATM   11  C14 UNL     1      -5.468  29.946  48.177  1.00  0.00     0.057 C 
HETATM   12  C15 UNL     1      -4.162  30.087  48.986  1.00  0.00     0.045 C 
HETATM   13  C16 UNL     1      -6.226  28.856  48.822  1.00  0.00     0.075 C 
ENDROOT
BRANCH   1  14
HETATM   14  O2  UNL     1      -8.169  27.677  49.381  1.00  0.00    -0.311 OA
BRANCH  14  15
HETATM   15  C2  UNL     1      -9.032  28.043  50.363  1.00  0.00     0.255 C 
HETATM   16  C1  UNL     1      -8.511  28.515  51.668  1.00  0.00     0.126 C 
HETATM   17  O1  UNL     1     -10.259  27.989  50.188  1.00  0.00    -0.266 OA
ENDBRANCH  14  15
ENDBRANCH   1  14
BRANCH  11  18
HETATM   18  O5  UNL     1      -6.133  31.152  48.422  1.00  0.00    -0.390 OA
ATOM     19  H5  UNL     1      -5.523  31.833  48.678  1.00  0.00     0.210 HD
ENDBRANCH  11  18
BRANCH   8  20
HETATM   20  C9  UNL     1      -3.875  27.849  44.024  1.00  0.00     0.007 C 
HETATM   21  C10 UNL     1      -3.419  29.235  43.621  1.00  0.00     0.012 C 
HETATM   22  C11 UNL     1      -2.688  27.055  44.425  1.00  0.00     0.012 C 
ENDBRANCH   8  20
TORSDOF 4
ENDMDL
MODEL 3
REMARK VINA RESULT: -7.873053848      1.508      5.511
REMARK  4 active torsions:
REMARK  status: ('A' for Active; 'I' for Inactive)
REMARK    1  A    between atoms: C2_2  and  O2_4 
REMARK    2  A    between atoms: O2_4  and  C3_5 
REMARK    3  A    between atoms: C8_12  and  C9_13 
REMARK    4  A    between atoms: C14_18  and  O5_20 
ROOT
HETATM    1  C3  UNL     1      -7.900  27.882  47.867  1.00  0.00     0.070 C 
HETATM    2  C4  UNL     1      -8.013  26.556  48.591  1.00  0.00     0.047 C 
HETATM    3  C5  UNL     1      -6.580  28.453  48.349  1.00  0.00     0.048 C 
HETATM    4  C6  UNL     1      -6.294  29.852  47.962  1.00  0.00     0.114 C 
HETATM    5  C7  UNL     1      -4.842  30.073  47.730  1.00  0.00     0.259 C 
HETATM    6  O3  UNL     1      -4.203  30.573  48.691  1.00  0.00    -0.265 OA
HETATM    7  O4  UNL     1      -4.292  29.738  46.542  1.00  0.00    -0.316 OA
HETATM    8  C8  UNL     1      -4.189  28.527  45.866  1.00  0.00     0.135 C 
HETATM    9  C12 UNL     1      -5.394  28.158  45.039  1.00  0.00     0.036 C 
HETATM   10  C13 UNL     1      -6.022  26.864  45.409  1.00  0.00     0.040 C 
HETATM   11  C14 UNL     1      -7.487  26.864  45.569  1.00  0.00     0.057 C 
HETATM   12  C15 UNL     1      -8.097  27.070  44.167  1.00  0.00     0.045 C 
HETATM   13  C16 UNL     1      -8.126  27.870  46.438  1.00  0.00     0.075 C 
ENDROOT
BRANCH   1  14
HETATM   14  O2  UNL     1      -8.852  28.736  48.488  1.00  0.00    -0.311 OA
BRANCH  14  15
HETATM   15  C2  UNL     1      -9.279  28.666  49.775  1.00  0.00     0.255 C 
HETATM   16  C1  UNL     1      -8.461  29.258  50.859  1.00  0.00     0.126 C 
HETATM   17  O1  UNL     1     -10.351  28.109  50.063  1.00  0.00    -0.266 OA
ENDBRANCH  14  15
ENDBRANCH   1  14
BRANCH  11  18
HETATM   18  O5  UNL     1      -7.953  25.598  45.942  1.00  0.00    -0.390 OA
ATOM     19  H5  UNL     1      -8.325  25.614  46.815  1.00  0.00     0.210 HD
ENDBRANCH  11  18
BRANCH   8  20
HETATM   20  C9  UNL     1      -2.948  28.661  44.982  1.00  0.00     0.007 C 
HETATM   21  C10 UNL     1      -2.415  27.296  44.601  1.00  0.00     0.012 C 
HETATM   22  C11 UNL     1      -3.188  29.442  43.744  1.00  0.00     0.012 C 
ENDBRANCH   8  20
TORSDOF 4
ENDMDL
MODEL 4
REMARK VINA RESULT: -5.645550661      1.875      4.856
REMARK  4 active torsions:
REMARK  status: ('A' for Active; 'I' for Inactive)
REMARK    1  A    between atoms: C2_2  and  O2_4 
REMARK    2  A    between atoms: O2_4  and  C3_5 
REMARK    3  A    between atoms: C8_12  and  C9_13 
REMARK    4  A    between atoms: C14_18  and  O5_20 
ROOT
HETATM    1  C3  UNL     1      -7.964  25.841  45.774  1.00  0.00     0.070 C 
HETATM    2  C4  UNL     1      -7.352  24.459  45.688  1.00  0.00     0.047 C 
HETATM    3  C5  UNL     1      -7.831  26.212  47.239  1.00  0.00     0.048 C 
HETATM    4  C6  UNL     1      -8.534  27.441  47.667  1.00  0.00     0.114 C 
HETATM    5  C7  UNL     1      -7.789  28.157  48.737  1.00  0.00     0.259 C 
HETATM    6  O3  UNL     1      -8.176  27.941  49.914  1.00  0.00    -0.265 OA
HETATM    7  O4  UNL     1      -6.766  28.976  48.410  1.00  0.00    -0.316 OA
HETATM    8  C8  UNL     1      -5.559  28.753  47.755  1.00  0.00     0.135 C 
HETATM    9  C12 UNL     1      -5.638  28.793  46.251  1.00  0.00     0.036 C 
HETATM   10  C13 UNL     1      -5.196  27.545  45.578  1.00  0.00     0.040 C 
HETATM   11  C14 UNL     1      -6.081  27.015  44.524  1.00  0.00     0.057 C 
HETATM   12  C15 UNL     1      -6.016  28.000  43.339  1.00  0.00     0.045 C 
HETATM   13  C16 UNL     1      -7.516  26.819  44.807  1.00  0.00     0.075 C 
ENDROOT
BRANCH   1  14
HETATM   14  O2  UNL     1      -9.366  25.645  45.630  1.00  0.00    -0.311 OA
BRANCH  14  15
HETATM   15  C2  UNL     1     -10.010  24.451  45.572  1.00  0.00     0.255 C 
HETATM   16  C1  UNL     1     -10.684  23.915  46.778  1.00  0.00     0.126 C 
HETATM   17  O1  UNL     1     -10.046  23.795  44.519  1.00  0.00    -0.266 OA
ENDBRANCH  14  15
ENDBRANCH   1  14
BRANCH  11  18
HETATM   18  O5  UNL     1      -5.569  25.828  43.988  1.00  0.00    -0.390 OA
ATOM     19  H5  UNL     1      -5.948  25.647  43.136  1.00  0.00     0.210 HD
ENDBRANCH  11  18
BRANCH   8  20
HETATM   20  C9  UNL     1      -4.610  29.834  48.275  1.00  0.00     0.007 C 
HETATM   21  C10 UNL     1      -4.467  30.950  47.262  1.00  0.00     0.012 C 
HETATM   22  C11 UNL     1      -5.036  30.418  49.571  1.00  0.00     0.012 C 
ENDBRANCH   8  20
TORSDOF 4
ENDMDL
MODEL 5
REMARK VINA RESULT: -5.488658072      1.701      3.933
REMARK  4 active torsions:
REMARK  status: ('A' for Active; 'I' for Inactive)
REMARK    1  A    between atoms: C2_2  and  O2_4 
REMARK    2  A    between atoms: O2_4  and  C3_5 
REMARK    3  A    between atoms: C8_12  and  C9_13 
REMARK    4  A    between atoms: C14_18  and  O5_20 
ROOT
HETATM    1  C3  UNL     1      -4.029  27.774  44.099  1.00  0.00     0.070 C 
HETATM    2  C4  UNL     1      -2.716  27.049  44.311  1.00  0.00     0.047 C 
HETATM    3  C5  UNL     1      -5.081  26.742  44.458  1.00  0.00     0.048 C 
HETATM    4  C6  UNL     1      -6.482  27.105  44.149  1.00  0.00     0.114 C 
HETATM    5  C7  UNL     1      -7.428  26.546  45.152  1.00  0.00     0.259 C 
HETATM    6  O3  UNL     1      -7.999  25.473  44.829  1.00  0.00    -0.265 OA
HETATM    7  O4  UNL     1      -7.625  27.192  46.322  1.00  0.00    -0.316 OA
HETATM    8  C8  UNL     1      -6.764  27.530  47.361  1.00  0.00     0.135 C 
HETATM    9  C12 UNL     1      -6.003  28.815  47.160  1.00  0.00     0.036 C 
HETATM   10  C13 UNL     1      -4.525  28.666  47.191  1.00  0.00     0.040 C 
HETATM   11  C14 UNL     1      -3.773  29.321  46.106  1.00  0.00     0.057 C 
HETATM   12  C15 UNL     1      -3.897  30.843  46.323  1.00  0.00     0.045 C 
HETATM   13  C16 UNL     1      -4.160  29.082  44.702  1.00  0.00     0.075 C 
ENDROOT
BRANCH   1  14
HETATM   14  O2  UNL     1      -4.175  27.889  42.689  1.00  0.00    -0.311 OA
BRANCH  14  15
HETATM   15  C2  UNL     1      -3.182  28.111  41.790  1.00  0.00     0.255 C 
HETATM   16  C1  UNL     1      -2.720  29.494  41.525  1.00  0.00     0.126 C 
HETATM   17  O1  UNL     1      -2.648  27.170  41.182  1.00  0.00    -0.266 OA
ENDBRANCH  14  15
ENDBRANCH   1  14
BRANCH  11  18
HETATM   18  O5  UNL     1      -2.400  29.086  46.232  1.00  0.00    -0.390 OA
ATOM     19  H5  UNL     1      -1.896  29.826  45.914  1.00  0.00     0.210 HD
ENDBRANCH  11  18
BRANCH   8  20
HETATM   20  C9  UNL     1      -7.648  27.616  48.607  1.00  0.00     0.007 C 
HETATM   21  C10 UNL     1      -7.570  28.997  49.222  1.00  0.00     0.012 C 
HETATM   22  C11 UNL     1      -9.072  27.292  48.343  1.00  0.00     0.012 C 
ENDBRANCH   8  20
TORSDOF 4
ENDMDL
