MODEL 1
REMARK VINA RESULT: -6.612782548      0.000      0.000
REMARK  2 active torsions:
REMARK  status: ('A' for Active; 'I' for Inactive)
REMARK    1  A    between atoms: C2_2  and  C3_3 
REMARK    2  A    between atoms: C3_3  and  N1_4 
ROOT
HETATM    1  N1  UNL     1      -6.705  29.469  49.130  1.00  0.00    -0.296 N 
HETATM    2  N2  UNL     1      -6.860  29.604  50.513  1.00  0.00    -0.306 N 
ATOM      3  H2  UNL     1      -6.165  30.111  51.061  1.00  0.00     0.186 HD
HETATM    4  C4  UNL     1      -7.874  29.088  51.082  1.00  0.00     0.038 C 
HETATM    5  C5  UNL     1      -8.370  29.021  52.507  1.00  0.00     0.095 C 
HETATM    6  C6  UNL     1      -9.392  27.912  52.417  1.00  0.00     0.067 C 
HETATM    7  C7  UNL     1      -9.156  26.973  53.577  1.00  0.00     0.038 C 
HETATM    8  C8  UNL     1     -10.494  26.406  53.953  1.00  0.00     0.003 C 
HETATM    9  C9  UNL     1     -11.526  27.361  53.428  1.00  0.00     0.003 C 
HETATM   10  C10 UNL     1     -10.800  28.408  52.619  1.00  0.00     0.038 C 
HETATM   11  O1  UNL     1      -9.228  27.277  51.186  1.00  0.00    -0.366 OA
HETATM   12  C11 UNL     1      -8.925  28.354  50.353  1.00  0.00     0.203 C 
HETATM   13  C12 UNL     1      -8.570  28.077  48.985  1.00  0.00     0.210 C 
HETATM   14  O2  UNL     1      -8.783  26.825  48.446  1.00  0.00    -0.343 OA
HETATM   15  C13 UNL     1      -8.074  26.909  47.226  1.00  0.00     0.160 C 
HETATM   16  C14 UNL     1      -9.096  27.132  46.154  1.00  0.00     0.078 C 
HETATM   17  C15 UNL     1      -7.293  25.640  46.972  1.00  0.00     0.078 C 
HETATM   18  O3  UNL     1      -7.154  27.949  47.331  1.00  0.00    -0.327 OA
HETATM   19  C16 UNL     1      -7.063  28.147  48.672  1.00  0.00     0.274 C 
ENDROOT
BRANCH   1  20
HETATM   20  C3  UNL     1      -6.252  30.486  48.233  1.00  0.00     0.145 C 
BRANCH  20  21
HETATM   21  C2  UNL     1      -4.747  30.480  48.133  1.00  0.00     0.017 C 
HETATM   22  C1  UNL     1      -4.330  29.836  46.839  1.00  0.00     0.007 C 
ENDBRANCH  20  21
ENDBRANCH   1  20
TORSDOF 2
ENDMDL
MODEL 2
REMARK VINA RESULT: -6.355002870      3.170      7.415
REMARK  2 active torsions:
REMARK  status: ('A' for Active; 'I' for Inactive)
REMARK    1  A    between atoms: C2_2  and  C3_3 
REMARK    2  A    between atoms: C3_3  and  N1_4 
ROOT
HETATM    1  N1  UNL     1      -8.224  25.939  46.911  1.00  0.00    -0.296 N 
HETATM    2  N2  UNL     1      -7.307  25.486  45.959  1.00  0.00    -0.306 N 
ATOM      3  H2  UNL     1      -7.307  24.508  45.669  1.00  0.00     0.186 HD
HETATM    4  C4  UNL     1      -6.471  26.303  45.456  1.00  0.00     0.038 C 
HETATM    5  C5  UNL     1      -5.362  26.193  44.438  1.00  0.00     0.095 C 
HETATM    6  C6  UNL     1      -4.594  27.469  44.692  1.00  0.00     0.067 C 
HETATM    7  C7  UNL     1      -3.125  27.118  44.760  1.00  0.00     0.038 C 
HETATM    8  C8  UNL     1      -2.372  28.307  44.237  1.00  0.00     0.003 C 
HETATM    9  C9  UNL     1      -3.337  29.089  43.395  1.00  0.00     0.003 C 
HETATM   10  C10 UNL     1      -4.692  28.439  43.544  1.00  0.00     0.038 C 
HETATM   11  O1  UNL     1      -5.057  28.018  45.887  1.00  0.00    -0.366 OA
HETATM   12  C11 UNL     1      -6.421  27.733  45.816  1.00  0.00     0.203 C 
HETATM   13  C12 UNL     1      -7.243  28.054  46.954  1.00  0.00     0.210 C 
HETATM   14  O2  UNL     1      -6.757  28.857  47.965  1.00  0.00    -0.343 OA
HETATM   15  C13 UNL     1      -7.744  28.699  48.964  1.00  0.00     0.160 C 
HETATM   16  C14 UNL     1      -8.603  29.925  48.913  1.00  0.00     0.078 C 
HETATM   17  C15 UNL     1      -7.109  28.540  50.326  1.00  0.00     0.078 C 
HETATM   18  O3  UNL     1      -8.447  27.527  48.694  1.00  0.00    -0.327 OA
HETATM   19  C16 UNL     1      -7.620  26.858  47.848  1.00  0.00     0.274 C 
ENDROOT
BRANCH   1  20
HETATM   20  C3  UNL     1      -9.603  25.569  46.992  1.00  0.00     0.145 C 
BRANCH  20  21
HETATM   21  C2  UNL     1      -9.957  24.583  45.908  1.00  0.00     0.017 C 
HETATM   22  C1  UNL     1     -10.870  23.526  46.466  1.00  0.00     0.007 C 
ENDBRANCH  20  21
ENDBRANCH   1  20
TORSDOF 2
ENDMDL
MODEL 3
REMARK VINA RESULT: -6.076466342      2.416      6.851
REMARK  2 active torsions:
REMARK  status: ('A' for Active; 'I' for Inactive)
REMARK    1  A    between atoms: C2_2  and  C3_3 
REMARK    2  A    between atoms: C3_3  and  N1_4 
ROOT
HETATM    1  N1  UNL     1     -10.235  27.052  52.923  1.00  0.00    -0.296 N 
HETATM    2  N2  UNL     1     -10.060  26.857  51.550  1.00  0.00    -0.306 N 
ATOM      3  H2  UNL     1     -10.484  26.054  51.086  1.00  0.00     0.186 HD
HETATM    4  C4  UNL     1      -9.367  27.690  50.884  1.00  0.00     0.038 C 
HETATM    5  C5  UNL     1      -8.963  27.814  49.434  1.00  0.00     0.095 C 
HETATM    6  C6  UNL     1      -7.833  28.812  49.521  1.00  0.00     0.067 C 
HETATM    7  C7  UNL     1      -6.685  28.282  48.693  1.00  0.00     0.038 C 
HETATM    8  C8  UNL     1      -5.961  29.476  48.142  1.00  0.00     0.003 C 
HETATM    9  C9  UNL     1      -6.934  30.619  48.175  1.00  0.00     0.003 C 
HETATM   10  C10 UNL     1      -8.177  30.130  48.880  1.00  0.00     0.038 C 
HETATM   11  O1  UNL     1      -7.488  28.953  50.865  1.00  0.00    -0.366 OA
HETATM   12  C11 UNL     1      -8.737  28.881  51.484  1.00  0.00     0.203 C 
HETATM   13  C12 UNL     1      -8.783  28.876  52.923  1.00  0.00     0.210 C 
HETATM   14  O2  UNL     1      -7.664  29.201  53.661  1.00  0.00    -0.343 OA
HETATM   15  C13 UNL     1      -8.054  28.821  54.965  1.00  0.00     0.160 C 
HETATM   16  C14 UNL     1      -8.432  30.081  55.682  1.00  0.00     0.078 C 
HETATM   17  C15 UNL     1      -6.926  28.112  55.677  1.00  0.00     0.078 C 
HETATM   18  O3  UNL     1      -9.108  27.917  54.855  1.00  0.00    -0.327 OA
HETATM   19  C16 UNL     1      -9.020  27.496  53.566  1.00  0.00     0.274 C 
ENDROOT
BRANCH   1  20
HETATM   20  C3  UNL     1     -11.449  26.850  53.652  1.00  0.00     0.145 C 
BRANCH  20  21
HETATM   21  C2  UNL     1     -11.516  25.447  54.201  1.00  0.00     0.017 C 
HETATM   22  C1  UNL     1     -12.565  25.376  55.277  1.00  0.00     0.007 C 
ENDBRANCH  20  21
ENDBRANCH   1  20
TORSDOF 2
ENDMDL
MODEL 4
REMARK VINA RESULT: -5.921345088      2.631      6.802
REMARK  2 active torsions:
REMARK  status: ('A' for Active; 'I' for Inactive)
REMARK    1  A    between atoms: C2_2  and  C3_3 
REMARK    2  A    between atoms: C3_3  and  N1_4 
ROOT
HETATM    1  N1  UNL     1     -10.731  27.905  53.467  1.00  0.00    -0.296 N 
HETATM    2  N2  UNL     1     -10.794  27.560  52.114  1.00  0.00    -0.306 N 
ATOM      3  H2  UNL     1     -11.505  26.908  51.782  1.00  0.00     0.186 HD
HETATM    4  C4  UNL     1      -9.957  28.065  51.300  1.00  0.00     0.038 C 
HETATM    5  C5  UNL     1      -9.712  27.938  49.816  1.00  0.00     0.095 C 
HETATM    6  C6  UNL     1      -8.321  28.511  49.691  1.00  0.00     0.067 C 
HETATM    7  C7  UNL     1      -7.511  27.571  48.827  1.00  0.00     0.038 C 
HETATM    8  C8  UNL     1      -6.515  28.415  48.085  1.00  0.00     0.003 C 
HETATM    9  C9  UNL     1      -7.061  29.814  48.078  1.00  0.00     0.003 C 
HETATM   10  C10 UNL     1      -8.300  29.817  48.940  1.00  0.00     0.038 C 
HETATM   11  O1  UNL     1      -7.789  28.632  50.974  1.00  0.00    -0.366 OA
HETATM   12  C11 UNL     1      -8.911  29.023  51.706  1.00  0.00     0.203 C 
HETATM   13  C12 UNL     1      -8.783  29.142  53.135  1.00  0.00     0.210 C 
HETATM   14  O2  UNL     1      -7.538  29.136  53.730  1.00  0.00    -0.343 OA
HETATM   15  C13 UNL     1      -7.869  29.005  55.098  1.00  0.00     0.160 C 
HETATM   16  C14 UNL     1      -7.736  30.370  55.701  1.00  0.00     0.078 C 
HETATM   17  C15 UNL     1      -6.949  28.020  55.781  1.00  0.00     0.078 C 
HETATM   18  O3  UNL     1      -9.162  28.494  55.183  1.00  0.00    -0.327 OA
HETATM   19  C16 UNL     1      -9.369  27.971  53.946  1.00  0.00     0.274 C 
ENDROOT
BRANCH   1  20
HETATM   20  C3  UNL     1     -11.848  28.169  54.320  1.00  0.00     0.145 C 
BRANCH  20  21
HETATM   21  C2  UNL     1     -12.187  29.639  54.317  1.00  0.00     0.017 C 
HETATM   22  C1  UNL     1     -13.482  29.860  55.050  1.00  0.00     0.007 C 
ENDBRANCH  20  21
ENDBRANCH   1  20
TORSDOF 2
ENDMDL
MODEL 5
REMARK VINA RESULT: -5.689601608      1.844      3.380
REMARK  2 active torsions:
REMARK  status: ('A' for Active; 'I' for Inactive)
REMARK    1  A    between atoms: C2_2  and  C3_3 
REMARK    2  A    between atoms: C3_3  and  N1_4 
ROOT
HETATM    1  N1  UNL     1      -9.146  27.252  48.492  1.00  0.00    -0.296 N 
HETATM    2  N2  UNL     1     -10.101  26.906  49.451  1.00  0.00    -0.306 N 
ATOM      3  H2  UNL     1     -10.945  26.401  49.179  1.00  0.00     0.186 HD
HETATM    4  C4  UNL     1      -9.909  27.224  50.668  1.00  0.00     0.038 C 
HETATM    5  C5  UNL     1     -10.686  27.033  51.949  1.00  0.00     0.095 C 
HETATM    6  C6  UNL     1     -10.009  28.029  52.861  1.00  0.00     0.067 C 
HETATM    7  C7  UNL     1     -11.089  28.812  53.571  1.00  0.00     0.038 C 
HETATM    8  C8  UNL     1     -10.543  29.174  54.922  1.00  0.00     0.003 C 
HETATM    9  C9  UNL     1      -9.439  28.200  55.213  1.00  0.00     0.003 C 
HETATM   10  C10 UNL     1      -9.240  27.363  53.972  1.00  0.00     0.038 C 
HETATM   11  O1  UNL     1      -9.198  28.848  52.077  1.00  0.00    -0.366 OA
HETATM   12  C11 UNL     1      -8.707  27.939  51.137  1.00  0.00     0.203 C 
HETATM   13  C12 UNL     1      -7.899  28.446  50.059  1.00  0.00     0.210 C 
HETATM   14  O2  UNL     1      -7.403  29.732  50.100  1.00  0.00    -0.343 OA
HETATM   15  C13 UNL     1      -6.919  29.900  48.783  1.00  0.00     0.160 C 
HETATM   16  C14 UNL     1      -5.432  29.725  48.849  1.00  0.00     0.078 C 
HETATM   17  C15 UNL     1      -7.279  31.267  48.249  1.00  0.00     0.078 C 
HETATM   18  O3  UNL     1      -7.544  28.959  47.969  1.00  0.00    -0.327 OA
HETATM   19  C16 UNL     1      -8.622  28.581  48.705  1.00  0.00     0.274 C 
ENDROOT
BRANCH   1  20
HETATM   20  C3  UNL     1      -8.706  26.429  47.409  1.00  0.00     0.145 C 
BRANCH  20  21
HETATM   21  C2  UNL     1      -7.226  26.160  47.508  1.00  0.00     0.017 C 
HETATM   22  C1  UNL     1      -6.581  26.378  46.166  1.00  0.00     0.007 C 
ENDBRANCH  20  21
ENDBRANCH   1  20
TORSDOF 2
ENDMDL
