MODEL 1
REMARK VINA RESULT: -6.287062779      0.000      0.000
REMARK  4 active torsions:
REMARK  status: ('A' for Active; 'I' for Inactive)
REMARK    1  A    between atoms: C2_2  and  O1_4 
REMARK    2  A    between atoms: C2_2  and  N1_6 
REMARK    3  A    between atoms: N1_6  and  C4_8 
REMARK    4  A    between atoms: C4_8  and  C5_9 
ROOT
HETATM    1  C5  UNL     1      22.315  37.215  -5.999  1.00  0.00     0.008 C 
HETATM    2  C6  UNL     1      21.228  36.155  -5.842  1.00  0.00     0.012 C 
HETATM    3  C7  UNL     1      21.891  34.973  -6.476  1.00  0.00    -0.006 C 
HETATM    4  C8  UNL     1      23.232  34.785  -5.808  1.00  0.00     0.006 C 
HETATM    5  C9  UNL     1      24.179  35.798  -6.452  1.00  0.00     0.006 C 
HETATM    6  C10 UNL     1      23.150  36.702  -7.133  1.00  0.00    -0.001 C 
HETATM    7  C11 UNL     1      22.346  35.587  -7.799  1.00  0.00    -0.040 C 
HETATM    8  C12 UNL     1      23.257  34.634  -8.546  1.00  0.00     0.015 C 
HETATM    9  C13 UNL     1      21.229  36.064  -8.646  1.00  0.00     0.015 C 
ENDROOT
BRANCH   1  10
HETATM   10  C4  UNL     1      21.752  38.588  -6.207  1.00  0.00     0.121 C 
BRANCH  10  11
HETATM   11  N1  UNL     1      21.239  38.986  -4.918  1.00  0.00    -0.392 N 
ATOM     12  H1  UNL     1      21.773  38.860  -4.059  1.00  0.00     0.156 HD
BRANCH  11  13
HETATM   13  C2  UNL     1      19.940  39.564  -4.924  1.00  0.00     0.120 C 
HETATM   14  C1  UNL     1      19.455  39.571  -6.369  1.00  0.00     0.070 C 
HETATM   15  C3  UNL     1      19.017  38.598  -4.188  1.00  0.00     0.070 C 
BRANCH  13  16
HETATM   16  O1  UNL     1      19.848  40.851  -4.457  1.00  0.00    -0.372 OA
ATOM     17  H1  UNL     1      20.664  41.048  -4.012  1.00  0.00     0.212 HD
ENDBRANCH  13  16
ENDBRANCH  11  13
ENDBRANCH  10  11
ENDBRANCH   1  10
TORSDOF 4
ENDMDL
MODEL 2
REMARK VINA RESULT: -6.200946317      1.100      1.216
REMARK  4 active torsions:
REMARK  status: ('A' for Active; 'I' for Inactive)
REMARK    1  A    between atoms: C2_2  and  O1_4 
REMARK    2  A    between atoms: C2_2  and  N1_6 
REMARK    3  A    between atoms: N1_6  and  C4_8 
REMARK    4  A    between atoms: C4_8  and  C5_9 
ROOT
HETATM    1  C5  UNL     1      22.324  37.274  -6.092  1.00  0.00     0.008 C 
HETATM    2  C6  UNL     1      21.159  36.292  -6.002  1.00  0.00     0.012 C 
HETATM    3  C7  UNL     1      21.805  35.040  -6.506  1.00  0.00    -0.006 C 
HETATM    4  C8  UNL     1      23.055  34.807  -5.692  1.00  0.00     0.006 C 
HETATM    5  C9  UNL     1      24.127  35.725  -6.279  1.00  0.00     0.006 C 
HETATM    6  C10 UNL     1      23.236  36.652  -7.106  1.00  0.00    -0.001 C 
HETATM    7  C11 UNL     1      22.433  35.554  -7.801  1.00  0.00    -0.040 C 
HETATM    8  C12 UNL     1      23.351  34.509  -8.401  1.00  0.00     0.015 C 
HETATM    9  C13 UNL     1      21.443  36.052  -8.782  1.00  0.00     0.015 C 
ENDROOT
BRANCH   1  10
HETATM   10  C4  UNL     1      21.877  38.666  -6.423  1.00  0.00     0.121 C 
BRANCH  10  11
HETATM   11  N1  UNL     1      20.435  38.607  -6.437  1.00  0.00    -0.392 N 
ATOM     12  H1  UNL     1      19.925  37.755  -6.207  1.00  0.00     0.156 HD
BRANCH  11  13
HETATM   13  C2  UNL     1      19.773  39.813  -6.794  1.00  0.00     0.120 C 
HETATM   14  C1  UNL     1      18.934  39.519  -8.033  1.00  0.00     0.070 C 
HETATM   15  C3  UNL     1      18.771  40.117  -5.685  1.00  0.00     0.070 C 
BRANCH  13  16
HETATM   16  O1  UNL     1      20.581  40.881  -7.092  1.00  0.00    -0.372 OA
ATOM     17  H1  UNL     1      20.219  41.640  -6.651  1.00  0.00     0.212 HD
ENDBRANCH  13  16
ENDBRANCH  11  13
ENDBRANCH  10  11
ENDBRANCH   1  10
TORSDOF 4
ENDMDL
MODEL 3
REMARK VINA RESULT: -6.200320484      3.507      5.165
REMARK  4 active torsions:
REMARK  status: ('A' for Active; 'I' for Inactive)
REMARK    1  A    between atoms: C2_2  and  O1_4 
REMARK    2  A    between atoms: C2_2  and  N1_6 
REMARK    3  A    between atoms: N1_6  and  C4_8 
REMARK    4  A    between atoms: C4_8  and  C5_9 
ROOT
HETATM    1  C5  UNL     1      21.678  36.409  -8.118  1.00  0.00     0.008 C 
HETATM    2  C6  UNL     1      21.283  35.037  -7.579  1.00  0.00     0.012 C 
HETATM    3  C7  UNL     1      21.913  35.074  -6.223  1.00  0.00    -0.006 C 
HETATM    4  C8  UNL     1      21.436  36.326  -5.527  1.00  0.00     0.006 C 
HETATM    5  C9  UNL     1      22.288  37.472  -6.072  1.00  0.00     0.006 C 
HETATM    6  C10 UNL     1      22.879  36.780  -7.301  1.00  0.00    -0.001 C 
HETATM    7  C11 UNL     1      23.332  35.507  -6.589  1.00  0.00    -0.040 C 
HETATM    8  C12 UNL     1      24.127  35.838  -5.342  1.00  0.00     0.015 C 
HETATM    9  C13 UNL     1      24.041  34.542  -7.459  1.00  0.00     0.015 C 
ENDROOT
BRANCH   1  10
HETATM   10  C4  UNL     1      21.907  36.400  -9.599  1.00  0.00     0.121 C 
BRANCH  10  11
HETATM   11  N1  UNL     1      20.789  35.673 -10.150  1.00  0.00    -0.392 N 
ATOM     12  H1  UNL     1      19.902  35.585  -9.655  1.00  0.00     0.156 HD
BRANCH  11  13
HETATM   13  C2  UNL     1      21.003  35.089 -11.428  1.00  0.00     0.120 C 
HETATM   14  C1  UNL     1      19.968  35.681 -12.377  1.00  0.00     0.070 C 
HETATM   15  C3  UNL     1      22.352  35.594 -11.930  1.00  0.00     0.070 C 
BRANCH  13  16
HETATM   16  O1  UNL     1      20.885  33.723 -11.497  1.00  0.00    -0.372 OA
ATOM     17  H1  UNL     1      21.335  33.441 -12.284  1.00  0.00     0.212 HD
ENDBRANCH  13  16
ENDBRANCH  11  13
ENDBRANCH  10  11
ENDBRANCH   1  10
TORSDOF 4
ENDMDL
MODEL 4
REMARK VINA RESULT: -6.135636845      1.369      1.650
REMARK  4 active torsions:
REMARK  status: ('A' for Active; 'I' for Inactive)
REMARK    1  A    between atoms: C2_2  and  O1_4 
REMARK    2  A    between atoms: C2_2  and  N1_6 
REMARK    3  A    between atoms: N1_6  and  C4_8 
REMARK    4  A    between atoms: C4_8  and  C5_9 
ROOT
HETATM    1  C5  UNL     1      22.165  37.210  -6.350  1.00  0.00     0.008 C 
HETATM    2  C6  UNL     1      21.157  36.067  -6.425  1.00  0.00     0.012 C 
HETATM    3  C7  UNL     1      22.016  34.906  -6.033  1.00  0.00    -0.006 C 
HETATM    4  C8  UNL     1      22.676  35.246  -4.719  1.00  0.00     0.006 C 
HETATM    5  C9  UNL     1      23.863  36.149  -5.055  1.00  0.00     0.006 C 
HETATM    6  C10 UNL     1      23.491  36.525  -6.490  1.00  0.00    -0.001 C 
HETATM    7  C11 UNL     1      23.200  35.107  -6.977  1.00  0.00    -0.040 C 
HETATM    8  C12 UNL     1      24.334  34.168  -6.618  1.00  0.00     0.015 C 
HETATM    9  C13 UNL     1      22.839  35.017  -8.410  1.00  0.00     0.015 C 
ENDROOT
BRANCH   1  10
HETATM   10  C4  UNL     1      21.900  38.277  -7.369  1.00  0.00     0.121 C 
BRANCH  10  11
HETATM   11  N1  UNL     1      21.488  39.432  -6.609  1.00  0.00    -0.392 N 
ATOM     12  H1  UNL     1      22.067  39.831  -5.870  1.00  0.00     0.156 HD
BRANCH  11  13
HETATM   13  C2  UNL     1      20.223  39.980  -6.957  1.00  0.00     0.120 C 
HETATM   14  C1  UNL     1      19.632  39.093  -8.047  1.00  0.00     0.070 C 
HETATM   15  C3  UNL     1      19.311  39.803  -5.748  1.00  0.00     0.070 C 
BRANCH  13  16
HETATM   16  O1  UNL     1      20.232  41.265  -7.437  1.00  0.00    -0.372 OA
ATOM     17  H1  UNL     1      19.718  41.793  -6.838  1.00  0.00     0.212 HD
ENDBRANCH  13  16
ENDBRANCH  11  13
ENDBRANCH  10  11
ENDBRANCH   1  10
TORSDOF 4
ENDMDL
MODEL 5
REMARK VINA RESULT: -6.103013345      3.209      5.306
REMARK  4 active torsions:
REMARK  status: ('A' for Active; 'I' for Inactive)
REMARK    1  A    between atoms: C2_2  and  O1_4 
REMARK    2  A    between atoms: C2_2  and  N1_6 
REMARK    3  A    between atoms: N1_6  and  C4_8 
REMARK    4  A    between atoms: C4_8  and  C5_9 
ROOT
HETATM    1  C5  UNL     1      23.521  35.634  -7.428  1.00  0.00     0.008 C 
HETATM    2  C6  UNL     1      22.222  34.900  -7.750  1.00  0.00     0.012 C 
HETATM    3  C7  UNL     1      21.214  35.963  -7.450  1.00  0.00    -0.006 C 
HETATM    4  C8  UNL     1      21.599  37.196  -8.231  1.00  0.00     0.006 C 
HETATM    5  C9  UNL     1      22.713  37.878  -7.437  1.00  0.00     0.006 C 
HETATM    6  C10 UNL     1      23.089  36.729  -6.500  1.00  0.00    -0.001 C 
HETATM    7  C11 UNL     1      21.668  36.390  -6.054  1.00  0.00    -0.040 C 
HETATM    8  C12 UNL     1      20.928  37.634  -5.609  1.00  0.00     0.015 C 
HETATM    9  C13 UNL     1      21.588  35.307  -5.048  1.00  0.00     0.015 C 
ENDROOT
BRANCH   1  10
HETATM   10  C4  UNL     1      24.574  34.723  -6.874  1.00  0.00     0.121 C 
BRANCH  10  11
HETATM   11  N1  UNL     1      24.898  35.265  -5.576  1.00  0.00    -0.392 N 
ATOM     12  H1  UNL     1      24.485  36.131  -5.231  1.00  0.00     0.156 HD
BRANCH  11  13
HETATM   13  C2  UNL     1      25.830  34.513  -4.810  1.00  0.00     0.120 C 
HETATM   14  C1  UNL     1      25.347  34.530  -3.365  1.00  0.00     0.070 C 
HETATM   15  C3  UNL     1      25.713  33.061  -5.263  1.00  0.00     0.070 C 
BRANCH  13  16
HETATM   16  O1  UNL     1      27.124  34.970  -4.813  1.00  0.00    -0.372 OA
ATOM     17  H1  UNL     1      27.501  34.745  -5.655  1.00  0.00     0.212 HD
ENDBRANCH  13  16
ENDBRANCH  11  13
ENDBRANCH  10  11
ENDBRANCH   1  10
TORSDOF 4
ENDMDL
