MODEL 1
REMARK VINA RESULT: -6.652581405      0.000      0.000
REMARK  4 active torsions:
REMARK  status: ('A' for Active; 'I' for Inactive)
REMARK    1  A    between atoms: C2_2  and  N1_3 
REMARK    2  A    between atoms: N1_3  and  C3_5 
REMARK    3  A    between atoms: C5_7  and  C6_8 
REMARK    4  A    between atoms: C6_8  and  O1_9 
ROOT
HETATM    1  C3  UNL     1      23.730  35.928  -5.424  1.00  0.00    -0.013 C 
HETATM    2  C4  UNL     1      23.108  37.221  -5.588  1.00  0.00     0.064 C 
HETATM    3  C5  UNL     1      22.006  37.136  -6.659  1.00  0.00    -0.014 C 
HETATM    4  C7  UNL     1      22.450  36.549  -7.956  1.00  0.00     0.012 C 
HETATM    5  C8  UNL     1      23.307  35.319  -7.761  1.00  0.00     0.011 C 
HETATM    6  C9  UNL     1      23.067  34.871  -6.349  1.00  0.00     0.031 C 
HETATM    7  C10 UNL     1      21.604  34.793  -6.023  1.00  0.00     0.011 C 
HETATM    8  C11 UNL     1      20.966  36.175  -6.052  1.00  0.00     0.012 C 
ENDROOT
BRANCH   1   9
HETATM    9  N1  UNL     1      24.096  35.293  -4.255  1.00  0.00    -0.387 N 
ATOM     10  H1  UNL     1      23.377  35.130  -3.549  1.00  0.00     0.160 HD
BRANCH   9  11
HETATM   11  C2  UNL     1      25.414  34.857  -3.979  1.00  0.00     0.026 A 
HETATM   12  C1  UNL     1      26.609  35.591  -4.415  1.00  0.00     0.038 C 
HETATM   13  C12 UNL     1      25.580  33.329  -4.039  1.00  0.00     0.033 A 
HETATM   14  C13 UNL     1      25.543  34.020  -2.702  1.00  0.00     0.033 A 
ENDBRANCH   9  11
ENDBRANCH   1   9
BRANCH   3  15
HETATM   15  C6  UNL     1      21.473  38.516  -6.858  1.00  0.00     0.173 C 
BRANCH  15  16
HETATM   16  O1  UNL     1      20.836  38.681  -8.096  1.00  0.00    -0.400 OA
ATOM     17  H1  UNL     1      21.370  39.149  -8.726  1.00  0.00     0.209 HD
ENDBRANCH  15  16
ENDBRANCH   3  15
TORSDOF 4
ENDMDL
MODEL 2
REMARK VINA RESULT: -6.523983798      2.742      5.441
REMARK  4 active torsions:
REMARK  status: ('A' for Active; 'I' for Inactive)
REMARK    1  A    between atoms: C2_2  and  N1_3 
REMARK    2  A    between atoms: N1_3  and  C3_5 
REMARK    3  A    between atoms: C5_7  and  C6_8 
REMARK    4  A    between atoms: C6_8  and  O1_9 
ROOT
HETATM    1  C3  UNL     1      23.925  35.369  -5.162  1.00  0.00    -0.013 C 
HETATM    2  C4  UNL     1      24.164  35.131  -3.758  1.00  0.00     0.064 C 
HETATM    3  C5  UNL     1      25.479  34.350  -3.579  1.00  0.00    -0.014 C 
HETATM    4  C7  UNL     1      25.571  33.103  -4.393  1.00  0.00     0.012 C 
HETATM    5  C8  UNL     1      25.088  33.311  -5.810  1.00  0.00     0.011 C 
HETATM    6  C9  UNL     1      25.079  34.796  -6.027  1.00  0.00     0.031 C 
HETATM    7  C10 UNL     1      26.368  35.436  -5.601  1.00  0.00     0.011 C 
HETATM    8  C11 UNL     1      26.562  35.316  -4.096  1.00  0.00     0.012 C 
ENDROOT
BRANCH   1   9
HETATM    9  N1  UNL     1      23.473  36.522  -5.772  1.00  0.00    -0.387 N 
ATOM     10  H1  UNL     1      24.023  37.374  -5.660  1.00  0.00     0.160 HD
BRANCH   9  11
HETATM   11  C2  UNL     1      22.289  36.587  -6.545  1.00  0.00     0.026 A 
HETATM   12  C1  UNL     1      21.450  35.415  -6.827  1.00  0.00     0.038 C 
HETATM   13  C12 UNL     1      22.380  37.571  -7.724  1.00  0.00     0.033 A 
HETATM   14  C13 UNL     1      21.586  37.948  -6.501  1.00  0.00     0.033 A 
ENDBRANCH   9  11
ENDBRANCH   1   9
BRANCH   3  15
HETATM   15  C6  UNL     1      25.620  34.045  -2.126  1.00  0.00     0.173 C 
BRANCH  15  16
HETATM   16  O1  UNL     1      25.206  32.747  -1.798  1.00  0.00    -0.400 OA
ATOM     17  H1  UNL     1      24.507  32.733  -1.154  1.00  0.00     0.209 HD
ENDBRANCH  15  16
ENDBRANCH   3  15
TORSDOF 4
ENDMDL
MODEL 3
REMARK VINA RESULT: -6.347595252      1.319      2.408
REMARK  4 active torsions:
REMARK  status: ('A' for Active; 'I' for Inactive)
REMARK    1  A    between atoms: C2_2  and  N1_3 
REMARK    2  A    between atoms: N1_3  and  C3_5 
REMARK    3  A    between atoms: C5_7  and  C6_8 
REMARK    4  A    between atoms: C6_8  and  O1_9 
ROOT
HETATM    1  C3  UNL     1      23.692  35.293  -6.340  1.00  0.00    -0.013 C 
HETATM    2  C4  UNL     1      23.531  35.196  -7.772  1.00  0.00     0.064 C 
HETATM    3  C5  UNL     1      22.193  35.833  -8.190  1.00  0.00    -0.014 C 
HETATM    4  C7  UNL     1      21.007  35.319  -7.447  1.00  0.00     0.012 C 
HETATM    5  C8  UNL     1      21.271  35.199  -5.963  1.00  0.00     0.011 C 
HETATM    6  C9  UNL     1      22.490  36.034  -5.695  1.00  0.00     0.031 C 
HETATM    7  C10 UNL     1      22.382  37.402  -6.303  1.00  0.00     0.011 C 
HETATM    8  C11 UNL     1      22.356  37.320  -7.823  1.00  0.00     0.012 C 
ENDROOT
BRANCH   1   9
HETATM    9  N1  UNL     1      24.824  35.624  -5.624  1.00  0.00    -0.387 N 
ATOM     10  H1  UNL     1      25.075  36.610  -5.548  1.00  0.00     0.160 HD
BRANCH   9  11
HETATM   11  C2  UNL     1      25.657  34.671  -4.990  1.00  0.00     0.026 A 
HETATM   12  C1  UNL     1      25.736  33.267  -5.414  1.00  0.00     0.038 C 
HETATM   13  C12 UNL     1      25.750  34.855  -3.466  1.00  0.00     0.033 A 
HETATM   14  C13 UNL     1      26.907  35.268  -4.337  1.00  0.00     0.033 A 
ENDBRANCH   9  11
ENDBRANCH   1   9
BRANCH   3  15
HETATM   15  C6  UNL     1      22.035  35.612  -9.657  1.00  0.00     0.173 C 
BRANCH  15  16
HETATM   16  O1  UNL     1      21.534  36.736 -10.327  1.00  0.00    -0.400 OA
ATOM     17  H1  UNL     1      20.957  36.511 -11.047  1.00  0.00     0.209 HD
ENDBRANCH  15  16
ENDBRANCH   3  15
TORSDOF 4
ENDMDL
MODEL 4
REMARK VINA RESULT: -6.293502928      0.563      1.033
REMARK  4 active torsions:
REMARK  status: ('A' for Active; 'I' for Inactive)
REMARK    1  A    between atoms: C2_2  and  N1_3 
REMARK    2  A    between atoms: N1_3  and  C3_5 
REMARK    3  A    between atoms: C5_7  and  C6_8 
REMARK    4  A    between atoms: C6_8  and  O1_9 
ROOT
HETATM    1  C3  UNL     1      23.611  35.729  -5.748  1.00  0.00    -0.013 C 
HETATM    2  C4  UNL     1      23.232  37.123  -5.779  1.00  0.00     0.064 C 
HETATM    3  C5  UNL     1      22.034  37.316  -6.726  1.00  0.00    -0.014 C 
HETATM    4  C7  UNL     1      22.229  36.748  -8.091  1.00  0.00     0.012 C 
HETATM    5  C8  UNL     1      22.853  35.371  -8.051  1.00  0.00     0.011 C 
HETATM    6  C9  UNL     1      22.672  34.879  -6.645  1.00  0.00     0.031 C 
HETATM    7  C10 UNL     1      21.260  35.048  -6.166  1.00  0.00     0.011 C 
HETATM    8  C11 UNL     1      20.896  36.522  -6.057  1.00  0.00     0.012 C 
ENDROOT
BRANCH   1   9
HETATM    9  N1  UNL     1      23.963  34.959  -4.658  1.00  0.00    -0.387 N 
ATOM     10  H1  UNL     1      23.277  34.837  -3.912  1.00  0.00     0.160 HD
BRANCH   9  11
HETATM   11  C2  UNL     1      25.223  34.330  -4.517  1.00  0.00     0.026 A 
HETATM   12  C1  UNL     1      25.632  33.167  -5.315  1.00  0.00     0.038 C 
HETATM   13  C12 UNL     1      25.726  34.283  -3.065  1.00  0.00     0.033 A 
HETATM   14  C13 UNL     1      26.338  35.262  -4.031  1.00  0.00     0.033 A 
ENDBRANCH   9  11
ENDBRANCH   1   9
BRANCH   3  15
HETATM   15  C6  UNL     1      21.756  38.780  -6.796  1.00  0.00     0.173 C 
BRANCH  15  16
HETATM   16  O1  UNL     1      20.869  39.117  -7.829  1.00  0.00    -0.400 OA
ATOM     17  H1  UNL     1      20.921  38.524  -8.569  1.00  0.00     0.209 HD
ENDBRANCH  15  16
ENDBRANCH   3  15
TORSDOF 4
ENDMDL
MODEL 5
REMARK VINA RESULT: -6.265347092      2.775      5.356
REMARK  4 active torsions:
REMARK  status: ('A' for Active; 'I' for Inactive)
REMARK    1  A    between atoms: C2_2  and  N1_3 
REMARK    2  A    between atoms: N1_3  and  C3_5 
REMARK    3  A    between atoms: C5_7  and  C6_8 
REMARK    4  A    between atoms: C6_8  and  O1_9 
ROOT
HETATM    1  C3  UNL     1      24.042  35.218  -5.327  1.00  0.00    -0.013 C 
HETATM    2  C4  UNL     1      24.175  35.080  -3.895  1.00  0.00     0.064 C 
HETATM    3  C5  UNL     1      25.470  34.315  -3.565  1.00  0.00    -0.014 C 
HETATM    4  C7  UNL     1      25.617  33.014  -4.279  1.00  0.00     0.012 C 
HETATM    5  C8  UNL     1      25.243  33.121  -5.740  1.00  0.00     0.011 C 
HETATM    6  C9  UNL     1      25.256  34.587  -6.061  1.00  0.00     0.031 C 
HETATM    7  C10 UNL     1      26.512  35.257  -5.585  1.00  0.00     0.011 C 
HETATM    8  C11 UNL     1      26.592  35.243  -4.065  1.00  0.00     0.012 C 
ENDROOT
BRANCH   1   9
HETATM    9  N1  UNL     1      23.642  36.324  -6.049  1.00  0.00    -0.387 N 
ATOM     10  H1  UNL     1      24.292  37.107  -6.131  1.00  0.00     0.160 HD
BRANCH   9  11
HETATM   11  C2  UNL     1      22.380  36.432  -6.681  1.00  0.00     0.026 A 
HETATM   12  C1  UNL     1      22.192  37.068  -7.991  1.00  0.00     0.038 C 
HETATM   13  C12 UNL     1      21.225  36.699  -5.701  1.00  0.00     0.033 A 
HETATM   14  C13 UNL     1      21.391  35.326  -6.299  1.00  0.00     0.033 A 
ENDBRANCH   9  11
ENDBRANCH   1   9
BRANCH   3  15
HETATM   15  C6  UNL     1      25.501  34.114  -2.086  1.00  0.00     0.173 C 
BRANCH  15  16
HETATM   16  O1  UNL     1      25.313  32.775  -1.714  1.00  0.00    -0.400 OA
ATOM     17  H1  UNL     1      24.401  32.511  -1.731  1.00  0.00     0.209 HD
ENDBRANCH  15  16
ENDBRANCH   3  15
TORSDOF 4
ENDMDL
