MODEL 1
REMARK VINA RESULT: -4.643073851      0.000      0.000
REMARK  4 active torsions:
REMARK  status: ('A' for Active; 'I' for Inactive)
REMARK    1  A    between atoms: C2_2  and  O1_3 
REMARK    2  A    between atoms: C2_2  and  C3_5 
REMARK    3  A    between atoms: C3_5  and  C4_6 
REMARK    4  A    between atoms: C4_6  and  O2_7 
ROOT
HETATM    1  C3  UNL     1      23.628  35.452  -5.684  1.00  0.00     0.014 C 
HETATM    2  C5  UNL     1      23.884  34.955  -7.068  1.00  0.00     0.015 C 
HETATM    3  C6  UNL     1      24.410  33.590  -7.220  1.00  0.00     0.006 C 
HETATM    4  C7  UNL     1      25.143  33.012  -6.073  1.00  0.00    -0.005 A 
HETATM    5  C8  UNL     1      26.520  33.502  -5.730  1.00  0.00     0.015 A 
HETATM    6  C9  UNL     1      25.334  33.767  -4.877  1.00  0.00    -0.032 A 
HETATM    7  C10 UNL     1      25.384  32.988  -3.551  1.00  0.00     0.016 C 
HETATM    8  C11 UNL     1      24.770  35.158  -4.767  1.00  0.00    -0.028 C 
HETATM    9  C12 UNL     1      25.974  36.071  -5.055  1.00  0.00     0.016 C 
HETATM   10  C13 UNL     1      24.476  35.485  -3.322  1.00  0.00     0.016 C 
ENDROOT
BRANCH   1  11
HETATM   11  C2  UNL     1      22.280  35.136  -5.154  1.00  0.00     0.125 C 
HETATM   12  C1  UNL     1      21.255  34.557  -6.059  1.00  0.00     0.040 C 
BRANCH  11  13
HETATM   13  O1  UNL     1      21.696  36.300  -4.604  1.00  0.00    -0.395 OA
ATOM     14  H1  UNL     1      20.843  36.035  -4.281  1.00  0.00     0.210 HD
ENDBRANCH  11  13
ENDBRANCH   1  11
BRANCH   1  15
HETATM   15  C4  UNL     1      23.652  36.994  -5.847  1.00  0.00     0.177 C 
BRANCH  15  16
HETATM   16  O2  UNL     1      22.931  37.383  -6.975  1.00  0.00    -0.400 OA
ATOM     17  H2  UNL     1      23.385  37.125  -7.769  1.00  0.00     0.209 HD
ENDBRANCH  15  16
ENDBRANCH   1  15
TORSDOF 4
ENDMDL
MODEL 2
REMARK VINA RESULT: -4.349564219      1.957      3.897
REMARK  4 active torsions:
REMARK  status: ('A' for Active; 'I' for Inactive)
REMARK    1  A    between atoms: C2_2  and  O1_3 
REMARK    2  A    between atoms: C2_2  and  C3_5 
REMARK    3  A    between atoms: C3_5  and  C4_6 
REMARK    4  A    between atoms: C4_6  and  O2_7 
ROOT
HETATM    1  C3  UNL     1      24.821  35.191  -4.788  1.00  0.00     0.014 C 
HETATM    2  C5  UNL     1      25.057  33.845  -5.389  1.00  0.00     0.015 C 
HETATM    3  C6  UNL     1      24.882  33.703  -6.841  1.00  0.00     0.006 C 
HETATM    4  C7  UNL     1      23.999  34.677  -7.519  1.00  0.00    -0.005 A 
HETATM    5  C8  UNL     1      22.511  34.604  -7.335  1.00  0.00     0.015 A 
HETATM    6  C9  UNL     1      23.341  35.701  -6.774  1.00  0.00    -0.032 A 
HETATM    7  C10 UNL     1      23.092  37.042  -7.487  1.00  0.00     0.016 C 
HETATM    8  C11 UNL     1      23.557  35.810  -5.289  1.00  0.00    -0.028 C 
HETATM    9  C12 UNL     1      22.317  35.132  -4.683  1.00  0.00     0.016 C 
HETATM   10  C13 UNL     1      23.374  37.241  -4.843  1.00  0.00     0.016 C 
ENDROOT
BRANCH   1  11
HETATM   11  C2  UNL     1      26.008  36.077  -4.770  1.00  0.00     0.125 C 
HETATM   12  C1  UNL     1      27.351  35.506  -5.042  1.00  0.00     0.040 C 
BRANCH  11  13
HETATM   13  O1  UNL     1      26.109  36.720  -3.515  1.00  0.00    -0.395 OA
ATOM     14  H1  UNL     1      25.671  37.557  -3.616  1.00  0.00     0.210 HD
ENDBRANCH  11  13
ENDBRANCH   1  11
BRANCH   1  15
HETATM   15  C4  UNL     1      24.527  34.872  -3.298  1.00  0.00     0.177 C 
BRANCH  15  16
HETATM   16  O2  UNL     1      25.315  33.809  -2.856  1.00  0.00    -0.400 OA
ATOM     17  H2  UNL     1      25.930  34.100  -2.192  1.00  0.00     0.209 HD
ENDBRANCH  15  16
ENDBRANCH   1  15
TORSDOF 4
ENDMDL
MODEL 3
REMARK VINA RESULT: -4.095812484      4.673      6.856
REMARK  4 active torsions:
REMARK  status: ('A' for Active; 'I' for Inactive)
REMARK    1  A    between atoms: C2_2  and  O1_3 
REMARK    2  A    between atoms: C2_2  and  C3_5 
REMARK    3  A    between atoms: C3_5  and  C4_6 
REMARK    4  A    between atoms: C4_6  and  O2_7 
ROOT
HETATM    1  C3  UNL     1      20.379  39.206  -5.641  1.00  0.00     0.014 C 
HETATM    2  C5  UNL     1      21.425  40.270  -5.693  1.00  0.00     0.015 C 
HETATM    3  C6  UNL     1      21.990  40.740  -4.419  1.00  0.00     0.006 C 
HETATM    4  C7  UNL     1      21.165  40.565  -3.204  1.00  0.00    -0.005 A 
HETATM    5  C8  UNL     1      19.954  41.424  -2.982  1.00  0.00     0.015 A 
HETATM    6  C9  UNL     1      19.869  39.972  -3.285  1.00  0.00    -0.032 A 
HETATM    7  C10 UNL     1      19.392  39.152  -2.074  1.00  0.00     0.016 C 
HETATM    8  C11 UNL     1      19.337  39.501  -4.612  1.00  0.00    -0.028 C 
HETATM    9  C12 UNL     1      18.403  40.637  -5.063  1.00  0.00     0.016 C 
HETATM   10  C13 UNL     1      18.363  38.366  -4.406  1.00  0.00     0.016 C 
ENDROOT
BRANCH   1  11
HETATM   11  C2  UNL     1      20.905  37.821  -5.645  1.00  0.00     0.125 C 
HETATM   12  C1  UNL     1      22.337  37.582  -5.330  1.00  0.00     0.040 C 
BRANCH  11  13
HETATM   13  O1  UNL     1      20.684  37.227  -6.909  1.00  0.00    -0.395 OA
ATOM     14  H1  UNL     1      20.641  36.291  -6.751  1.00  0.00     0.210 HD
ENDBRANCH  11  13
ENDBRANCH   1  11
BRANCH   1  15
HETATM   15  C4  UNL     1      19.638  39.366  -6.994  1.00  0.00     0.177 C 
BRANCH  15  16
HETATM   16  O2  UNL     1      20.446  40.017  -7.926  1.00  0.00    -0.400 OA
ATOM     17  H2  UNL     1      21.300  39.604  -7.978  1.00  0.00     0.209 HD
ENDBRANCH  15  16
ENDBRANCH   1  15
TORSDOF 4
ENDMDL
MODEL 4
REMARK VINA RESULT: -4.079931801      3.097      5.071
REMARK  4 active torsions:
REMARK  status: ('A' for Active; 'I' for Inactive)
REMARK    1  A    between atoms: C2_2  and  O1_3 
REMARK    2  A    between atoms: C2_2  and  C3_5 
REMARK    3  A    between atoms: C3_5  and  C4_6 
REMARK    4  A    between atoms: C4_6  and  O2_7 
ROOT
HETATM    1  C3  UNL     1      20.899  38.548  -6.669  1.00  0.00     0.014 C 
HETATM    2  C5  UNL     1      19.890  38.100  -5.664  1.00  0.00     0.015 C 
HETATM    3  C6  UNL     1      20.342  37.202  -4.592  1.00  0.00     0.006 C 
HETATM    4  C7  UNL     1      21.548  36.386  -4.852  1.00  0.00    -0.005 A 
HETATM    5  C8  UNL     1      21.484  35.222  -5.797  1.00  0.00     0.015 A 
HETATM    6  C9  UNL     1      22.227  36.471  -6.105  1.00  0.00    -0.032 A 
HETATM    7  C10 UNL     1      23.750  36.259  -6.098  1.00  0.00     0.016 C 
HETATM    8  C11 UNL     1      21.728  37.411  -7.169  1.00  0.00    -0.028 C 
HETATM    9  C12 UNL     1      20.929  36.505  -8.121  1.00  0.00     0.016 C 
HETATM   10  C13 UNL     1      22.874  37.849  -8.051  1.00  0.00     0.016 C 
ENDROOT
BRANCH   1  11
HETATM   11  C2  UNL     1      21.645  39.772  -6.294  1.00  0.00     0.125 C 
HETATM   12  C1  UNL     1      21.806  40.119  -4.859  1.00  0.00     0.040 C 
BRANCH  11  13
HETATM   13  O1  UNL     1      21.049  40.902  -6.899  1.00  0.00    -0.395 OA
ATOM     14  H1  UNL     1      21.232  40.825  -7.828  1.00  0.00     0.210 HD
ENDBRANCH  11  13
ENDBRANCH   1  11
BRANCH   1  15
HETATM   15  C4  UNL     1      20.032  38.957  -7.889  1.00  0.00     0.177 C 
BRANCH  15  16
HETATM   16  O2  UNL     1      18.722  39.230  -7.495  1.00  0.00    -0.400 OA
ATOM     17  H2  UNL     1      18.112  38.640  -7.924  1.00  0.00     0.209 HD
ENDBRANCH  15  16
ENDBRANCH   1  15
TORSDOF 4
ENDMDL
MODEL 5
REMARK VINA RESULT: -3.887401134      9.212     10.986
REMARK  4 active torsions:
REMARK  status: ('A' for Active; 'I' for Inactive)
REMARK    1  A    between atoms: C2_2  and  O1_3 
REMARK    2  A    between atoms: C2_2  and  C3_5 
REMARK    3  A    between atoms: C3_5  and  C4_6 
REMARK    4  A    between atoms: C4_6  and  O2_7 
ROOT
HETATM    1  C3  UNL     1      19.923  37.134 -14.767  1.00  0.00     0.014 C 
HETATM    2  C5  UNL     1      21.296  36.702 -15.163  1.00  0.00     0.015 C 
HETATM    3  C6  UNL     1      22.421  37.577 -14.803  1.00  0.00     0.006 C 
HETATM    4  C7  UNL     1      22.126  39.010 -14.583  1.00  0.00    -0.005 A 
HETATM    5  C8  UNL     1      21.806  39.903 -15.746  1.00  0.00     0.015 A 
HETATM    6  C9  UNL     1      20.796  39.508 -14.731  1.00  0.00    -0.032 A 
HETATM    7  C10 UNL     1      20.381  40.687 -13.833  1.00  0.00     0.016 C 
HETATM    8  C11 UNL     1      19.676  38.571 -15.095  1.00  0.00    -0.028 C 
HETATM    9  C12 UNL     1      19.492  38.782 -16.607  1.00  0.00     0.016 C 
HETATM   10  C13 UNL     1      18.368  39.092 -14.550  1.00  0.00     0.016 C 
ENDROOT
BRANCH   1  11
HETATM   11  C2  UNL     1      19.506  36.703 -13.412  1.00  0.00     0.125 C 
HETATM   12  C1  UNL     1      20.540  36.353 -12.406  1.00  0.00     0.040 C 
BRANCH  11  13
HETATM   13  O1  UNL     1      18.661  35.573 -13.507  1.00  0.00    -0.395 OA
ATOM     14  H1  UNL     1      18.259  35.478 -12.652  1.00  0.00     0.210 HD
ENDBRANCH  11  13
ENDBRANCH   1  11
BRANCH   1  15
HETATM   15  C4  UNL     1      19.006  36.354 -15.745  1.00  0.00     0.177 C 
BRANCH  15  16
HETATM   16  O2  UNL     1      19.686  35.273 -16.305  1.00  0.00    -0.400 OA
ATOM     17  H2  UNL     1      19.824  34.591 -15.658  1.00  0.00     0.209 HD
ENDBRANCH  15  16
ENDBRANCH   1  15
TORSDOF 4
ENDMDL
