MODEL 1
REMARK VINA RESULT: -5.467480081      0.000      0.000
REMARK  4 active torsions:
REMARK  status: ('A' for Active; 'I' for Inactive)
REMARK    1  A    between atoms: C2_2  and  O1_3 
REMARK    2  A    between atoms: C2_2  and  C3_5 
REMARK    3  A    between atoms: C3_5  and  C4_6 
REMARK    4  A    between atoms: C4_6  and  O2_7 
ROOT
HETATM    1  C4  UNL     1      23.025  36.249  -5.476  1.00  0.00     0.067 C 
HETATM    2  C5  UNL     1      21.587  35.907  -5.497  1.00  0.00     0.021 C 
HETATM    3  C6  UNL     1      20.836  37.196  -5.886  1.00  0.00     0.012 C 
HETATM    4  C7  UNL     1      21.294  37.662  -7.230  1.00  0.00    -0.013 C 
HETATM    5  C8  UNL     1      20.931  36.614  -8.252  1.00  0.00     0.009 C 
HETATM    6  C9  UNL     1      21.590  35.304  -7.898  1.00  0.00    -0.013 C 
HETATM    7  C10 UNL     1      21.198  34.869  -6.521  1.00  0.00     0.012 C 
HETATM    8  C11 UNL     1      23.090  35.512  -7.887  1.00  0.00     0.012 C 
HETATM    9  C12 UNL     1      23.446  36.586  -6.923  1.00  0.00     0.021 C 
HETATM   10  C13 UNL     1      22.791  37.887  -7.270  1.00  0.00     0.012 C 
ENDROOT
BRANCH   1  11
HETATM   11  C3  UNL     1      23.987  35.268  -4.956  1.00  0.00     0.070 C 
BRANCH  11  12
HETATM   12  C2  UNL     1      24.963  35.640  -3.929  1.00  0.00     0.117 C 
HETATM   13  C1  UNL     1      26.413  35.647  -4.323  1.00  0.00     0.039 C 
BRANCH  12  14
HETATM   14  O1  UNL     1      24.883  34.896  -2.751  1.00  0.00    -0.396 OA
ATOM     15  H1  UNL     1      23.987  34.978  -2.446  1.00  0.00     0.210 HD
ENDBRANCH  12  14
ENDBRANCH  11  12
ENDBRANCH   1  11
BRANCH   1  16
HETATM   16  O2  UNL     1      23.141  37.517  -4.849  1.00  0.00    -0.389 OA
ATOM     17  H2  UNL     1      22.855  38.230  -5.408  1.00  0.00     0.210 HD
ENDBRANCH   1  16
TORSDOF 4
ENDMDL
MODEL 2
REMARK VINA RESULT: -5.446789679      1.137      1.707
REMARK  4 active torsions:
REMARK  status: ('A' for Active; 'I' for Inactive)
REMARK    1  A    between atoms: C2_2  and  O1_3 
REMARK    2  A    between atoms: C2_2  and  C3_5 
REMARK    3  A    between atoms: C3_5  and  C4_6 
REMARK    4  A    between atoms: C4_6  and  O2_7 
ROOT
HETATM    1  C4  UNL     1      23.333  35.693  -5.347  1.00  0.00     0.067 C 
HETATM    2  C5  UNL     1      22.875  34.622  -6.258  1.00  0.00     0.021 C 
HETATM    3  C6  UNL     1      21.336  34.610  -6.181  1.00  0.00     0.012 C 
HETATM    4  C7  UNL     1      20.798  35.939  -6.605  1.00  0.00    -0.013 C 
HETATM    5  C8  UNL     1      21.166  36.169  -8.049  1.00  0.00     0.009 C 
HETATM    6  C9  UNL     1      22.666  36.134  -8.206  1.00  0.00    -0.013 C 
HETATM    7  C10 UNL     1      23.222  34.837  -7.711  1.00  0.00     0.012 C 
HETATM    8  C11 UNL     1      23.260  37.229  -7.345  1.00  0.00     0.012 C 
HETATM    9  C12 UNL     1      22.851  37.040  -5.929  1.00  0.00     0.021 C 
HETATM   10  C13 UNL     1      21.362  37.069  -5.769  1.00  0.00     0.012 C 
ENDROOT
BRANCH   1  11
HETATM   11  C3  UNL     1      24.768  35.826  -5.062  1.00  0.00     0.070 C 
BRANCH  11  12
HETATM   12  C2  UNL     1      25.434  34.932  -4.111  1.00  0.00     0.117 C 
HETATM   13  C1  UNL     1      25.714  33.526  -4.563  1.00  0.00     0.039 C 
BRANCH  12  14
HETATM   14  O1  UNL     1      24.804  34.825  -2.870  1.00  0.00    -0.396 OA
ATOM     15  H1  UNL     1      25.094  35.573  -2.361  1.00  0.00     0.210 HD
ENDBRANCH  12  14
ENDBRANCH  11  12
ENDBRANCH   1  11
BRANCH   1  16
HETATM   16  O2  UNL     1      22.546  35.600  -4.169  1.00  0.00    -0.389 OA
ATOM     17  H2  UNL     1      22.916  35.008  -3.525  1.00  0.00     0.210 HD
ENDBRANCH   1  16
TORSDOF 4
ENDMDL
MODEL 3
REMARK VINA RESULT: -5.397365094      2.353      4.801
REMARK  4 active torsions:
REMARK  status: ('A' for Active; 'I' for Inactive)
REMARK    1  A    between atoms: C2_2  and  O1_3 
REMARK    2  A    between atoms: C2_2  and  C3_5 
REMARK    3  A    between atoms: C3_5  and  C4_6 
REMARK    4  A    between atoms: C4_6  and  O2_7 
ROOT
HETATM    1  C4  UNL     1      21.815  36.358  -7.867  1.00  0.00     0.067 C 
HETATM    2  C5  UNL     1      22.981  37.099  -7.342  1.00  0.00     0.021 C 
HETATM    3  C6  UNL     1      22.600  37.569  -5.924  1.00  0.00     0.012 C 
HETATM    4  C7  UNL     1      22.287  36.386  -5.066  1.00  0.00    -0.013 C 
HETATM    5  C8  UNL     1      23.532  35.546  -4.932  1.00  0.00     0.009 C 
HETATM    6  C9  UNL     1      23.997  35.098  -6.296  1.00  0.00    -0.013 C 
HETATM    7  C10 UNL     1      24.237  36.275  -7.187  1.00  0.00     0.012 C 
HETATM    8  C11 UNL     1      22.892  34.279  -6.930  1.00  0.00     0.012 C 
HETATM    9  C12 UNL     1      21.645  35.085  -7.010  1.00  0.00     0.021 C 
HETATM   10  C13 UNL     1      21.183  35.535  -5.659  1.00  0.00     0.012 C 
ENDROOT
BRANCH   1  11
HETATM   11  C3  UNL     1      21.805  35.944  -9.276  1.00  0.00     0.070 C 
BRANCH  11  12
HETATM   12  C2  UNL     1      20.552  35.869 -10.033  1.00  0.00     0.117 C 
HETATM   13  C1  UNL     1      20.583  35.154 -11.354  1.00  0.00     0.039 C 
BRANCH  12  14
HETATM   14  O1  UNL     1      19.940  37.100 -10.270  1.00  0.00    -0.396 OA
ATOM     15  H1  UNL     1      19.703  37.447  -9.417  1.00  0.00     0.210 HD
ENDBRANCH  12  14
ENDBRANCH  11  12
ENDBRANCH   1  11
BRANCH   1  16
HETATM   16  O2  UNL     1      20.657  37.095  -7.504  1.00  0.00    -0.389 OA
ATOM     17  H2  UNL     1      20.644  37.967  -7.881  1.00  0.00     0.210 HD
ENDBRANCH   1  16
TORSDOF 4
ENDMDL
MODEL 4
REMARK VINA RESULT: -5.379975107      0.957      2.387
REMARK  4 active torsions:
REMARK  status: ('A' for Active; 'I' for Inactive)
REMARK    1  A    between atoms: C2_2  and  O1_3 
REMARK    2  A    between atoms: C2_2  and  C3_5 
REMARK    3  A    between atoms: C3_5  and  C4_6 
REMARK    4  A    between atoms: C4_6  and  O2_7 
ROOT
HETATM    1  C4  UNL     1      23.397  35.824  -5.675  1.00  0.00     0.067 C 
HETATM    2  C5  UNL     1      23.614  36.328  -7.048  1.00  0.00     0.021 C 
HETATM    3  C6  UNL     1      22.983  35.293  -8.000  1.00  0.00     0.012 C 
HETATM    4  C7  UNL     1      21.524  35.158  -7.704  1.00  0.00    -0.013 C 
HETATM    5  C8  UNL     1      20.852  36.479  -7.981  1.00  0.00     0.009 C 
HETATM    6  C9  UNL     1      21.465  37.555  -7.120  1.00  0.00    -0.013 C 
HETATM    7  C10 UNL     1      22.940  37.644  -7.352  1.00  0.00     0.012 C 
HETATM    8  C11 UNL     1      21.267  37.173  -5.667  1.00  0.00     0.012 C 
HETATM    9  C12 UNL     1      21.877  35.843  -5.405  1.00  0.00     0.021 C 
HETATM   10  C13 UNL     1      21.274  34.773  -6.261  1.00  0.00     0.012 C 
ENDROOT
BRANCH   1  11
HETATM   11  C3  UNL     1      24.053  36.504  -4.550  1.00  0.00     0.070 C 
BRANCH  11  12
HETATM   12  C2  UNL     1      25.087  35.830  -3.760  1.00  0.00     0.117 C 
HETATM   13  C1  UNL     1      26.374  35.487  -4.455  1.00  0.00     0.039 C 
BRANCH  12  14
HETATM   14  O1  UNL     1      24.665  34.664  -3.121  1.00  0.00    -0.396 OA
ATOM     15  H1  UNL     1      24.233  34.139  -3.786  1.00  0.00     0.210 HD
ENDBRANCH  12  14
ENDBRANCH  11  12
ENDBRANCH   1  11
BRANCH   1  16
HETATM   16  O2  UNL     1      23.658  34.428  -5.700  1.00  0.00    -0.389 OA
ATOM     17  H2  UNL     1      23.465  34.004  -4.872  1.00  0.00     0.210 HD
ENDBRANCH   1  16
TORSDOF 4
ENDMDL
MODEL 5
REMARK VINA RESULT: -5.283048780      1.807      3.887
REMARK  4 active torsions:
REMARK  status: ('A' for Active; 'I' for Inactive)
REMARK    1  A    between atoms: C2_2  and  O1_3 
REMARK    2  A    between atoms: C2_2  and  C3_5 
REMARK    3  A    between atoms: C3_5  and  C4_6 
REMARK    4  A    between atoms: C4_6  and  O2_7 
ROOT
HETATM    1  C4  UNL     1      21.325  37.107  -5.876  1.00  0.00     0.067 C 
HETATM    2  C5  UNL     1      22.728  37.355  -6.270  1.00  0.00     0.021 C 
HETATM    3  C6  UNL     1      23.542  36.140  -5.784  1.00  0.00     0.012 C 
HETATM    4  C7  UNL     1      23.019  34.893  -6.423  1.00  0.00    -0.013 C 
HETATM    5  C8  UNL     1      23.225  34.994  -7.913  1.00  0.00     0.009 C 
HETATM    6  C9  UNL     1      22.499  36.204  -8.449  1.00  0.00    -0.013 C 
HETATM    7  C10 UNL     1      22.960  37.448  -7.759  1.00  0.00     0.012 C 
HETATM    8  C11 UNL     1      21.023  36.048  -8.144  1.00  0.00     0.012 C 
HETATM    9  C12 UNL     1      20.822  35.888  -6.680  1.00  0.00     0.021 C 
HETATM   10  C13 UNL     1      21.544  34.692  -6.144  1.00  0.00     0.012 C 
ENDROOT
BRANCH   1  11
HETATM   11  C3  UNL     1      20.335  38.180  -6.039  1.00  0.00     0.070 C 
BRANCH  11  12
HETATM   12  C2  UNL     1      20.118  39.174  -4.983  1.00  0.00     0.117 C 
HETATM   13  C1  UNL     1      21.209  40.181  -4.747  1.00  0.00     0.039 C 
BRANCH  12  14
HETATM   14  O1  UNL     1      19.805  38.638  -3.733  1.00  0.00    -0.396 OA
ATOM     15  H1  UNL     1      19.131  37.986  -3.886  1.00  0.00     0.210 HD
ENDBRANCH  12  14
ENDBRANCH  11  12
ENDBRANCH   1  11
BRANCH   1  16
HETATM   16  O2  UNL     1      21.352  36.580  -4.558  1.00  0.00    -0.389 OA
ATOM     17  H2  UNL     1      22.169  36.142  -4.355  1.00  0.00     0.210 HD
ENDBRANCH   1  16
TORSDOF 4
ENDMDL
