MODEL 1
REMARK VINA RESULT: -5.447596120      0.000      0.000
REMARK  6 active torsions:
REMARK  status: ('A' for Active; 'I' for Inactive)
REMARK    1  A    between atoms: C2_2  and  N1_4 
REMARK    2  A    between atoms: N1_4  and  C4_6 
REMARK    3  A    between atoms: C5_9  and  N3_10 
REMARK    4  A    between atoms: C6_15  and  C7_16 
REMARK    5  A    between atoms: C8_25  and  S1_26 
REMARK    6  A    between atoms: S1_26  and  N9_27 
ROOT
HETATM    1  C4  UNL     1      16.736  -2.975  11.619  1.00  0.00     0.143 A 
HETATM    2  N2  UNL     1      16.413  -3.407  10.388  1.00  0.00    -0.176 N 
ATOM      3  H2  UNL     1      16.365  -4.410  10.212  1.00  0.00     0.186 HD
HETATM    4  C5  UNL     1      16.151  -2.555   9.380  1.00  0.00     0.678 A 
HETATM    5  N4  UNL     1      16.226  -1.253   9.652  1.00  0.00    -0.186 N 
ATOM      6  H4  UNL     1      16.030  -0.598   8.894  1.00  0.00     0.184 HD
HETATM    7  C6  UNL     1      16.547  -0.736  10.872  1.00  0.00     0.123 A 
HETATM    8  C8  UNL     1      16.814  -1.588  11.908  1.00  0.00     0.154 A 
ENDROOT
BRANCH   7   9
HETATM    9  C7  UNL     1      16.648   0.699  11.065  1.00  0.00     0.166 A 
HETATM   10  N5  UNL     1      15.691   1.381  11.741  1.00  0.00    -0.267 N 
HETATM   11  N6  UNL     1      15.997   2.657  11.756  1.00  0.00    -0.227 N 
ATOM     12  H5  UNL     1      14.865   0.967  12.172  1.00  0.00     0.190 HD
HETATM   13  N7  UNL     1      17.126   2.796  11.102  1.00  0.00    -0.227 N 
ATOM     14  H6  UNL     1      15.457   3.404  12.194  1.00  0.00     0.210 HD
HETATM   15  N8  UNL     1      17.507   1.617  10.693  1.00  0.00    -0.267 N 
ATOM     16  H7  UNL     1      17.620   3.674  10.941  1.00  0.00     0.210 HD
ATOM     17  H8  UNL     1      18.356   1.434  10.157  1.00  0.00     0.190 HD
ENDBRANCH   7   9
BRANCH   8  18
HETATM   18  S1  UNL     1      17.236  -1.104  13.519  1.00  0.00     0.262 S 
HETATM   19  O1  UNL     1      18.433  -1.771  14.097  1.00  0.00    -0.201 OA
HETATM   20  O2  UNL     1      17.678   0.389  13.476  1.00  0.00    -0.201 OA
BRANCH  18  21
HETATM   21  N9  UNL     1      15.866  -1.068  14.564  1.00  0.00    -0.324 N 
ATOM     22  H92 UNL     1      15.022  -0.536  14.357  1.00  0.00     0.169 HD
ATOM     23  H91 UNL     1      16.007  -1.638  15.398  1.00  0.00     0.169 HD
ENDBRANCH  18  21
ENDBRANCH   8  18
BRANCH   4  24
HETATM   24  N3  UNL     1      15.838  -2.988   8.190  1.00  0.00    -0.234 N 
ATOM     25  H32 UNL     1      16.350  -3.751   7.747  1.00  0.00     0.174 HD
ATOM     26  H31 UNL     1      15.069  -2.577   7.661  1.00  0.00     0.174 HD
ENDBRANCH   4  24
BRANCH   1  27
HETATM   27  N1  UNL     1      16.993  -3.745  12.598  1.00  0.00    -0.371 N 
ATOM     28  H1  UNL     1      17.767  -3.481  13.208  1.00  0.00     0.161 HD
BRANCH  27  29
HETATM   29  C2  UNL     1      16.301  -4.930  12.909  1.00  0.00     0.075 C 
HETATM   30  C1  UNL     1      17.089  -6.213  12.693  1.00  0.00     0.031 C 
HETATM   31  C3  UNL     1      15.672  -4.990  14.275  1.00  0.00     0.031 C 
ENDBRANCH  27  29
ENDBRANCH   1  27
TORSDOF 6
ENDMDL
MODEL 2
REMARK VINA RESULT: -5.385074898      2.131      3.408
REMARK  6 active torsions:
REMARK  status: ('A' for Active; 'I' for Inactive)
REMARK    1  A    between atoms: C2_2  and  N1_4 
REMARK    2  A    between atoms: N1_4  and  C4_6 
REMARK    3  A    between atoms: C5_9  and  N3_10 
REMARK    4  A    between atoms: C6_15  and  C7_16 
REMARK    5  A    between atoms: C8_25  and  S1_26 
REMARK    6  A    between atoms: S1_26  and  N9_27 
ROOT
HETATM    1  C4  UNL     1      16.597  -2.616  12.834  1.00  0.00     0.143 A 
HETATM    2  N2  UNL     1      16.542  -2.507  14.172  1.00  0.00    -0.176 N 
ATOM      3  H2  UNL     1      16.490  -3.355  14.736  1.00  0.00     0.186 HD
HETATM    4  C5  UNL     1      16.552  -1.312  14.791  1.00  0.00     0.678 A 
HETATM    5  N4  UNL     1      16.619  -0.229  14.018  1.00  0.00    -0.186 N 
ATOM      6  H4  UNL     1      16.627   0.682  14.477  1.00  0.00     0.184 HD
HETATM    7  C6  UNL     1      16.677  -0.255  12.656  1.00  0.00     0.123 A 
HETATM    8  C8  UNL     1      16.669  -1.462  12.011  1.00  0.00     0.154 A 
ENDROOT
BRANCH   7   9
HETATM    9  C7  UNL     1      16.703   0.979  11.892  1.00  0.00     0.166 A 
HETATM   10  N5  UNL     1      15.558   1.643  11.601  1.00  0.00    -0.267 N 
HETATM   11  N6  UNL     1      15.843   2.704  10.884  1.00  0.00    -0.227 N 
ATOM     12  H5  UNL     1      14.622   1.362  11.893  1.00  0.00     0.190 HD
HETATM   13  N7  UNL     1      17.144   2.724  10.716  1.00  0.00    -0.227 N 
ATOM     14  H6  UNL     1      15.177   3.387  10.524  1.00  0.00     0.210 HD
HETATM   15  N8  UNL     1      17.649   1.686  11.324  1.00  0.00    -0.267 N 
ATOM     16  H7  UNL     1      17.670   3.429  10.199  1.00  0.00     0.210 HD
ATOM     17  H8  UNL     1      18.642   1.456  11.354  1.00  0.00     0.190 HD
ENDBRANCH   7   9
BRANCH   8  18
HETATM   18  S1  UNL     1      16.738  -1.678  10.292  1.00  0.00     0.262 S 
HETATM   19  O1  UNL     1      15.575  -2.379   9.685  1.00  0.00    -0.201 OA
HETATM   20  O2  UNL     1      16.664  -0.273   9.623  1.00  0.00    -0.201 OA
BRANCH  18  21
HETATM   21  N9  UNL     1      18.273  -2.267   9.775  1.00  0.00    -0.324 N 
ATOM     22  H92 UNL     1      19.131  -2.129  10.308  1.00  0.00     0.169 HD
ATOM     23  H91 UNL     1      18.213  -2.762   8.885  1.00  0.00     0.169 HD
ENDBRANCH  18  21
ENDBRANCH   8  18
BRANCH   4  24
HETATM   24  N3  UNL     1      16.499  -1.222  16.092  1.00  0.00    -0.234 N 
ATOM     25  H32 UNL     1      17.112  -1.773  16.691  1.00  0.00     0.174 HD
ATOM     26  H31 UNL     1      15.840  -0.595  16.553  1.00  0.00     0.174 HD
ENDBRANCH   4  24
BRANCH   1  27
HETATM   27  N1  UNL     1      16.587  -3.723  12.209  1.00  0.00    -0.371 N 
ATOM     28  H1  UNL     1      16.599  -3.684  11.190  1.00  0.00     0.161 HD
BRANCH  27  29
HETATM   29  C2  UNL     1      16.560  -4.998  12.807  1.00  0.00     0.075 C 
HETATM   30  C1  UNL     1      16.193  -6.140  11.872  1.00  0.00     0.031 C 
HETATM   31  C3  UNL     1      17.793  -5.396  13.572  1.00  0.00     0.031 C 
ENDBRANCH  27  29
ENDBRANCH   1  27
TORSDOF 6
ENDMDL
MODEL 3
REMARK VINA RESULT: -5.309929747      3.317      5.457
REMARK  6 active torsions:
REMARK  status: ('A' for Active; 'I' for Inactive)
REMARK    1  A    between atoms: C2_2  and  N1_4 
REMARK    2  A    between atoms: N1_4  and  C4_6 
REMARK    3  A    between atoms: C5_9  and  N3_10 
REMARK    4  A    between atoms: C6_15  and  C7_16 
REMARK    5  A    between atoms: C8_25  and  S1_26 
REMARK    6  A    between atoms: S1_26  and  N9_27 
ROOT
HETATM    1  C4  UNL     1      16.056   0.005  15.176  1.00  0.00     0.143 A 
HETATM    2  N2  UNL     1      16.733  -0.705  16.094  1.00  0.00    -0.176 N 
ATOM      3  H2  UNL     1      16.660  -0.441  17.076  1.00  0.00     0.186 HD
HETATM    4  C5  UNL     1      17.504  -1.755  15.756  1.00  0.00     0.678 A 
HETATM    5  N4  UNL     1      17.573  -2.066  14.463  1.00  0.00    -0.186 N 
ATOM      6  H4  UNL     1      18.155  -2.859  14.195  1.00  0.00     0.184 HD
HETATM    7  C6  UNL     1      16.918  -1.396  13.472  1.00  0.00     0.123 A 
HETATM    8  C8  UNL     1      16.128  -0.327  13.798  1.00  0.00     0.154 A 
ENDROOT
BRANCH   7   9
HETATM    9  C7  UNL     1      17.087  -1.779  12.082  1.00  0.00     0.166 A 
HETATM   10  N5  UNL     1      18.084  -1.252  11.330  1.00  0.00    -0.267 N 
HETATM   11  N6  UNL     1      18.007  -1.733  10.111  1.00  0.00    -0.227 N 
ATOM     12  H5  UNL     1      18.784  -0.588  11.659  1.00  0.00     0.190 HD
HETATM   13  N7  UNL     1      16.982  -2.551  10.078  1.00  0.00    -0.227 N 
ATOM     14  H6  UNL     1      18.629  -1.512   9.333  1.00  0.00     0.210 HD
HETATM   15  N8  UNL     1      16.438  -2.571  11.264  1.00  0.00    -0.267 N 
ATOM     16  H7  UNL     1      16.665  -3.081   9.265  1.00  0.00     0.210 HD
ATOM     17  H8  UNL     1      15.622  -3.126  11.519  1.00  0.00     0.190 HD
ENDBRANCH   7   9
BRANCH   8  18
HETATM   18  S1  UNL     1      15.227   0.633  12.670  1.00  0.00     0.262 S 
HETATM   19  O1  UNL     1      15.303   2.104  12.874  1.00  0.00    -0.201 OA
HETATM   20  O2  UNL     1      15.872   0.460  11.263  1.00  0.00    -0.201 OA
BRANCH  18  21
HETATM   21  N9  UNL     1      13.630   0.028  12.435  1.00  0.00    -0.324 N 
ATOM     22  H92 UNL     1      13.396  -0.666  11.726  1.00  0.00     0.169 HD
ATOM     23  H91 UNL     1      12.964   0.446  13.085  1.00  0.00     0.169 HD
ENDBRANCH  18  21
ENDBRANCH   8  18
BRANCH   4  24
HETATM   24  N3  UNL     1      18.156  -2.436  16.658  1.00  0.00    -0.234 N 
ATOM     25  H32 UNL     1      19.095  -2.170  16.952  1.00  0.00     0.174 HD
ATOM     26  H31 UNL     1      17.746  -3.258  17.101  1.00  0.00     0.174 HD
ENDBRANCH   4  24
BRANCH   1  27
HETATM   27  N1  UNL     1      15.319   1.004  15.451  1.00  0.00    -0.371 N 
ATOM     28  H1  UNL     1      15.638   1.920  15.137  1.00  0.00     0.161 HD
BRANCH  27  29
HETATM   29  C2  UNL     1      14.100   0.951  16.153  1.00  0.00     0.075 C 
HETATM   30  C1  UNL     1      14.205   1.217  17.647  1.00  0.00     0.031 C 
HETATM   31  C3  UNL     1      12.982   1.795  15.603  1.00  0.00     0.031 C 
ENDBRANCH  27  29
ENDBRANCH   1  27
TORSDOF 6
ENDMDL
MODEL 4
REMARK VINA RESULT: -5.295864866      2.427      4.036
REMARK  6 active torsions:
REMARK  status: ('A' for Active; 'I' for Inactive)
REMARK    1  A    between atoms: C2_2  and  N1_4 
REMARK    2  A    between atoms: N1_4  and  C4_6 
REMARK    3  A    between atoms: C5_9  and  N3_10 
REMARK    4  A    between atoms: C6_15  and  C7_16 
REMARK    5  A    between atoms: C8_25  and  S1_26 
REMARK    6  A    between atoms: S1_26  and  N9_27 
ROOT
HETATM    1  C4  UNL     1      15.699  -0.831  15.274  1.00  0.00     0.143 A 
HETATM    2  N2  UNL     1      14.656  -0.175  15.807  1.00  0.00    -0.176 N 
ATOM      3  H2  UNL     1      14.266  -0.501  16.691  1.00  0.00     0.186 HD
HETATM    4  C5  UNL     1      14.108   0.900  15.210  1.00  0.00     0.678 A 
HETATM    5  N4  UNL     1      14.646   1.293  14.057  1.00  0.00    -0.186 N 
ATOM      6  H4  UNL     1      14.239   2.106  13.595  1.00  0.00     0.184 HD
HETATM    7  C6  UNL     1      15.704   0.681  13.451  1.00  0.00     0.123 A 
HETATM    8  C8  UNL     1      16.274  -0.412  14.045  1.00  0.00     0.154 A 
ENDROOT
BRANCH   7   9
HETATM    9  C7  UNL     1      16.197   1.153  12.169  1.00  0.00     0.166 A 
HETATM   10  N5  UNL     1      16.264   2.478  11.892  1.00  0.00    -0.267 N 
HETATM   11  N6  UNL     1      16.714   2.643  10.671  1.00  0.00    -0.227 N 
ATOM     12  H5  UNL     1      16.006   3.228  12.533  1.00  0.00     0.190 HD
HETATM   13  N7  UNL     1      16.931   1.450  10.170  1.00  0.00    -0.227 N 
ATOM     14  H6  UNL     1      16.866   3.534  10.197  1.00  0.00     0.210 HD
HETATM   15  N8  UNL     1      16.618   0.565  11.076  1.00  0.00    -0.267 N 
ATOM     16  H7  UNL     1      17.284   1.249   9.234  1.00  0.00     0.210 HD
ATOM     17  H8  UNL     1      16.692  -0.445  10.952  1.00  0.00     0.190 HD
ENDBRANCH   7   9
BRANCH   8  18
HETATM   18  S1  UNL     1      17.619  -1.306  13.416  1.00  0.00     0.262 S 
HETATM   19  O1  UNL     1      18.654  -0.501  12.713  1.00  0.00    -0.201 OA
HETATM   20  O2  UNL     1      18.417  -1.891  14.619  1.00  0.00    -0.201 OA
BRANCH  18  21
HETATM   21  N9  UNL     1      17.117  -2.718  12.566  1.00  0.00    -0.324 N 
ATOM     22  H92 UNL     1      17.756  -3.469  12.306  1.00  0.00     0.169 HD
ATOM     23  H91 UNL     1      16.117  -2.706  12.361  1.00  0.00     0.169 HD
ENDBRANCH  18  21
ENDBRANCH   8  18
BRANCH   4  24
HETATM   24  N3  UNL     1      13.095   1.528  15.741  1.00  0.00    -0.234 N 
ATOM     25  H32 UNL     1      12.716   1.259  16.648  1.00  0.00     0.174 HD
ATOM     26  H31 UNL     1      12.648   2.311  15.264  1.00  0.00     0.174 HD
ENDBRANCH   4  24
BRANCH   1  27
HETATM   27  N1  UNL     1      16.244  -1.851  15.802  1.00  0.00    -0.371 N 
ATOM     28  H1  UNL     1      17.258  -1.831  15.919  1.00  0.00     0.161 HD
BRANCH  27  29
HETATM   29  C2  UNL     1      15.567  -3.005  16.239  1.00  0.00     0.075 C 
HETATM   30  C1  UNL     1      14.785  -3.740  15.161  1.00  0.00     0.031 C 
HETATM   31  C3  UNL     1      16.394  -4.013  16.990  1.00  0.00     0.031 C 
ENDBRANCH  27  29
ENDBRANCH   1  27
TORSDOF 6
ENDMDL
MODEL 5
REMARK VINA RESULT: -5.193944231      2.961      5.415
REMARK  6 active torsions:
REMARK  status: ('A' for Active; 'I' for Inactive)
REMARK    1  A    between atoms: C2_2  and  N1_4 
REMARK    2  A    between atoms: N1_4  and  C4_6 
REMARK    3  A    between atoms: C5_9  and  N3_10 
REMARK    4  A    between atoms: C6_15  and  C7_16 
REMARK    5  A    between atoms: C8_25  and  S1_26 
REMARK    6  A    between atoms: S1_26  and  N9_27 
ROOT
HETATM    1  C4  UNL     1      15.153  -0.351  13.063  1.00  0.00     0.143 A 
HETATM    2  N2  UNL     1      15.832   0.404  12.184  1.00  0.00    -0.176 N 
ATOM      3  H2  UNL     1      15.499   1.345  11.979  1.00  0.00     0.186 HD
HETATM    4  C5  UNL     1      16.940  -0.045  11.565  1.00  0.00     0.678 A 
HETATM    5  N4  UNL     1      17.340  -1.281  11.860  1.00  0.00    -0.186 N 
ATOM      6  H4  UNL     1      18.179  -1.631  11.396  1.00  0.00     0.184 HD
HETATM    7  C6  UNL     1      16.707  -2.109  12.739  1.00  0.00     0.123 A 
HETATM    8  C8  UNL     1      15.581  -1.667  13.378  1.00  0.00     0.154 A 
ENDROOT
BRANCH   7   9
HETATM    9  C7  UNL     1      17.191  -3.458  12.966  1.00  0.00     0.166 A 
HETATM   10  N5  UNL     1      16.842  -4.473  12.138  1.00  0.00    -0.267 N 
HETATM   11  N6  UNL     1      17.381  -5.589  12.569  1.00  0.00    -0.227 N 
ATOM     12  H5  UNL     1      16.253  -4.383  11.311  1.00  0.00     0.190 HD
HETATM   13  N7  UNL     1      18.064  -5.300  13.652  1.00  0.00    -0.227 N 
ATOM     14  H6  UNL     1      17.288  -6.510  12.141  1.00  0.00     0.210 HD
HETATM   15  N8  UNL     1      17.943  -4.021  13.880  1.00  0.00    -0.267 N 
ATOM     16  H7  UNL     1      18.597  -5.962  14.217  1.00  0.00     0.210 HD
ATOM     17  H8  UNL     1      18.374  -3.527  14.662  1.00  0.00     0.190 HD
ENDBRANCH   7   9
BRANCH   8  18
HETATM   18  S1  UNL     1      14.655  -2.584  14.522  1.00  0.00     0.262 S 
HETATM   19  O1  UNL     1      13.178  -2.492  14.374  1.00  0.00    -0.201 OA
HETATM   20  O2  UNL     1      14.921  -4.096  14.260  1.00  0.00    -0.201 OA
BRANCH  18  21
HETATM   21  N9  UNL     1      15.224  -2.369  16.135  1.00  0.00    -0.324 N 
ATOM     22  H92 UNL     1      14.616  -2.425  16.952  1.00  0.00     0.169 HD
ATOM     23  H91 UNL     1      16.226  -2.184  16.165  1.00  0.00     0.169 HD
ENDBRANCH  18  21
ENDBRANCH   8  18
BRANCH   4  24
HETATM   24  N3  UNL     1      17.590   0.700  10.714  1.00  0.00    -0.234 N 
ATOM     25  H32 UNL     1      17.385   0.673   9.715  1.00  0.00     0.174 HD
ATOM     26  H31 UNL     1      18.327   1.335  11.019  1.00  0.00     0.174 HD
ENDBRANCH   4  24
BRANCH   1  27
HETATM   27  N1  UNL     1      14.102   0.032  13.667  1.00  0.00    -0.371 N 
ATOM     28  H1  UNL     1      13.251  -0.510  13.515  1.00  0.00     0.161 HD
BRANCH  27  29
HETATM   29  C2  UNL     1      14.013   1.143  14.527  1.00  0.00     0.075 C 
HETATM   30  C1  UNL     1      12.602   1.520  14.950  1.00  0.00     0.031 C 
HETATM   31  C3  UNL     1      14.876   1.096  15.759  1.00  0.00     0.031 C 
ENDBRANCH  27  29
ENDBRANCH   1  27
TORSDOF 6
ENDMDL
