MODEL 1
REMARK VINA RESULT: -5.455262614      0.000      0.000
REMARK  5 active torsions:
REMARK  status: ('A' for Active; 'I' for Inactive)
REMARK    1  A    between atoms: C4_5  and  C5_6 
REMARK    2  A    between atoms: C4_5  and  S2_21 
REMARK       I    between atoms: C5_6  and  N2_8 
REMARK    3  A    between atoms: N2_8  and  N3_9 
REMARK    4  A    between atoms: C7_16  and  N6_17 
REMARK    5  A    between atoms: S2_21  and  N7_23 
ROOT
HETATM    1  C5  UNL     1      16.939  -0.509  14.351  1.00  0.00     0.336 C 
HETATM    2  O1  UNL     1      18.017  -1.046  14.666  1.00  0.00    -0.253 OA
HETATM    3  N2  UNL     1      16.019   0.103  15.147  1.00  0.00    -0.283 NA
ENDROOT
BRANCH   1   4
HETATM    4  C4  UNL     1      16.647  -0.563  12.856  1.00  0.00     0.167 C 
HETATM    5  C3  UNL     1      17.929  -0.499  12.120  1.00  0.00     0.067 C 
HETATM    6  C2  UNL     1      17.924   0.730  11.273  1.00  0.00     0.274 C 
HETATM    7  N1  UNL     1      16.631   1.329  11.384  1.00  0.00     0.086 N 
HETATM    8  C1  UNL     1      16.605   2.763  11.352  1.00  0.00     0.310 C 
HETATM    9  C9  UNL     1      15.933   0.714  12.455  1.00  0.00     0.306 C 
BRANCH   4  10
HETATM   10  S2  UNL     1      15.603  -1.914  12.448  1.00  0.00     0.035 S 
HETATM   11  C8  UNL     1      16.298  -3.498  12.731  1.00  0.00     0.137 C 
HETATM   12  O2  UNL     1      15.114  -1.766  11.014  1.00  0.00    -0.249 OA
BRANCH  10  13
HETATM   13  N7  UNL     1      14.273  -1.815  13.303  1.00  0.00    -0.359 N 
ATOM     14  H72 UNL     1      14.234  -1.847  14.321  1.00  0.00     0.165 HD
ATOM     15  H71 UNL     1      13.479  -1.716  12.671  1.00  0.00     0.165 HD
ENDBRANCH  10  13
ENDBRANCH   4  10
ENDBRANCH   1   4
BRANCH   3  16
HETATM   16  N3  UNL     1      15.151   0.678  15.897  1.00  0.00    -0.208 N 
HETATM   17  C6  UNL     1      14.035   1.268  15.821  1.00  0.00     0.192 A 
HETATM   18  N4  UNL     1      13.235   1.551  14.793  1.00  0.00    -0.276 N 
HETATM   19  S1  UNL     1      13.125   1.948  17.139  1.00  0.00    -0.013 SA
HETATM   20  N5  UNL     1      12.139   2.169  14.986  1.00  0.00    -0.278 N 
ATOM     21  H4  UNL     1      13.501   1.270  13.849  1.00  0.00     0.189 HD
HETATM   22  C7  UNL     1      11.807   2.529  16.228  1.00  0.00     0.160 A 
ATOM     23  H5  UNL     1      11.524   2.387  14.203  1.00  0.00     0.189 HD
ATOM     24  H3  UNL     1      15.462   0.652  16.869  1.00  0.00     0.204 HD
BRANCH  22  25
HETATM   25  N6  UNL     1      10.723   3.169  16.617  1.00  0.00    -0.378 N 
ATOM     26  H62 UNL     1      10.292   3.231  17.539  1.00  0.00     0.158 HD
ATOM     27  H61 UNL     1      10.097   3.737  16.047  1.00  0.00     0.158 HD
ENDBRANCH  22  25
ENDBRANCH   3  16
TORSDOF 5
ENDMDL
MODEL 2
REMARK VINA RESULT: -5.427569970      3.150      3.219
REMARK  5 active torsions:
REMARK  status: ('A' for Active; 'I' for Inactive)
REMARK    1  A    between atoms: C4_5  and  C5_6 
REMARK    2  A    between atoms: C4_5  and  S2_21 
REMARK       I    between atoms: C5_6  and  N2_8 
REMARK    3  A    between atoms: N2_8  and  N3_9 
REMARK    4  A    between atoms: C7_16  and  N6_17 
REMARK    5  A    between atoms: S2_21  and  N7_23 
ROOT
HETATM    1  C5  UNL     1      18.088  -1.016  13.512  1.00  0.00     0.336 C 
HETATM    2  O1  UNL     1      19.308  -1.059  13.271  1.00  0.00    -0.253 OA
HETATM    3  N2  UNL     1      17.445  -1.092  14.710  1.00  0.00    -0.283 NA
ENDROOT
BRANCH   1   4
HETATM    4  C4  UNL     1      17.227  -0.852  12.265  1.00  0.00     0.167 C 
HETATM    5  C3  UNL     1      18.086  -0.389  11.153  1.00  0.00     0.067 C 
HETATM    6  C2  UNL     1      17.595   0.947  10.704  1.00  0.00     0.274 C 
HETATM    7  N1  UNL     1      16.395   1.234  11.425  1.00  0.00     0.086 N 
HETATM    8  C1  UNL     1      16.189   2.612  11.767  1.00  0.00     0.310 C 
HETATM    9  C9  UNL     1      16.266   0.300  12.486  1.00  0.00     0.306 C 
BRANCH   4  10
HETATM   10  S2  UNL     1      16.275  -2.291  11.940  1.00  0.00     0.035 S 
HETATM   11  C8  UNL     1      16.195  -2.759  10.253  1.00  0.00     0.137 C 
HETATM   12  O2  UNL     1      14.886  -2.131  12.543  1.00  0.00    -0.249 OA
BRANCH  10  13
HETATM   13  N7  UNL     1      16.888  -3.508  12.747  1.00  0.00    -0.359 N 
ATOM     14  H72 UNL     1      17.271  -3.446  13.690  1.00  0.00     0.165 HD
ATOM     15  H71 UNL     1      16.836  -4.348  12.171  1.00  0.00     0.165 HD
ENDBRANCH  10  13
ENDBRANCH   4  10
ENDBRANCH   1   4
BRANCH   3  16
HETATM   16  N3  UNL     1      16.840  -1.164  15.839  1.00  0.00    -0.208 N 
HETATM   17  C6  UNL     1      16.723  -0.525  16.925  1.00  0.00     0.192 A 
HETATM   18  N4  UNL     1      17.256   0.617  17.360  1.00  0.00    -0.276 N 
HETATM   19  S1  UNL     1      15.750  -0.973  18.296  1.00  0.00    -0.013 SA
HETATM   20  N5  UNL     1      16.970   1.055  18.520  1.00  0.00    -0.278 N 
ATOM     21  H4  UNL     1      17.894   1.141  16.761  1.00  0.00     0.189 HD
HETATM   22  C7  UNL     1      16.133   0.357  19.290  1.00  0.00     0.160 A 
ATOM     23  H5  UNL     1      17.376   1.929  18.857  1.00  0.00     0.189 HD
ATOM     24  H3  UNL     1      16.270  -2.009  15.873  1.00  0.00     0.204 HD
BRANCH  22  25
HETATM   25  N6  UNL     1      15.725   0.652  20.508  1.00  0.00    -0.378 N 
ATOM     26  H62 UNL     1      16.185   1.191  21.242  1.00  0.00     0.158 HD
ATOM     27  H61 UNL     1      14.848   0.383  20.953  1.00  0.00     0.158 HD
ENDBRANCH  22  25
ENDBRANCH   3  16
TORSDOF 5
ENDMDL
MODEL 3
REMARK VINA RESULT: -5.418903706      1.125      1.125
REMARK  5 active torsions:
REMARK  status: ('A' for Active; 'I' for Inactive)
REMARK    1  A    between atoms: C4_5  and  C5_6 
REMARK    2  A    between atoms: C4_5  and  S2_21 
REMARK       I    between atoms: C5_6  and  N2_8 
REMARK    3  A    between atoms: N2_8  and  N3_9 
REMARK    4  A    between atoms: C7_16  and  N6_17 
REMARK    5  A    between atoms: S2_21  and  N7_23 
ROOT
HETATM    1  C5  UNL     1      17.343  -0.878  14.075  1.00  0.00     0.336 C 
HETATM    2  O1  UNL     1      18.403  -1.475  14.337  1.00  0.00    -0.253 OA
HETATM    3  N2  UNL     1      16.455  -0.289  14.923  1.00  0.00    -0.283 NA
ENDROOT
BRANCH   1   4
HETATM    4  C4  UNL     1      17.033  -0.817  12.584  1.00  0.00     0.167 C 
HETATM    5  C3  UNL     1      18.270  -0.457  11.856  1.00  0.00     0.067 C 
HETATM    6  C2  UNL     1      18.041   0.839  11.151  1.00  0.00     0.274 C 
HETATM    7  N1  UNL     1      16.668   1.195  11.330  1.00  0.00     0.086 N 
HETATM    8  C1  UNL     1      16.401   2.598  11.458  1.00  0.00     0.310 C 
HETATM    9  C9  UNL     1      16.106   0.356  12.328  1.00  0.00     0.306 C 
BRANCH   4  10
HETATM   10  S2  UNL     1      16.223  -2.272  12.030  1.00  0.00     0.035 S 
HETATM   11  C8  UNL     1      16.267  -2.528  10.295  1.00  0.00     0.137 C 
HETATM   12  O2  UNL     1      14.797  -2.297  12.562  1.00  0.00    -0.249 OA
BRANCH  10  13
HETATM   13  N7  UNL     1      16.895  -3.531  12.717  1.00  0.00    -0.359 N 
ATOM     14  H72 UNL     1      17.838  -3.546  13.104  1.00  0.00     0.165 HD
ATOM     15  H71 UNL     1      16.234  -4.308  12.705  1.00  0.00     0.165 HD
ENDBRANCH  10  13
ENDBRANCH   4  10
ENDBRANCH   1   4
BRANCH   3  16
HETATM   16  N3  UNL     1      15.618   0.265  15.722  1.00  0.00    -0.208 N 
HETATM   17  C6  UNL     1      14.540   0.926  15.699  1.00  0.00     0.192 A 
HETATM   18  N4  UNL     1      13.765   1.350  14.702  1.00  0.00    -0.276 N 
HETATM   19  S1  UNL     1      13.662   1.533  17.074  1.00  0.00    -0.013 SA
HETATM   20  N5  UNL     1      12.707   2.012  14.950  1.00  0.00    -0.278 N 
ATOM     21  H4  UNL     1      14.020   1.143  13.736  1.00  0.00     0.189 HD
HETATM   22  C7  UNL     1      12.388   2.274  16.219  1.00  0.00     0.160 A 
ATOM     23  H5  UNL     1      12.111   2.339  14.189  1.00  0.00     0.189 HD
ATOM     24  H3  UNL     1      15.920   0.130  16.688  1.00  0.00     0.204 HD
BRANCH  22  25
HETATM   25  N6  UNL     1      11.342   2.939  16.665  1.00  0.00    -0.378 N 
ATOM     26  H62 UNL     1      10.788   3.669  16.217  1.00  0.00     0.158 HD
ATOM     27  H61 UNL     1      10.881   2.843  17.570  1.00  0.00     0.158 HD
ENDBRANCH  22  25
ENDBRANCH   3  16
TORSDOF 5
ENDMDL
MODEL 4
REMARK VINA RESULT: -5.345265414      1.747      3.184
REMARK  5 active torsions:
REMARK  status: ('A' for Active; 'I' for Inactive)
REMARK    1  A    between atoms: C4_5  and  C5_6 
REMARK    2  A    between atoms: C4_5  and  S2_21 
REMARK       I    between atoms: C5_6  and  N2_8 
REMARK    3  A    between atoms: N2_8  and  N3_9 
REMARK    4  A    between atoms: C7_16  and  N6_17 
REMARK    5  A    between atoms: S2_21  and  N7_23 
ROOT
HETATM    1  C5  UNL     1      14.944  -0.295  12.873  1.00  0.00     0.336 C 
HETATM    2  O1  UNL     1      14.283  -0.322  11.819  1.00  0.00    -0.253 OA
HETATM    3  N2  UNL     1      14.611   0.230  14.083  1.00  0.00    -0.283 NA
ENDROOT
BRANCH   1   4
HETATM    4  C4  UNL     1      16.313  -0.955  12.748  1.00  0.00     0.167 C 
HETATM    5  C3  UNL     1      16.129  -2.422  12.684  1.00  0.00     0.067 C 
HETATM    6  C2  UNL     1      16.818  -3.034  13.859  1.00  0.00     0.274 C 
HETATM    7  N1  UNL     1      17.515  -1.992  14.546  1.00  0.00     0.086 N 
HETATM    8  C1  UNL     1      17.568  -2.116  15.973  1.00  0.00     0.310 C 
HETATM    9  C9  UNL     1      17.075  -0.740  14.042  1.00  0.00     0.306 C 
BRANCH   4  10
HETATM   10  S2  UNL     1      17.256  -0.251  11.445  1.00  0.00     0.035 S 
HETATM   11  C8  UNL     1      17.172  -1.115   9.922  1.00  0.00     0.137 C 
HETATM   12  O2  UNL     1      18.695  -0.062  11.902  1.00  0.00    -0.249 OA
BRANCH  10  13
HETATM   13  N7  UNL     1      16.754   1.228  11.186  1.00  0.00    -0.359 N 
ATOM     14  H72 UNL     1      16.083   1.725  11.771  1.00  0.00     0.165 HD
ATOM     15  H71 UNL     1      17.209   1.591  10.348  1.00  0.00     0.165 HD
ENDBRANCH  10  13
ENDBRANCH   4  10
ENDBRANCH   1   4
BRANCH   3  16
HETATM   16  N3  UNL     1      14.297   0.725  15.225  1.00  0.00    -0.208 N 
HETATM   17  C6  UNL     1      13.509   1.573  15.735  1.00  0.00     0.192 A 
HETATM   18  N4  UNL     1      12.586   2.377  15.208  1.00  0.00    -0.276 N 
HETATM   19  S1  UNL     1      13.374   1.985  17.420  1.00  0.00    -0.013 SA
HETATM   20  N5  UNL     1      11.912   3.156  15.956  1.00  0.00    -0.278 N 
ATOM     21  H4  UNL     1      12.420   2.369  14.201  1.00  0.00     0.189 HD
HETATM   22  C7  UNL     1      12.143   3.154  17.270  1.00  0.00     0.160 A 
ATOM     23  H5  UNL     1      11.205   3.773  15.556  1.00  0.00     0.189 HD
ATOM     24  H3  UNL     1      14.865   0.298  15.956  1.00  0.00     0.204 HD
BRANCH  22  25
HETATM   25  N6  UNL     1      11.549   3.884  18.192  1.00  0.00    -0.378 N 
ATOM     26  H62 UNL     1      11.427   4.895  18.251  1.00  0.00     0.158 HD
ATOM     27  H61 UNL     1      11.090   3.560  19.043  1.00  0.00     0.158 HD
ENDBRANCH  22  25
ENDBRANCH   3  16
TORSDOF 5
ENDMDL
MODEL 5
REMARK VINA RESULT: -5.259574994      2.595      4.240
REMARK  5 active torsions:
REMARK  status: ('A' for Active; 'I' for Inactive)
REMARK    1  A    between atoms: C4_5  and  C5_6 
REMARK    2  A    between atoms: C4_5  and  S2_21 
REMARK       I    between atoms: C5_6  and  N2_8 
REMARK    3  A    between atoms: N2_8  and  N3_9 
REMARK    4  A    between atoms: C7_16  and  N6_17 
REMARK    5  A    between atoms: S2_21  and  N7_23 
ROOT
HETATM    1  C5  UNL     1      15.620   1.118  13.088  1.00  0.00     0.336 C 
HETATM    2  O1  UNL     1      15.523   2.076  12.299  1.00  0.00    -0.253 OA
HETATM    3  N2  UNL     1      15.372   1.078  14.426  1.00  0.00    -0.283 NA
ENDROOT
BRANCH   1   4
HETATM    4  C4  UNL     1      16.081  -0.174  12.421  1.00  0.00     0.167 C 
HETATM    5  C3  UNL     1      14.889  -0.973  12.061  1.00  0.00     0.067 C 
HETATM    6  C2  UNL     1      14.948  -2.266  12.805  1.00  0.00     0.274 C 
HETATM    7  N1  UNL     1      16.199  -2.315  13.495  1.00  0.00     0.086 N 
HETATM    8  C1  UNL     1      16.180  -2.964  14.774  1.00  0.00     0.310 C 
HETATM    9  C9  UNL     1      16.792  -1.026  13.456  1.00  0.00     0.306 C 
BRANCH   4  10
HETATM   10  S2  UNL     1      17.210   0.138  11.114  1.00  0.00     0.035 S 
HETATM   11  C8  UNL     1      17.341  -1.147   9.928  1.00  0.00     0.137 C 
HETATM   12  O2  UNL     1      18.569   0.508  11.690  1.00  0.00    -0.249 OA
BRANCH  10  13
HETATM   13  N7  UNL     1      16.764   1.452  10.349  1.00  0.00    -0.359 N 
ATOM     14  H72 UNL     1      17.403   2.106   9.899  1.00  0.00     0.165 HD
ATOM     15  H71 UNL     1      15.748   1.528  10.385  1.00  0.00     0.165 HD
ENDBRANCH  10  13
ENDBRANCH   4  10
ENDBRANCH   1   4
BRANCH   3  16
HETATM   16  N3  UNL     1      15.140   1.040  15.687  1.00  0.00    -0.208 N 
HETATM   17  C6  UNL     1      15.673   0.648  16.765  1.00  0.00     0.192 A 
HETATM   18  N4  UNL     1      16.833   0.047  17.029  1.00  0.00    -0.276 N 
HETATM   19  S1  UNL     1      15.006   0.786  18.366  1.00  0.00    -0.013 SA
HETATM   20  N5  UNL     1      17.141  -0.250  18.228  1.00  0.00    -0.278 N 
ATOM     21  H4  UNL     1      17.475  -0.177  16.268  1.00  0.00     0.189 HD
HETATM   22  C7  UNL     1      16.290   0.050  19.211  1.00  0.00     0.160 A 
ATOM     23  H5  UNL     1      18.028  -0.711  18.434  1.00  0.00     0.189 HD
ATOM     24  H3  UNL     1      14.232   1.463  15.885  1.00  0.00     0.204 HD
BRANCH  22  25
HETATM   25  N6  UNL     1      16.437  -0.178  20.500  1.00  0.00    -0.378 N 
ATOM     26  H62 UNL     1      17.069  -0.815  20.987  1.00  0.00     0.158 HD
ATOM     27  H61 UNL     1      15.929   0.254  21.271  1.00  0.00     0.158 HD
ENDBRANCH  22  25
ENDBRANCH   3  16
TORSDOF 5
ENDMDL
