MODEL 1
REMARK VINA RESULT: -5.839471296      0.000      0.000
REMARK  5 active torsions:
REMARK  status: ('A' for Active; 'I' for Inactive)
REMARK    1  A    between atoms: O1_2  and  C2_3 
REMARK    2  A    between atoms: C2_3  and  C3_5 
REMARK    3  A    between atoms: C4_6  and  N1_7 
REMARK    4  A    between atoms: C10_16  and  N4_17 
REMARK    5  A    between atoms: C11_22  and  N6_23 
REMARK       I    between atoms: N6_23  and  C12_25 
REMARK       I    between atoms: C12_25  and  N7_26 
REMARK       I    between atoms: C12_25  and  N8_30 
ROOT
HETATM    1  C3  UNL     1      15.780  -1.283  12.863  1.00  0.00     0.128 A 
HETATM    2  C4  UNL     1      16.017  -1.468  14.191  1.00  0.00     0.139 A 
HETATM    3  N3  UNL     1      16.672  -2.581  14.608  1.00  0.00    -0.176 N 
ATOM      4  H3  UNL     1      16.851  -2.721  15.602  1.00  0.00     0.186 HD
HETATM    5  C10 UNL     1      17.084  -3.496  13.722  1.00  0.00     0.679 A 
HETATM    6  N5  UNL     1      16.840  -3.296  12.413  1.00  0.00    -0.176 N 
ATOM      7  H5  UNL     1      17.166  -4.010  11.762  1.00  0.00     0.186 HD
HETATM    8  C11 UNL     1      16.203  -2.234  11.893  1.00  0.00     0.140 A 
ENDROOT
BRANCH   8   9
HETATM    9  N6  UNL     1      15.932  -1.967  10.715  1.00  0.00    -0.326 N 
HETATM   10  C12 UNL     1      16.599  -1.823   9.525  1.00  0.00     0.481 C 
HETATM   11  N7  UNL     1      15.867  -2.633   8.491  1.00  0.00    -0.033 N 
HETATM   12  N8  UNL     1      17.976  -2.218   9.528  1.00  0.00    -0.033 N 
ATOM     13  H73 UNL     1      15.748  -3.608   8.763  1.00  0.00     0.278 HD
ATOM     14  H72 UNL     1      14.879  -2.390   8.423  1.00  0.00     0.278 HD
ATOM     15  H71 UNL     1      16.363  -2.526   7.605  1.00  0.00     0.278 HD
ATOM     16  H83 UNL     1      18.477  -1.724  10.268  1.00  0.00     0.278 HD
ATOM     17  H82 UNL     1      18.061  -3.179   9.860  1.00  0.00     0.278 HD
ATOM     18  H81 UNL     1      18.472  -2.111   8.643  1.00  0.00     0.278 HD
ATOM     19  H6  UNL     1      14.932  -1.809  10.596  1.00  0.00     0.164 HD
ENDBRANCH   8   9
BRANCH   1  20
HETATM   20  C2  UNL     1      15.093  -0.106  12.404  1.00  0.00     0.300 C 
HETATM   21  O2  UNL     1      13.909  -0.309  11.956  1.00  0.00    -0.259 OA
BRANCH  20  22
HETATM   22  O1  UNL     1      15.603   1.185  12.412  1.00  0.00    -0.322 OA
HETATM   23  C1  UNL     1      16.493   1.528  11.354  1.00  0.00     0.213 C 
ENDBRANCH  20  22
ENDBRANCH   1  20
BRANCH   2  24
HETATM   24  N1  UNL     1      15.575  -0.481  15.103  1.00  0.00    -0.363 N 
HETATM   25  C5  UNL     1      16.449   0.535  15.656  1.00  0.00     0.154 C 
HETATM   26  C6  UNL     1      16.381   0.369  17.167  1.00  0.00     0.291 C 
HETATM   27  N2  UNL     1      15.018   0.445  17.583  1.00  0.00     0.087 N 
HETATM   28  C7  UNL     1      14.983   0.280  19.028  1.00  0.00     0.310 C 
HETATM   29  C8  UNL     1      14.157  -0.564  17.025  1.00  0.00     0.291 C 
HETATM   30  C9  UNL     1      14.190  -0.446  15.527  1.00  0.00     0.154 C 
ENDBRANCH   2  24
BRANCH   5  31
HETATM   31  N4  UNL     1      17.717  -4.573  14.127  1.00  0.00    -0.234 N 
ATOM     32  H42 UNL     1      18.697  -4.720  13.886  1.00  0.00     0.174 HD
ATOM     33  H41 UNL     1      17.233  -5.273  14.688  1.00  0.00     0.174 HD
ENDBRANCH   5  31
TORSDOF 5
ENDMDL
MODEL 2
REMARK VINA RESULT: -5.709912102      1.908      2.274
REMARK  5 active torsions:
REMARK  status: ('A' for Active; 'I' for Inactive)
REMARK    1  A    between atoms: O1_2  and  C2_3 
REMARK    2  A    between atoms: C2_3  and  C3_5 
REMARK    3  A    between atoms: C4_6  and  N1_7 
REMARK    4  A    between atoms: C10_16  and  N4_17 
REMARK    5  A    between atoms: C11_22  and  N6_23 
REMARK       I    between atoms: N6_23  and  C12_25 
REMARK       I    between atoms: C12_25  and  N7_26 
REMARK       I    between atoms: C12_25  and  N8_30 
ROOT
HETATM    1  C3  UNL     1      16.104  -0.232  13.440  1.00  0.00     0.128 A 
HETATM    2  C4  UNL     1      15.526  -0.556  14.630  1.00  0.00     0.139 A 
HETATM    3  N3  UNL     1      16.198  -1.341  15.511  1.00  0.00    -0.176 N 
ATOM      4  H3  UNL     1      15.769  -1.585  16.403  1.00  0.00     0.186 HD
HETATM    5  C10 UNL     1      17.422  -1.798  15.214  1.00  0.00     0.679 A 
HETATM    6  N5  UNL     1      17.975  -1.467  14.032  1.00  0.00    -0.176 N 
ATOM      7  H5  UNL     1      18.908  -1.829  13.835  1.00  0.00     0.186 HD
HETATM    8  C11 UNL     1      17.401  -0.699  13.091  1.00  0.00     0.140 A 
ENDROOT
BRANCH   8   9
HETATM    9  N6  UNL     1      17.826  -0.346  11.984  1.00  0.00    -0.326 N 
HETATM   10  C12 UNL     1      17.887  -0.850  10.709  1.00  0.00     0.481 C 
HETATM   11  N7  UNL     1      17.388   0.215   9.773  1.00  0.00    -0.033 N 
HETATM   12  N8  UNL     1      17.146  -2.053  10.476  1.00  0.00    -0.033 N 
ATOM     13  H73 UNL     1      16.459   0.556  10.020  1.00  0.00     0.278 HD
ATOM     14  H72 UNL     1      17.887   1.098   9.874  1.00  0.00     0.278 HD
ATOM     15  H71 UNL     1      17.433  -0.159   8.824  1.00  0.00     0.278 HD
ATOM     16  H83 UNL     1      17.427  -2.769  11.146  1.00  0.00     0.278 HD
ATOM     17  H82 UNL     1      16.172  -1.919  10.750  1.00  0.00     0.278 HD
ATOM     18  H81 UNL     1      17.191  -2.427   9.528  1.00  0.00     0.278 HD
ATOM     19  H6  UNL     1      18.251   0.580  12.033  1.00  0.00     0.164 HD
ENDBRANCH   8   9
BRANCH   1  20
HETATM   20  C2  UNL     1      15.408   0.604  12.500  1.00  0.00     0.300 C 
HETATM   21  O2  UNL     1      14.768  -0.025  11.584  1.00  0.00    -0.259 OA
BRANCH  20  22
HETATM   22  O1  UNL     1      15.381   1.991  12.514  1.00  0.00    -0.322 OA
HETATM   23  C1  UNL     1      16.315   2.658  11.669  1.00  0.00     0.213 C 
ENDBRANCH  20  22
ENDBRANCH   1  20
BRANCH   2  24
HETATM   24  N1  UNL     1      14.235  -0.054  14.918  1.00  0.00    -0.363 N 
HETATM   25  C5  UNL     1      14.010   1.200  15.609  1.00  0.00     0.154 C 
HETATM   26  C6  UNL     1      13.188   0.857  16.843  1.00  0.00     0.291 C 
HETATM   27  N2  UNL     1      12.008   0.162  16.438  1.00  0.00     0.087 N 
HETATM   28  C7  UNL     1      11.245  -0.156  17.635  1.00  0.00     0.310 C 
HETATM   29  C8  UNL     1      12.243  -1.079  15.748  1.00  0.00     0.291 C 
HETATM   30  C9  UNL     1      13.058  -0.797  14.518  1.00  0.00     0.154 C 
ENDBRANCH   2  24
BRANCH   5  31
HETATM   31  N4  UNL     1      18.070  -2.557  16.066  1.00  0.00    -0.234 N 
ATOM     32  H42 UNL     1      17.667  -3.436  16.389  1.00  0.00     0.174 HD
ATOM     33  H41 UNL     1      18.986  -2.275  16.413  1.00  0.00     0.174 HD
ENDBRANCH   5  31
TORSDOF 5
ENDMDL
MODEL 3
REMARK VINA RESULT: -5.434180299      2.622      4.075
REMARK  5 active torsions:
REMARK  status: ('A' for Active; 'I' for Inactive)
REMARK    1  A    between atoms: O1_2  and  C2_3 
REMARK    2  A    between atoms: C2_3  and  C3_5 
REMARK    3  A    between atoms: C4_6  and  N1_7 
REMARK    4  A    between atoms: C10_16  and  N4_17 
REMARK    5  A    between atoms: C11_22  and  N6_23 
REMARK       I    between atoms: N6_23  and  C12_25 
REMARK       I    between atoms: C12_25  and  N7_26 
REMARK       I    between atoms: C12_25  and  N8_30 
ROOT
HETATM    1  C3  UNL     1      16.026  -0.352  14.031  1.00  0.00     0.128 A 
HETATM    2  C4  UNL     1      15.441  -0.427  15.258  1.00  0.00     0.139 A 
HETATM    3  N3  UNL     1      14.362   0.349  15.536  1.00  0.00    -0.176 N 
ATOM      4  H3  UNL     1      13.921   0.295  16.453  1.00  0.00     0.186 HD
HETATM    5  C10 UNL     1      13.873   1.185  14.611  1.00  0.00     0.679 A 
HETATM    6  N5  UNL     1      14.466   1.244  13.404  1.00  0.00    -0.176 N 
ATOM      7  H5  UNL     1      14.071   1.890  12.720  1.00  0.00     0.186 HD
HETATM    8  C11 UNL     1      15.535   0.524  13.024  1.00  0.00     0.140 A 
ENDROOT
BRANCH   8   9
HETATM    9  N6  UNL     1      16.145   0.512  11.948  1.00  0.00    -0.326 N 
HETATM   10  C12 UNL     1      16.648   1.423  11.053  1.00  0.00     0.481 C 
HETATM   11  N7  UNL     1      18.065   1.027  10.746  1.00  0.00    -0.033 N 
HETATM   12  N8  UNL     1      16.634   2.791  11.479  1.00  0.00    -0.033 N 
ATOM     13  H73 UNL     1      18.641   0.934  11.582  1.00  0.00     0.278 HD
ATOM     14  H72 UNL     1      18.146   0.064  10.419  1.00  0.00     0.278 HD
ATOM     15  H71 UNL     1      18.439   1.704  10.080  1.00  0.00     0.278 HD
ATOM     16  H83 UNL     1      15.689   3.060  11.753  1.00  0.00     0.278 HD
ATOM     17  H82 UNL     1      17.116   2.881  12.374  1.00  0.00     0.278 HD
ATOM     18  H81 UNL     1      17.009   3.468  10.813  1.00  0.00     0.278 HD
ATOM     19  H6  UNL     1      16.324  -0.443  11.638  1.00  0.00     0.164 HD
ENDBRANCH   8   9
BRANCH   1  20
HETATM   20  C2  UNL     1      17.166  -1.173  13.718  1.00  0.00     0.300 C 
HETATM   21  O2  UNL     1      18.266  -0.535  13.561  1.00  0.00    -0.259 OA
BRANCH  20  22
HETATM   22  O1  UNL     1      17.157  -2.553  13.581  1.00  0.00    -0.322 OA
HETATM   23  C1  UNL     1      16.239  -3.097  12.637  1.00  0.00     0.213 C 
ENDBRANCH  20  22
ENDBRANCH   1  20
BRANCH   2  24
HETATM   24  N1  UNL     1      15.976  -1.324  16.212  1.00  0.00    -0.363 N 
HETATM   25  C5  UNL     1      15.428  -2.644  16.452  1.00  0.00     0.154 C 
HETATM   26  C6  UNL     1      15.058  -2.682  17.928  1.00  0.00     0.291 C 
HETATM   27  N2  UNL     1      16.207  -2.348  18.705  1.00  0.00     0.087 N 
HETATM   28  C7  UNL     1      15.825  -2.389  20.108  1.00  0.00     0.310 C 
HETATM   29  C8  UNL     1      16.747  -1.038  18.456  1.00  0.00     0.291 C 
HETATM   30  C9  UNL     1      17.128  -0.944  17.005  1.00  0.00     0.154 C 
ENDBRANCH   2  24
BRANCH   5  31
HETATM   31  N4  UNL     1      12.830   1.935  14.881  1.00  0.00    -0.234 N 
ATOM     32  H42 UNL     1      12.945   2.925  15.096  1.00  0.00     0.174 HD
ATOM     33  H41 UNL     1      11.893   1.533  14.877  1.00  0.00     0.174 HD
ENDBRANCH   5  31
TORSDOF 5
ENDMDL
MODEL 4
REMARK VINA RESULT: -5.388382225      2.387      4.578
REMARK  5 active torsions:
REMARK  status: ('A' for Active; 'I' for Inactive)
REMARK    1  A    between atoms: O1_2  and  C2_3 
REMARK    2  A    between atoms: C2_3  and  C3_5 
REMARK    3  A    between atoms: C4_6  and  N1_7 
REMARK    4  A    between atoms: C10_16  and  N4_17 
REMARK    5  A    between atoms: C11_22  and  N6_23 
REMARK       I    between atoms: N6_23  and  C12_25 
REMARK       I    between atoms: C12_25  and  N7_26 
REMARK       I    between atoms: C12_25  and  N8_30 
ROOT
HETATM    1  C3  UNL     1      16.685  -1.019  12.416  1.00  0.00     0.128 A 
HETATM    2  C4  UNL     1      16.368  -2.333  12.259  1.00  0.00     0.139 A 
HETATM    3  N3  UNL     1      16.325  -2.869  11.013  1.00  0.00    -0.176 N 
ATOM      4  H3  UNL     1      16.089  -3.854  10.892  1.00  0.00     0.186 HD
HETATM    5  C10 UNL     1      16.590  -2.112   9.941  1.00  0.00     0.679 A 
HETATM    6  N5  UNL     1      16.901  -0.815  10.117  1.00  0.00    -0.176 N 
ATOM      7  H5  UNL     1      17.099  -0.263   9.282  1.00  0.00     0.186 HD
HETATM    8  C11 UNL     1      16.972  -0.185  11.301  1.00  0.00     0.140 A 
ENDROOT
BRANCH   8   9
HETATM    9  N6  UNL     1      17.245   0.995  11.560  1.00  0.00    -0.326 N 
HETATM   10  C12 UNL     1      16.910   2.243  11.096  1.00  0.00     0.481 C 
HETATM   11  N7  UNL     1      16.536   3.086  12.283  1.00  0.00    -0.033 N 
HETATM   12  N8  UNL     1      15.841   2.289  10.144  1.00  0.00    -0.033 N 
ATOM     13  H73 UNL     1      15.803   2.665  12.853  1.00  0.00     0.278 HD
ATOM     14  H72 UNL     1      17.264   3.110  12.997  1.00  0.00     0.278 HD
ATOM     15  H71 UNL     1      16.287   4.013  11.939  1.00  0.00     0.278 HD
ATOM     16  H83 UNL     1      16.048   1.671   9.359  1.00  0.00     0.278 HD
ATOM     17  H82 UNL     1      15.015   1.827  10.526  1.00  0.00     0.278 HD
ATOM     18  H81 UNL     1      15.592   3.216   9.799  1.00  0.00     0.278 HD
ATOM     19  H6  UNL     1      17.904   1.057  12.336  1.00  0.00     0.164 HD
ENDBRANCH   8   9
BRANCH   1  20
HETATM   20  C2  UNL     1      16.742  -0.437  13.731  1.00  0.00     0.300 C 
HETATM   21  O2  UNL     1      15.812   0.406  13.992  1.00  0.00    -0.259 OA
BRANCH  20  22
HETATM   22  O1  UNL     1      17.696  -0.715  14.699  1.00  0.00    -0.322 OA
HETATM   23  C1  UNL     1      17.233  -0.821  16.042  1.00  0.00     0.213 C 
ENDBRANCH  20  22
ENDBRANCH   1  20
BRANCH   2  24
HETATM   24  N1  UNL     1      16.098  -3.110  13.411  1.00  0.00    -0.363 N 
HETATM   25  C5  UNL     1      17.063  -4.020  13.995  1.00  0.00     0.154 C 
HETATM   26  C6  UNL     1      16.399  -5.390  13.998  1.00  0.00     0.291 C 
HETATM   27  N2  UNL     1      15.151  -5.300  14.684  1.00  0.00     0.087 N 
HETATM   28  C7  UNL     1      14.537  -6.620  14.668  1.00  0.00     0.310 C 
HETATM   29  C8  UNL     1      14.202  -4.390  14.099  1.00  0.00     0.291 C 
HETATM   30  C9  UNL     1      14.811  -3.016  14.069  1.00  0.00     0.154 C 
ENDBRANCH   2  24
BRANCH   5  31
HETATM   31  N4  UNL     1      16.547  -2.632   8.736  1.00  0.00    -0.234 N 
ATOM     32  H42 UNL     1      15.805  -3.282   8.477  1.00  0.00     0.174 HD
ATOM     33  H41 UNL     1      17.257  -2.388   8.045  1.00  0.00     0.174 HD
ENDBRANCH   5  31
TORSDOF 5
ENDMDL
MODEL 5
REMARK VINA RESULT: -5.372481820      2.612      4.147
REMARK  5 active torsions:
REMARK  status: ('A' for Active; 'I' for Inactive)
REMARK    1  A    between atoms: O1_2  and  C2_3 
REMARK    2  A    between atoms: C2_3  and  C3_5 
REMARK    3  A    between atoms: C4_6  and  N1_7 
REMARK    4  A    between atoms: C10_16  and  N4_17 
REMARK    5  A    between atoms: C11_22  and  N6_23 
REMARK       I    between atoms: N6_23  and  C12_25 
REMARK       I    between atoms: C12_25  and  N7_26 
REMARK       I    between atoms: C12_25  and  N8_30 
ROOT
HETATM    1  C3  UNL     1      15.747  -0.299  13.686  1.00  0.00     0.128 A 
HETATM    2  C4  UNL     1      15.480  -0.587  14.990  1.00  0.00     0.139 A 
HETATM    3  N3  UNL     1      14.581   0.166  15.674  1.00  0.00    -0.176 N 
ATOM      4  H3  UNL     1      14.379  -0.048  16.650  1.00  0.00     0.186 HD
HETATM    5  C10 UNL     1      13.959   1.189  15.073  1.00  0.00     0.679 A 
HETATM    6  N5  UNL     1      14.237   1.457  13.784  1.00  0.00    -0.176 N 
ATOM      7  H5  UNL     1      13.747   2.242  13.354  1.00  0.00     0.186 HD
HETATM    8  C11 UNL     1      15.105   0.779  13.016  1.00  0.00     0.140 A 
ENDROOT
BRANCH   8   9
HETATM    9  N6  UNL     1      15.426   0.952  11.833  1.00  0.00    -0.326 N 
HETATM   10  C12 UNL     1      16.015   1.930  11.071  1.00  0.00     0.481 C 
HETATM   11  N7  UNL     1      17.098   1.281  10.255  1.00  0.00    -0.033 N 
HETATM   12  N8  UNL     1      16.579   3.031  11.793  1.00  0.00    -0.033 N 
ATOM     13  H73 UNL     1      17.768   0.765  10.824  1.00  0.00     0.278 HD
ATOM     14  H72 UNL     1      16.760   0.495   9.700  1.00  0.00     0.278 HD
ATOM     15  H71 UNL     1      17.536   2.007   9.688  1.00  0.00     0.278 HD
ATOM     16  H83 UNL     1      15.873   3.444  12.402  1.00  0.00     0.278 HD
ATOM     17  H82 UNL     1      17.241   2.687  12.489  1.00  0.00     0.278 HD
ATOM     18  H81 UNL     1      17.017   3.757  11.226  1.00  0.00     0.278 HD
ATOM     19  H6  UNL     1      15.184   0.140  11.266  1.00  0.00     0.164 HD
ENDBRANCH   8   9
BRANCH   1  20
HETATM   20  C2  UNL     1      16.692  -1.092  12.946  1.00  0.00     0.300 C 
HETATM   21  O2  UNL     1      17.878  -0.610  12.889  1.00  0.00    -0.259 OA
BRANCH  20  22
HETATM   22  O1  UNL     1      16.419  -2.297  12.313  1.00  0.00    -0.322 OA
HETATM   23  C1  UNL     1      16.425  -2.287  10.888  1.00  0.00     0.213 C 
ENDBRANCH  20  22
ENDBRANCH   1  20
BRANCH   2  24
HETATM   24  N1  UNL     1      16.149  -1.677  15.595  1.00  0.00    -0.363 N 
HETATM   25  C5  UNL     1      15.626  -3.029  15.588  1.00  0.00     0.154 C 
HETATM   26  C6  UNL     1      15.499  -3.438  17.048  1.00  0.00     0.291 C 
HETATM   27  N2  UNL     1      16.764  -3.277  17.689  1.00  0.00     0.087 N 
HETATM   28  C7  UNL     1      16.613  -3.670  19.081  1.00  0.00     0.310 C 
HETATM   29  C8  UNL     1      17.277  -1.932  17.686  1.00  0.00     0.291 C 
HETATM   30  C9  UNL     1      17.419  -1.475  16.262  1.00  0.00     0.154 C 
ENDBRANCH   2  24
BRANCH   5  31
HETATM   31  N4  UNL     1      13.090   1.916  15.736  1.00  0.00    -0.234 N 
ATOM     32  H42 UNL     1      12.567   1.519  16.516  1.00  0.00     0.174 HD
ATOM     33  H41 UNL     1      12.931   2.890  15.477  1.00  0.00     0.174 HD
ENDBRANCH   5  31
TORSDOF 5
ENDMDL
