MODEL 1
REMARK VINA RESULT: -6.321013316      0.000      0.000
REMARK  4 active torsions:
REMARK  status: ('A' for Active; 'I' for Inactive)
REMARK    1  A    between atoms: C2_2  and  N1_3 
REMARK    2  A    between atoms: C2_2  and  C5_10 
REMARK    3  A    between atoms: N1_3  and  N2_4 
REMARK    4  A    between atoms: N2_4  and  S1_6 
ROOT
HETATM    1  C5  UNL     1     -13.679   2.552 -14.161  1.00  0.00     0.089 A 
HETATM    2  C6  UNL     1     -13.838   1.265 -13.690  1.00  0.00     0.150 A 
HETATM    3  N3  UNL     1     -14.532   1.308 -12.518  1.00  0.00    -0.136 N 
HETATM    4  C7  UNL     1     -14.959   0.368 -11.647  1.00  0.00     0.698 A 
HETATM    5  N4  UNL     1     -14.692  -0.866 -11.911  1.00  0.00    -0.233 N 
ATOM      6  H41 UNL     1     -15.014  -1.575 -11.253  1.00  0.00     0.174 HD
ATOM      7  H42 UNL     1     -14.173  -1.102 -12.756  1.00  0.00     0.174 HD
HETATM    8  N5  UNL     1     -15.643   0.681 -10.532  1.00  0.00    -0.130 N 
ATOM      9  H5  UNL     1     -15.948  -0.059  -9.899  1.00  0.00     0.205 HD
HETATM   10  N6  UNL     1     -15.924   1.949 -10.250  1.00  0.00    -0.268 N 
ATOM     11  H6  UNL     1     -16.443   2.195  -9.407  1.00  0.00     0.189 HD
HETATM   12  C8  UNL     1     -15.507   2.901 -11.106  1.00  0.00     0.160 A 
HETATM   13  N7  UNL     1     -15.760   4.122 -10.864  1.00  0.00    -0.381 N 
ATOM     14  H71 UNL     1     -15.444   4.843 -11.512  1.00  0.00     0.157 HD
ATOM     15  H72 UNL     1     -16.280   4.342 -10.014  1.00  0.00     0.157 HD
HETATM   16  C9  UNL     1     -14.801   2.600 -12.261  1.00  0.00     0.174 A 
HETATM   17  N8  UNL     1     -14.282   3.340 -13.257  1.00  0.00    -0.335 N 
ATOM     18  H8  UNL     1     -14.338   4.356 -13.317  1.00  0.00     0.168 HD
ENDROOT
BRANCH   1  19
HETATM   19  C2  UNL     1     -12.978   2.954 -15.415  1.00  0.00     0.134 C 
HETATM   20  C1  UNL     1     -13.590   2.395 -16.690  1.00  0.00     0.090 C 
BRANCH  19  21
HETATM   21  N1  UNL     1     -12.025   3.654 -15.400  1.00  0.00    -0.317 NA
BRANCH  21  22
HETATM   22  N2  UNL     1     -10.980   4.420 -15.385  1.00  0.00    -0.157 N 
HETATM   23  C3  UNL     1      -9.865   4.236 -14.431  1.00  0.00     0.207 C 
BRANCH  22  24
HETATM   24  S1  UNL     1     -10.857   5.741 -16.536  1.00  0.00     0.251 S 
HETATM   25  C4  UNL     1      -9.329   5.695 -17.397  1.00  0.00     0.188 C 
HETATM   26  O1  UNL     1     -11.021   7.045 -15.818  1.00  0.00    -0.204 OA
HETATM   27  O2  UNL     1     -11.984   5.618 -17.543  1.00  0.00    -0.204 OA
ENDBRANCH  22  24
ENDBRANCH  21  22
ENDBRANCH  19  21
ENDBRANCH   1  19
TORSDOF 4
ENDMDL
MODEL 2
REMARK VINA RESULT: -6.260159630      2.761      3.499
REMARK  4 active torsions:
REMARK  status: ('A' for Active; 'I' for Inactive)
REMARK    1  A    between atoms: C2_2  and  N1_3 
REMARK    2  A    between atoms: C2_2  and  C5_10 
REMARK    3  A    between atoms: N1_3  and  N2_4 
REMARK    4  A    between atoms: N2_4  and  S1_6 
ROOT
HETATM    1  C5  UNL     1     -13.580   2.547 -14.128  1.00  0.00     0.089 A 
HETATM    2  C6  UNL     1     -13.744   1.238 -13.724  1.00  0.00     0.150 A 
HETATM    3  N3  UNL     1     -14.480   1.220 -12.577  1.00  0.00    -0.136 N 
HETATM    4  C7  UNL     1     -14.928   0.236 -11.768  1.00  0.00     0.698 A 
HETATM    5  N4  UNL     1     -14.639  -0.982 -12.080  1.00  0.00    -0.233 N 
ATOM      6  H41 UNL     1     -14.978  -1.725 -11.469  1.00  0.00     0.174 HD
ATOM      7  H42 UNL     1     -14.088  -1.174 -12.916  1.00  0.00     0.174 HD
HETATM    8  N5  UNL     1     -15.655   0.490 -10.665  1.00  0.00    -0.130 N 
ATOM      9  H5  UNL     1     -15.975  -0.282 -10.079  1.00  0.00     0.205 HD
HETATM   10  N6  UNL     1     -15.959   1.741 -10.334  1.00  0.00    -0.268 N 
ATOM     11  H6  UNL     1     -16.510   1.942  -9.499  1.00  0.00     0.189 HD
HETATM   12  C8  UNL     1     -15.520   2.735 -11.128  1.00  0.00     0.160 A 
HETATM   13  N7  UNL     1     -15.795   3.941 -10.838  1.00  0.00    -0.381 N 
ATOM     14  H71 UNL     1     -15.462   4.695 -11.440  1.00  0.00     0.157 HD
ATOM     15  H72 UNL     1     -16.346   4.117  -9.999  1.00  0.00     0.157 HD
HETATM   16  C9  UNL     1     -14.770   2.496 -12.270  1.00  0.00     0.174 A 
HETATM   17  N8  UNL     1     -14.223   3.286 -13.211  1.00  0.00    -0.335 N 
ATOM     18  H8  UNL     1     -14.288   4.304 -13.225  1.00  0.00     0.168 HD
ENDROOT
BRANCH   1  19
HETATM   19  C2  UNL     1     -12.839   3.014 -15.336  1.00  0.00     0.134 C 
HETATM   20  C1  UNL     1     -11.496   3.663 -15.043  1.00  0.00     0.090 C 
BRANCH  19  21
HETATM   21  N1  UNL     1     -13.277   2.880 -16.426  1.00  0.00    -0.317 NA
BRANCH  21  22
HETATM   22  N2  UNL     1     -13.756   2.735 -17.621  1.00  0.00    -0.157 N 
HETATM   23  C3  UNL     1     -13.149   3.370 -18.811  1.00  0.00     0.207 C 
BRANCH  22  24
HETATM   24  S1  UNL     1     -15.186   1.746 -17.868  1.00  0.00     0.251 S 
HETATM   25  C4  UNL     1     -14.775   0.200 -18.590  1.00  0.00     0.188 C 
HETATM   26  O1  UNL     1     -16.164   2.488 -18.725  1.00  0.00    -0.204 OA
HETATM   27  O2  UNL     1     -15.842   1.493 -16.524  1.00  0.00    -0.204 OA
ENDBRANCH  22  24
ENDBRANCH  21  22
ENDBRANCH  19  21
ENDBRANCH   1  19
TORSDOF 4
ENDMDL
MODEL 3
REMARK VINA RESULT: -6.227991664      2.834      4.061
REMARK  4 active torsions:
REMARK  status: ('A' for Active; 'I' for Inactive)
REMARK    1  A    between atoms: C2_2  and  N1_3 
REMARK    2  A    between atoms: C2_2  and  C5_10 
REMARK    3  A    between atoms: N1_3  and  N2_4 
REMARK    4  A    between atoms: N2_4  and  S1_6 
ROOT
HETATM    1  C5  UNL     1     -13.611   2.553 -14.130  1.00  0.00     0.089 A 
HETATM    2  C6  UNL     1     -14.234   3.330 -13.175  1.00  0.00     0.150 A 
HETATM    3  N3  UNL     1     -14.795   2.513 -12.239  1.00  0.00    -0.136 N 
HETATM    4  C7  UNL     1     -15.507   2.730 -11.113  1.00  0.00     0.698 A 
HETATM    5  N4  UNL     1     -15.754   3.951 -10.780  1.00  0.00    -0.233 N 
ATOM      6  H41 UNL     1     -16.293   4.115  -9.929  1.00  0.00     0.174 HD
ATOM      7  H42 UNL     1     -15.413   4.715 -11.363  1.00  0.00     0.174 HD
HETATM    8  N5  UNL     1     -15.958   1.723 -10.344  1.00  0.00    -0.130 N 
ATOM      9  H5  UNL     1     -16.494   1.928  -9.501  1.00  0.00     0.205 HD
HETATM   10  N6  UNL     1     -15.710   0.460 -10.678  1.00  0.00    -0.268 N 
ATOM     11  H6  UNL     1     -16.047  -0.310 -10.100  1.00  0.00     0.189 HD
HETATM   12  C8  UNL     1     -15.001   0.224 -11.797  1.00  0.00     0.160 A 
HETATM   13  N7  UNL     1     -14.748  -0.972 -12.143  1.00  0.00    -0.381 N 
ATOM     14  H71 UNL     1     -14.211  -1.151 -12.991  1.00  0.00     0.157 HD
ATOM     15  H72 UNL     1     -15.096  -1.725 -11.549  1.00  0.00     0.157 HD
HETATM   16  C9  UNL     1     -14.526   1.247 -12.604  1.00  0.00     0.174 A 
HETATM   17  N8  UNL     1     -13.814   1.284 -13.744  1.00  0.00    -0.335 N 
ATOM     18  H8  UNL     1     -13.475   0.463 -14.245  1.00  0.00     0.168 HD
ENDROOT
BRANCH   1  19
HETATM   19  C2  UNL     1     -12.874   3.048 -15.329  1.00  0.00     0.134 C 
HETATM   20  C1  UNL     1     -11.570   3.766 -15.020  1.00  0.00     0.090 C 
BRANCH  19  21
HETATM   21  N1  UNL     1     -13.286   2.883 -16.425  1.00  0.00    -0.317 NA
BRANCH  21  22
HETATM   22  N2  UNL     1     -13.738   2.703 -17.626  1.00  0.00    -0.157 N 
HETATM   23  C3  UNL     1     -13.106   3.305 -18.820  1.00  0.00     0.207 C 
BRANCH  22  24
HETATM   24  S1  UNL     1     -15.162   1.706 -17.876  1.00  0.00     0.251 S 
HETATM   25  C4  UNL     1     -14.765   0.233 -18.743  1.00  0.00     0.188 C 
HETATM   26  O1  UNL     1     -16.199   2.492 -18.616  1.00  0.00    -0.204 OA
HETATM   27  O2  UNL     1     -15.739   1.331 -16.524  1.00  0.00    -0.204 OA
ENDBRANCH  22  24
ENDBRANCH  21  22
ENDBRANCH  19  21
ENDBRANCH   1  19
TORSDOF 4
ENDMDL
MODEL 4
REMARK VINA RESULT: -6.163197879      0.596      2.062
REMARK  4 active torsions:
REMARK  status: ('A' for Active; 'I' for Inactive)
REMARK    1  A    between atoms: C2_2  and  N1_3 
REMARK    2  A    between atoms: C2_2  and  C5_10 
REMARK    3  A    between atoms: N1_3  and  N2_4 
REMARK    4  A    between atoms: N2_4  and  S1_6 
ROOT
HETATM    1  C5  UNL     1     -13.671   2.470 -14.211  1.00  0.00     0.089 A 
HETATM    2  C6  UNL     1     -14.288   3.275 -13.275  1.00  0.00     0.150 A 
HETATM    3  N3  UNL     1     -14.798   2.488 -12.286  1.00  0.00    -0.136 N 
HETATM    4  C7  UNL     1     -15.484   2.739 -11.150  1.00  0.00     0.698 A 
HETATM    5  N4  UNL     1     -15.756   3.968 -10.867  1.00  0.00    -0.233 N 
ATOM      6  H41 UNL     1     -16.274   4.157 -10.009  1.00  0.00     0.174 HD
ATOM      7  H42 UNL     1     -15.453   4.712 -11.496  1.00  0.00     0.174 HD
HETATM    8  N5  UNL     1     -15.884   1.758 -10.322  1.00  0.00    -0.130 N 
ATOM      9  H5  UNL     1     -16.401   1.988  -9.473  1.00  0.00     0.205 HD
HETATM   10  N6  UNL     1     -15.610   0.488 -10.604  1.00  0.00    -0.268 N 
ATOM     11  H6  UNL     1     -15.909  -0.263  -9.981  1.00  0.00     0.189 HD
HETATM   12  C8  UNL     1     -14.927   0.218 -11.732  1.00  0.00     0.160 A 
HETATM   13  N7  UNL     1     -14.650  -0.986 -12.028  1.00  0.00    -0.381 N 
ATOM     14  H71 UNL     1     -14.133  -1.191 -12.883  1.00  0.00     0.157 HD
ATOM     15  H72 UNL     1     -14.961  -1.719 -11.390  1.00  0.00     0.157 HD
HETATM   16  C9  UNL     1     -14.505   1.214 -12.600  1.00  0.00     0.174 A 
HETATM   17  N8  UNL     1     -13.827   1.216 -13.761  1.00  0.00    -0.335 N 
ATOM     18  H8  UNL     1     -13.479   0.381 -14.232  1.00  0.00     0.168 HD
ENDROOT
BRANCH   1  19
HETATM   19  C2  UNL     1     -12.983   2.927 -15.454  1.00  0.00     0.134 C 
HETATM   20  C1  UNL     1     -13.604   2.419 -16.745  1.00  0.00     0.090 C 
BRANCH  19  21
HETATM   21  N1  UNL     1     -12.032   3.628 -15.418  1.00  0.00    -0.317 NA
BRANCH  21  22
HETATM   22  N2  UNL     1     -10.990   4.397 -15.379  1.00  0.00    -0.157 N 
HETATM   23  C3  UNL     1      -9.890   4.208 -14.408  1.00  0.00     0.207 C 
BRANCH  22  24
HETATM   24  S1  UNL     1     -10.850   5.727 -16.517  1.00  0.00     0.251 S 
HETATM   25  C4  UNL     1      -9.315   5.681 -17.366  1.00  0.00     0.188 C 
HETATM   26  O1  UNL     1     -11.014   7.026 -15.790  1.00  0.00    -0.204 OA
HETATM   27  O2  UNL     1     -11.969   5.618 -17.535  1.00  0.00    -0.204 OA
ENDBRANCH  22  24
ENDBRANCH  21  22
ENDBRANCH  19  21
ENDBRANCH   1  19
TORSDOF 4
ENDMDL
MODEL 5
REMARK VINA RESULT: -6.144954792      1.674      1.895
REMARK  4 active torsions:
REMARK  status: ('A' for Active; 'I' for Inactive)
REMARK    1  A    between atoms: C2_2  and  N1_3 
REMARK    2  A    between atoms: C2_2  and  C5_10 
REMARK    3  A    between atoms: N1_3  and  N2_4 
REMARK    4  A    between atoms: N2_4  and  S1_6 
ROOT
HETATM    1  C5  UNL     1     -13.736   2.484 -14.163  1.00  0.00     0.089 A 
HETATM    2  C6  UNL     1     -13.883   1.200 -13.679  1.00  0.00     0.150 A 
HETATM    3  N3  UNL     1     -14.560   1.249 -12.497  1.00  0.00    -0.136 N 
HETATM    4  C7  UNL     1     -14.969   0.315 -11.613  1.00  0.00     0.698 A 
HETATM    5  N4  UNL     1     -14.701  -0.920 -11.871  1.00  0.00    -0.233 N 
ATOM      6  H41 UNL     1     -15.010  -1.626 -11.203  1.00  0.00     0.174 HD
ATOM      7  H42 UNL     1     -14.194  -1.161 -12.722  1.00  0.00     0.174 HD
HETATM    8  N5  UNL     1     -15.638   0.634 -10.490  1.00  0.00    -0.130 N 
ATOM      9  H5  UNL     1     -15.930  -0.102  -9.847  1.00  0.00     0.205 HD
HETATM   10  N6  UNL     1     -15.920   1.903 -10.214  1.00  0.00    -0.268 N 
ATOM     11  H6  UNL     1     -16.427   2.154  -9.365  1.00  0.00     0.189 HD
HETATM   12  C8  UNL     1     -15.519   2.849 -11.083  1.00  0.00     0.160 A 
HETATM   13  N7  UNL     1     -15.774   4.071 -10.847  1.00  0.00    -0.381 N 
ATOM     14  H71 UNL     1     -15.470   4.788 -11.506  1.00  0.00     0.157 HD
ATOM     15  H72 UNL     1     -16.281   4.296  -9.992  1.00  0.00     0.157 HD
HETATM   16  C9  UNL     1     -14.829   2.543 -12.247  1.00  0.00     0.174 A 
HETATM   17  N8  UNL     1     -14.328   3.276 -13.257  1.00  0.00    -0.335 N 
ATOM     18  H8  UNL     1     -14.390   4.292 -13.324  1.00  0.00     0.168 HD
ENDROOT
BRANCH   1  19
HETATM   19  C2  UNL     1     -13.056   2.878 -15.431  1.00  0.00     0.134 C 
HETATM   20  C1  UNL     1     -13.691   2.315 -16.693  1.00  0.00     0.090 C 
BRANCH  19  21
HETATM   21  N1  UNL     1     -12.101   3.575 -15.435  1.00  0.00    -0.317 NA
BRANCH  21  22
HETATM   22  N2  UNL     1     -11.055   4.340 -15.440  1.00  0.00    -0.157 N 
HETATM   23  C3  UNL     1     -11.048   5.686 -16.054  1.00  0.00     0.207 C 
BRANCH  22  24
HETATM   24  S1  UNL     1      -9.568   3.781 -14.691  1.00  0.00     0.251 S 
HETATM   25  C4  UNL     1      -8.420   3.220 -15.893  1.00  0.00     0.188 C 
HETATM   26  O1  UNL     1      -9.882   2.694 -13.710  1.00  0.00    -0.204 OA
HETATM   27  O2  UNL     1      -8.944   4.933 -13.926  1.00  0.00    -0.204 OA
ENDBRANCH  22  24
ENDBRANCH  21  22
ENDBRANCH  19  21
ENDBRANCH   1  19
TORSDOF 4
ENDMDL
