MODEL 1
REMARK VINA RESULT: -5.871677594      0.000      0.000
REMARK  6 active torsions:
REMARK  status: ('A' for Active; 'I' for Inactive)
REMARK    1  A    between atoms: C2_2  and  C4_10 
REMARK    2  A    between atoms: N1_3  and  N2_5 
REMARK    3  A    between atoms: N2_5  and  C3_7 
REMARK    4  A    between atoms: C6_12  and  O1_13 
REMARK    5  A    between atoms: C6_12  and  O2_15 
REMARK    6  A    between atoms: O2_15  and  C7_16 
ROOT
HETATM    1  C4  UNL     1     -14.662   0.761 -11.839  1.00  0.00     0.087 A 
HETATM    2  C5  UNL     1     -13.876   1.745 -12.400  1.00  0.00     0.113 A 
HETATM    3  C6  UNL     1     -12.678   1.505 -13.130  1.00  0.00     0.216 C 
HETATM    4  N5  UNL     1     -14.268   3.081 -12.248  1.00  0.00    -0.303 N 
ATOM      5  H5  UNL     1     -13.686   3.808 -12.663  1.00  0.00     0.171 HD
HETATM    6  C8  UNL     1     -15.355   3.445 -11.594  1.00  0.00     0.327 A 
HETATM    7  O4  UNL     1     -15.671   4.661 -11.481  1.00  0.00    -0.247 OA
HETATM    8  N6  UNL     1     -16.125   2.512 -11.047  1.00  0.00    -0.275 N 
ATOM      9  H6  UNL     1     -16.967   2.789 -10.541  1.00  0.00     0.173 HD
HETATM   10  C9  UNL     1     -15.813   1.201 -11.150  1.00  0.00     0.264 A 
HETATM   11  O5  UNL     1     -16.565   0.358 -10.622  1.00  0.00    -0.267 OA
ENDROOT
BRANCH   1  12
HETATM   12  C2  UNL     1     -14.424  -0.650 -11.889  1.00  0.00     0.040 C 
HETATM   13  C1  UNL     1     -14.011  -1.389 -10.631  1.00  0.00     0.071 C 
HETATM   14  N1  UNL     1     -14.514  -1.411 -12.900  1.00  0.00    -0.302 N 
ATOM     15  H1  UNL     1     -14.788  -0.983 -13.784  1.00  0.00     0.186 HD
BRANCH  14  16
HETATM   16  N2  UNL     1     -14.275  -2.767 -12.904  1.00  0.00    -0.278 N 
ATOM     17  H2  UNL     1     -13.851  -3.200 -12.083  1.00  0.00     0.189 HD
BRANCH  16  18
HETATM   18  C3  UNL     1     -14.602  -3.578 -14.023  1.00  0.00     0.199 C 
HETATM   19  N3  UNL     1     -15.241  -3.053 -15.162  1.00  0.00    -0.068 NA
HETATM   20  S1  UNL     1     -14.234  -5.178 -14.014  1.00  0.00    -0.043 SA
ENDBRANCH  16  18
ENDBRANCH  14  16
ENDBRANCH   1  12
BRANCH   3  21
HETATM   21  O1  UNL     1     -12.092   2.592 -13.573  1.00  0.00    -0.339 OA
ATOM     22  H1  UNL     1     -11.269   2.792 -13.145  1.00  0.00     0.220 HD
ENDBRANCH   3  21
BRANCH   3  23
HETATM   23  O2  UNL     1     -11.998   0.417 -13.479  1.00  0.00    -0.238 OA
BRANCH  23  24
HETATM   24  C7  UNL     1     -11.909  -0.073 -14.812  1.00  0.00     0.379 C 
HETATM   25  N4  UNL     1     -11.301   0.726 -15.819  1.00  0.00    -0.032 NA
HETATM   26  O3  UNL     1     -12.368  -1.206 -15.085  1.00  0.00    -0.242 OA
ENDBRANCH  23  24
ENDBRANCH   3  23
TORSDOF 6
ENDMDL
MODEL 2
REMARK VINA RESULT: -5.732889067      1.587      1.928
REMARK  6 active torsions:
REMARK  status: ('A' for Active; 'I' for Inactive)
REMARK    1  A    between atoms: C2_2  and  C4_10 
REMARK    2  A    between atoms: N1_3  and  N2_5 
REMARK    3  A    between atoms: N2_5  and  C3_7 
REMARK    4  A    between atoms: C6_12  and  O1_13 
REMARK    5  A    between atoms: C6_12  and  O2_15 
REMARK    6  A    between atoms: O2_15  and  C7_16 
ROOT
HETATM    1  C4  UNL     1     -15.112   1.242 -13.071  1.00  0.00     0.087 A 
HETATM    2  C5  UNL     1     -14.149   2.221 -13.201  1.00  0.00     0.113 A 
HETATM    3  C6  UNL     1     -13.214   2.299 -14.271  1.00  0.00     0.216 C 
HETATM    4  N5  UNL     1     -14.071   3.216 -12.218  1.00  0.00    -0.303 N 
ATOM      5  H5  UNL     1     -13.358   3.939 -12.315  1.00  0.00     0.171 HD
HETATM    6  C8  UNL     1     -14.875   3.263 -11.173  1.00  0.00     0.327 A 
HETATM    7  O4  UNL     1     -14.769   4.178 -10.310  1.00  0.00    -0.247 OA
HETATM    8  N6  UNL     1     -15.809   2.330 -11.030  1.00  0.00    -0.275 N 
ATOM      9  H6  UNL     1     -16.432   2.363 -10.224  1.00  0.00     0.173 HD
HETATM   10  C9  UNL     1     -15.946   1.337 -11.937  1.00  0.00     0.264 A 
HETATM   11  O5  UNL     1     -16.838   0.482 -11.764  1.00  0.00    -0.267 OA
ENDROOT
BRANCH   1  12
HETATM   12  C2  UNL     1     -15.342   0.152 -13.970  1.00  0.00     0.040 C 
HETATM   13  C1  UNL     1     -16.137   0.381 -15.241  1.00  0.00     0.071 C 
HETATM   14  N1  UNL     1     -14.953  -1.048 -13.842  1.00  0.00    -0.302 N 
ATOM     15  H1  UNL     1     -14.411  -1.278 -13.008  1.00  0.00     0.186 HD
BRANCH  14  16
HETATM   16  N2  UNL     1     -15.199  -2.068 -14.732  1.00  0.00    -0.278 N 
ATOM     17  H2  UNL     1     -15.823  -1.900 -15.522  1.00  0.00     0.189 HD
BRANCH  16  18
HETATM   18  C3  UNL     1     -14.606  -3.350 -14.580  1.00  0.00     0.199 C 
HETATM   19  N3  UNL     1     -14.147  -3.816 -13.333  1.00  0.00    -0.068 NA
HETATM   20  S1  UNL     1     -14.439  -4.338 -15.881  1.00  0.00    -0.043 SA
ENDBRANCH  16  18
ENDBRANCH  14  16
ENDBRANCH   1  12
BRANCH   3  21
HETATM   21  O1  UNL     1     -12.389   3.315 -14.190  1.00  0.00    -0.339 OA
ATOM     22  H1  UNL     1     -12.156   3.694 -15.029  1.00  0.00     0.220 HD
ENDBRANCH   3  21
BRANCH   3  23
HETATM   23  O2  UNL     1     -12.974   1.571 -15.357  1.00  0.00    -0.238 OA
BRANCH  23  24
HETATM   24  C7  UNL     1     -11.999   0.537 -15.424  1.00  0.00     0.379 C 
HETATM   25  N4  UNL     1     -12.391  -0.780 -15.788  1.00  0.00    -0.032 NA
HETATM   26  O3  UNL     1     -10.803   0.799 -15.160  1.00  0.00    -0.242 OA
ENDBRANCH  23  24
ENDBRANCH   3  23
TORSDOF 6
ENDMDL
MODEL 3
REMARK VINA RESULT: -5.568636102      3.189      6.249
REMARK  6 active torsions:
REMARK  status: ('A' for Active; 'I' for Inactive)
REMARK    1  A    between atoms: C2_2  and  C4_10 
REMARK    2  A    between atoms: N1_3  and  N2_5 
REMARK    3  A    between atoms: N2_5  and  C3_7 
REMARK    4  A    between atoms: C6_12  and  O1_13 
REMARK    5  A    between atoms: C6_12  and  O2_15 
REMARK    6  A    between atoms: O2_15  and  C7_16 
ROOT
HETATM    1  C4  UNL     1     -13.526   0.261 -14.022  1.00  0.00     0.087 A 
HETATM    2  C5  UNL     1     -14.506  -0.207 -13.173  1.00  0.00     0.113 A 
HETATM    3  C6  UNL     1     -15.443   0.616 -12.487  1.00  0.00     0.216 C 
HETATM    4  N5  UNL     1     -14.601  -1.588 -12.958  1.00  0.00    -0.303 N 
ATOM      5  H5  UNL     1     -15.326  -1.933 -12.329  1.00  0.00     0.171 HD
HETATM    6  C8  UNL     1     -13.797  -2.465 -13.529  1.00  0.00     0.327 A 
HETATM    7  O4  UNL     1     -13.917  -3.701 -13.307  1.00  0.00    -0.247 OA
HETATM    8  N6  UNL     1     -12.847  -2.034 -14.351  1.00  0.00    -0.275 N 
ATOM      9  H6  UNL     1     -12.223  -2.708 -14.795  1.00  0.00     0.173 HD
HETATM   10  C9  UNL     1     -12.693  -0.716 -14.608  1.00  0.00     0.264 A 
HETATM   11  O5  UNL     1     -11.787  -0.356 -15.388  1.00  0.00    -0.267 OA
ENDROOT
BRANCH   1  12
HETATM   12  C2  UNL     1     -13.278   1.629 -14.363  1.00  0.00     0.040 C 
HETATM   13  C1  UNL     1     -14.058   2.276 -15.492  1.00  0.00     0.071 C 
HETATM   14  N1  UNL     1     -12.448   2.420 -13.821  1.00  0.00    -0.302 N 
ATOM     15  H1  UNL     1     -11.887   2.054 -13.052  1.00  0.00     0.186 HD
BRANCH  14  16
HETATM   16  N2  UNL     1     -12.241   3.732 -14.182  1.00  0.00    -0.278 N 
ATOM     17  H2  UNL     1     -12.964   4.423 -13.983  1.00  0.00     0.189 HD
BRANCH  16  18
HETATM   18  C3  UNL     1     -11.045   4.148 -14.825  1.00  0.00     0.199 C 
HETATM   19  N3  UNL     1      -9.775   3.744 -14.371  1.00  0.00    -0.068 NA
HETATM   20  S1  UNL     1     -11.117   5.130 -16.139  1.00  0.00    -0.043 SA
ENDBRANCH  16  18
ENDBRANCH  14  16
ENDBRANCH   1  12
BRANCH   3  21
HETATM   21  O1  UNL     1     -16.286  -0.044 -11.730  1.00  0.00    -0.339 OA
ATOM     22  H1  UNL     1     -16.247  -0.987 -11.837  1.00  0.00     0.220 HD
ENDBRANCH   3  21
BRANCH   3  23
HETATM   23  O2  UNL     1     -15.671   1.925 -12.430  1.00  0.00    -0.238 OA
BRANCH  23  24
HETATM   24  C7  UNL     1     -15.182   2.775 -11.400  1.00  0.00     0.379 C 
HETATM   25  N4  UNL     1     -14.518   3.986 -11.740  1.00  0.00    -0.032 NA
HETATM   26  O3  UNL     1     -15.340   2.447 -10.201  1.00  0.00    -0.242 OA
ENDBRANCH  23  24
ENDBRANCH   3  23
TORSDOF 6
ENDMDL
MODEL 4
REMARK VINA RESULT: -5.554827222      3.686      5.291
REMARK  6 active torsions:
REMARK  status: ('A' for Active; 'I' for Inactive)
REMARK    1  A    between atoms: C2_2  and  C4_10 
REMARK    2  A    between atoms: N1_3  and  N2_5 
REMARK    3  A    between atoms: N2_5  and  C3_7 
REMARK    4  A    between atoms: C6_12  and  O1_13 
REMARK    5  A    between atoms: C6_12  and  O2_15 
REMARK    6  A    between atoms: O2_15  and  C7_16 
ROOT
HETATM    1  C4  UNL     1     -14.282   1.488 -13.752  1.00  0.00     0.087 A 
HETATM    2  C5  UNL     1     -15.116   0.392 -13.797  1.00  0.00     0.113 A 
HETATM    3  C6  UNL     1     -15.158  -0.550 -14.863  1.00  0.00     0.216 C 
HETATM    4  N5  UNL     1     -15.992   0.175 -12.725  1.00  0.00    -0.303 N 
ATOM      5  H5  UNL     1     -16.609  -0.636 -12.760  1.00  0.00     0.171 HD
HETATM    6  C8  UNL     1     -16.058   0.969 -11.673  1.00  0.00     0.327 A 
HETATM    7  O4  UNL     1     -16.863   0.736 -10.730  1.00  0.00    -0.247 OA
HETATM    8  N6  UNL     1     -15.262   2.030 -11.611  1.00  0.00    -0.275 N 
ATOM      9  H6  UNL     1     -15.309   2.646 -10.800  1.00  0.00     0.173 HD
HETATM   10  C9  UNL     1     -14.390   2.306 -12.606  1.00  0.00     0.264 A 
HETATM   11  O5  UNL     1     -13.660   3.313 -12.506  1.00  0.00    -0.267 OA
ENDROOT
BRANCH   1  12
HETATM   12  C2  UNL     1     -13.326   1.870 -14.746  1.00  0.00     0.040 C 
HETATM   13  C1  UNL     1     -11.933   1.270 -14.720  1.00  0.00     0.071 C 
HETATM   14  N1  UNL     1     -13.491   2.689 -15.700  1.00  0.00    -0.302 N 
ATOM     15  H1  UNL     1     -14.405   3.134 -15.782  1.00  0.00     0.186 HD
BRANCH  14  16
HETATM   16  N2  UNL     1     -12.541   3.029 -16.636  1.00  0.00    -0.278 N 
ATOM     17  H2  UNL     1     -12.257   2.338 -17.331  1.00  0.00     0.189 HD
BRANCH  16  18
HETATM   18  C3  UNL     1     -11.945   4.318 -16.660  1.00  0.00     0.199 C 
HETATM   19  N3  UNL     1     -11.335   4.879 -15.521  1.00  0.00    -0.068 NA
HETATM   20  S1  UNL     1     -11.954   5.203 -18.043  1.00  0.00    -0.043 SA
ENDBRANCH  16  18
ENDBRANCH  14  16
ENDBRANCH   1  12
BRANCH   3  21
HETATM   21  O1  UNL     1     -16.030  -1.515 -14.693  1.00  0.00    -0.339 OA
ATOM     22  H1  UNL     1     -15.772  -2.344 -15.078  1.00  0.00     0.220 HD
ENDBRANCH   3  21
BRANCH   3  23
HETATM   23  O2  UNL     1     -14.509  -0.687 -16.015  1.00  0.00    -0.238 OA
BRANCH  23  24
HETATM   24  C7  UNL     1     -15.001  -0.225 -17.267  1.00  0.00     0.379 C 
HETATM   25  N4  UNL     1     -14.207   0.649 -18.059  1.00  0.00    -0.032 NA
HETATM   26  O3  UNL     1     -16.133  -0.593 -17.659  1.00  0.00    -0.242 OA
ENDBRANCH  23  24
ENDBRANCH   3  23
TORSDOF 6
ENDMDL
MODEL 5
REMARK VINA RESULT: -5.545743625      2.920      6.107
REMARK  6 active torsions:
REMARK  status: ('A' for Active; 'I' for Inactive)
REMARK    1  A    between atoms: C2_2  and  C4_10 
REMARK    2  A    between atoms: N1_3  and  N2_5 
REMARK    3  A    between atoms: N2_5  and  C3_7 
REMARK    4  A    between atoms: C6_12  and  O1_13 
REMARK    5  A    between atoms: C6_12  and  O2_15 
REMARK    6  A    between atoms: O2_15  and  C7_16 
ROOT
HETATM    1  C4  UNL     1     -13.629  -0.142 -13.677  1.00  0.00     0.087 A 
HETATM    2  C5  UNL     1     -14.209  -0.710 -12.562  1.00  0.00     0.113 A 
HETATM    3  C6  UNL     1     -14.686   0.022 -11.438  1.00  0.00     0.216 C 
HETATM    4  N5  UNL     1     -14.345  -2.103 -12.515  1.00  0.00    -0.303 N 
ATOM      5  H5  UNL     1     -14.773  -2.521 -11.690  1.00  0.00     0.171 HD
HETATM    6  C8  UNL     1     -13.945  -2.901 -13.488  1.00  0.00     0.327 A 
HETATM    7  O4  UNL     1     -14.087  -4.152 -13.403  1.00  0.00    -0.247 OA
HETATM    8  N6  UNL     1     -13.385  -2.374 -14.570  1.00  0.00    -0.275 N 
ATOM      9  H6  UNL     1     -13.075  -2.987 -15.324  1.00  0.00     0.173 HD
HETATM   10  C9  UNL     1     -13.219  -1.038 -14.689  1.00  0.00     0.264 A 
HETATM   11  O5  UNL     1     -12.689  -0.586 -15.724  1.00  0.00    -0.267 OA
ENDROOT
BRANCH   1  12
HETATM   12  C2  UNL     1     -13.408   1.253 -13.904  1.00  0.00     0.040 C 
HETATM   13  C1  UNL     1     -14.447   2.068 -14.652  1.00  0.00     0.071 C 
HETATM   14  N1  UNL     1     -12.406   1.943 -13.547  1.00  0.00    -0.302 N 
ATOM     15  H1  UNL     1     -11.664   1.462 -13.038  1.00  0.00     0.186 HD
BRANCH  14  16
HETATM   16  N2  UNL     1     -12.233   3.287 -13.787  1.00  0.00    -0.278 N 
ATOM     17  H2  UNL     1     -12.863   3.957 -13.345  1.00  0.00     0.189 HD
BRANCH  16  18
HETATM   18  C3  UNL     1     -11.199   3.766 -14.635  1.00  0.00     0.199 C 
HETATM   19  N3  UNL     1     -11.466   4.597 -15.740  1.00  0.00    -0.068 NA
HETATM   20  S1  UNL     1      -9.637   3.354 -14.340  1.00  0.00    -0.043 SA
ENDBRANCH  16  18
ENDBRANCH  14  16
ENDBRANCH   1  12
BRANCH   3  21
HETATM   21  O1  UNL     1     -15.200  -0.725 -10.491  1.00  0.00    -0.339 OA
ATOM     22  H1  UNL     1     -15.746  -0.251  -9.875  1.00  0.00     0.220 HD
ENDBRANCH   3  21
BRANCH   3  23
HETATM   23  O2  UNL     1     -14.736   1.310 -11.114  1.00  0.00    -0.238 OA
BRANCH  23  24
HETATM   24  C7  UNL     1     -15.887   2.129 -11.281  1.00  0.00     0.379 C 
HETATM   25  N4  UNL     1     -15.751   3.544 -11.297  1.00  0.00    -0.032 NA
HETATM   26  O3  UNL     1     -17.012   1.593 -11.412  1.00  0.00    -0.242 OA
ENDBRANCH  23  24
ENDBRANCH   3  23
TORSDOF 6
ENDMDL
