MODEL 1
REMARK VINA RESULT: -5.746007551      0.000      0.000
REMARK  8 active torsions:
REMARK  status: ('A' for Active; 'I' for Inactive)
REMARK    1  A    between atoms: N1_2  and  C2_4 
REMARK    2  A    between atoms: C2_4  and  N2_6 
REMARK    3  A    between atoms: N2_6  and  N3_8 
REMARK       I    between atoms: N3_8  and  C3_10 
REMARK    4  A    between atoms: C3_10  and  C4_12 
REMARK    5  A    between atoms: C4_12  and  S2_13 
REMARK    6  A    between atoms: S2_13  and  C5_14 
REMARK    7  A    between atoms: C6_17  and  N5_18 
REMARK    8  A    between atoms: N5_18  and  C7_20 
ROOT
HETATM    1  C5  UNL     1       7.769 -15.654 -16.036  1.00  0.00     0.161 A 
HETATM    2  N4  UNL     1       6.883 -15.047 -16.866  1.00  0.00    -0.170 N 
ATOM      3  H4  UNL     1       6.135 -14.492 -16.452  1.00  0.00     0.186 HD
HETATM    4  C6  UNL     1       6.941 -15.141 -18.213  1.00  0.00     0.681 A 
HETATM    5  N6  UNL     1       7.928 -15.875 -18.751  1.00  0.00    -0.181 N 
ATOM      6  H6  UNL     1       8.001 -15.969 -19.764  1.00  0.00     0.185 HD
HETATM    7  C13 UNL     1       8.830 -16.495 -17.945  1.00  0.00     0.095 A 
HETATM    8  C14 UNL     1       9.886 -17.309 -18.603  1.00  0.00     0.089 C 
HETATM    9  N7  UNL     1       8.740 -16.377 -16.612  1.00  0.00    -0.326 N 
ATOM     10  H7  UNL     1       9.426 -16.849 -16.022  1.00  0.00     0.169 HD
ENDROOT
BRANCH   1  11
HETATM   11  S2  UNL     1       7.644 -15.438 -14.261  1.00  0.00    -0.084 SA
BRANCH  11  12
HETATM   12  C4  UNL     1       6.725 -13.927 -13.897  1.00  0.00     0.186 C 
BRANCH  12  13
HETATM   13  C3  UNL     1       5.242 -14.168 -13.902  1.00  0.00     0.245 C 
HETATM   14  N3  UNL     1       4.815 -15.429 -13.417  1.00  0.00    -0.267 N 
ATOM     15  H3  UNL     1       5.508 -16.099 -13.086  1.00  0.00     0.190 HD
HETATM   16  O1  UNL     1       4.500 -13.269 -14.320  1.00  0.00    -0.271 OA
BRANCH  14  17
HETATM   17  N2  UNL     1       3.470 -15.768 -13.387  1.00  0.00    -0.274 N 
ATOM     18  H2  UNL     1       3.080 -16.335 -14.140  1.00  0.00     0.189 HD
BRANCH  17  19
HETATM   19  C2  UNL     1       2.615 -15.334 -12.316  1.00  0.00     0.186 C 
HETATM   20  S1  UNL     1       3.296 -15.128 -10.835  1.00  0.00    -0.040 SA
BRANCH  19  21
HETATM   21  N1  UNL     1       1.237 -15.084 -12.496  1.00  0.00    -0.370 N 
HETATM   22  C1  UNL     1       0.795 -14.287 -13.607  1.00  0.00     0.148 C 
ATOM     23  H1  UNL     1       0.558 -15.467 -11.838  1.00  0.00     0.161 HD
ENDBRANCH  19  21
ENDBRANCH  17  19
ENDBRANCH  14  17
ENDBRANCH  12  13
ENDBRANCH  11  12
ENDBRANCH   1  11
BRANCH   4  24
HETATM   24  N5  UNL     1       6.076 -14.536 -18.961  1.00  0.00    -0.221 N 
ATOM     25  H5  UNL     1       6.391 -14.032 -19.790  1.00  0.00     0.178 HD
BRANCH  24  26
HETATM   26  C7  UNL     1       4.671 -14.566 -18.638  1.00  0.00     0.099 C 
HETATM   27  C8  UNL     1       4.239 -13.246 -18.072  1.00  0.00     0.026 C 
HETATM   28  C9  UNL     1       4.263 -12.129 -19.067  1.00  0.00     0.002 C 
HETATM   29  C10 UNL     1       4.177 -12.620 -20.496  1.00  0.00     0.000 C 
HETATM   30  C11 UNL     1       3.185 -13.765 -20.489  1.00  0.00     0.002 C 
HETATM   31  C12 UNL     1       3.913 -14.943 -19.882  1.00  0.00     0.026 C 
ENDBRANCH  24  26
ENDBRANCH   4  24
TORSDOF 8
ENDMDL
MODEL 2
REMARK VINA RESULT: -5.738433971      2.640      3.615
REMARK  8 active torsions:
REMARK  status: ('A' for Active; 'I' for Inactive)
REMARK    1  A    between atoms: N1_2  and  C2_4 
REMARK    2  A    between atoms: C2_4  and  N2_6 
REMARK    3  A    between atoms: N2_6  and  N3_8 
REMARK       I    between atoms: N3_8  and  C3_10 
REMARK    4  A    between atoms: C3_10  and  C4_12 
REMARK    5  A    between atoms: C4_12  and  S2_13 
REMARK    6  A    between atoms: S2_13  and  C5_14 
REMARK    7  A    between atoms: C6_17  and  N5_18 
REMARK    8  A    between atoms: N5_18  and  C7_20 
ROOT
HETATM    1  C5  UNL     1       6.188 -11.115 -16.381  1.00  0.00     0.161 A 
HETATM    2  N4  UNL     1       5.660 -11.949 -17.313  1.00  0.00    -0.170 N 
ATOM      3  H4  UNL     1       5.264 -12.835 -17.000  1.00  0.00     0.186 HD
HETATM    4  C6  UNL     1       5.632 -11.665 -18.635  1.00  0.00     0.681 A 
HETATM    5  N6  UNL     1       6.158 -10.497 -19.038  1.00  0.00    -0.181 N 
ATOM      6  H6  UNL     1       6.154 -10.251 -20.028  1.00  0.00     0.185 HD
HETATM    7  C13 UNL     1       6.693  -9.643 -18.128  1.00  0.00     0.095 A 
HETATM    8  C14 UNL     1       7.276  -8.374 -18.644  1.00  0.00     0.089 C 
HETATM    9  N7  UNL     1       6.701  -9.958 -16.824  1.00  0.00    -0.326 N 
ATOM     10  H7  UNL     1       7.107  -9.304 -16.155  1.00  0.00     0.169 HD
ENDROOT
BRANCH   1  11
HETATM   11  S2  UNL     1       6.141 -11.551 -14.643  1.00  0.00    -0.084 SA
BRANCH  11  12
HETATM   12  C4  UNL     1       6.318 -13.339 -14.462  1.00  0.00     0.186 C 
BRANCH  12  13
HETATM   13  C3  UNL     1       4.983 -14.016 -14.337  1.00  0.00     0.245 C 
HETATM   14  N3  UNL     1       4.900 -15.059 -13.380  1.00  0.00    -0.267 N 
ATOM     15  H3  UNL     1       5.722 -15.294 -12.824  1.00  0.00     0.190 HD
HETATM   16  O1  UNL     1       4.056 -13.631 -15.062  1.00  0.00    -0.271 OA
BRANCH  14  17
HETATM   17  N2  UNL     1       3.721 -15.764 -13.188  1.00  0.00    -0.274 N 
ATOM     18  H2  UNL     1       3.530 -16.585 -13.764  1.00  0.00     0.189 HD
BRANCH  17  19
HETATM   19  C2  UNL     1       2.765 -15.362 -12.195  1.00  0.00     0.186 C 
HETATM   20  S1  UNL     1       3.332 -14.987 -10.699  1.00  0.00    -0.040 SA
BRANCH  19  21
HETATM   21  N1  UNL     1       1.380 -15.279 -12.460  1.00  0.00    -0.370 N 
HETATM   22  C1  UNL     1       0.903 -14.405 -13.497  1.00  0.00     0.148 C 
ATOM     23  H1  UNL     1       0.721 -15.837 -11.918  1.00  0.00     0.161 HD
ENDBRANCH  19  21
ENDBRANCH  17  19
ENDBRANCH  14  17
ENDBRANCH  12  13
ENDBRANCH  11  12
ENDBRANCH   1  11
BRANCH   4  24
HETATM   24  N5  UNL     1       5.110 -12.491 -19.482  1.00  0.00    -0.221 N 
ATOM     25  H5  UNL     1       5.456 -12.514 -20.442  1.00  0.00     0.178 HD
BRANCH  24  26
HETATM   26  C7  UNL     1       4.045 -13.380 -19.087  1.00  0.00     0.099 C 
HETATM   27  C8  UNL     1       2.787 -13.049 -19.834  1.00  0.00     0.026 C 
HETATM   28  C9  UNL     1       2.860 -13.349 -21.297  1.00  0.00     0.002 C 
HETATM   29  C10 UNL     1       3.911 -14.387 -21.627  1.00  0.00     0.000 C 
HETATM   30  C11 UNL     1       3.841 -15.422 -20.523  1.00  0.00     0.002 C 
HETATM   31  C12 UNL     1       4.506 -14.793 -19.320  1.00  0.00     0.026 C 
ENDBRANCH  24  26
ENDBRANCH   4  24
TORSDOF 8
ENDMDL
MODEL 3
REMARK VINA RESULT: -5.672796441      1.223      1.433
REMARK  8 active torsions:
REMARK  status: ('A' for Active; 'I' for Inactive)
REMARK    1  A    between atoms: N1_2  and  C2_4 
REMARK    2  A    between atoms: C2_4  and  N2_6 
REMARK    3  A    between atoms: N2_6  and  N3_8 
REMARK       I    between atoms: N3_8  and  C3_10 
REMARK    4  A    between atoms: C3_10  and  C4_12 
REMARK    5  A    between atoms: C4_12  and  S2_13 
REMARK    6  A    between atoms: S2_13  and  C5_14 
REMARK    7  A    between atoms: C6_17  and  N5_18 
REMARK    8  A    between atoms: N5_18  and  C7_20 
ROOT
HETATM    1  C5  UNL     1       7.208 -14.976 -17.235  1.00  0.00     0.161 A 
HETATM    2  N4  UNL     1       5.993 -14.757 -17.799  1.00  0.00    -0.170 N 
ATOM      3  H4  UNL     1       5.194 -14.610 -17.183  1.00  0.00     0.186 HD
HETATM    4  C6  UNL     1       5.788 -14.724 -19.134  1.00  0.00     0.681 A 
HETATM    5  N6  UNL     1       6.845 -14.921 -19.938  1.00  0.00    -0.181 N 
ATOM      6  H6  UNL     1       6.727 -14.903 -20.951  1.00  0.00     0.185 HD
HETATM    7  C13 UNL     1       8.074 -15.142 -19.402  1.00  0.00     0.095 A 
HETATM    8  C14 UNL     1       9.199 -15.371 -20.348  1.00  0.00     0.089 C 
HETATM    9  N7  UNL     1       8.238 -15.166 -18.071  1.00  0.00    -0.326 N 
ATOM     10  H7  UNL     1       9.168 -15.333 -17.686  1.00  0.00     0.169 HD
ENDROOT
BRANCH   1  11
HETATM   11  S2  UNL     1       7.398 -14.957 -15.452  1.00  0.00    -0.084 SA
BRANCH  11  12
HETATM   12  C4  UNL     1       6.281 -13.731 -14.737  1.00  0.00     0.186 C 
BRANCH  12  13
HETATM   13  C3  UNL     1       4.899 -14.289 -14.547  1.00  0.00     0.245 C 
HETATM   14  N3  UNL     1       4.752 -15.255 -13.521  1.00  0.00    -0.267 N 
ATOM     15  H3  UNL     1       5.563 -15.519 -12.962  1.00  0.00     0.190 HD
HETATM   16  O1  UNL     1       3.991 -13.878 -15.283  1.00  0.00    -0.271 OA
BRANCH  14  17
HETATM   17  N2  UNL     1       3.524 -15.848 -13.264  1.00  0.00    -0.274 N 
ATOM     18  H2  UNL     1       3.235 -16.658 -13.814  1.00  0.00     0.189 HD
BRANCH  17  19
HETATM   19  C2  UNL     1       2.653 -15.345 -12.238  1.00  0.00     0.186 C 
HETATM   20  S1  UNL     1       3.311 -15.036 -10.765  1.00  0.00    -0.040 SA
BRANCH  19  21
HETATM   21  N1  UNL     1       1.277 -15.112 -12.455  1.00  0.00    -0.370 N 
HETATM   22  C1  UNL     1       0.850 -14.401 -13.629  1.00  0.00     0.148 C 
ATOM     23  H1  UNL     1       0.590 -15.448 -11.780  1.00  0.00     0.161 HD
ENDBRANCH  19  21
ENDBRANCH  17  19
ENDBRANCH  14  17
ENDBRANCH  12  13
ENDBRANCH  11  12
ENDBRANCH   1  11
BRANCH   4  24
HETATM   24  N5  UNL     1       4.610 -14.504 -19.622  1.00  0.00    -0.221 N 
ATOM     25  H5  UNL     1       4.269 -15.077 -20.395  1.00  0.00     0.178 HD
BRANCH  24  26
HETATM   26  C7  UNL     1       3.773 -13.459 -19.087  1.00  0.00     0.099 C 
HETATM   27  C8  UNL     1       4.438 -12.124 -19.251  1.00  0.00     0.026 C 
HETATM   28  C9  UNL     1       4.550 -11.679 -20.674  1.00  0.00     0.002 C 
HETATM   29  C10 UNL     1       3.532 -12.345 -21.574  1.00  0.00     0.000 C 
HETATM   30  C11 UNL     1       2.247 -12.415 -20.777  1.00  0.00     0.002 C 
HETATM   31  C12 UNL     1       2.438 -13.532 -19.776  1.00  0.00     0.026 C 
ENDBRANCH  24  26
ENDBRANCH   4  24
TORSDOF 8
ENDMDL
MODEL 4
REMARK VINA RESULT: -5.554990147      3.412      6.654
REMARK  8 active torsions:
REMARK  status: ('A' for Active; 'I' for Inactive)
REMARK    1  A    between atoms: N1_2  and  C2_4 
REMARK    2  A    between atoms: C2_4  and  N2_6 
REMARK    3  A    between atoms: N2_6  and  N3_8 
REMARK       I    between atoms: N3_8  and  C3_10 
REMARK    4  A    between atoms: C3_10  and  C4_12 
REMARK    5  A    between atoms: C4_12  and  S2_13 
REMARK    6  A    between atoms: S2_13  and  C5_14 
REMARK    7  A    between atoms: C6_17  and  N5_18 
REMARK    8  A    between atoms: N5_18  and  C7_20 
ROOT
HETATM    1  C5  UNL     1       6.281 -15.014 -16.919  1.00  0.00     0.161 A 
HETATM    2  N4  UNL     1       5.115 -15.099 -16.230  1.00  0.00    -0.170 N 
ATOM      3  H4  UNL     1       4.252 -14.835 -16.706  1.00  0.00     0.186 HD
HETATM    4  C6  UNL     1       5.038 -15.514 -14.946  1.00  0.00     0.681 A 
HETATM    5  N6  UNL     1       6.178 -15.857 -14.326  1.00  0.00    -0.181 N 
ATOM      6  H6  UNL     1       6.158 -16.174 -13.357  1.00  0.00     0.185 HD
HETATM    7  C13 UNL     1       7.361 -15.782 -14.991  1.00  0.00     0.095 A 
HETATM    8  C14 UNL     1       8.590 -16.158 -14.240  1.00  0.00     0.089 C 
HETATM    9  N7  UNL     1       7.397 -15.367 -16.266  1.00  0.00    -0.326 N 
ATOM     10  H7  UNL     1       8.295 -15.317 -16.749  1.00  0.00     0.169 HD
ENDROOT
BRANCH   1  11
HETATM   11  S2  UNL     1       6.286 -14.497 -18.635  1.00  0.00    -0.084 SA
BRANCH  11  12
HETATM   12  C4  UNL     1       4.740 -14.997 -19.423  1.00  0.00     0.186 C 
BRANCH  12  13
HETATM   13  C3  UNL     1       3.725 -13.889 -19.401  1.00  0.00     0.245 C 
HETATM   14  N3  UNL     1       2.994 -13.690 -20.599  1.00  0.00    -0.267 N 
ATOM     15  H3  UNL     1       3.172 -14.294 -21.401  1.00  0.00     0.190 HD
HETATM   16  O1  UNL     1       3.593 -13.232 -18.360  1.00  0.00    -0.271 OA
BRANCH  14  17
HETATM   17  N2  UNL     1       2.040 -12.688 -20.699  1.00  0.00    -0.274 N 
ATOM     18  H2  UNL     1       1.239 -12.695 -20.066  1.00  0.00     0.189 HD
BRANCH  17  19
HETATM   19  C2  UNL     1       2.159 -11.640 -21.674  1.00  0.00     0.186 C 
HETATM   20  S1  UNL     1       3.542 -10.752 -21.674  1.00  0.00    -0.040 SA
BRANCH  19  21
HETATM   21  N1  UNL     1       1.145 -11.357 -22.615  1.00  0.00    -0.370 N 
HETATM   22  C1  UNL     1       0.273 -10.232 -22.410  1.00  0.00     0.148 C 
ATOM     23  H1  UNL     1       1.031 -11.949 -23.438  1.00  0.00     0.161 HD
ENDBRANCH  19  21
ENDBRANCH  17  19
ENDBRANCH  14  17
ENDBRANCH  12  13
ENDBRANCH  11  12
ENDBRANCH   1  11
BRANCH   4  24
HETATM   24  N5  UNL     1       3.899 -15.585 -14.336  1.00  0.00    -0.221 N 
ATOM     25  H5  UNL     1       3.179 -16.217 -14.685  1.00  0.00     0.178 HD
BRANCH  24  26
HETATM   26  C7  UNL     1       3.637 -14.781 -13.167  1.00  0.00     0.099 C 
HETATM   27  C8  UNL     1       3.103 -13.438 -13.569  1.00  0.00     0.026 C 
HETATM   28  C9  UNL     1       1.736 -13.491 -14.174  1.00  0.00     0.002 C 
HETATM   29  C10 UNL     1       0.969 -14.732 -13.772  1.00  0.00     0.000 C 
HETATM   30  C11 UNL     1       1.290 -14.971 -12.311  1.00  0.00     0.002 C 
HETATM   31  C12 UNL     1       2.690 -15.543 -12.280  1.00  0.00     0.026 C 
ENDBRANCH  24  26
ENDBRANCH   4  24
TORSDOF 8
ENDMDL
MODEL 5
REMARK VINA RESULT: -5.522501506      3.002      6.270
REMARK  8 active torsions:
REMARK  status: ('A' for Active; 'I' for Inactive)
REMARK    1  A    between atoms: N1_2  and  C2_4 
REMARK    2  A    between atoms: C2_4  and  N2_6 
REMARK    3  A    between atoms: N2_6  and  N3_8 
REMARK       I    between atoms: N3_8  and  C3_10 
REMARK    4  A    between atoms: C3_10  and  C4_12 
REMARK    5  A    between atoms: C4_12  and  S2_13 
REMARK    6  A    between atoms: S2_13  and  C5_14 
REMARK    7  A    between atoms: C6_17  and  N5_18 
REMARK    8  A    between atoms: N5_18  and  C7_20 
ROOT
HETATM    1  C5  UNL     1       6.714 -14.192 -16.151  1.00  0.00     0.161 A 
HETATM    2  N4  UNL     1       5.436 -14.473 -15.790  1.00  0.00    -0.170 N 
ATOM      3  H4  UNL     1       4.679 -14.057 -16.331  1.00  0.00     0.186 HD
HETATM    4  C6  UNL     1       5.116 -15.276 -14.751  1.00  0.00     0.681 A 
HETATM    5  N6  UNL     1       6.119 -15.819 -14.043  1.00  0.00    -0.181 N 
ATOM      6  H6  UNL     1       5.914 -16.429 -13.252  1.00  0.00     0.185 HD
HETATM    7  C13 UNL     1       7.409 -15.555 -14.380  1.00  0.00     0.095 A 
HETATM    8  C14 UNL     1       8.472 -16.172 -13.542  1.00  0.00     0.089 C 
HETATM    9  N7  UNL     1       7.687 -14.754 -15.419  1.00  0.00    -0.326 N 
ATOM     10  H7  UNL     1       8.661 -14.567 -15.658  1.00  0.00     0.169 HD
ENDROOT
BRANCH   1  11
HETATM   11  S2  UNL     1       7.049 -13.152 -17.572  1.00  0.00    -0.084 SA
BRANCH  11  12
HETATM   12  C4  UNL     1       5.788 -11.865 -17.692  1.00  0.00     0.186 C 
BRANCH  12  13
HETATM   13  C3  UNL     1       4.574 -12.349 -18.434  1.00  0.00     0.245 C 
HETATM   14  N3  UNL     1       4.333 -11.746 -19.694  1.00  0.00    -0.267 N 
ATOM     15  H3  UNL     1       4.979 -11.037 -20.041  1.00  0.00     0.190 HD
HETATM   16  O1  UNL     1       3.873 -13.225 -17.911  1.00  0.00    -0.271 OA
BRANCH  14  17
HETATM   17  N2  UNL     1       3.235 -12.104 -20.462  1.00  0.00    -0.274 N 
ATOM     18  H2  UNL     1       2.389 -11.535 -20.420  1.00  0.00     0.189 HD
BRANCH  17  19
HETATM   19  C2  UNL     1       3.266 -13.259 -21.316  1.00  0.00     0.186 C 
HETATM   20  S1  UNL     1       3.000 -13.027 -22.921  1.00  0.00    -0.040 SA
BRANCH  19  21
HETATM   21  N1  UNL     1       3.516 -14.560 -20.827  1.00  0.00    -0.370 N 
HETATM   22  C1  UNL     1       4.832 -15.126 -20.941  1.00  0.00     0.148 C 
ATOM     23  H1  UNL     1       2.763 -15.096 -20.395  1.00  0.00     0.161 HD
ENDBRANCH  19  21
ENDBRANCH  17  19
ENDBRANCH  14  17
ENDBRANCH  12  13
ENDBRANCH  11  12
ENDBRANCH   1  11
BRANCH   4  24
HETATM   24  N5  UNL     1       3.881 -15.519 -14.453  1.00  0.00    -0.221 N 
ATOM     25  H5  UNL     1       3.269 -15.947 -15.149  1.00  0.00     0.178 HD
BRANCH  24  26
HETATM   26  C7  UNL     1       3.357 -15.193 -13.149  1.00  0.00     0.099 C 
HETATM   27  C8  UNL     1       3.532 -13.730 -12.869  1.00  0.00     0.026 C 
HETATM   28  C9  UNL     1       2.684 -12.848 -13.729  1.00  0.00     0.002 C 
HETATM   29  C10 UNL     1       1.474 -13.567 -14.285  1.00  0.00     0.000 C 
HETATM   30  C11 UNL     1       0.963 -14.457 -13.171  1.00  0.00     0.002 C 
HETATM   31  C12 UNL     1       1.918 -15.628 -13.103  1.00  0.00     0.026 C 
ENDBRANCH  24  26
ENDBRANCH   4  24
TORSDOF 8
ENDMDL
