MODEL 1
REMARK VINA RESULT: -6.451283681      0.000      0.000
REMARK  5 active torsions:
REMARK  status: ('A' for Active; 'I' for Inactive)
REMARK       I    between atoms: C2_2  and  N1_4 
REMARK    1  A    between atoms: N1_4  and  N2_6 
REMARK    2  A    between atoms: C3_8  and  O2_9 
REMARK    3  A    between atoms: C3_8  and  C4_11 
REMARK       I    between atoms: N4_26  and  C17_27 
REMARK    4  A    between atoms: C17_27  and  C18_29 
REMARK    5  A    between atoms: C18_29  and  N5_31 
ROOT
HETATM    1  C4  UNL     1       4.850 -12.448 -18.089  1.00  0.00     0.062 C 
HETATM    2  C5  UNL     1       6.319 -12.372 -17.799  1.00  0.00     0.015 C 
HETATM    3  C6  UNL     1       6.825 -13.301 -16.766  1.00  0.00     0.033 C 
HETATM    4  C7  UNL     1       5.775 -13.901 -15.936  1.00  0.00     0.051 C 
HETATM    5  C8  UNL     1       4.907 -14.675 -16.941  1.00  0.00     0.033 C 
HETATM    6  C9  UNL     1       4.319 -13.852 -18.019  1.00  0.00     0.015 C 
HETATM    7  C10 UNL     1       6.325 -15.053 -15.052  1.00  0.00     0.145 C 
HETATM    8  N3  UNL     1       5.158 -15.781 -14.617  1.00  0.00    -0.413 N 
ATOM      9  H3  UNL     1       5.041 -16.778 -14.796  1.00  0.00     0.153 HD
HETATM   10  C11 UNL     1       4.181 -15.013 -13.921  1.00  0.00     0.099 C 
HETATM   11  C12 UNL     1       2.984 -15.869 -13.688  1.00  0.00     0.027 C 
HETATM   12  C13 UNL     1       1.750 -15.180 -13.244  1.00  0.00     0.002 C 
HETATM   13  C14 UNL     1       1.476 -13.890 -13.977  1.00  0.00     0.002 C 
HETATM   14  C15 UNL     1       2.754 -12.997 -13.938  1.00  0.00     0.027 C 
HETATM   15  C16 UNL     1       3.758 -13.759 -14.684  1.00  0.00     0.110 C 
HETATM   16  N4  UNL     1       5.038 -13.098 -15.005  1.00  0.00    -0.333 N 
HETATM   17  C17 UNL     1       5.425 -11.911 -14.376  1.00  0.00     0.251 C 
HETATM   18  O3  UNL     1       4.512 -11.344 -13.644  1.00  0.00    -0.271 OA
ENDROOT
BRANCH  17  19
HETATM   19  C18 UNL     1       6.674 -11.172 -14.374  1.00  0.00     0.271 C 
HETATM   20  C19 UNL     1       7.494 -11.414 -13.088  1.00  0.00     0.050 C 
BRANCH  19  21
HETATM   21  N5  UNL     1       6.364  -9.714 -14.255  1.00  0.00    -0.067 N 
ATOM     22  H53 UNL     1       6.962  -9.241 -13.576  1.00  0.00     0.275 HD
ATOM     23  H52 UNL     1       6.645  -9.186 -15.081  1.00  0.00     0.275 HD
ATOM     24  H51 UNL     1       5.372  -9.610 -14.043  1.00  0.00     0.275 HD
ENDBRANCH  19  21
ENDBRANCH  17  19
BRANCH   1  25
HETATM   25  C3  UNL     1       4.620 -11.933 -19.455  1.00  0.00     0.134 C 
HETATM   26  N2  UNL     1       4.077 -12.649 -20.368  1.00  0.00    -0.281 N 
ATOM     27  H2  UNL     1       3.801 -13.600 -20.123  1.00  0.00     0.189 HD
BRANCH  26  28
HETATM   28  N1  UNL     1       3.837 -12.224 -21.661  1.00  0.00    -0.269 N 
HETATM   29  C2  UNL     1       2.504 -11.941 -22.064  1.00  0.00     0.232 C 
HETATM   30  C1  UNL     1       2.228 -11.482 -23.453  1.00  0.00     0.119 C 
HETATM   31  O1  UNL     1       1.561 -12.075 -21.265  1.00  0.00    -0.272 OA
ATOM     32  H1  UNL     1       4.609 -12.115 -22.319  1.00  0.00     0.190 HD
ENDBRANCH  26  28
BRANCH  25  33
HETATM   33  O2  UNL     1       5.000 -10.644 -19.768  1.00  0.00    -0.348 OA
ATOM     34  H2  UNL     1       5.631 -10.209 -19.207  1.00  0.00     0.219 HD
ENDBRANCH  25  33
ENDBRANCH   1  25
TORSDOF 5
ENDMDL
MODEL 2
REMARK VINA RESULT: -6.408537072      2.750      7.083
REMARK  5 active torsions:
REMARK  status: ('A' for Active; 'I' for Inactive)
REMARK       I    between atoms: C2_2  and  N1_4 
REMARK    1  A    between atoms: N1_4  and  N2_6 
REMARK    2  A    between atoms: C3_8  and  O2_9 
REMARK    3  A    between atoms: C3_8  and  C4_11 
REMARK       I    between atoms: N4_26  and  C17_27 
REMARK    4  A    between atoms: C17_27  and  C18_29 
REMARK    5  A    between atoms: C18_29  and  N5_31 
ROOT
HETATM    1  C4  UNL     1       5.532 -14.464 -15.915  1.00  0.00     0.062 C 
HETATM    2  C5  UNL     1       7.007 -14.199 -15.872  1.00  0.00     0.015 C 
HETATM    3  C6  UNL     1       7.497 -13.119 -16.756  1.00  0.00     0.033 C 
HETATM    4  C7  UNL     1       6.540 -12.713 -17.790  1.00  0.00     0.051 C 
HETATM    5  C8  UNL     1       5.326 -12.211 -16.993  1.00  0.00     0.033 C 
HETATM    6  C9  UNL     1       4.724 -13.208 -16.082  1.00  0.00     0.015 C 
HETATM    7  C10 UNL     1       6.991 -11.416 -18.516  1.00  0.00     0.145 C 
HETATM    8  N3  UNL     1       5.809 -10.935 -19.189  1.00  0.00    -0.413 N 
ATOM      9  H3  UNL     1       5.434 -10.000 -19.028  1.00  0.00     0.153 HD
HETATM   10  C11 UNL     1       5.202 -11.853 -20.094  1.00  0.00     0.099 C 
HETATM   11  C12 UNL     1       3.921 -11.265 -20.576  1.00  0.00     0.027 C 
HETATM   12  C13 UNL     1       2.999 -12.178 -21.291  1.00  0.00     0.002 C 
HETATM   13  C14 UNL     1       2.874 -13.540 -20.654  1.00  0.00     0.002 C 
HETATM   14  C15 UNL     1       4.300 -14.128 -20.420  1.00  0.00     0.027 C 
HETATM   15  C16 UNL     1       4.922 -13.213 -19.460  1.00  0.00     0.110 C 
HETATM   16  N4  UNL     1       6.220 -13.598 -18.872  1.00  0.00    -0.333 N 
HETATM   17  C17 UNL     1       6.991 -14.631 -19.415  1.00  0.00     0.251 C 
HETATM   18  O3  UNL     1       6.407 -15.336 -20.337  1.00  0.00    -0.271 OA
ENDROOT
BRANCH  17  19
HETATM   19  C18 UNL     1       8.346 -15.077 -19.149  1.00  0.00     0.271 C 
HETATM   20  C19 UNL     1       9.103 -15.449 -20.442  1.00  0.00     0.050 C 
BRANCH  19  21
HETATM   21  N5  UNL     1       8.283 -16.400 -18.455  1.00  0.00    -0.067 N 
ATOM     22  H53 UNL     1       9.205 -16.815 -18.319  1.00  0.00     0.275 HD
ATOM     23  H52 UNL     1       8.023 -16.314 -17.473  1.00  0.00     0.275 HD
ATOM     24  H51 UNL     1       7.652 -17.009 -18.975  1.00  0.00     0.275 HD
ENDBRANCH  19  21
ENDBRANCH  17  19
BRANCH   1  25
HETATM   25  C3  UNL     1       5.139 -15.100 -14.640  1.00  0.00     0.134 C 
HETATM   26  N2  UNL     1       5.135 -14.457 -13.532  1.00  0.00    -0.281 N 
ATOM     27  H2  UNL     1       5.414 -13.476 -13.553  1.00  0.00     0.189 HD
BRANCH  26  28
HETATM   28  N1  UNL     1       4.779 -14.997 -12.311  1.00  0.00    -0.269 N 
HETATM   29  C2  UNL     1       3.885 -14.283 -11.469  1.00  0.00     0.232 C 
HETATM   30  C1  UNL     1       3.491 -14.851 -10.150  1.00  0.00     0.119 C 
HETATM   31  O1  UNL     1       3.428 -13.182 -11.822  1.00  0.00    -0.272 OA
ATOM     32  H1  UNL     1       5.153 -15.899 -12.018  1.00  0.00     0.190 HD
ENDBRANCH  26  28
BRANCH  25  33
HETATM   33  O2  UNL     1       4.764 -16.428 -14.632  1.00  0.00    -0.348 OA
ATOM     34  H2  UNL     1       5.283 -17.048 -15.131  1.00  0.00     0.219 HD
ENDBRANCH  25  33
ENDBRANCH   1  25
TORSDOF 5
ENDMDL
MODEL 3
REMARK VINA RESULT: -6.040071625      1.556      1.913
REMARK  5 active torsions:
REMARK  status: ('A' for Active; 'I' for Inactive)
REMARK       I    between atoms: C2_2  and  N1_4 
REMARK    1  A    between atoms: N1_4  and  N2_6 
REMARK    2  A    between atoms: C3_8  and  O2_9 
REMARK    3  A    between atoms: C3_8  and  C4_11 
REMARK       I    between atoms: N4_26  and  C17_27 
REMARK    4  A    between atoms: C17_27  and  C18_29 
REMARK    5  A    between atoms: C18_29  and  N5_31 
ROOT
HETATM    1  C4  UNL     1       4.904 -12.360 -17.953  1.00  0.00     0.062 C 
HETATM    2  C5  UNL     1       6.374 -12.517 -17.705  1.00  0.00     0.015 C 
HETATM    3  C6  UNL     1       6.762 -13.594 -16.769  1.00  0.00     0.033 C 
HETATM    4  C7  UNL     1       5.654 -14.110 -15.960  1.00  0.00     0.051 C 
HETATM    5  C8  UNL     1       4.665 -14.665 -16.998  1.00  0.00     0.033 C 
HETATM    6  C9  UNL     1       4.179 -13.677 -17.985  1.00  0.00     0.015 C 
HETATM    7  C10 UNL     1       6.051 -15.401 -15.193  1.00  0.00     0.145 C 
HETATM    8  N3  UNL     1       4.801 -15.994 -14.784  1.00  0.00    -0.413 N 
ATOM      9  H3  UNL     1       4.540 -16.945 -15.042  1.00  0.00     0.153 HD
HETATM   10  C11 UNL     1       3.956 -15.159 -13.995  1.00  0.00     0.099 C 
HETATM   11  C12 UNL     1       2.655 -15.857 -13.797  1.00  0.00     0.027 C 
HETATM   12  C13 UNL     1       1.540 -15.043 -13.259  1.00  0.00     0.002 C 
HETATM   13  C14 UNL     1       1.438 -13.668 -13.872  1.00  0.00     0.002 C 
HETATM   14  C15 UNL     1       2.832 -12.970 -13.798  1.00  0.00     0.027 C 
HETATM   15  C16 UNL     1       3.701 -13.798 -14.637  1.00  0.00     0.110 C 
HETATM   16  N4  UNL     1       5.056 -13.297 -14.942  1.00  0.00    -0.333 N 
HETATM   17  C17 UNL     1       5.620 -12.235 -14.228  1.00  0.00     0.251 C 
HETATM   18  O3  UNL     1       4.812 -11.612 -13.424  1.00  0.00    -0.271 OA
ENDROOT
BRANCH  17  19
HETATM   19  C18 UNL     1       6.962 -11.682 -14.204  1.00  0.00     0.271 C 
HETATM   20  C19 UNL     1       7.810 -12.256 -13.049  1.00  0.00     0.050 C 
BRANCH  19  21
HETATM   21  N5  UNL     1       6.875 -10.241 -13.815  1.00  0.00    -0.067 N 
ATOM     22  H53 UNL     1       7.137  -9.614 -14.576  1.00  0.00     0.275 HD
ATOM     23  H52 UNL     1       5.912  -9.925 -13.699  1.00  0.00     0.275 HD
ATOM     24  H51 UNL     1       7.438 -10.096 -12.977  1.00  0.00     0.275 HD
ENDBRANCH  19  21
ENDBRANCH  17  19
BRANCH   1  25
HETATM   25  C3  UNL     1       4.723 -11.701 -19.264  1.00  0.00     0.134 C 
HETATM   26  N2  UNL     1       5.431 -10.696 -19.622  1.00  0.00    -0.281 N 
ATOM     27  H2  UNL     1       6.136 -10.355 -18.968  1.00  0.00     0.189 HD
BRANCH  26  28
HETATM   28  N1  UNL     1       5.307 -10.038 -20.831  1.00  0.00    -0.269 N 
HETATM   29  C2  UNL     1       5.307  -8.618 -20.854  1.00  0.00     0.232 C 
HETATM   30  C1  UNL     1       5.175  -7.894 -22.148  1.00  0.00     0.119 C 
HETATM   31  O1  UNL     1       5.415  -7.970 -19.798  1.00  0.00    -0.272 OA
ATOM     32  H1  UNL     1       5.216 -10.568 -21.698  1.00  0.00     0.190 HD
ENDBRANCH  26  28
BRANCH  25  33
HETATM   33  O2  UNL     1       3.764 -12.175 -20.135  1.00  0.00    -0.348 OA
ATOM     34  H2  UNL     1       3.263 -11.547 -20.643  1.00  0.00     0.219 HD
ENDBRANCH  25  33
ENDBRANCH   1  25
TORSDOF 5
ENDMDL
MODEL 4
REMARK VINA RESULT: -5.818728306      2.476      2.748
REMARK  5 active torsions:
REMARK  status: ('A' for Active; 'I' for Inactive)
REMARK       I    between atoms: C2_2  and  N1_4 
REMARK    1  A    between atoms: N1_4  and  N2_6 
REMARK    2  A    between atoms: C3_8  and  O2_9 
REMARK    3  A    between atoms: C3_8  and  C4_11 
REMARK       I    between atoms: N4_26  and  C17_27 
REMARK    4  A    between atoms: C17_27  and  C18_29 
REMARK    5  A    between atoms: C18_29  and  N5_31 
ROOT
HETATM    1  C4  UNL     1       6.412 -14.499 -16.816  1.00  0.00     0.062 C 
HETATM    2  C5  UNL     1       7.710 -13.876 -16.400  1.00  0.00     0.015 C 
HETATM    3  C6  UNL     1       7.997 -13.882 -14.949  1.00  0.00     0.033 C 
HETATM    4  C7  UNL     1       6.830 -14.171 -14.111  1.00  0.00     0.051 C 
HETATM    5  C8  UNL     1       6.396 -15.578 -14.553  1.00  0.00     0.033 C 
HETATM    6  C9  UNL     1       6.056 -15.702 -15.987  1.00  0.00     0.015 C 
HETATM    7  C10 UNL     1       7.230 -14.422 -12.632  1.00  0.00     0.145 C 
HETATM    8  N3  UNL     1       6.083 -15.065 -12.038  1.00  0.00    -0.413 N 
ATOM      9  H3  UNL     1       6.144 -15.976 -11.583  1.00  0.00     0.153 HD
HETATM   10  C11 UNL     1       4.858 -14.342 -12.130  1.00  0.00     0.099 C 
HETATM   11  C12 UNL     1       3.759 -15.206 -11.618  1.00  0.00     0.027 C 
HETATM   12  C13 UNL     1       2.375 -14.757 -11.898  1.00  0.00     0.002 C 
HETATM   13  C14 UNL     1       2.175 -14.237 -13.300  1.00  0.00     0.002 C 
HETATM   14  C15 UNL     1       3.269 -13.168 -13.610  1.00  0.00     0.027 C 
HETATM   15  C16 UNL     1       4.531 -13.908 -13.557  1.00  0.00     0.110 C 
HETATM   16  N4  UNL     1       5.760 -13.222 -14.003  1.00  0.00    -0.333 N 
HETATM   17  C17 UNL     1       5.799 -11.836 -14.182  1.00  0.00     0.251 C 
HETATM   18  O3  UNL     1       4.650 -11.233 -14.112  1.00  0.00    -0.271 OA
ENDROOT
BRANCH  17  19
HETATM   19  C18 UNL     1       6.894 -10.916 -14.431  1.00  0.00     0.271 C 
HETATM   20  C19 UNL     1       7.741 -10.660 -13.166  1.00  0.00     0.050 C 
BRANCH  19  21
HETATM   21  N5  UNL     1       6.325  -9.557 -14.684  1.00  0.00    -0.067 N 
ATOM     22  H53 UNL     1       5.864  -9.489 -15.591  1.00  0.00     0.275 HD
ATOM     23  H52 UNL     1       5.514  -9.358 -14.099  1.00  0.00     0.275 HD
ATOM     24  H51 UNL     1       7.068  -8.868 -14.569  1.00  0.00     0.275 HD
ENDBRANCH  19  21
ENDBRANCH  17  19
BRANCH   1  25
HETATM   25  C3  UNL     1       6.534 -14.929 -18.225  1.00  0.00     0.134 C 
HETATM   26  N2  UNL     1       5.648 -14.636 -19.103  1.00  0.00    -0.281 N 
ATOM     27  H2  UNL     1       4.843 -14.089 -18.800  1.00  0.00     0.189 HD
BRANCH  26  28
HETATM   28  N1  UNL     1       5.707 -15.009 -20.432  1.00  0.00    -0.269 N 
HETATM   29  C2  UNL     1       4.525 -15.456 -21.082  1.00  0.00     0.232 C 
HETATM   30  C1  UNL     1       4.571 -15.862 -22.514  1.00  0.00     0.119 C 
HETATM   31  O1  UNL     1       3.448 -15.514 -20.463  1.00  0.00    -0.272 OA
ATOM     32  H1  UNL     1       6.590 -14.965 -20.941  1.00  0.00     0.190 HD
ENDBRANCH  26  28
BRANCH  25  33
HETATM   33  O2  UNL     1       7.630 -15.669 -18.616  1.00  0.00    -0.348 OA
ATOM     34  H2  UNL     1       8.290 -15.880 -17.966  1.00  0.00     0.219 HD
ENDBRANCH  25  33
ENDBRANCH   1  25
TORSDOF 5
ENDMDL
MODEL 5
REMARK VINA RESULT: -5.739949538      2.747      6.981
REMARK  5 active torsions:
REMARK  status: ('A' for Active; 'I' for Inactive)
REMARK       I    between atoms: C2_2  and  N1_4 
REMARK    1  A    between atoms: N1_4  and  N2_6 
REMARK    2  A    between atoms: C3_8  and  O2_9 
REMARK    3  A    between atoms: C3_8  and  C4_11 
REMARK       I    between atoms: N4_26  and  C17_27 
REMARK    4  A    between atoms: C17_27  and  C18_29 
REMARK    5  A    between atoms: C18_29  and  N5_31 
ROOT
HETATM    1  C4  UNL     1       5.633 -14.296 -16.008  1.00  0.00     0.062 C 
HETATM    2  C5  UNL     1       6.606 -13.179 -15.781  1.00  0.00     0.015 C 
HETATM    3  C6  UNL     1       6.560 -12.070 -16.757  1.00  0.00     0.033 C 
HETATM    4  C7  UNL     1       5.828 -12.388 -17.987  1.00  0.00     0.051 C 
HETATM    5  C8  UNL     1       4.404 -12.700 -17.500  1.00  0.00     0.033 C 
HETATM    6  C9  UNL     1       4.309 -13.812 -16.530  1.00  0.00     0.015 C 
HETATM    7  C10 UNL     1       5.586 -11.124 -18.857  1.00  0.00     0.145 C 
HETATM    8  N3  UNL     1       4.550 -11.503 -19.788  1.00  0.00    -0.413 N 
ATOM      9  H3  UNL     1       3.672 -10.990 -19.862  1.00  0.00     0.153 HD
HETATM   10  C11 UNL     1       4.838 -12.642 -20.594  1.00  0.00     0.099 C 
HETATM   11  C12 UNL     1       3.617 -12.989 -21.374  1.00  0.00     0.027 C 
HETATM   12  C13 UNL     1       3.611 -14.309 -22.047  1.00  0.00     0.002 C 
HETATM   13  C14 UNL     1       4.165 -15.428 -21.199  1.00  0.00     0.002 C 
HETATM   14  C15 UNL     1       5.557 -15.004 -20.637  1.00  0.00     0.027 C 
HETATM   15  C16 UNL     1       5.270 -13.855 -19.774  1.00  0.00     0.110 C 
HETATM   16  N4  UNL     1       6.359 -13.332 -18.926  1.00  0.00    -0.333 N 
HETATM   17  C17 UNL     1       7.692 -13.698 -19.140  1.00  0.00     0.251 C 
HETATM   18  O3  UNL     1       7.876 -14.656 -19.999  1.00  0.00    -0.271 OA
ENDROOT
BRANCH  17  19
HETATM   19  C18 UNL     1       8.939 -13.204 -18.584  1.00  0.00     0.271 C 
HETATM   20  C19 UNL     1       9.478 -11.981 -19.356  1.00  0.00     0.050 C 
BRANCH  19  21
HETATM   21  N5  UNL     1      10.009 -14.214 -18.849  1.00  0.00    -0.067 N 
ATOM     22  H53 UNL     1       9.936 -15.030 -18.241  1.00  0.00     0.275 HD
ATOM     23  H52 UNL     1       9.884 -14.692 -19.741  1.00  0.00     0.275 HD
ATOM     24  H51 UNL     1      10.916 -13.751 -18.777  1.00  0.00     0.275 HD
ENDBRANCH  19  21
ENDBRANCH  17  19
BRANCH   1  25
HETATM   25  C3  UNL     1       5.400 -14.978 -14.718  1.00  0.00     0.134 C 
HETATM   26  N2  UNL     1       4.506 -14.580 -13.891  1.00  0.00    -0.281 N 
ATOM     27  H2  UNL     1       3.950 -13.765 -14.150  1.00  0.00     0.189 HD
BRANCH  26  28
HETATM   28  N1  UNL     1       4.244 -15.175 -12.671  1.00  0.00    -0.269 N 
HETATM   29  C2  UNL     1       3.793 -14.373 -11.589  1.00  0.00     0.232 C 
HETATM   30  C1  UNL     1       3.505 -14.998 -10.269  1.00  0.00     0.119 C 
HETATM   31  O1  UNL     1       3.638 -13.147 -11.733  1.00  0.00    -0.272 OA
ATOM     32  H1  UNL     1       4.372 -16.179 -12.550  1.00  0.00     0.190 HD
ENDBRANCH  26  28
BRANCH  25  33
HETATM   33  O2  UNL     1       6.163 -16.078 -14.384  1.00  0.00    -0.348 OA
ATOM     34  H2  UNL     1       6.125 -16.843 -14.946  1.00  0.00     0.219 HD
ENDBRANCH  25  33
ENDBRANCH   1  25
TORSDOF 5
ENDMDL
