MODEL 1
REMARK VINA RESULT: -6.175003506      0.000      0.000
REMARK  8 active torsions:
REMARK  status: ('A' for Active; 'I' for Inactive)
REMARK    1  A    between atoms: C2_2  and  O1_3 
REMARK    2  A    between atoms: C2_2  and  N1_5 
REMARK    3  A    between atoms: N1_5  and  C3_6 
REMARK    4  A    between atoms: C4_9  and  N3_10 
REMARK       I    between atoms: N3_10  and  C5_12 
REMARK       I    between atoms: C5_12  and  N4_14 
REMARK    5  A    between atoms: N4_14  and  C6_16 
REMARK    6  A    between atoms: C11_23  and  C12_24 
REMARK    7  A    between atoms: C15_28  and  N6_29 
REMARK    8  A    between atoms: N6_29  and  O4_31 
ROOT
HETATM    1  C3  UNL     1       3.038 -13.640 -13.330  1.00  0.00     0.212 A 
HETATM    2  N2  UNL     1       3.762 -13.015 -14.314  1.00  0.00    -0.314 N 
ATOM      3  H2  UNL     1       3.246 -12.548 -15.059  1.00  0.00     0.170 HD
HETATM    4  C4  UNL     1       5.124 -12.978 -14.364  1.00  0.00     0.125 A 
HETATM    5  C11 UNL     1       5.829 -13.603 -13.360  1.00  0.00     0.056 A 
HETATM    6  C14 UNL     1       5.143 -14.251 -12.343  1.00  0.00     0.055 A 
HETATM    7  C15 UNL     1       3.745 -14.261 -12.341  1.00  0.00     0.115 A 
ENDROOT
BRANCH   4   8
HETATM    8  N3  UNL     1       5.806 -12.400 -15.451  1.00  0.00    -0.294 N 
HETATM    9  C5  UNL     1       5.443 -12.442 -16.816  1.00  0.00     0.322 C 
HETATM   10  O2  UNL     1       4.456 -13.016 -17.258  1.00  0.00    -0.247 OA
HETATM   11  N4  UNL     1       6.313 -11.758 -17.761  1.00  0.00    -0.338 N 
ATOM     12  H4  UNL     1       7.133 -11.263 -17.410  1.00  0.00     0.164 HD
ATOM     13  H3  UNL     1       6.661 -11.892 -15.227  1.00  0.00     0.172 HD
BRANCH  11  14
HETATM   14  C6  UNL     1       6.050 -11.757 -19.178  1.00  0.00     0.089 C 
HETATM   15  C7  UNL     1       7.341 -12.094 -19.979  1.00  0.00     0.044 C 
HETATM   16  C8  UNL     1       6.824 -12.282 -21.409  1.00  0.00     0.115 C 
HETATM   17  N5  UNL     1       6.388 -11.024 -21.904  1.00  0.00    -0.421 N 
HETATM   18  C9  UNL     1       6.138  -9.997 -20.949  1.00  0.00     0.115 C 
ATOM     19  H5  UNL     1       6.258 -10.863 -22.902  1.00  0.00     0.153 HD
HETATM   20  C10 UNL     1       5.470 -10.483 -19.679  1.00  0.00     0.044 C 
ENDBRANCH  11  14
ENDBRANCH   4   8
BRANCH   5  21
HETATM   21  C12 UNL     1       7.299 -13.573 -13.227  1.00  0.00     0.159 C 
HETATM   22  C13 UNL     1       7.967 -14.626 -12.376  1.00  0.00     0.097 C 
HETATM   23  O3  UNL     1       8.063 -12.743 -13.758  1.00  0.00    -0.293 OA
ENDBRANCH   5  21
BRANCH   1  24
HETATM   24  N1  UNL     1       1.861 -13.613 -13.385  1.00  0.00    -0.365 NA
BRANCH  24  25
HETATM   25  C2  UNL     1       0.560 -13.556 -13.607  1.00  0.00     0.188 C 
HETATM   26  C1  UNL     1      -0.043 -13.990 -14.897  1.00  0.00     0.114 C 
BRANCH  25  27
HETATM   27  O1  UNL     1      -0.350 -13.131 -12.773  1.00  0.00    -0.339 OA
ATOM     28  H1  UNL     1      -0.007 -12.458 -12.197  1.00  0.00     0.220 HD
ENDBRANCH  25  27
ENDBRANCH  24  25
ENDBRANCH   1  24
BRANCH   7  29
HETATM   29  N6  UNL     1       3.134 -14.924 -11.253  1.00  0.00    -0.261 N 
HETATM   30  C16 UNL     1       3.471 -14.596  -9.903  1.00  0.00     0.185 C 
BRANCH  29  31
HETATM   31  O4  UNL     1       2.285 -15.803 -11.490  1.00  0.00    -0.287 OA
ATOM     32  H4  UNL     1       1.364 -15.577 -11.426  1.00  0.00     0.244 HD
ENDBRANCH  29  31
ENDBRANCH   7  29
TORSDOF 8
ENDMDL
MODEL 2
REMARK VINA RESULT: -6.006135120      0.965      1.159
REMARK  8 active torsions:
REMARK  status: ('A' for Active; 'I' for Inactive)
REMARK    1  A    between atoms: C2_2  and  O1_3 
REMARK    2  A    between atoms: C2_2  and  N1_5 
REMARK    3  A    between atoms: N1_5  and  C3_6 
REMARK    4  A    between atoms: C4_9  and  N3_10 
REMARK       I    between atoms: N3_10  and  C5_12 
REMARK       I    between atoms: C5_12  and  N4_14 
REMARK    5  A    between atoms: N4_14  and  C6_16 
REMARK    6  A    between atoms: C11_23  and  C12_24 
REMARK    7  A    between atoms: C15_28  and  N6_29 
REMARK    8  A    between atoms: N6_29  and  O4_31 
ROOT
HETATM    1  C3  UNL     1       3.118 -13.753 -13.294  1.00  0.00     0.212 A 
HETATM    2  N2  UNL     1       3.925 -13.307 -14.311  1.00  0.00    -0.314 N 
ATOM      3  H2  UNL     1       3.477 -12.871 -15.117  1.00  0.00     0.170 HD
HETATM    4  C4  UNL     1       5.285 -13.408 -14.317  1.00  0.00     0.125 A 
HETATM    5  C11 UNL     1       5.899 -13.991 -13.232  1.00  0.00     0.056 A 
HETATM    6  C14 UNL     1       5.127 -14.460 -12.179  1.00  0.00     0.055 A 
HETATM    7  C15 UNL     1       3.736 -14.334 -12.224  1.00  0.00     0.115 A 
ENDROOT
BRANCH   4   8
HETATM    8  N3  UNL     1       6.048 -13.015 -15.433  1.00  0.00    -0.294 N 
HETATM    9  C5  UNL     1       5.771 -13.265 -16.797  1.00  0.00     0.322 C 
HETATM   10  O2  UNL     1       4.800 -13.887 -17.208  1.00  0.00    -0.247 OA
HETATM   11  N4  UNL     1       6.715 -12.747 -17.776  1.00  0.00    -0.338 N 
ATOM     12  H4  UNL     1       7.522 -12.215 -17.452  1.00  0.00     0.164 HD
ATOM     13  H3  UNL     1       6.898 -12.490 -15.234  1.00  0.00     0.172 HD
BRANCH  11  14
HETATM   14  C6  UNL     1       6.542 -12.963 -19.190  1.00  0.00     0.089 C 
HETATM   15  C7  UNL     1       7.296 -14.246 -19.648  1.00  0.00     0.044 C 
HETATM   16  C8  UNL     1       6.808 -14.441 -21.088  1.00  0.00     0.115 C 
HETATM   17  N5  UNL     1       7.326 -13.389 -21.890  1.00  0.00    -0.421 N 
HETATM   18  C9  UNL     1       7.806 -12.230 -21.216  1.00  0.00     0.115 C 
ATOM     19  H5  UNL     1       7.353 -13.461 -22.906  1.00  0.00     0.153 HD
HETATM   20  C10 UNL     1       6.964 -11.810 -20.029  1.00  0.00     0.044 C 
ENDBRANCH  11  14
ENDBRANCH   4   8
BRANCH   5  21
HETATM   21  C12 UNL     1       7.361 -14.091 -13.052  1.00  0.00     0.159 C 
HETATM   22  C13 UNL     1       7.897 -15.081 -12.046  1.00  0.00     0.097 C 
HETATM   23  O3  UNL     1       8.218 -13.422 -13.662  1.00  0.00    -0.293 OA
ENDBRANCH   5  21
BRANCH   1  24
HETATM   24  N1  UNL     1       1.952 -13.616 -13.392  1.00  0.00    -0.365 NA
BRANCH  24  25
HETATM   25  C2  UNL     1       0.657 -13.543 -13.644  1.00  0.00     0.188 C 
HETATM   26  C1  UNL     1       0.084 -13.927 -14.963  1.00  0.00     0.114 C 
BRANCH  25  27
HETATM   27  O1  UNL     1      -0.271 -13.143 -12.818  1.00  0.00    -0.339 OA
ATOM     28  H1  UNL     1      -1.047 -13.688 -12.875  1.00  0.00     0.220 HD
ENDBRANCH  25  27
ENDBRANCH  24  25
ENDBRANCH   1  24
BRANCH   7  29
HETATM   29  N6  UNL     1       3.034 -14.817 -11.097  1.00  0.00    -0.261 N 
HETATM   30  C16 UNL     1       3.476 -14.523  -9.769  1.00  0.00     0.185 C 
BRANCH  29  31
HETATM   31  O4  UNL     1       2.013 -15.506 -11.278  1.00  0.00    -0.287 OA
ATOM     32  H4  UNL     1       1.555 -15.432 -12.107  1.00  0.00     0.244 HD
ENDBRANCH  29  31
ENDBRANCH   7  29
TORSDOF 8
ENDMDL
MODEL 3
REMARK VINA RESULT: -5.971701311      0.836      1.260
REMARK  8 active torsions:
REMARK  status: ('A' for Active; 'I' for Inactive)
REMARK    1  A    between atoms: C2_2  and  O1_3 
REMARK    2  A    between atoms: C2_2  and  N1_5 
REMARK    3  A    between atoms: N1_5  and  C3_6 
REMARK    4  A    between atoms: C4_9  and  N3_10 
REMARK       I    between atoms: N3_10  and  C5_12 
REMARK       I    between atoms: C5_12  and  N4_14 
REMARK    5  A    between atoms: N4_14  and  C6_16 
REMARK    6  A    between atoms: C11_23  and  C12_24 
REMARK    7  A    between atoms: C15_28  and  N6_29 
REMARK    8  A    between atoms: N6_29  and  O4_31 
ROOT
HETATM    1  C3  UNL     1       3.114 -13.684 -13.294  1.00  0.00     0.212 A 
HETATM    2  N2  UNL     1       3.903 -13.157 -14.286  1.00  0.00    -0.314 N 
ATOM      3  H2  UNL     1       3.438 -12.694 -15.067  1.00  0.00     0.170 HD
HETATM    4  C4  UNL     1       5.266 -13.210 -14.298  1.00  0.00     0.125 A 
HETATM    5  C11 UNL     1       5.902 -13.829 -13.245  1.00  0.00     0.056 A 
HETATM    6  C14 UNL     1       5.149 -14.380 -12.219  1.00  0.00     0.055 A 
HETATM    7  C15 UNL     1       3.754 -14.299 -12.256  1.00  0.00     0.115 A 
ENDROOT
BRANCH   4   8
HETATM    8  N3  UNL     1       6.012 -12.733 -15.391  1.00  0.00    -0.294 N 
HETATM    9  C5  UNL     1       5.629 -12.711 -16.752  1.00  0.00     0.322 C 
HETATM   10  O2  UNL     1       4.561 -13.127 -17.182  1.00  0.00    -0.247 OA
HETATM   11  N4  UNL     1       6.578 -12.157 -17.705  1.00  0.00    -0.338 N 
ATOM     12  H4  UNL     1       7.467 -11.793 -17.364  1.00  0.00     0.164 HD
ATOM     13  H3  UNL     1       6.936 -12.359 -15.177  1.00  0.00     0.172 HD
BRANCH  11  14
HETATM   14  C6  UNL     1       6.299 -12.107 -19.118  1.00  0.00     0.089 C 
HETATM   15  C7  UNL     1       4.982 -11.325 -19.393  1.00  0.00     0.044 C 
HETATM   16  C8  UNL     1       4.980 -11.171 -20.918  1.00  0.00     0.115 C 
HETATM   17  N5  UNL     1       4.790 -12.451 -21.504  1.00  0.00    -0.421 N 
HETATM   18  C9  UNL     1       5.032 -13.588 -20.680  1.00  0.00     0.115 C 
ATOM     19  H5  UNL     1       4.494 -12.552 -22.474  1.00  0.00     0.153 HD
HETATM   20  C10 UNL     1       6.228 -13.445 -19.762  1.00  0.00     0.044 C 
ENDBRANCH  11  14
ENDBRANCH   4   8
BRANCH   5  21
HETATM   21  C12 UNL     1       7.367 -13.888 -13.072  1.00  0.00     0.159 C 
HETATM   22  C13 UNL     1       7.954 -15.039 -12.292  1.00  0.00     0.097 C 
HETATM   23  O3  UNL     1       8.187 -13.060 -13.514  1.00  0.00    -0.293 OA
ENDBRANCH   5  21
BRANCH   1  24
HETATM   24  N1  UNL     1       1.944 -13.582 -13.384  1.00  0.00    -0.365 NA
BRANCH  24  25
HETATM   25  C2  UNL     1       0.647 -13.531 -13.635  1.00  0.00     0.188 C 
HETATM   26  C1  UNL     1       0.077 -13.959 -14.941  1.00  0.00     0.114 C 
BRANCH  25  27
HETATM   27  O1  UNL     1      -0.283 -13.116 -12.819  1.00  0.00    -0.339 OA
ATOM     28  H1  UNL     1      -0.781 -12.399 -13.194  1.00  0.00     0.220 HD
ENDBRANCH  25  27
ENDBRANCH  24  25
ENDBRANCH   1  24
BRANCH   7  29
HETATM   29  N6  UNL     1       3.072 -14.866 -11.156  1.00  0.00    -0.261 N 
HETATM   30  C16 UNL     1       3.483 -14.596  -9.813  1.00  0.00     0.185 C 
BRANCH  29  31
HETATM   31  O4  UNL     1       2.096 -15.606 -11.375  1.00  0.00    -0.287 OA
ATOM     32  H4  UNL     1       1.226 -15.291 -11.156  1.00  0.00     0.244 HD
ENDBRANCH  29  31
ENDBRANCH   7  29
TORSDOF 8
ENDMDL
MODEL 4
REMARK VINA RESULT: -5.923209870      2.100      2.249
REMARK  8 active torsions:
REMARK  status: ('A' for Active; 'I' for Inactive)
REMARK    1  A    between atoms: C2_2  and  O1_3 
REMARK    2  A    between atoms: C2_2  and  N1_5 
REMARK    3  A    between atoms: N1_5  and  C3_6 
REMARK    4  A    between atoms: C4_9  and  N3_10 
REMARK       I    between atoms: N3_10  and  C5_12 
REMARK       I    between atoms: C5_12  and  N4_14 
REMARK    5  A    between atoms: N4_14  and  C6_16 
REMARK    6  A    between atoms: C11_23  and  C12_24 
REMARK    7  A    between atoms: C15_28  and  N6_29 
REMARK    8  A    between atoms: N6_29  and  O4_31 
ROOT
HETATM    1  C3  UNL     1       3.169 -13.915 -13.235  1.00  0.00     0.212 A 
HETATM    2  N2  UNL     1       3.999 -13.634 -14.292  1.00  0.00    -0.314 N 
ATOM      3  H2  UNL     1       3.575 -13.273 -15.146  1.00  0.00     0.170 HD
HETATM    4  C4  UNL     1       5.351 -13.806 -14.276  1.00  0.00     0.125 A 
HETATM    5  C11 UNL     1       5.933 -14.289 -13.126  1.00  0.00     0.056 A 
HETATM    6  C14 UNL     1       5.136 -14.590 -12.031  1.00  0.00     0.055 A 
HETATM    7  C15 UNL     1       3.753 -14.397 -12.100  1.00  0.00     0.115 A 
ENDROOT
BRANCH   4   8
HETATM    8  N3  UNL     1       6.135 -13.588 -15.425  1.00  0.00    -0.294 N 
HETATM    9  C5  UNL     1       6.343 -14.473 -16.507  1.00  0.00     0.322 C 
HETATM   10  O2  UNL     1       5.860 -15.595 -16.592  1.00  0.00    -0.247 OA
HETATM   11  N4  UNL     1       7.197 -14.014 -17.592  1.00  0.00    -0.338 N 
ATOM     12  H4  UNL     1       7.597 -13.078 -17.545  1.00  0.00     0.164 HD
ATOM     13  H3  UNL     1       6.607 -12.686 -15.484  1.00  0.00     0.172 HD
BRANCH  11  14
HETATM   14  C6  UNL     1       7.494 -14.844 -18.732  1.00  0.00     0.089 C 
HETATM   15  C7  UNL     1       8.928 -14.557 -19.265  1.00  0.00     0.044 C 
HETATM   16  C8  UNL     1       9.148 -15.673 -20.292  1.00  0.00     0.115 C 
HETATM   17  N5  UNL     1       8.281 -15.451 -21.396  1.00  0.00    -0.421 N 
HETATM   18  C9  UNL     1       7.180 -14.571 -21.195  1.00  0.00     0.115 C 
ATOM     19  H5  UNL     1       8.441 -15.905 -22.295  1.00  0.00     0.153 HD
HETATM   20  C10 UNL     1       6.514 -14.712 -19.842  1.00  0.00     0.044 C 
ENDBRANCH  11  14
ENDBRANCH   4   8
BRANCH   5  21
HETATM   21  C12 UNL     1       7.387 -14.443 -12.925  1.00  0.00     0.159 C 
HETATM   22  C13 UNL     1       7.870 -15.254 -11.747  1.00  0.00     0.097 C 
HETATM   23  O3  UNL     1       8.279 -13.956 -13.648  1.00  0.00    -0.293 OA
ENDBRANCH   5  21
BRANCH   1  24
HETATM   24  N1  UNL     1       2.012 -13.730 -13.357  1.00  0.00    -0.365 NA
BRANCH  24  25
HETATM   25  C2  UNL     1       0.728 -13.590 -13.642  1.00  0.00     0.188 C 
HETATM   26  C1  UNL     1       0.186 -13.859 -15.001  1.00  0.00     0.114 C 
BRANCH  25  27
HETATM   27  O1  UNL     1      -0.211 -13.211 -12.818  1.00  0.00    -0.339 OA
ATOM     28  H1  UNL     1      -0.919 -12.772 -13.275  1.00  0.00     0.220 HD
ENDBRANCH  25  27
ENDBRANCH  24  25
ENDBRANCH   1  24
BRANCH   7  29
HETATM   29  N6  UNL     1       3.026 -14.707 -10.929  1.00  0.00    -0.261 N 
HETATM   30  C16 UNL     1       3.535 -14.377  -9.633  1.00  0.00     0.185 C 
BRANCH  29  31
HETATM   31  O4  UNL     1       1.924 -15.273 -11.042  1.00  0.00    -0.287 OA
ATOM     32  H4  UNL     1       1.898 -16.222 -11.068  1.00  0.00     0.244 HD
ENDBRANCH  29  31
ENDBRANCH   7  29
TORSDOF 8
ENDMDL
MODEL 5
REMARK VINA RESULT: -5.695961916      2.552      2.898
REMARK  8 active torsions:
REMARK  status: ('A' for Active; 'I' for Inactive)
REMARK    1  A    between atoms: C2_2  and  O1_3 
REMARK    2  A    between atoms: C2_2  and  N1_5 
REMARK    3  A    between atoms: N1_5  and  C3_6 
REMARK    4  A    between atoms: C4_9  and  N3_10 
REMARK       I    between atoms: N3_10  and  C5_12 
REMARK       I    between atoms: C5_12  and  N4_14 
REMARK    5  A    between atoms: N4_14  and  C6_16 
REMARK    6  A    between atoms: C11_23  and  C12_24 
REMARK    7  A    between atoms: C15_28  and  N6_29 
REMARK    8  A    between atoms: N6_29  and  O4_31 
ROOT
HETATM    1  C3  UNL     1       3.283 -13.588 -13.346  1.00  0.00     0.212 A 
HETATM    2  N2  UNL     1       4.058 -12.844 -14.200  1.00  0.00    -0.314 N 
ATOM      3  H2  UNL     1       3.581 -12.260 -14.887  1.00  0.00     0.170 HD
HETATM    4  C4  UNL     1       5.422 -12.834 -14.192  1.00  0.00     0.125 A 
HETATM    5  C11 UNL     1       6.073 -13.615 -13.265  1.00  0.00     0.056 A 
HETATM    6  C14 UNL     1       5.334 -14.388 -12.381  1.00  0.00     0.055 A 
HETATM    7  C15 UNL     1       3.937 -14.363 -12.433  1.00  0.00     0.115 A 
ENDROOT
BRANCH   4   8
HETATM    8  N3  UNL     1       6.158 -12.121 -15.157  1.00  0.00    -0.294 N 
HETATM    9  C5  UNL     1       6.348 -10.722 -15.236  1.00  0.00     0.322 C 
HETATM   10  O2  UNL     1       5.873  -9.909 -14.453  1.00  0.00    -0.247 OA
HETATM   11  N4  UNL     1       7.163 -10.218 -16.331  1.00  0.00    -0.338 N 
ATOM     12  H4  UNL     1       7.578 -10.881 -16.985  1.00  0.00     0.164 HD
ATOM     13  H3  UNL     1       6.607 -12.678 -15.883  1.00  0.00     0.172 HD
BRANCH  11  14
HETATM   14  C6  UNL     1       7.401  -8.810 -16.519  1.00  0.00     0.089 C 
HETATM   15  C7  UNL     1       7.424  -8.451 -18.033  1.00  0.00     0.044 C 
HETATM   16  C8  UNL     1       7.445  -6.919 -18.028  1.00  0.00     0.115 C 
HETATM   17  N5  UNL     1       8.695  -6.482 -17.516  1.00  0.00    -0.421 N 
HETATM   18  C9  UNL     1       9.466  -7.429 -16.782  1.00  0.00     0.115 C 
ATOM     19  H5  UNL     1       9.028  -5.531 -17.667  1.00  0.00     0.153 HD
HETATM   20  C10 UNL     1       8.647  -8.322 -15.872  1.00  0.00     0.044 C 
ENDBRANCH  11  14
ENDBRANCH   4   8
BRANCH   5  21
HETATM   21  C12 UNL     1       7.537 -13.642 -13.074  1.00  0.00     0.159 C 
HETATM   22  C13 UNL     1       8.208 -14.972 -12.832  1.00  0.00     0.097 C 
HETATM   23  O3  UNL     1       8.292 -12.650 -13.092  1.00  0.00    -0.293 OA
ENDBRANCH   5  21
BRANCH   1  24
HETATM   24  N1  UNL     1       2.110 -13.523 -13.441  1.00  0.00    -0.365 NA
BRANCH  24  25
HETATM   25  C2  UNL     1       0.811 -13.534 -13.686  1.00  0.00     0.188 C 
HETATM   26  C1  UNL     1       0.262 -13.894 -15.021  1.00  0.00     0.114 C 
BRANCH  25  27
HETATM   27  O1  UNL     1      -0.139 -13.243 -12.840  1.00  0.00    -0.339 OA
ATOM     28  H1  UNL     1      -0.991 -13.502 -13.170  1.00  0.00     0.220 HD
ENDBRANCH  25  27
ENDBRANCH  24  25
ENDBRANCH   1  24
BRANCH   7  29
HETATM   29  N6  UNL     1       3.269 -15.162 -11.478  1.00  0.00    -0.261 N 
HETATM   30  C16 UNL     1       3.285 -14.822 -10.088  1.00  0.00     0.185 C 
BRANCH  29  31
HETATM   31  O4  UNL     1       2.657 -16.173 -11.867  1.00  0.00    -0.287 OA
ATOM     32  H4  UNL     1       1.860 -16.426 -11.415  1.00  0.00     0.244 HD
ENDBRANCH  29  31
ENDBRANCH   7  29
TORSDOF 8
ENDMDL
