MODEL 1
REMARK VINA RESULT: -6.764872232      0.000      0.000
REMARK  6 active torsions:
REMARK  status: ('A' for Active; 'I' for Inactive)
REMARK    1  A    between atoms: N1_2  and  C2_4 
REMARK    2  A    between atoms: C2_4  and  O1_5 
REMARK    3  A    between atoms: C5_13  and  C6_14 
REMARK    4  A    between atoms: C9_19  and  N5_20 
REMARK       I    between atoms: N5_20  and  C10_22 
REMARK    5  A    between atoms: C10_22  and  C11_24 
REMARK    6  A    between atoms: N8_34  and  O3_35 
ROOT
HETATM    1  C6  UNL     1       3.366 -13.281 -14.438  1.00  0.00     0.147 A 
HETATM    2  N4  UNL     1       3.869 -13.605 -15.641  1.00  0.00    -0.342 N 
ATOM      3  H4  UNL     1       3.345 -14.266 -16.215  1.00  0.00     0.167 HD
HETATM    4  C7  UNL     1       5.000 -13.123 -16.131  1.00  0.00     0.035 A 
HETATM    5  C8  UNL     1       5.491 -13.525 -17.463  1.00  0.00     0.070 C 
HETATM    6  C9  UNL     1       5.771 -12.209 -15.395  1.00  0.00     0.075 A 
HETATM    7  C16 UNL     1       5.272 -11.875 -14.177  1.00  0.00     0.156 A 
HETATM    8  N8  UNL     1       4.100 -12.410 -13.736  1.00  0.00    -0.216 N 
ENDROOT
BRANCH   1   9
HETATM    9  C5  UNL     1       2.124 -13.886 -13.989  1.00  0.00     0.059 A 
HETATM   10  C3  UNL     1       1.880 -14.791 -13.030  1.00  0.00     0.114 A 
HETATM   11  C2  UNL     1       2.744 -15.488 -12.120  1.00  0.00     0.165 C 
HETATM   12  N2  UNL     1       0.514 -15.027 -13.036  1.00  0.00    -0.296 N 
HETATM   13  N3  UNL     1      -0.075 -14.312 -13.941  1.00  0.00    -0.310 N 
ATOM     14  H2  UNL     1       0.036 -15.677 -12.412  1.00  0.00     0.187 HD
HETATM   15  C4  UNL     1       0.880 -13.593 -14.552  1.00  0.00     0.124 A 
ATOM     16  H3  UNL     1      -1.074 -14.298 -14.149  1.00  0.00     0.186 HD
BRANCH  11  17
HETATM   17  N1  UNL     1       3.838 -14.975 -11.416  1.00  0.00    -0.373 N 
HETATM   18  C1  UNL     1       3.679 -14.570 -10.018  1.00  0.00     0.148 C 
ATOM     19  H1  UNL     1       4.743 -14.884 -11.876  1.00  0.00     0.161 HD
ENDBRANCH  11  17
BRANCH  11  20
HETATM   20  O1  UNL     1       2.503 -16.748 -11.891  1.00  0.00    -0.345 OA
ATOM     21  H1  UNL     1       1.808 -16.905 -11.263  1.00  0.00     0.219 HD
ENDBRANCH  11  20
ENDBRANCH   1   9
BRANCH   8  22
HETATM   22  O3  UNL     1       3.710 -12.017 -12.494  1.00  0.00    -0.281 OA
ATOM     23  H3  UNL     1       3.072 -11.321 -12.385  1.00  0.00     0.245 HD
ENDBRANCH   8  22
BRANCH   6  24
HETATM   24  N5  UNL     1       6.971 -11.709 -15.937  1.00  0.00    -0.318 N 
HETATM   25  C10 UNL     1       7.255 -10.420 -16.383  1.00  0.00     0.290 C 
HETATM   26  O2  UNL     1       6.456  -9.474 -16.369  1.00  0.00    -0.264 OA
ATOM     27  H5  UNL     1       7.735 -12.381 -16.013  1.00  0.00     0.169 HD
BRANCH  25  28
HETATM   28  C11 UNL     1       8.593 -10.084 -16.927  1.00  0.00     0.175 A 
HETATM   29  N6  UNL     1       9.221  -8.904 -16.967  1.00  0.00    -0.340 N 
HETATM   30  C12 UNL     1      10.421  -9.056 -17.551  1.00  0.00     0.029 A 
ATOM     31  H6  UNL     1       8.847  -8.025 -16.609  1.00  0.00     0.167 HD
HETATM   32  C13 UNL     1      11.441  -8.009 -17.798  1.00  0.00     0.070 C 
HETATM   33  C14 UNL     1      10.570 -10.367 -17.895  1.00  0.00     0.029 A 
HETATM   34  C15 UNL     1      11.736 -11.006 -18.564  1.00  0.00     0.070 C 
HETATM   35  N7  UNL     1       9.430 -10.985 -17.501  1.00  0.00    -0.340 N 
ATOM     36  H7  UNL     1       9.231 -11.978 -17.619  1.00  0.00     0.167 HD
ENDBRANCH  25  28
ENDBRANCH   6  24
TORSDOF 6
ENDMDL
MODEL 2
REMARK VINA RESULT: -6.758306236      0.122      1.099
REMARK  6 active torsions:
REMARK  status: ('A' for Active; 'I' for Inactive)
REMARK    1  A    between atoms: N1_2  and  C2_4 
REMARK    2  A    between atoms: C2_4  and  O1_5 
REMARK    3  A    between atoms: C5_13  and  C6_14 
REMARK    4  A    between atoms: C9_19  and  N5_20 
REMARK       I    between atoms: N5_20  and  C10_22 
REMARK    5  A    between atoms: C10_22  and  C11_24 
REMARK    6  A    between atoms: N8_34  and  O3_35 
ROOT
HETATM    1  C6  UNL     1       3.362 -13.282 -14.446  1.00  0.00     0.147 A 
HETATM    2  N4  UNL     1       3.863 -13.608 -15.651  1.00  0.00    -0.342 N 
ATOM      3  H4  UNL     1       3.337 -14.269 -16.222  1.00  0.00     0.167 HD
HETATM    4  C7  UNL     1       4.993 -13.126 -16.144  1.00  0.00     0.035 A 
HETATM    5  C8  UNL     1       5.481 -13.530 -17.477  1.00  0.00     0.070 C 
HETATM    6  C9  UNL     1       5.765 -12.211 -15.410  1.00  0.00     0.075 A 
HETATM    7  C16 UNL     1       5.270 -11.876 -14.191  1.00  0.00     0.156 A 
HETATM    8  N8  UNL     1       4.099 -12.411 -13.747  1.00  0.00    -0.216 N 
ENDROOT
BRANCH   1   9
HETATM    9  C5  UNL     1       2.122 -13.886 -13.994  1.00  0.00     0.059 A 
HETATM   10  C3  UNL     1       1.880 -14.791 -13.033  1.00  0.00     0.114 A 
HETATM   11  C2  UNL     1       2.746 -15.487 -12.125  1.00  0.00     0.165 C 
HETATM   12  N2  UNL     1       0.514 -15.026 -13.036  1.00  0.00    -0.296 N 
HETATM   13  N3  UNL     1      -0.077 -14.312 -13.939  1.00  0.00    -0.310 N 
ATOM     14  H2  UNL     1       0.038 -15.675 -12.409  1.00  0.00     0.187 HD
HETATM   15  C4  UNL     1       0.876 -13.593 -14.554  1.00  0.00     0.124 A 
ATOM     16  H3  UNL     1      -1.076 -14.298 -14.145  1.00  0.00     0.186 HD
BRANCH  11  17
HETATM   17  N1  UNL     1       3.842 -14.974 -11.424  1.00  0.00    -0.373 N 
HETATM   18  C1  UNL     1       3.688 -14.574 -10.024  1.00  0.00     0.148 C 
ATOM     19  H1  UNL     1       4.746 -14.879 -11.887  1.00  0.00     0.161 HD
ENDBRANCH  11  17
BRANCH  11  20
HETATM   20  O1  UNL     1       2.506 -16.747 -11.894  1.00  0.00    -0.345 OA
ATOM     21  H1  UNL     1       2.516 -17.294 -12.671  1.00  0.00     0.219 HD
ENDBRANCH  11  20
ENDBRANCH   1   9
BRANCH   8  22
HETATM   22  O3  UNL     1       3.713 -12.016 -12.505  1.00  0.00    -0.281 OA
ATOM     23  H3  UNL     1       2.829 -12.182 -12.197  1.00  0.00     0.245 HD
ENDBRANCH   8  22
BRANCH   6  24
HETATM   24  N5  UNL     1       6.964 -11.712 -15.956  1.00  0.00    -0.318 N 
HETATM   25  C10 UNL     1       7.253 -10.420 -16.389  1.00  0.00     0.290 C 
HETATM   26  O2  UNL     1       6.459  -9.470 -16.358  1.00  0.00    -0.264 OA
ATOM     27  H5  UNL     1       7.724 -12.388 -16.046  1.00  0.00     0.169 HD
BRANCH  25  28
HETATM   28  C11 UNL     1       8.588 -10.086 -16.939  1.00  0.00     0.175 A 
HETATM   29  N6  UNL     1       9.469 -10.874 -17.567  1.00  0.00    -0.340 N 
HETATM   30  C12 UNL     1      10.555 -10.156 -17.897  1.00  0.00     0.029 A 
ATOM     31  H6  UNL     1       9.336 -11.865 -17.765  1.00  0.00     0.167 HD
HETATM   32  C13 UNL     1      11.769 -10.632 -18.602  1.00  0.00     0.070 C 
HETATM   33  C14 UNL     1      10.370  -8.873 -17.471  1.00  0.00     0.029 A 
HETATM   34  C15 UNL     1      11.303  -7.723 -17.615  1.00  0.00     0.070 C 
HETATM   35  N7  UNL     1       9.150  -8.852 -16.883  1.00  0.00    -0.340 N 
ATOM     36  H7  UNL     1       8.718  -8.031 -16.461  1.00  0.00     0.167 HD
ENDBRANCH  25  28
ENDBRANCH   6  24
TORSDOF 6
ENDMDL
MODEL 3
REMARK VINA RESULT: -6.195925834      3.120      3.855
REMARK  6 active torsions:
REMARK  status: ('A' for Active; 'I' for Inactive)
REMARK    1  A    between atoms: N1_2  and  C2_4 
REMARK    2  A    between atoms: C2_4  and  O1_5 
REMARK    3  A    between atoms: C5_13  and  C6_14 
REMARK    4  A    between atoms: C9_19  and  N5_20 
REMARK       I    between atoms: N5_20  and  C10_22 
REMARK    5  A    between atoms: C10_22  and  C11_24 
REMARK    6  A    between atoms: N8_34  and  O3_35 
ROOT
HETATM    1  C6  UNL     1       3.646 -14.748 -14.780  1.00  0.00     0.147 A 
HETATM    2  N4  UNL     1       3.985 -13.623 -15.433  1.00  0.00    -0.342 N 
ATOM      3  H4  UNL     1       3.447 -12.778 -15.238  1.00  0.00     0.167 HD
HETATM    4  C7  UNL     1       4.971 -13.539 -16.312  1.00  0.00     0.035 A 
HETATM    5  C8  UNL     1       5.286 -12.267 -16.990  1.00  0.00     0.070 C 
HETATM    6  C9  UNL     1       5.751 -14.663 -16.626  1.00  0.00     0.075 A 
HETATM    7  C16 UNL     1       5.417 -15.805 -15.973  1.00  0.00     0.156 A 
HETATM    8  N8  UNL     1       4.389 -15.819 -15.081  1.00  0.00    -0.216 N 
ENDROOT
BRANCH   1   9
HETATM    9  C5  UNL     1       2.531 -14.734 -13.850  1.00  0.00     0.059 A 
HETATM   10  C3  UNL     1       2.477 -14.986 -12.534  1.00  0.00     0.114 A 
HETATM   11  C2  UNL     1       3.482 -15.367 -11.584  1.00  0.00     0.165 C 
HETATM   12  N2  UNL     1       1.152 -14.842 -12.150  1.00  0.00    -0.296 N 
HETATM   13  N3  UNL     1       0.411 -14.513 -13.159  1.00  0.00    -0.310 N 
ATOM     14  H2  UNL     1       0.808 -14.977 -11.199  1.00  0.00     0.187 HD
HETATM   15  C4  UNL     1       1.219 -14.434 -14.228  1.00  0.00     0.124 A 
ATOM     16  H3  UNL     1      -0.596 -14.346 -13.144  1.00  0.00     0.186 HD
BRANCH  11  17
HETATM   17  N1  UNL     1       4.789 -14.881 -11.479  1.00  0.00    -0.373 N 
HETATM   18  C1  UNL     1       5.122 -13.566 -12.030  1.00  0.00     0.148 C 
ATOM     19  H1  UNL     1       5.507 -15.441 -11.019  1.00  0.00     0.161 HD
ENDBRANCH  11  17
BRANCH  11  20
HETATM   20  O1  UNL     1       3.172 -16.265 -10.690  1.00  0.00    -0.345 OA
ATOM     21  H1  UNL     1       3.079 -17.144 -11.037  1.00  0.00     0.219 HD
ENDBRANCH  11  20
ENDBRANCH   1   9
BRANCH   8  22
HETATM   22  O3  UNL     1       4.134 -17.024 -14.504  1.00  0.00    -0.281 OA
ATOM     23  H3  UNL     1       4.843 -17.623 -14.299  1.00  0.00     0.245 HD
ENDBRANCH   8  22
BRANCH   6  24
HETATM   24  N5  UNL     1       6.796 -14.549 -17.565  1.00  0.00    -0.318 N 
HETATM   25  C10 UNL     1       6.767 -14.798 -18.935  1.00  0.00     0.290 C 
HETATM   26  O2  UNL     1       5.770 -15.177 -19.564  1.00  0.00    -0.264 OA
ATOM     27  H5  UNL     1       7.694 -14.242 -17.191  1.00  0.00     0.169 HD
BRANCH  25  28
HETATM   28  C11 UNL     1       7.983 -14.619 -19.764  1.00  0.00     0.175 A 
HETATM   29  N6  UNL     1       8.802 -13.565 -19.851  1.00  0.00    -0.340 N 
HETATM   30  C12 UNL     1       9.783 -13.833 -20.729  1.00  0.00     0.029 A 
ATOM     31  H6  UNL     1       8.698 -12.693 -19.332  1.00  0.00     0.167 HD
HETATM   32  C13 UNL     1      10.902 -12.946 -21.126  1.00  0.00     0.070 C 
HETATM   33  C14 UNL     1       9.591 -15.091 -21.219  1.00  0.00     0.029 A 
HETATM   34  C15 UNL     1      10.425 -15.817 -22.215  1.00  0.00     0.070 C 
HETATM   35  N7  UNL     1       8.475 -15.558 -20.610  1.00  0.00    -0.340 N 
ATOM     36  H7  UNL     1       8.065 -16.479 -20.765  1.00  0.00     0.167 HD
ENDBRANCH  25  28
ENDBRANCH   6  24
TORSDOF 6
ENDMDL
MODEL 4
REMARK VINA RESULT: -6.170045136      3.058      3.957
REMARK  6 active torsions:
REMARK  status: ('A' for Active; 'I' for Inactive)
REMARK    1  A    between atoms: N1_2  and  C2_4 
REMARK    2  A    between atoms: C2_4  and  O1_5 
REMARK    3  A    between atoms: C5_13  and  C6_14 
REMARK    4  A    between atoms: C9_19  and  N5_20 
REMARK       I    between atoms: N5_20  and  C10_22 
REMARK    5  A    between atoms: C10_22  and  C11_24 
REMARK    6  A    between atoms: N8_34  and  O3_35 
ROOT
HETATM    1  C6  UNL     1       3.637 -14.764 -14.766  1.00  0.00     0.147 A 
HETATM    2  N4  UNL     1       3.972 -13.644 -15.430  1.00  0.00    -0.342 N 
ATOM      3  H4  UNL     1       3.433 -12.799 -15.240  1.00  0.00     0.167 HD
HETATM    4  C7  UNL     1       4.953 -13.565 -16.314  1.00  0.00     0.035 A 
HETATM    5  C8  UNL     1       5.263 -12.298 -17.004  1.00  0.00     0.070 C 
HETATM    6  C9  UNL     1       5.735 -14.690 -16.622  1.00  0.00     0.075 A 
HETATM    7  C16 UNL     1       5.406 -15.828 -15.958  1.00  0.00     0.156 A 
HETATM    8  N8  UNL     1       4.382 -15.836 -15.061  1.00  0.00    -0.216 N 
ENDROOT
BRANCH   1   9
HETATM    9  C5  UNL     1       2.527 -14.744 -13.831  1.00  0.00     0.059 A 
HETATM   10  C3  UNL     1       2.478 -14.990 -12.514  1.00  0.00     0.114 A 
HETATM   11  C2  UNL     1       3.487 -15.366 -11.565  1.00  0.00     0.165 C 
HETATM   12  N2  UNL     1       1.156 -14.843 -12.125  1.00  0.00    -0.296 N 
HETATM   13  N3  UNL     1       0.410 -14.519 -13.132  1.00  0.00    -0.310 N 
ATOM     14  H2  UNL     1       0.815 -14.972 -11.172  1.00  0.00     0.187 HD
HETATM   15  C4  UNL     1       1.214 -14.446 -14.205  1.00  0.00     0.124 A 
ATOM     16  H3  UNL     1      -0.596 -14.351 -13.114  1.00  0.00     0.186 HD
BRANCH  11  17
HETATM   17  N1  UNL     1       4.795 -14.879 -11.469  1.00  0.00    -0.373 N 
HETATM   18  C1  UNL     1       5.126 -13.567 -12.027  1.00  0.00     0.148 C 
ATOM     19  H1  UNL     1       5.515 -15.438 -11.011  1.00  0.00     0.161 HD
ENDBRANCH  11  17
BRANCH  11  20
HETATM   20  O1  UNL     1       3.181 -16.258 -10.666  1.00  0.00    -0.345 OA
ATOM     21  H1  UNL     1       2.700 -17.004 -11.005  1.00  0.00     0.219 HD
ENDBRANCH  11  20
ENDBRANCH   1   9
BRANCH   8  22
HETATM   22  O3  UNL     1       4.132 -17.036 -14.473  1.00  0.00    -0.281 OA
ATOM     23  H3  UNL     1       3.339 -17.519 -14.675  1.00  0.00     0.245 HD
ENDBRANCH   8  22
BRANCH   6  24
HETATM   24  N5  UNL     1       6.775 -14.582 -17.566  1.00  0.00    -0.318 N 
HETATM   25  C10 UNL     1       6.734 -14.820 -18.939  1.00  0.00     0.290 C 
HETATM   26  O2  UNL     1       5.728 -15.181 -19.564  1.00  0.00    -0.264 OA
ATOM     27  H5  UNL     1       7.679 -14.290 -17.196  1.00  0.00     0.169 HD
BRANCH  25  28
HETATM   28  C11 UNL     1       7.948 -14.649 -19.773  1.00  0.00     0.175 A 
HETATM   29  N6  UNL     1       8.518 -15.508 -20.626  1.00  0.00    -0.340 N 
HETATM   30  C12 UNL     1       9.607 -14.939 -21.170  1.00  0.00     0.029 A 
ATOM     31  H6  UNL     1       8.180 -16.447 -20.831  1.00  0.00     0.167 HD
HETATM   32  C13 UNL     1      10.532 -15.534 -22.163  1.00  0.00     0.070 C 
HETATM   33  C14 UNL     1       9.740 -13.683 -20.656  1.00  0.00     0.029 A 
HETATM   34  C15 UNL     1      10.796 -12.680 -20.964  1.00  0.00     0.070 C 
HETATM   35  N7  UNL     1       8.706 -13.524 -19.795  1.00  0.00    -0.340 N 
ATOM     36  H7  UNL     1       8.524 -12.685 -19.246  1.00  0.00     0.167 HD
ENDBRANCH  25  28
ENDBRANCH   6  24
TORSDOF 6
ENDMDL
MODEL 5
REMARK VINA RESULT: -5.912983366      1.847      2.147
REMARK  6 active torsions:
REMARK  status: ('A' for Active; 'I' for Inactive)
REMARK    1  A    between atoms: N1_2  and  C2_4 
REMARK    2  A    between atoms: C2_4  and  O1_5 
REMARK    3  A    between atoms: C5_13  and  C6_14 
REMARK    4  A    between atoms: C9_19  and  N5_20 
REMARK       I    between atoms: N5_20  and  C10_22 
REMARK    5  A    between atoms: C10_22  and  C11_24 
REMARK    6  A    between atoms: N8_34  and  O3_35 
ROOT
HETATM    1  C6  UNL     1       3.202 -13.380 -14.725  1.00  0.00     0.147 A 
HETATM    2  N4  UNL     1       3.289 -13.617 -16.045  1.00  0.00    -0.342 N 
ATOM      3  H4  UNL     1       2.508 -14.094 -16.496  1.00  0.00     0.167 HD
HETATM    4  C7  UNL     1       4.321 -13.273 -16.798  1.00  0.00     0.035 A 
HETATM    5  C8  UNL     1       4.346 -13.567 -18.244  1.00  0.00     0.070 C 
HETATM    6  C9  UNL     1       5.429 -12.614 -16.242  1.00  0.00     0.075 A 
HETATM    7  C16 UNL     1       5.352 -12.369 -14.908  1.00  0.00     0.156 A 
HETATM    8  N8  UNL     1       4.258 -12.752 -14.195  1.00  0.00    -0.216 N 
ENDROOT
BRANCH   1   9
HETATM    9  C5  UNL     1       2.030 -13.819 -13.989  1.00  0.00     0.059 A 
HETATM   10  C3  UNL     1       1.900 -14.683 -12.971  1.00  0.00     0.114 A 
HETATM   11  C2  UNL     1       2.854 -15.482 -12.257  1.00  0.00     0.165 C 
HETATM   12  N2  UNL     1       0.550 -14.742 -12.662  1.00  0.00    -0.296 N 
HETATM   13  N3  UNL     1      -0.136 -13.960 -13.433  1.00  0.00    -0.310 N 
ATOM     14  H2  UNL     1       0.150 -15.323 -11.925  1.00  0.00     0.187 HD
HETATM   15  C4  UNL     1       0.736 -13.371 -14.266  1.00  0.00     0.124 A 
ATOM     16  H3  UNL     1      -1.147 -13.818 -13.411  1.00  0.00     0.186 HD
BRANCH  11  17
HETATM   17  N1  UNL     1       4.134 -15.113 -11.835  1.00  0.00    -0.373 N 
HETATM   18  C1  UNL     1       4.360 -14.740 -10.436  1.00  0.00     0.148 C 
ATOM     19  H1  UNL     1       4.909 -15.102 -12.498  1.00  0.00     0.161 HD
ENDBRANCH  11  17
BRANCH  11  20
HETATM   20  O1  UNL     1       2.517 -16.701 -11.940  1.00  0.00    -0.345 OA
ATOM     21  H1  UNL     1       1.664 -16.775 -11.528  1.00  0.00     0.219 HD
ENDBRANCH  11  20
ENDBRANCH   1   9
BRANCH   8  22
HETATM   22  O3  UNL     1       4.302 -12.472 -12.865  1.00  0.00    -0.281 OA
ATOM     23  H3  UNL     1       3.838 -11.722 -12.512  1.00  0.00     0.245 HD
ENDBRANCH   8  22
BRANCH   6  24
HETATM   24  N5  UNL     1       6.516 -12.257 -17.064  1.00  0.00    -0.318 N 
HETATM   25  C10 UNL     1       7.589 -13.043 -17.479  1.00  0.00     0.290 C 
HETATM   26  O2  UNL     1       7.755 -14.231 -17.173  1.00  0.00    -0.264 OA
ATOM     27  H5  UNL     1       6.519 -11.294 -17.400  1.00  0.00     0.169 HD
BRANCH  25  28
HETATM   28  C11 UNL     1       8.646 -12.481 -18.354  1.00  0.00     0.175 A 
HETATM   29  N6  UNL     1       9.814 -13.017 -18.725  1.00  0.00    -0.340 N 
HETATM   30  C12 UNL     1      10.465 -12.158 -19.527  1.00  0.00     0.029 A 
ATOM     31  H6  UNL     1      10.156 -13.936 -18.444  1.00  0.00     0.167 HD
HETATM   32  C13 UNL     1      11.790 -12.349 -20.163  1.00  0.00     0.070 C 
HETATM   33  C14 UNL     1       9.697 -11.041 -19.675  1.00  0.00     0.029 A 
HETATM   34  C15 UNL     1      10.007  -9.823 -20.472  1.00  0.00     0.070 C 
HETATM   35  N7  UNL     1       8.579 -11.260 -18.943  1.00  0.00    -0.340 N 
ATOM     36  H7  UNL     1       7.803 -10.606 -18.848  1.00  0.00     0.167 HD
ENDBRANCH  25  28
ENDBRANCH   6  24
TORSDOF 6
ENDMDL
