MODEL 1
REMARK VINA RESULT: -7.292436440      0.000      0.000
REMARK  5 active torsions:
REMARK  status: ('A' for Active; 'I' for Inactive)
REMARK    1  A    between atoms: N2_10  and  C6_11 
REMARK    2  A    between atoms: C6_11  and  C7_12 
REMARK       I    between atoms: C7_12  and  N3_14 
REMARK    3  A    between atoms: N3_14  and  C8_16 
REMARK    4  A    between atoms: C8_16  and  C9_17 
REMARK       I    between atoms: C9_17  and  N4_19 
REMARK    5  A    between atoms: N4_19  and  N5_21 
ROOT
HETATM    1  C7  UNL     1       4.917 -15.095 -14.615  1.00  0.00     0.237 C 
HETATM    2  O2  UNL     1       4.242 -14.353 -15.370  1.00  0.00    -0.272 OA
HETATM    3  N3  UNL     1       4.446 -15.361 -13.310  1.00  0.00    -0.342 N 
ATOM      4  H3  UNL     1       4.999 -15.964 -12.702  1.00  0.00     0.163 HD
ENDROOT
BRANCH   1   5
HETATM    5  C6  UNL     1       6.193 -15.683 -15.093  1.00  0.00     0.237 C 
BRANCH   5   6
HETATM    6  N2  UNL     1       7.291 -15.280 -14.243  1.00  0.00    -0.283 N 
HETATM    7  C3  UNL     1       7.557 -14.044 -13.761  1.00  0.00     0.108 A 
HETATM    8  S1  UNL     1       7.046 -12.420 -13.715  1.00  0.00    -0.074 SA
HETATM    9  C4  UNL     1       8.684 -14.039 -12.986  1.00  0.00     0.077 A 
HETATM   10  C2  UNL     1       8.273 -11.774 -12.717  1.00  0.00    -0.011 A 
HETATM   11  C1  UNL     1       8.430 -10.344 -12.261  1.00  0.00     0.057 C 
HETATM   12  C15 UNL     1       9.057 -12.864 -12.445  1.00  0.00    -0.019 A 
HETATM   13  C16 UNL     1      10.274 -12.654 -11.559  1.00  0.00     0.052 C 
HETATM   14  N1  UNL     1       9.098 -15.344 -13.020  1.00  0.00    -0.305 N 
HETATM   15  C5  UNL     1       8.265 -16.060 -13.766  1.00  0.00     0.328 A 
ATOM     16  H1  UNL     1       9.922 -15.711 -12.543  1.00  0.00     0.171 HD
HETATM   17  O1  UNL     1       8.402 -17.312 -13.976  1.00  0.00    -0.246 OA
ENDBRANCH   5   6
ENDBRANCH   1   5
BRANCH   3  18
HETATM   18  C8  UNL     1       3.173 -14.793 -12.790  1.00  0.00     0.115 C 
HETATM   19  C10 UNL     1       2.038 -15.504 -13.411  1.00  0.00     0.041 C 
HETATM   20  C11 UNL     1       0.977 -14.724 -14.109  1.00  0.00     0.003 C 
HETATM   21  C12 UNL     1       0.875 -13.282 -13.724  1.00  0.00     0.000 C 
HETATM   22  C13 UNL     1       2.206 -12.606 -13.665  1.00  0.00     0.003 C 
HETATM   23  C14 UNL     1       3.224 -13.318 -12.861  1.00  0.00     0.041 C 
BRANCH  18  24
HETATM   24  C9  UNL     1       3.218 -15.132 -11.312  1.00  0.00     0.264 C 
HETATM   25  O3  UNL     1       3.074 -16.309 -10.924  1.00  0.00    -0.269 OA
HETATM   26  N4  UNL     1       3.420 -14.131 -10.341  1.00  0.00    -0.275 N 
ATOM     27  H4  UNL     1       3.537 -13.168 -10.658  1.00  0.00     0.189 HD
BRANCH  26  28
HETATM   28  N5  UNL     1       3.469 -14.388  -8.970  1.00  0.00    -0.343 N 
ATOM     29  H52 UNL     1       4.033 -15.182  -8.664  1.00  0.00     0.176 HD
ATOM     30  H51 UNL     1       2.977 -13.828  -8.276  1.00  0.00     0.176 HD
ENDBRANCH  26  28
ENDBRANCH  18  24
ENDBRANCH   3  18
TORSDOF 5
ENDMDL
MODEL 2
REMARK VINA RESULT: -7.140084496      2.214      3.616
REMARK  5 active torsions:
REMARK  status: ('A' for Active; 'I' for Inactive)
REMARK    1  A    between atoms: N2_10  and  C6_11 
REMARK    2  A    between atoms: C6_11  and  C7_12 
REMARK       I    between atoms: C7_12  and  N3_14 
REMARK    3  A    between atoms: N3_14  and  C8_16 
REMARK    4  A    between atoms: C8_16  and  C9_17 
REMARK       I    between atoms: C9_17  and  N4_19 
REMARK    5  A    between atoms: N4_19  and  N5_21 
ROOT
HETATM    1  C7  UNL     1       5.681 -14.429 -13.163  1.00  0.00     0.237 C 
HETATM    2  O2  UNL     1       5.572 -13.272 -12.691  1.00  0.00    -0.272 OA
HETATM    3  N3  UNL     1       4.539 -15.259 -13.222  1.00  0.00    -0.342 N 
ATOM      4  H3  UNL     1       4.635 -16.199 -13.608  1.00  0.00     0.163 HD
ENDROOT
BRANCH   1   5
HETATM    5  C6  UNL     1       6.996 -14.914 -13.653  1.00  0.00     0.237 C 
BRANCH   5   6
HETATM    6  N2  UNL     1       6.962 -15.122 -15.083  1.00  0.00    -0.283 N 
HETATM    7  C3  UNL     1       6.269 -14.421 -16.009  1.00  0.00     0.108 A 
HETATM    8  S1  UNL     1       5.194 -13.124 -16.265  1.00  0.00    -0.074 SA
HETATM    9  C4  UNL     1       6.482 -14.904 -17.270  1.00  0.00     0.077 A 
HETATM   10  C2  UNL     1       5.040 -13.228 -17.964  1.00  0.00    -0.011 A 
HETATM   11  C1  UNL     1       4.210 -12.350 -18.867  1.00  0.00     0.057 C 
HETATM   12  C15 UNL     1       5.846 -14.288 -18.284  1.00  0.00    -0.019 A 
HETATM   13  C16 UNL     1       5.953 -14.676 -19.750  1.00  0.00     0.052 C 
HETATM   14  N1  UNL     1       7.347 -15.947 -17.068  1.00  0.00    -0.305 N 
HETATM   15  C5  UNL     1       7.618 -16.060 -15.773  1.00  0.00     0.328 A 
ATOM     16  H1  UNL     1       7.726 -16.546 -17.801  1.00  0.00     0.171 HD
HETATM   17  O1  UNL     1       8.398 -16.948 -15.289  1.00  0.00    -0.246 OA
ENDBRANCH   5   6
ENDBRANCH   1   5
BRANCH   3  18
HETATM   18  C8  UNL     1       3.203 -14.814 -12.743  1.00  0.00     0.115 C 
HETATM   19  C10 UNL     1       2.163 -15.654 -13.369  1.00  0.00     0.041 C 
HETATM   20  C11 UNL     1       1.043 -15.005 -14.108  1.00  0.00     0.003 C 
HETATM   21  C12 UNL     1       0.784 -13.572 -13.763  1.00  0.00     0.000 C 
HETATM   22  C13 UNL     1       2.036 -12.761 -13.695  1.00  0.00     0.003 C 
HETATM   23  C14 UNL     1       3.103 -13.344 -12.852  1.00  0.00     0.041 C 
BRANCH  18  24
HETATM   24  C9  UNL     1       3.249 -15.112 -11.256  1.00  0.00     0.264 C 
HETATM   25  O3  UNL     1       3.107 -16.278 -10.836  1.00  0.00    -0.269 OA
HETATM   26  N4  UNL     1       3.449 -14.084 -10.314  1.00  0.00    -0.275 N 
ATOM     27  H4  UNL     1       3.565 -13.130 -10.657  1.00  0.00     0.189 HD
BRANCH  26  28
HETATM   28  N5  UNL     1       3.499 -14.302  -8.937  1.00  0.00    -0.343 N 
ATOM     29  H52 UNL     1       2.731 -14.828  -8.520  1.00  0.00     0.176 HD
ATOM     30  H51 UNL     1       4.255 -13.965  -8.341  1.00  0.00     0.176 HD
ENDBRANCH  26  28
ENDBRANCH  18  24
ENDBRANCH   3  18
TORSDOF 5
ENDMDL
MODEL 3
REMARK VINA RESULT: -7.040793126      1.954      2.633
REMARK  5 active torsions:
REMARK  status: ('A' for Active; 'I' for Inactive)
REMARK    1  A    between atoms: N2_10  and  C6_11 
REMARK    2  A    between atoms: C6_11  and  C7_12 
REMARK       I    between atoms: C7_12  and  N3_14 
REMARK    3  A    between atoms: N3_14  and  C8_16 
REMARK    4  A    between atoms: C8_16  and  C9_17 
REMARK       I    between atoms: C9_17  and  N4_19 
REMARK    5  A    between atoms: N4_19  and  N5_21 
ROOT
HETATM    1  C7  UNL     1       5.673 -13.961 -13.730  1.00  0.00     0.237 C 
HETATM    2  O2  UNL     1       4.933 -13.673 -14.702  1.00  0.00    -0.272 OA
HETATM    3  N3  UNL     1       5.086 -14.424 -12.532  1.00  0.00    -0.342 N 
ATOM      4  H3  UNL     1       5.694 -14.657 -11.746  1.00  0.00     0.163 HD
ENDROOT
BRANCH   1   5
HETATM    5  C6  UNL     1       7.146 -13.817 -13.846  1.00  0.00     0.237 C 
BRANCH   5   6
HETATM    6  N2  UNL     1       7.813 -15.019 -13.400  1.00  0.00    -0.283 N 
HETATM    7  C3  UNL     1       8.557 -15.190 -12.283  1.00  0.00     0.108 A 
HETATM    8  S1  UNL     1       9.173 -14.439 -10.884  1.00  0.00    -0.074 SA
HETATM    9  C4  UNL     1       9.033 -16.469 -12.185  1.00  0.00     0.077 A 
HETATM   10  C2  UNL     1      10.018 -15.762 -10.211  1.00  0.00    -0.011 A 
HETATM   11  C1  UNL     1      10.815 -15.789  -8.930  1.00  0.00     0.057 C 
HETATM   12  C15 UNL     1       9.790 -16.767 -11.113  1.00  0.00    -0.019 A 
HETATM   13  C16 UNL     1      10.407 -18.126 -10.828  1.00  0.00     0.052 C 
HETATM   14  N1  UNL     1       8.539 -17.077 -13.309  1.00  0.00    -0.305 N 
HETATM   15  C5  UNL     1       7.823 -16.207 -14.012  1.00  0.00     0.328 A 
ATOM     16  H1  UNL     1       8.696 -18.051 -13.566  1.00  0.00     0.171 HD
HETATM   17  O1  UNL     1       7.240 -16.496 -15.111  1.00  0.00    -0.246 OA
ENDBRANCH   5   6
ENDBRANCH   1   5
BRANCH   3  18
HETATM   18  C8  UNL     1       3.616 -14.583 -12.372  1.00  0.00     0.115 C 
HETATM   19  C10 UNL     1       3.157 -15.702 -13.220  1.00  0.00     0.041 C 
HETATM   20  C11 UNL     1       2.054 -15.477 -14.196  1.00  0.00     0.003 C 
HETATM   21  C12 UNL     1       1.175 -14.298 -13.920  1.00  0.00     0.000 C 
HETATM   22  C13 UNL     1       1.951 -13.072 -13.566  1.00  0.00     0.003 C 
HETATM   23  C14 UNL     1       2.959 -13.266 -12.501  1.00  0.00     0.041 C 
BRANCH  18  24
HETATM   24  C9  UNL     1       3.464 -14.975 -10.914  1.00  0.00     0.264 C 
HETATM   25  O3  UNL     1       3.312 -16.170 -10.589  1.00  0.00    -0.269 OA
HETATM   26  N4  UNL     1       3.487 -14.004  -9.893  1.00  0.00    -0.275 N 
ATOM     27  H4  UNL     1       3.610 -13.027 -10.159  1.00  0.00     0.189 HD
BRANCH  26  28
HETATM   28  N5  UNL     1       3.351 -14.309  -8.539  1.00  0.00    -0.343 N 
ATOM     29  H52 UNL     1       2.687 -15.043  -8.290  1.00  0.00     0.176 HD
ATOM     30  H51 UNL     1       3.876 -13.840  -7.801  1.00  0.00     0.176 HD
ENDBRANCH  26  28
ENDBRANCH  18  24
ENDBRANCH   3  18
TORSDOF 5
ENDMDL
MODEL 4
REMARK VINA RESULT: -6.994652244      1.561      1.902
REMARK  5 active torsions:
REMARK  status: ('A' for Active; 'I' for Inactive)
REMARK    1  A    between atoms: N2_10  and  C6_11 
REMARK    2  A    between atoms: C6_11  and  C7_12 
REMARK       I    between atoms: C7_12  and  N3_14 
REMARK    3  A    between atoms: N3_14  and  C8_16 
REMARK    4  A    between atoms: C8_16  and  C9_17 
REMARK       I    between atoms: C9_17  and  N4_19 
REMARK    5  A    between atoms: N4_19  and  N5_21 
ROOT
HETATM    1  C7  UNL     1       5.212 -15.078 -14.382  1.00  0.00     0.237 C 
HETATM    2  O2  UNL     1       4.526 -14.447 -15.223  1.00  0.00    -0.272 OA
HETATM    3  N3  UNL     1       4.697 -15.276 -13.082  1.00  0.00    -0.342 N 
ATOM      4  H3  UNL     1       5.259 -15.790 -12.404  1.00  0.00     0.163 HD
ENDROOT
BRANCH   1   5
HETATM    5  C6  UNL     1       6.546 -15.609 -14.757  1.00  0.00     0.237 C 
BRANCH   5   6
HETATM    6  N2  UNL     1       7.595 -14.735 -14.281  1.00  0.00    -0.283 N 
HETATM    7  C3  UNL     1       8.127 -14.676 -13.038  1.00  0.00     0.108 A 
HETATM    8  S1  UNL     1       8.081 -15.327 -11.465  1.00  0.00    -0.074 SA
HETATM    9  C4  UNL     1       9.105 -13.724 -12.954  1.00  0.00     0.077 A 
HETATM   10  C2  UNL     1       9.302 -14.377 -10.740  1.00  0.00    -0.011 A 
HETATM   11  C1  UNL     1       9.787 -14.437  -9.312  1.00  0.00     0.057 C 
HETATM   12  C15 UNL     1       9.715 -13.567 -11.764  1.00  0.00    -0.019 A 
HETATM   13  C16 UNL     1      10.821 -12.567 -11.472  1.00  0.00     0.052 C 
HETATM   14  N1  UNL     1       9.146 -13.198 -14.218  1.00  0.00    -0.305 N 
HETATM   15  C5  UNL     1       8.248 -13.806 -14.986  1.00  0.00     0.328 A 
ATOM     16  H1  UNL     1       9.770 -12.453 -14.524  1.00  0.00     0.171 HD
HETATM   17  O1  UNL     1       8.062 -13.522 -16.216  1.00  0.00    -0.246 OA
ENDBRANCH   5   6
ENDBRANCH   1   5
BRANCH   3  18
HETATM   18  C8  UNL     1       3.365 -14.762 -12.664  1.00  0.00     0.115 C 
HETATM   19  C10 UNL     1       2.312 -15.524 -13.365  1.00  0.00     0.041 C 
HETATM   20  C11 UNL     1       1.275 -14.794 -14.147  1.00  0.00     0.003 C 
HETATM   21  C12 UNL     1       1.082 -13.355 -13.782  1.00  0.00     0.000 C 
HETATM   22  C13 UNL     1       2.374 -12.622 -13.627  1.00  0.00     0.003 C 
HETATM   23  C14 UNL     1       3.357 -13.286 -12.743  1.00  0.00     0.041 C 
BRANCH  18  24
HETATM   24  C9  UNL     1       3.311 -15.092 -11.185  1.00  0.00     0.264 C 
HETATM   25  O3  UNL     1       3.118 -16.264 -10.801  1.00  0.00    -0.269 OA
HETATM   26  N4  UNL     1       3.475 -14.090 -10.209  1.00  0.00    -0.275 N 
ATOM     27  H4  UNL     1       3.631 -13.132 -10.522  1.00  0.00     0.189 HD
BRANCH  26  28
HETATM   28  N5  UNL     1       3.434 -14.339  -8.836  1.00  0.00    -0.343 N 
ATOM     29  H52 UNL     1       3.905 -15.179  -8.500  1.00  0.00     0.176 HD
ATOM     30  H51 UNL     1       2.962 -13.730  -8.168  1.00  0.00     0.176 HD
ENDBRANCH  26  28
ENDBRANCH  18  24
ENDBRANCH   3  18
TORSDOF 5
ENDMDL
MODEL 5
REMARK VINA RESULT: -6.634048074      2.087      3.547
REMARK  5 active torsions:
REMARK  status: ('A' for Active; 'I' for Inactive)
REMARK    1  A    between atoms: N2_10  and  C6_11 
REMARK    2  A    between atoms: C6_11  and  C7_12 
REMARK       I    between atoms: C7_12  and  N3_14 
REMARK    3  A    between atoms: N3_14  and  C8_16 
REMARK    4  A    between atoms: C8_16  and  C9_17 
REMARK       I    between atoms: C9_17  and  N4_19 
REMARK    5  A    between atoms: N4_19  and  N5_21 
ROOT
HETATM    1  C7  UNL     1       6.075 -13.982 -13.451  1.00  0.00     0.237 C 
HETATM    2  O2  UNL     1       5.432 -13.630 -14.470  1.00  0.00    -0.272 OA
HETATM    3  N3  UNL     1       5.370 -14.450 -12.320  1.00  0.00    -0.342 N 
ATOM      4  H3  UNL     1       5.899 -14.735 -11.495  1.00  0.00     0.163 HD
ENDROOT
BRANCH   1   5
HETATM    5  C6  UNL     1       7.557 -13.905 -13.441  1.00  0.00     0.237 C 
BRANCH   5   6
HETATM    6  N2  UNL     1       8.137 -15.229 -13.412  1.00  0.00    -0.283 N 
HETATM    7  C3  UNL     1       8.500 -16.000 -14.462  1.00  0.00     0.108 A 
HETATM    8  S1  UNL     1       8.584 -16.100 -16.161  1.00  0.00    -0.074 SA
HETATM    9  C4  UNL     1       9.017 -17.198 -14.053  1.00  0.00     0.077 A 
HETATM   10  C2  UNL     1       9.271 -17.657 -16.309  1.00  0.00    -0.011 A 
HETATM   11  C1  UNL     1       9.623 -18.390 -17.581  1.00  0.00     0.057 C 
HETATM   12  C15 UNL     1       9.417 -18.058 -15.008  1.00  0.00    -0.019 A 
HETATM   13  C16 UNL     1      10.015 -19.432 -14.755  1.00  0.00     0.052 C 
HETATM   14  N1  UNL     1       8.952 -17.120 -12.687  1.00  0.00    -0.305 N 
HETATM   15  C5  UNL     1       8.430 -15.953 -12.328  1.00  0.00     0.328 A 
ATOM     16  H1  UNL     1       9.258 -17.849 -12.042  1.00  0.00     0.171 HD
HETATM   17  O1  UNL     1       8.248 -15.603 -11.113  1.00  0.00    -0.246 OA
ENDBRANCH   5   6
ENDBRANCH   1   5
BRANCH   3  18
HETATM   18  C8  UNL     1       3.886 -14.544 -12.286  1.00  0.00     0.115 C 
HETATM   19  C10 UNL     1       3.450 -15.621 -13.198  1.00  0.00     0.041 C 
HETATM   20  C11 UNL     1       2.444 -15.323 -14.255  1.00  0.00     0.003 C 
HETATM   21  C12 UNL     1       1.598 -14.111 -14.022  1.00  0.00     0.000 C 
HETATM   22  C13 UNL     1       2.396 -12.931 -13.574  1.00  0.00     0.003 C 
HETATM   23  C14 UNL     1       3.301 -13.195 -12.434  1.00  0.00     0.041 C 
BRANCH  18  24
HETATM   24  C9  UNL     1       3.595 -14.961 -10.857  1.00  0.00     0.264 C 
HETATM   25  O3  UNL     1       3.371 -16.155 -10.575  1.00  0.00    -0.269 OA
HETATM   26  N4  UNL     1       3.568 -14.014  -9.814  1.00  0.00    -0.275 N 
ATOM     27  H4  UNL     1       3.750 -13.037 -10.044  1.00  0.00     0.189 HD
BRANCH  26  28
HETATM   28  N5  UNL     1       3.305 -14.342  -8.483  1.00  0.00    -0.343 N 
ATOM     29  H52 UNL     1       3.632 -15.251  -8.154  1.00  0.00     0.176 HD
ATOM     30  H51 UNL     1       2.811 -13.726  -7.839  1.00  0.00     0.176 HD
ENDBRANCH  26  28
ENDBRANCH  18  24
ENDBRANCH   3  18
TORSDOF 5
ENDMDL
