MODEL 1
REMARK VINA RESULT: -5.244390622      0.000      0.000
REMARK  9 active torsions:
REMARK  status: ('A' for Active; 'I' for Inactive)
REMARK       I    between atoms: N1_2  and  C2_4 
REMARK    1  A    between atoms: C2_4  and  O2_6 
REMARK    2  A    between atoms: O2_6  and  C3_7 
REMARK    3  A    between atoms: C5_14  and  C6_15 
REMARK    4  A    between atoms: C6_15  and  C7_16 
REMARK    5  A    between atoms: C7_16  and  C8_17 
REMARK    6  A    between atoms: C7_16  and  N5_23 
REMARK    7  A    between atoms: C8_17  and  C9_18 
REMARK    8  A    between atoms: N4_19  and  O4_21 
REMARK    9  A    between atoms: N5_23  and  O5_24 
ROOT
HETATM    1  C3  UNL     1     -60.726 -19.119 -20.029  1.00  0.00     0.179 A 
HETATM    2  N2  UNL     1     -60.238 -17.887 -20.228  1.00  0.00    -0.287 N 
ATOM      3  H2  UNL     1     -59.251 -17.628 -20.234  1.00  0.00     0.172 HD
HETATM    4  C4  UNL     1     -61.271 -17.053 -20.417  1.00  0.00     0.326 A 
HETATM    5  O3  UNL     1     -61.196 -15.809 -20.635  1.00  0.00    -0.247 OA
HETATM    6  N3  UNL     1     -62.431 -17.711 -20.347  1.00  0.00    -0.308 N 
ATOM      7  H3  UNL     1     -63.368 -17.322 -20.453  1.00  0.00     0.170 HD
HETATM    8  C5  UNL     1     -62.100 -19.013 -20.103  1.00  0.00     0.067 A 
ENDROOT
BRANCH   8   9
HETATM    9  C6  UNL     1     -63.040 -20.122 -20.005  1.00  0.00     0.085 C 
BRANCH   9  10
HETATM   10  C7  UNL     1     -63.783 -20.576 -21.179  1.00  0.00     0.117 C 
BRANCH  10  11
HETATM   11  C8  UNL     1     -65.255 -20.612 -21.208  1.00  0.00     0.070 C 
BRANCH  11  12
HETATM   12  C9  UNL     1     -65.919 -19.594 -22.050  1.00  0.00     0.088 C 
HETATM   13  N4  UNL     1     -66.184 -18.469 -21.512  1.00  0.00    -0.282 N 
ATOM     14  H4  UNL     1     -65.906 -18.378 -20.535  1.00  0.00     0.193 HD
BRANCH  13  15
HETATM   15  O4  UNL     1     -66.773 -17.389 -22.042  1.00  0.00    -0.286 OA
HETATM   16  C10 UNL     1     -67.423 -16.343 -21.357  1.00  0.00     0.237 C 
ENDBRANCH  13  15
ENDBRANCH  11  12
ENDBRANCH  10  11
BRANCH  10  17
HETATM   17  N5  UNL     1     -63.379 -19.722 -22.328  1.00  0.00    -0.096 NA
BRANCH  17  18
HETATM   18  O5  UNL     1     -62.518 -20.368 -23.120  1.00  0.00    -0.291 OA
HETATM   19  C11 UNL     1     -61.655 -19.414 -23.688  1.00  0.00     0.231 C 
ENDBRANCH  17  18
ENDBRANCH  10  17
ENDBRANCH   9  10
ENDBRANCH   8   9
BRANCH   1  20
HETATM   20  O2  UNL     1     -59.937 -20.267 -19.786  1.00  0.00    -0.242 OA
BRANCH  20  21
HETATM   21  C2  UNL     1     -59.620 -21.143 -20.806  1.00  0.00     0.366 C 
HETATM   22  N1  UNL     1     -60.532 -22.045 -21.416  1.00  0.00    -0.341 N 
HETATM   23  C1  UNL     1     -60.101 -22.934 -22.491  1.00  0.00     0.151 C 
ATOM     24  H1  UNL     1     -61.501 -22.072 -21.098  1.00  0.00     0.164 HD
HETATM   25  O1  UNL     1     -58.413 -21.127 -21.220  1.00  0.00    -0.238 OA
ENDBRANCH  20  21
ENDBRANCH   1  20
TORSDOF 9
ENDMDL
MODEL 2
REMARK VINA RESULT: -5.172997037      2.224      3.555
REMARK  9 active torsions:
REMARK  status: ('A' for Active; 'I' for Inactive)
REMARK       I    between atoms: N1_2  and  C2_4 
REMARK    1  A    between atoms: C2_4  and  O2_6 
REMARK    2  A    between atoms: O2_6  and  C3_7 
REMARK    3  A    between atoms: C5_14  and  C6_15 
REMARK    4  A    between atoms: C6_15  and  C7_16 
REMARK    5  A    between atoms: C7_16  and  C8_17 
REMARK    6  A    between atoms: C7_16  and  N5_23 
REMARK    7  A    between atoms: C8_17  and  C9_18 
REMARK    8  A    between atoms: N4_19  and  O4_21 
REMARK    9  A    between atoms: N5_23  and  O5_24 
ROOT
HETATM    1  C3  UNL     1     -60.875 -19.290 -20.046  1.00  0.00     0.179 A 
HETATM    2  N2  UNL     1     -60.280 -18.092 -20.131  1.00  0.00    -0.287 N 
ATOM      3  H2  UNL     1     -59.283 -17.910 -20.015  1.00  0.00     0.172 HD
HETATM    4  C4  UNL     1     -61.221 -17.174 -20.394  1.00  0.00     0.326 A 
HETATM    5  O3  UNL     1     -61.032 -15.933 -20.543  1.00  0.00    -0.247 OA
HETATM    6  N3  UNL     1     -62.426 -17.743 -20.485  1.00  0.00    -0.308 N 
ATOM      7  H3  UNL     1     -63.314 -17.279 -20.676  1.00  0.00     0.170 HD
HETATM    8  C5  UNL     1     -62.220 -19.075 -20.268  1.00  0.00     0.067 A 
ENDROOT
BRANCH   8   9
HETATM    9  C6  UNL     1     -63.243 -20.112 -20.328  1.00  0.00     0.085 C 
BRANCH   9  10
HETATM   10  C7  UNL     1     -63.359 -20.977 -21.500  1.00  0.00     0.117 C 
BRANCH  10  11
HETATM   11  C8  UNL     1     -64.477 -21.921 -21.669  1.00  0.00     0.070 C 
BRANCH  11  12
HETATM   12  C9  UNL     1     -64.120 -23.286 -22.112  1.00  0.00     0.088 C 
HETATM   13  N4  UNL     1     -62.897 -23.513 -22.388  1.00  0.00    -0.282 N 
ATOM     14  H4  UNL     1     -62.270 -22.717 -22.273  1.00  0.00     0.193 HD
BRANCH  13  15
HETATM   15  O4  UNL     1     -62.314 -24.644 -22.806  1.00  0.00    -0.286 OA
HETATM   16  C10 UNL     1     -62.598 -25.960 -22.389  1.00  0.00     0.237 C 
ENDBRANCH  13  15
ENDBRANCH  11  12
ENDBRANCH  10  11
BRANCH  10  17
HETATM   17  N5  UNL     1     -63.383 -20.106 -22.706  1.00  0.00    -0.096 NA
BRANCH  17  18
HETATM   18  O5  UNL     1     -62.415 -20.451 -23.560  1.00  0.00    -0.291 OA
HETATM   19  C11 UNL     1     -61.584 -19.332 -23.747  1.00  0.00     0.231 C 
ENDBRANCH  17  18
ENDBRANCH  10  17
ENDBRANCH   9  10
ENDBRANCH   8   9
BRANCH   1  20
HETATM   20  O2  UNL     1     -60.204 -20.504 -19.772  1.00  0.00    -0.242 OA
BRANCH  20  21
HETATM   21  C2  UNL     1     -59.608 -21.233 -20.783  1.00  0.00     0.366 C 
HETATM   22  N1  UNL     1     -58.232 -21.171 -21.128  1.00  0.00    -0.341 N 
HETATM   23  C1  UNL     1     -57.695 -21.982 -22.217  1.00  0.00     0.151 C 
ATOM     24  H1  UNL     1     -57.610 -20.551 -20.609  1.00  0.00     0.164 HD
HETATM   25  O1  UNL     1     -60.367 -22.016 -21.447  1.00  0.00    -0.238 OA
ENDBRANCH  20  21
ENDBRANCH   1  20
TORSDOF 9
ENDMDL
MODEL 3
REMARK VINA RESULT: -5.119059844      2.326      3.975
REMARK  9 active torsions:
REMARK  status: ('A' for Active; 'I' for Inactive)
REMARK       I    between atoms: N1_2  and  C2_4 
REMARK    1  A    between atoms: C2_4  and  O2_6 
REMARK    2  A    between atoms: O2_6  and  C3_7 
REMARK    3  A    between atoms: C5_14  and  C6_15 
REMARK    4  A    between atoms: C6_15  and  C7_16 
REMARK    5  A    between atoms: C7_16  and  C8_17 
REMARK    6  A    between atoms: C7_16  and  N5_23 
REMARK    7  A    between atoms: C8_17  and  C9_18 
REMARK    8  A    between atoms: N4_19  and  O4_21 
REMARK    9  A    between atoms: N5_23  and  O5_24 
ROOT
HETATM    1  C3  UNL     1     -61.036 -19.127 -19.829  1.00  0.00     0.179 A 
HETATM    2  N2  UNL     1     -60.480 -17.919 -19.991  1.00  0.00    -0.287 N 
ATOM      3  H2  UNL     1     -59.524 -17.663 -19.742  1.00  0.00     0.172 HD
HETATM    4  C4  UNL     1     -61.395 -17.104 -20.535  1.00  0.00     0.326 A 
HETATM    5  O3  UNL     1     -61.229 -15.886 -20.830  1.00  0.00    -0.247 OA
HETATM    6  N3  UNL     1     -62.546 -17.752 -20.736  1.00  0.00    -0.308 N 
ATOM      7  H3  UNL     1     -63.405 -17.373 -21.134  1.00  0.00     0.170 HD
HETATM    8  C5  UNL     1     -62.331 -19.027 -20.296  1.00  0.00     0.067 A 
ENDROOT
BRANCH   8   9
HETATM    9  C6  UNL     1     -63.291 -20.121 -20.369  1.00  0.00     0.085 C 
BRANCH   9  10
HETATM   10  C7  UNL     1     -63.620 -20.739 -21.652  1.00  0.00     0.117 C 
BRANCH  10  11
HETATM   11  C8  UNL     1     -62.588 -21.077 -22.646  1.00  0.00     0.070 C 
BRANCH  11  12
HETATM   12  C9  UNL     1     -62.544 -22.487 -23.091  1.00  0.00     0.088 C 
HETATM   13  N4  UNL     1     -61.829 -23.294 -22.412  1.00  0.00    -0.282 N 
ATOM     14  H4  UNL     1     -61.348 -22.883 -21.613  1.00  0.00     0.193 HD
BRANCH  13  15
HETATM   15  O4  UNL     1     -61.617 -24.604 -22.596  1.00  0.00    -0.286 OA
HETATM   16  C10 UNL     1     -62.557 -25.649 -22.489  1.00  0.00     0.237 C 
ENDBRANCH  13  15
ENDBRANCH  11  12
ENDBRANCH  10  11
BRANCH  10  17
HETATM   17  N5  UNL     1     -64.340 -22.010 -21.371  1.00  0.00    -0.096 NA
BRANCH  17  18
HETATM   18  O5  UNL     1     -65.547 -21.769 -20.849  1.00  0.00    -0.291 OA
HETATM   19  C11 UNL     1     -66.435 -21.522 -21.911  1.00  0.00     0.231 C 
ENDBRANCH  17  18
ENDBRANCH  10  17
ENDBRANCH   9  10
ENDBRANCH   8   9
BRANCH   1  20
HETATM   20  O2  UNL     1     -60.377 -20.249 -19.275  1.00  0.00    -0.242 OA
BRANCH  20  21
HETATM   21  C2  UNL     1     -59.604 -21.081 -20.061  1.00  0.00     0.366 C 
HETATM   22  N1  UNL     1     -59.226 -20.811 -21.403  1.00  0.00    -0.341 N 
HETATM   23  C1  UNL     1     -58.404 -21.755 -22.155  1.00  0.00     0.151 C 
ATOM     24  H1  UNL     1     -59.533 -19.946 -21.849  1.00  0.00     0.164 HD
HETATM   25  O1  UNL     1     -59.209 -22.170 -19.526  1.00  0.00    -0.238 OA
ENDBRANCH  20  21
ENDBRANCH   1  20
TORSDOF 9
ENDMDL
MODEL 4
REMARK VINA RESULT: -5.088983886      1.937      3.190
REMARK  9 active torsions:
REMARK  status: ('A' for Active; 'I' for Inactive)
REMARK       I    between atoms: N1_2  and  C2_4 
REMARK    1  A    between atoms: C2_4  and  O2_6 
REMARK    2  A    between atoms: O2_6  and  C3_7 
REMARK    3  A    between atoms: C5_14  and  C6_15 
REMARK    4  A    between atoms: C6_15  and  C7_16 
REMARK    5  A    between atoms: C7_16  and  C8_17 
REMARK    6  A    between atoms: C7_16  and  N5_23 
REMARK    7  A    between atoms: C8_17  and  C9_18 
REMARK    8  A    between atoms: N4_19  and  O4_21 
REMARK    9  A    between atoms: N5_23  and  O5_24 
ROOT
HETATM    1  C3  UNL     1     -60.756 -19.140 -20.031  1.00  0.00     0.179 A 
HETATM    2  N2  UNL     1     -60.250 -17.909 -20.190  1.00  0.00    -0.287 N 
ATOM      3  H2  UNL     1     -59.261 -17.659 -20.154  1.00  0.00     0.172 HD
HETATM    4  C4  UNL     1     -61.267 -17.062 -20.406  1.00  0.00     0.326 A 
HETATM    5  O3  UNL     1     -61.172 -15.816 -20.600  1.00  0.00    -0.247 OA
HETATM    6  N3  UNL     1     -62.434 -17.711 -20.393  1.00  0.00    -0.308 N 
ATOM      7  H3  UNL     1     -63.363 -17.311 -20.529  1.00  0.00     0.170 HD
HETATM    8  C5  UNL     1     -62.125 -19.019 -20.158  1.00  0.00     0.067 A 
ENDROOT
BRANCH   8   9
HETATM    9  C6  UNL     1     -63.078 -20.121 -20.115  1.00  0.00     0.085 C 
BRANCH   9  10
HETATM   10  C7  UNL     1     -63.484 -20.803 -21.343  1.00  0.00     0.117 C 
BRANCH  10  11
HETATM   11  C8  UNL     1     -64.845 -21.331 -21.531  1.00  0.00     0.070 C 
BRANCH  11  12
HETATM   12  C9  UNL     1     -64.948 -22.757 -21.912  1.00  0.00     0.088 C 
HETATM   13  N4  UNL     1     -63.943 -23.502 -21.670  1.00  0.00    -0.282 N 
ATOM     14  H4  UNL     1     -63.151 -23.036 -21.229  1.00  0.00     0.193 HD
BRANCH  13  15
HETATM   15  O4  UNL     1     -63.776 -24.809 -21.911  1.00  0.00    -0.286 OA
HETATM   16  C10 UNL     1     -62.619 -25.451 -22.397  1.00  0.00     0.237 C 
ENDBRANCH  13  15
ENDBRANCH  11  12
ENDBRANCH  10  11
BRANCH  10  17
HETATM   17  N5  UNL     1     -63.255 -19.868 -22.477  1.00  0.00    -0.096 NA
BRANCH  17  18
HETATM   18  O5  UNL     1     -62.317 -20.342 -23.302  1.00  0.00    -0.291 OA
HETATM   19  C11 UNL     1     -61.499 -19.266 -23.690  1.00  0.00     0.231 C 
ENDBRANCH  17  18
ENDBRANCH  10  17
ENDBRANCH   9  10
ENDBRANCH   8   9
BRANCH   1  20
HETATM   20  O2  UNL     1     -59.987 -20.299 -19.777  1.00  0.00    -0.242 OA
BRANCH  20  21
HETATM   21  C2  UNL     1     -59.612 -21.145 -20.803  1.00  0.00     0.366 C 
HETATM   22  N1  UNL     1     -60.474 -22.072 -21.447  1.00  0.00    -0.341 N 
HETATM   23  C1  UNL     1     -59.984 -22.927 -22.525  1.00  0.00     0.151 C 
ATOM     24  H1  UNL     1     -61.448 -22.143 -21.152  1.00  0.00     0.164 HD
HETATM   25  O1  UNL     1     -58.398 -21.074 -21.188  1.00  0.00    -0.238 OA
ENDBRANCH  20  21
ENDBRANCH   1  20
TORSDOF 9
ENDMDL
MODEL 5
REMARK VINA RESULT: -4.971930557      1.820      2.167
REMARK  9 active torsions:
REMARK  status: ('A' for Active; 'I' for Inactive)
REMARK       I    between atoms: N1_2  and  C2_4 
REMARK    1  A    between atoms: C2_4  and  O2_6 
REMARK    2  A    between atoms: O2_6  and  C3_7 
REMARK    3  A    between atoms: C5_14  and  C6_15 
REMARK    4  A    between atoms: C6_15  and  C7_16 
REMARK    5  A    between atoms: C7_16  and  C8_17 
REMARK    6  A    between atoms: C7_16  and  N5_23 
REMARK    7  A    between atoms: C8_17  and  C9_18 
REMARK    8  A    between atoms: N4_19  and  O4_21 
REMARK    9  A    between atoms: N5_23  and  O5_24 
ROOT
HETATM    1  C3  UNL     1     -60.586 -19.165 -20.095  1.00  0.00     0.179 A 
HETATM    2  N2  UNL     1     -60.106 -17.934 -20.320  1.00  0.00    -0.287 N 
ATOM      3  H2  UNL     1     -59.121 -17.680 -20.392  1.00  0.00     0.172 HD
HETATM    4  C4  UNL     1     -61.144 -17.093 -20.435  1.00  0.00     0.326 A 
HETATM    5  O3  UNL     1     -61.078 -15.849 -20.650  1.00  0.00    -0.247 OA
HETATM    6  N3  UNL     1     -62.301 -17.746 -20.290  1.00  0.00    -0.308 N 
ATOM      7  H3  UNL     1     -63.241 -17.352 -20.330  1.00  0.00     0.170 HD
HETATM    8  C5  UNL     1     -61.962 -19.051 -20.077  1.00  0.00     0.067 A 
ENDROOT
BRANCH   8   9
HETATM    9  C6  UNL     1     -62.899 -20.156 -19.921  1.00  0.00     0.085 C 
BRANCH   9  10
HETATM   10  C7  UNL     1     -63.798 -20.530 -21.011  1.00  0.00     0.117 C 
BRANCH  10  11
HETATM   11  C8  UNL     1     -65.136 -19.936 -21.161  1.00  0.00     0.070 C 
BRANCH  11  12
HETATM   12  C9  UNL     1     -66.208 -20.844 -21.626  1.00  0.00     0.088 C 
HETATM   13  N4  UNL     1     -65.853 -21.944 -22.163  1.00  0.00    -0.282 N 
ATOM     14  H4  UNL     1     -64.846 -22.095 -22.221  1.00  0.00     0.193 HD
BRANCH  13  15
HETATM   15  O4  UNL     1     -66.609 -22.930 -22.663  1.00  0.00    -0.286 OA
HETATM   16  C10 UNL     1     -67.788 -22.805 -23.424  1.00  0.00     0.237 C 
ENDBRANCH  13  15
ENDBRANCH  11  12
ENDBRANCH  10  11
BRANCH  10  17
HETATM   17  N5  UNL     1     -63.092 -20.260 -22.293  1.00  0.00    -0.096 NA
BRANCH  17  18
HETATM   18  O5  UNL     1     -63.080 -21.349 -23.068  1.00  0.00    -0.291 OA
HETATM   19  C11 UNL     1     -62.908 -20.930 -24.399  1.00  0.00     0.231 C 
ENDBRANCH  17  18
ENDBRANCH  10  17
ENDBRANCH   9  10
ENDBRANCH   8   9
BRANCH   1  20
HETATM   20  O2  UNL     1     -59.789 -20.319 -19.913  1.00  0.00    -0.242 OA
BRANCH  20  21
HETATM   21  C2  UNL     1     -59.571 -21.205 -20.949  1.00  0.00     0.366 C 
HETATM   22  N1  UNL     1     -60.540 -22.108 -21.463  1.00  0.00    -0.341 N 
HETATM   23  C1  UNL     1     -60.214 -23.010 -22.564  1.00  0.00     0.151 C 
ATOM     24  H1  UNL     1     -61.476 -22.126 -21.058  1.00  0.00     0.164 HD
HETATM   25  O1  UNL     1     -58.407 -21.200 -21.471  1.00  0.00    -0.238 OA
ENDBRANCH  20  21
ENDBRANCH   1  20
TORSDOF 9
ENDMDL
