MODEL 1
REMARK VINA RESULT: -5.874304607      0.000      0.000
REMARK  11 active torsions:
REMARK  status: ('A' for Active; 'I' for Inactive)
REMARK    1  A    between atoms: C4_4  and  C5_5 
REMARK    2  A    between atoms: C5_5  and  N1_6 
REMARK    3  A    between atoms: N1_6  and  N2_8 
REMARK    4  A    between atoms: N2_8  and  N3_9 
REMARK    5  A    between atoms: C7_15  and  C8_16 
REMARK       I    between atoms: C8_16  and  N5_18 
REMARK    6  A    between atoms: N5_18  and  C9_20 
REMARK    7  A    between atoms: C9_20  and  C10_21 
REMARK    8  A    between atoms: C9_20  and  C11_23 
REMARK    9  A    between atoms: C11_23  and  O3_24 
REMARK   10  A    between atoms: C11_23  and  N6_26 
REMARK   11  A    between atoms: N6_26  and  N7_27 
ROOT
HETATM    1  C1  UNL     1     -64.657 -22.629 -21.926  1.00  0.00     0.050 C 
HETATM    2  C2  UNL     1     -65.215 -21.271 -21.881  1.00  0.00    -0.029 A 
HETATM    3  C3  UNL     1     -66.470 -21.032 -22.464  1.00  0.00     0.019 A 
HETATM    4  C4  UNL     1     -67.037 -19.783 -22.406  1.00  0.00    -0.022 A 
HETATM    5  C6  UNL     1     -66.353 -18.803 -21.775  1.00  0.00     0.097 A 
HETATM    6  N4  UNL     1     -65.187 -19.051 -21.242  1.00  0.00    -0.360 N 
ATOM      7  H4  UNL     1     -64.716 -18.273 -20.779  1.00  0.00     0.165 HD
HETATM    8  C7  UNL     1     -64.528 -20.267 -21.246  1.00  0.00     0.106 A 
ENDROOT
BRANCH   8   9
HETATM    9  C8  UNL     1     -63.219 -20.349 -20.655  1.00  0.00     0.269 C 
HETATM   10  O1  UNL     1     -63.231 -20.586 -19.379  1.00  0.00    -0.266 OA
HETATM   11  N5  UNL     1     -61.939 -20.223 -21.171  1.00  0.00    -0.341 N 
ATOM     12  H5  UNL     1     -61.830 -20.026 -22.166  1.00  0.00     0.163 HD
BRANCH  11  13
HETATM   13  C9  UNL     1     -60.736 -20.360 -20.345  1.00  0.00     0.192 C 
BRANCH  13  14
HETATM   14  C10 UNL     1     -59.630 -20.995 -21.093  1.00  0.00     0.260 C 
HETATM   15  O2  UNL     1     -59.423 -20.835 -22.283  1.00  0.00    -0.304 OA
ENDBRANCH  13  14
BRANCH  13  16
HETATM   16  C11 UNL     1     -60.258 -19.052 -19.809  1.00  0.00     0.260 C 
BRANCH  16  17
HETATM   17  O3  UNL     1     -60.915 -18.678 -18.630  1.00  0.00    -0.376 OA
ATOM     18  H3  UNL     1     -61.706 -18.178 -18.795  1.00  0.00     0.211 HD
ENDBRANCH  16  17
BRANCH  16  19
HETATM   19  N6  UNL     1     -60.596 -18.030 -20.784  1.00  0.00    -0.114 NA
BRANCH  19  20
HETATM   20  N7  UNL     1     -60.536 -16.749 -20.282  1.00  0.00    -0.346 N 
ATOM     21  H72 UNL     1     -60.746 -16.534 -19.307  1.00  0.00     0.172 HD
ATOM     22  H71 UNL     1     -60.266 -16.051 -20.976  1.00  0.00     0.172 HD
ENDBRANCH  19  20
ENDBRANCH  16  19
ENDBRANCH  13  16
ENDBRANCH  11  13
ENDBRANCH   8   9
BRANCH   4  23
HETATM   23  C5  UNL     1     -68.355 -19.535 -23.019  1.00  0.00     0.195 C 
BRANCH  23  24
HETATM   24  N1  UNL     1     -69.422 -19.672 -22.031  1.00  0.00    -0.248 N 
ATOM     25  H1  UNL     1     -69.759 -20.582 -21.716  1.00  0.00     0.197 HD
BRANCH  24  26
HETATM   26  N2  UNL     1     -69.893 -18.605 -21.599  1.00  0.00    -0.248 NA
BRANCH  26  27
HETATM   27  N3  UNL     1     -70.090 -17.615 -20.861  1.00  0.00    -0.261 N 
ATOM     28  H32 UNL     1     -71.075 -17.807 -20.679  1.00  0.00     0.193 HD
ATOM     29  H31 UNL     1     -69.922 -16.760 -20.332  1.00  0.00     0.193 HD
ENDBRANCH  26  27
ENDBRANCH  24  26
ENDBRANCH  23  24
ENDBRANCH   4  23
TORSDOF 11
ENDMDL
MODEL 2
REMARK VINA RESULT: -5.814790364      2.307      2.398
REMARK  11 active torsions:
REMARK  status: ('A' for Active; 'I' for Inactive)
REMARK    1  A    between atoms: C4_4  and  C5_5 
REMARK    2  A    between atoms: C5_5  and  N1_6 
REMARK    3  A    between atoms: N1_6  and  N2_8 
REMARK    4  A    between atoms: N2_8  and  N3_9 
REMARK    5  A    between atoms: C7_15  and  C8_16 
REMARK       I    between atoms: C8_16  and  N5_18 
REMARK    6  A    between atoms: N5_18  and  C9_20 
REMARK    7  A    between atoms: C9_20  and  C10_21 
REMARK    8  A    between atoms: C9_20  and  C11_23 
REMARK    9  A    between atoms: C11_23  and  O3_24 
REMARK   10  A    between atoms: C11_23  and  N6_26 
REMARK   11  A    between atoms: N6_26  and  N7_27 
ROOT
HETATM    1  C1  UNL     1     -63.973 -20.875 -24.211  1.00  0.00     0.050 C 
HETATM    2  C2  UNL     1     -64.835 -19.905 -23.522  1.00  0.00    -0.029 A 
HETATM    3  C3  UNL     1     -65.973 -19.416 -24.183  1.00  0.00     0.019 A 
HETATM    4  C4  UNL     1     -66.820 -18.537 -23.554  1.00  0.00    -0.022 A 
HETATM    5  C6  UNL     1     -66.523 -18.164 -22.289  1.00  0.00     0.097 A 
HETATM    6  N4  UNL     1     -65.458 -18.632 -21.697  1.00  0.00    -0.360 N 
ATOM      7  H4  UNL     1     -65.284 -18.316 -20.743  1.00  0.00     0.165 HD
HETATM    8  C7  UNL     1     -64.543 -19.516 -22.238  1.00  0.00     0.106 A 
ENDROOT
BRANCH   8   9
HETATM    9  C8  UNL     1     -63.392 -19.888 -21.460  1.00  0.00     0.269 C 
HETATM   10  O1  UNL     1     -63.671 -20.607 -20.416  1.00  0.00    -0.266 OA
HETATM   11  N5  UNL     1     -62.036 -19.631 -21.594  1.00  0.00    -0.341 N 
ATOM     12  H5  UNL     1     -61.721 -19.064 -22.381  1.00  0.00     0.163 HD
BRANCH  11  13
HETATM   13  C9  UNL     1     -61.038 -20.141 -20.649  1.00  0.00     0.192 C 
BRANCH  13  14
HETATM   14  C10 UNL     1     -59.986 -20.922 -21.335  1.00  0.00     0.260 C 
HETATM   15  O2  UNL     1     -58.812 -20.931 -21.008  1.00  0.00    -0.304 OA
ENDBRANCH  13  14
BRANCH  13  16
HETATM   16  C11 UNL     1     -60.384 -19.053 -19.865  1.00  0.00     0.260 C 
BRANCH  16  17
HETATM   17  O3  UNL     1     -61.086 -18.734 -18.695  1.00  0.00    -0.376 OA
ATOM     18  H3  UNL     1     -60.700 -19.123 -17.919  1.00  0.00     0.211 HD
ENDBRANCH  16  17
BRANCH  16  19
HETATM   19  N6  UNL     1     -60.415 -17.848 -20.677  1.00  0.00    -0.114 NA
BRANCH  19  20
HETATM   20  N7  UNL     1     -60.780 -16.720 -19.975  1.00  0.00    -0.346 N 
ATOM     21  H72 UNL     1     -61.338 -16.764 -19.123  1.00  0.00     0.172 HD
ATOM     22  H71 UNL     1     -60.439 -15.853 -20.391  1.00  0.00     0.172 HD
ENDBRANCH  19  20
ENDBRANCH  16  19
ENDBRANCH  13  16
ENDBRANCH  11  13
ENDBRANCH   8   9
BRANCH   4  23
HETATM   23  C5  UNL     1     -68.014 -18.026 -24.252  1.00  0.00     0.195 C 
BRANCH  23  24
HETATM   24  N1  UNL     1     -67.845 -18.110 -25.700  1.00  0.00    -0.248 N 
ATOM     25  H1  UNL     1     -67.312 -18.859 -26.143  1.00  0.00     0.197 HD
BRANCH  24  26
HETATM   26  N2  UNL     1     -68.395 -17.208 -26.358  1.00  0.00    -0.248 NA
BRANCH  26  27
HETATM   27  N3  UNL     1     -68.585 -16.112 -26.928  1.00  0.00    -0.261 N 
ATOM     28  H32 UNL     1     -67.618 -15.966 -27.214  1.00  0.00     0.193 HD
ATOM     29  H31 UNL     1     -69.059 -15.284 -27.289  1.00  0.00     0.193 HD
ENDBRANCH  26  27
ENDBRANCH  24  26
ENDBRANCH  23  24
ENDBRANCH   4  23
TORSDOF 11
ENDMDL
MODEL 3
REMARK VINA RESULT: -5.739964366      2.542      3.433
REMARK  11 active torsions:
REMARK  status: ('A' for Active; 'I' for Inactive)
REMARK    1  A    between atoms: C4_4  and  C5_5 
REMARK    2  A    between atoms: C5_5  and  N1_6 
REMARK    3  A    between atoms: N1_6  and  N2_8 
REMARK    4  A    between atoms: N2_8  and  N3_9 
REMARK    5  A    between atoms: C7_15  and  C8_16 
REMARK       I    between atoms: C8_16  and  N5_18 
REMARK    6  A    between atoms: N5_18  and  C9_20 
REMARK    7  A    between atoms: C9_20  and  C10_21 
REMARK    8  A    between atoms: C9_20  and  C11_23 
REMARK    9  A    between atoms: C11_23  and  O3_24 
REMARK   10  A    between atoms: C11_23  and  N6_26 
REMARK   11  A    between atoms: N6_26  and  N7_27 
ROOT
HETATM    1  C1  UNL     1     -65.596 -19.214 -21.569  1.00  0.00     0.050 C 
HETATM    2  C2  UNL     1     -65.707 -20.677 -21.646  1.00  0.00    -0.029 A 
HETATM    3  C3  UNL     1     -66.981 -21.265 -21.589  1.00  0.00     0.019 A 
HETATM    4  C4  UNL     1     -67.124 -22.627 -21.697  1.00  0.00    -0.022 A 
HETATM    5  C6  UNL     1     -66.008 -23.372 -21.859  1.00  0.00     0.097 A 
HETATM    6  N4  UNL     1     -64.835 -22.800 -21.908  1.00  0.00    -0.360 N 
ATOM      7  H4  UNL     1     -64.028 -23.412 -22.032  1.00  0.00     0.165 HD
HETATM    8  C7  UNL     1     -64.582 -21.445 -21.809  1.00  0.00     0.106 A 
ENDROOT
BRANCH   8   9
HETATM    9  C8  UNL     1     -63.217 -20.990 -21.830  1.00  0.00     0.269 C 
HETATM   10  O1  UNL     1     -62.778 -20.696 -23.016  1.00  0.00    -0.266 OA
HETATM   11  N5  UNL     1     -62.266 -20.804 -20.839  1.00  0.00    -0.341 N 
ATOM     12  H5  UNL     1     -62.517 -21.018 -19.874  1.00  0.00     0.163 HD
BRANCH  11  13
HETATM   13  C9  UNL     1     -60.915 -20.311 -21.121  1.00  0.00     0.192 C 
BRANCH  13  14
HETATM   14  C10 UNL     1     -60.467 -19.334 -20.107  1.00  0.00     0.260 C 
HETATM   15  O2  UNL     1     -60.539 -19.509 -18.903  1.00  0.00    -0.304 OA
ENDBRANCH  13  14
BRANCH  13  16
HETATM   16  C11 UNL     1     -59.909 -21.411 -21.197  1.00  0.00     0.260 C 
BRANCH  16  17
HETATM   17  O3  UNL     1     -59.305 -21.676 -19.962  1.00  0.00    -0.376 OA
ATOM     18  H3  UNL     1     -58.395 -21.403 -19.933  1.00  0.00     0.211 HD
ENDBRANCH  16  17
BRANCH  16  19
HETATM   19  N6  UNL     1     -58.836 -20.963 -22.068  1.00  0.00    -0.114 NA
BRANCH  19  20
HETATM   20  N7  UNL     1     -57.665 -21.672 -21.907  1.00  0.00    -0.346 N 
ATOM     21  H72 UNL     1     -57.265 -21.864 -20.989  1.00  0.00     0.172 HD
ATOM     22  H71 UNL     1     -57.249 -21.977 -22.787  1.00  0.00     0.172 HD
ENDBRANCH  19  20
ENDBRANCH  16  19
ENDBRANCH  13  16
ENDBRANCH  11  13
ENDBRANCH   8   9
BRANCH   4  23
HETATM   23  C5  UNL     1     -68.463 -23.241 -21.635  1.00  0.00     0.195 C 
BRANCH  23  24
HETATM   24  N1  UNL     1     -69.385 -22.403 -20.874  1.00  0.00    -0.248 N 
ATOM     25  H1  UNL     1     -69.780 -21.543 -21.255  1.00  0.00     0.197 HD
BRANCH  24  26
HETATM   26  N2  UNL     1     -69.657 -22.807 -19.729  1.00  0.00    -0.248 NA
BRANCH  26  27
HETATM   27  N3  UNL     1     -69.514 -23.195 -18.550  1.00  0.00    -0.261 N 
ATOM     28  H32 UNL     1     -68.535 -23.466 -18.639  1.00  0.00     0.193 HD
ATOM     29  H31 UNL     1     -69.724 -23.416 -17.576  1.00  0.00     0.193 HD
ENDBRANCH  26  27
ENDBRANCH  24  26
ENDBRANCH  23  24
ENDBRANCH   4  23
TORSDOF 11
ENDMDL
MODEL 4
REMARK VINA RESULT: -5.698120481      2.342      3.229
REMARK  11 active torsions:
REMARK  status: ('A' for Active; 'I' for Inactive)
REMARK    1  A    between atoms: C4_4  and  C5_5 
REMARK    2  A    between atoms: C5_5  and  N1_6 
REMARK    3  A    between atoms: N1_6  and  N2_8 
REMARK    4  A    between atoms: N2_8  and  N3_9 
REMARK    5  A    between atoms: C7_15  and  C8_16 
REMARK       I    between atoms: C8_16  and  N5_18 
REMARK    6  A    between atoms: N5_18  and  C9_20 
REMARK    7  A    between atoms: C9_20  and  C10_21 
REMARK    8  A    between atoms: C9_20  and  C11_23 
REMARK    9  A    between atoms: C11_23  and  O3_24 
REMARK   10  A    between atoms: C11_23  and  N6_26 
REMARK   11  A    between atoms: N6_26  and  N7_27 
ROOT
HETATM    1  C1  UNL     1     -66.018 -18.471 -21.964  1.00  0.00     0.050 C 
HETATM    2  C2  UNL     1     -66.053 -19.939 -21.915  1.00  0.00    -0.029 A 
HETATM    3  C3  UNL     1     -67.297 -20.590 -21.946  1.00  0.00     0.019 A 
HETATM    4  C4  UNL     1     -67.364 -21.962 -21.941  1.00  0.00    -0.022 A 
HETATM    5  C6  UNL     1     -66.205 -22.655 -21.905  1.00  0.00     0.097 A 
HETATM    6  N4  UNL     1     -65.061 -22.025 -21.875  1.00  0.00    -0.360 N 
ATOM      7  H4  UNL     1     -64.219 -22.600 -21.849  1.00  0.00     0.165 HD
HETATM    8  C7  UNL     1     -64.883 -20.654 -21.876  1.00  0.00     0.106 A 
ENDROOT
BRANCH   8   9
HETATM    9  C8  UNL     1     -63.547 -20.127 -21.786  1.00  0.00     0.269 C 
HETATM   10  O1  UNL     1     -62.819 -20.356 -22.836  1.00  0.00    -0.266 OA
HETATM   11  N5  UNL     1     -62.872 -19.425 -20.800  1.00  0.00    -0.341 N 
ATOM     12  H5  UNL     1     -63.361 -19.207 -19.932  1.00  0.00     0.163 HD
BRANCH  11  13
HETATM   13  C9  UNL     1     -61.482 -18.984 -20.954  1.00  0.00     0.192 C 
BRANCH  13  14
HETATM   14  C10 UNL     1     -61.304 -17.581 -20.522  1.00  0.00     0.260 C 
HETATM   15  O2  UNL     1     -60.488 -16.812 -20.999  1.00  0.00    -0.304 OA
ENDBRANCH  13  14
BRANCH  13  16
HETATM   16  C11 UNL     1     -60.523 -19.840 -20.197  1.00  0.00     0.260 C 
BRANCH  16  17
HETATM   17  O3  UNL     1     -59.603 -19.091 -19.452  1.00  0.00    -0.376 OA
ATOM     18  H3  UNL     1     -59.049 -19.633 -18.902  1.00  0.00     0.211 HD
ENDBRANCH  16  17
BRANCH  16  19
HETATM   19  N6  UNL     1     -59.730 -20.573 -21.169  1.00  0.00    -0.114 NA
BRANCH  19  20
HETATM   20  N7  UNL     1     -60.310 -21.756 -21.572  1.00  0.00    -0.346 N 
ATOM     21  H72 UNL     1     -61.313 -21.846 -21.729  1.00  0.00     0.172 HD
ATOM     22  H71 UNL     1     -59.641 -22.517 -21.694  1.00  0.00     0.172 HD
ENDBRANCH  19  20
ENDBRANCH  16  19
ENDBRANCH  13  16
ENDBRANCH  11  13
ENDBRANCH   8   9
BRANCH   4  23
HETATM   23  C5  UNL     1     -68.672 -22.642 -21.974  1.00  0.00     0.195 C 
BRANCH  23  24
HETATM   24  N1  UNL     1     -69.515 -22.202 -20.865  1.00  0.00    -0.248 N 
ATOM     25  H1  UNL     1     -70.129 -21.391 -20.937  1.00  0.00     0.197 HD
BRANCH  24  26
HETATM   26  N2  UNL     1     -69.433 -22.883 -19.826  1.00  0.00    -0.248 NA
BRANCH  26  27
HETATM   27  N3  UNL     1     -69.472 -23.202 -18.619  1.00  0.00    -0.261 N 
ATOM     28  H32 UNL     1     -69.072 -22.334 -18.261  1.00  0.00     0.193 HD
ATOM     29  H31 UNL     1     -69.636 -23.745 -17.771  1.00  0.00     0.193 HD
ENDBRANCH  26  27
ENDBRANCH  24  26
ENDBRANCH  23  24
ENDBRANCH   4  23
TORSDOF 11
ENDMDL
MODEL 5
REMARK VINA RESULT: -5.632759146      2.827      3.118
REMARK  11 active torsions:
REMARK  status: ('A' for Active; 'I' for Inactive)
REMARK    1  A    between atoms: C4_4  and  C5_5 
REMARK    2  A    between atoms: C5_5  and  N1_6 
REMARK    3  A    between atoms: N1_6  and  N2_8 
REMARK    4  A    between atoms: N2_8  and  N3_9 
REMARK    5  A    between atoms: C7_15  and  C8_16 
REMARK       I    between atoms: C8_16  and  N5_18 
REMARK    6  A    between atoms: N5_18  and  C9_20 
REMARK    7  A    between atoms: C9_20  and  C10_21 
REMARK    8  A    between atoms: C9_20  and  C11_23 
REMARK    9  A    between atoms: C11_23  and  O3_24 
REMARK   10  A    between atoms: C11_23  and  N6_26 
REMARK   11  A    between atoms: N6_26  and  N7_27 
ROOT
HETATM    1  C1  UNL     1     -65.740 -18.739 -21.573  1.00  0.00     0.050 C 
HETATM    2  C2  UNL     1     -65.423 -19.237 -22.918  1.00  0.00    -0.029 A 
HETATM    3  C3  UNL     1     -66.361 -19.059 -23.948  1.00  0.00     0.019 A 
HETATM    4  C4  UNL     1     -66.081 -19.478 -25.225  1.00  0.00    -0.022 A 
HETATM    5  C6  UNL     1     -64.884 -20.061 -25.454  1.00  0.00     0.097 A 
HETATM    6  N4  UNL     1     -64.029 -20.217 -24.479  1.00  0.00    -0.360 N 
ATOM      7  H4  UNL     1     -63.141 -20.663 -24.710  1.00  0.00     0.165 HD
HETATM    8  C7  UNL     1     -64.211 -19.834 -23.163  1.00  0.00     0.106 A 
ENDROOT
BRANCH   8   9
HETATM    9  C8  UNL     1     -63.181 -20.131 -22.204  1.00  0.00     0.269 C 
HETATM   10  O1  UNL     1     -63.423 -21.180 -21.479  1.00  0.00    -0.266 OA
HETATM   11  N5  UNL     1     -61.977 -19.520 -21.890  1.00  0.00    -0.341 N 
ATOM     12  H5  UNL     1     -61.706 -18.681 -22.402  1.00  0.00     0.163 HD
BRANCH  11  13
HETATM   13  C9  UNL     1     -61.078 -20.032 -20.851  1.00  0.00     0.192 C 
BRANCH  13  14
HETATM   14  C10 UNL     1     -60.010 -20.879 -21.423  1.00  0.00     0.260 C 
HETATM   15  O2  UNL     1     -58.874 -20.943 -20.985  1.00  0.00    -0.304 OA
ENDBRANCH  13  14
BRANCH  13  16
HETATM   16  C11 UNL     1     -60.444 -18.942 -20.055  1.00  0.00     0.260 C 
BRANCH  16  17
HETATM   17  O3  UNL     1     -60.219 -19.307 -18.722  1.00  0.00    -0.376 OA
ATOM     18  H3  UNL     1     -59.896 -20.197 -18.636  1.00  0.00     0.211 HD
ENDBRANCH  16  17
BRANCH  16  19
HETATM   19  N6  UNL     1     -61.385 -17.836 -20.001  1.00  0.00    -0.114 NA
BRANCH  19  20
HETATM   20  N7  UNL     1     -60.779 -16.599 -19.962  1.00  0.00    -0.346 N 
ATOM     21  H72 UNL     1     -59.781 -16.485 -19.788  1.00  0.00     0.172 HD
ATOM     22  H71 UNL     1     -61.423 -15.824 -20.123  1.00  0.00     0.172 HD
ENDBRANCH  19  20
ENDBRANCH  16  19
ENDBRANCH  13  16
ENDBRANCH  11  13
ENDBRANCH   8   9
BRANCH   4  23
HETATM   23  C5  UNL     1     -67.069 -19.289 -26.303  1.00  0.00     0.195 C 
BRANCH  23  24
HETATM   24  N1  UNL     1     -67.906 -18.121 -26.042  1.00  0.00    -0.248 N 
ATOM     25  H1  UNL     1     -68.247 -17.893 -25.108  1.00  0.00     0.197 HD
BRANCH  24  26
HETATM   26  N2  UNL     1     -68.177 -17.422 -27.036  1.00  0.00    -0.248 NA
BRANCH  26  27
HETATM   27  N3  UNL     1     -68.319 -16.423 -27.772  1.00  0.00    -0.261 N 
ATOM     28  H32 UNL     1     -69.196 -16.721 -28.198  1.00  0.00     0.193 HD
ATOM     29  H31 UNL     1     -68.142 -15.523 -28.219  1.00  0.00     0.193 HD
ENDBRANCH  26  27
ENDBRANCH  24  26
ENDBRANCH  23  24
ENDBRANCH   4  23
TORSDOF 11
ENDMDL
