MODEL 1
REMARK VINA RESULT: -6.172754865      0.000      0.000
REMARK  8 active torsions:
REMARK  status: ('A' for Active; 'I' for Inactive)
REMARK    1  A    between atoms: N1_2  and  C2_5 
REMARK    2  A    between atoms: C2_5  and  C3_6 
REMARK    3  A    between atoms: C4_11  and  C5_12 
REMARK    4  A    between atoms: C5_12  and  N4_13 
REMARK    5  A    between atoms: N4_13  and  C6_14 
REMARK    6  A    between atoms: N4_13  and  C7_16 
REMARK    7  A    between atoms: C10_19  and  C11_20 
REMARK    8  A    between atoms: N6_22  and  O2_24 
ROOT
HETATM    1  N4  UNL     1     -65.576 -20.534 -22.601  1.00  0.00    -0.318 N 
ENDROOT
BRANCH   1   2
HETATM    2  C5  UNL     1     -64.247 -20.539 -23.108  1.00  0.00     0.217 C 
BRANCH   2   3
HETATM    3  C4  UNL     1     -63.196 -20.448 -22.070  1.00  0.00     0.158 A 
HETATM    4  N3  UNL     1     -62.277 -21.410 -21.753  1.00  0.00    -0.280 N 
HETATM    5  N2  UNL     1     -61.524 -20.937 -20.783  1.00  0.00    -0.280 N 
ATOM      6  H3  UNL     1     -62.191 -22.329 -22.189  1.00  0.00     0.189 HD
HETATM    7  C3  UNL     1     -61.942 -19.691 -20.473  1.00  0.00     0.166 A 
ATOM      8  H2  UNL     1     -60.750 -21.431 -20.337  1.00  0.00     0.189 HD
HETATM    9  O3  UNL     1     -62.943 -19.455 -21.275  1.00  0.00    -0.279 OA
BRANCH   7  10
HETATM   10  C2  UNL     1     -61.368 -18.785 -19.427  1.00  0.00     0.317 C 
BRANCH  10  11
HETATM   11  N1  UNL     1     -60.471 -17.840 -20.070  1.00  0.00    -0.072 N 
HETATM   12  C1  UNL     1     -61.195 -16.645 -20.451  1.00  0.00     0.267 C 
ATOM     13  H12 UNL     1     -59.980 -18.258 -20.861  1.00  0.00     0.277 HD
ATOM     14  H11 UNL     1     -59.661 -17.627 -19.487  1.00  0.00     0.277 HD
ENDBRANCH  10  11
ENDBRANCH   7  10
ENDBRANCH   2   3
ENDBRANCH   1   2
BRANCH   1  15
HETATM   15  C6  UNL     1     -66.208 -21.777 -22.266  1.00  0.00     0.356 C 
HETATM   16  O1  UNL     1     -66.127 -22.209 -21.085  1.00  0.00    -0.283 OA
ENDBRANCH   1  15
BRANCH   1  17
HETATM   17  C7  UNL     1     -66.276 -19.313 -22.448  1.00  0.00     0.037 A 
HETATM   18  C8  UNL     1     -66.837 -18.771 -23.587  1.00  0.00     0.030 A 
HETATM   19  C9  UNL     1     -67.530 -17.596 -23.506  1.00  0.00     0.017 A 
HETATM   20  C10 UNL     1     -67.695 -16.909 -22.298  1.00  0.00     0.007 A 
HETATM   21  C12 UNL     1     -67.135 -17.458 -21.182  1.00  0.00     0.017 A 
HETATM   22  C13 UNL     1     -66.433 -18.650 -21.258  1.00  0.00     0.030 A 
BRANCH  20  23
HETATM   23  C11 UNL     1     -68.445 -15.662 -22.280  1.00  0.00     0.146 C 
HETATM   24  N5  UNL     1     -69.357 -15.388 -23.324  1.00  0.00    -0.080 NA
HETATM   25  N6  UNL     1     -68.306 -14.801 -21.337  1.00  0.00    -0.255 N 
ATOM     26  H6  UNL     1     -67.649 -15.005 -20.584  1.00  0.00     0.195 HD
BRANCH  25  27
HETATM   27  O2  UNL     1     -69.002 -13.616 -21.299  1.00  0.00    -0.288 OA
ATOM     28  H2  UNL     1     -69.311 -13.225 -20.491  1.00  0.00     0.244 HD
ENDBRANCH  25  27
ENDBRANCH  20  23
ENDBRANCH   1  17
TORSDOF 8
ENDMDL
MODEL 2
REMARK VINA RESULT: -6.067644477      1.135      1.587
REMARK  8 active torsions:
REMARK  status: ('A' for Active; 'I' for Inactive)
REMARK    1  A    between atoms: N1_2  and  C2_5 
REMARK    2  A    between atoms: C2_5  and  C3_6 
REMARK    3  A    between atoms: C4_11  and  C5_12 
REMARK    4  A    between atoms: C5_12  and  N4_13 
REMARK    5  A    between atoms: N4_13  and  C6_14 
REMARK    6  A    between atoms: N4_13  and  C7_16 
REMARK    7  A    between atoms: C10_19  and  C11_20 
REMARK    8  A    between atoms: N6_22  and  O2_24 
ROOT
HETATM    1  N4  UNL     1     -65.588 -20.046 -22.550  1.00  0.00    -0.318 N 
ENDROOT
BRANCH   1   2
HETATM    2  C5  UNL     1     -65.129 -20.606 -21.326  1.00  0.00     0.217 C 
BRANCH   2   3
HETATM    3  C4  UNL     1     -63.659 -20.579 -21.154  1.00  0.00     0.158 A 
HETATM    4  N3  UNL     1     -62.770 -21.523 -21.588  1.00  0.00    -0.280 N 
HETATM    5  N2  UNL     1     -61.565 -21.124 -21.241  1.00  0.00    -0.280 N 
ATOM      6  H3  UNL     1     -62.999 -22.380 -22.092  1.00  0.00     0.189 HD
HETATM    7  C3  UNL     1     -61.665 -19.944 -20.591  1.00  0.00     0.166 A 
ATOM      8  H2  UNL     1     -60.696 -21.625 -21.430  1.00  0.00     0.189 HD
HETATM    9  O3  UNL     1     -62.941 -19.671 -20.571  1.00  0.00    -0.279 OA
BRANCH   7  10
HETATM   10  C2  UNL     1     -60.541 -19.133 -20.022  1.00  0.00     0.317 C 
BRANCH  10  11
HETATM   11  N1  UNL     1     -61.062 -17.843 -19.604  1.00  0.00    -0.072 N 
HETATM   12  C1  UNL     1     -60.947 -16.885 -20.685  1.00  0.00     0.267 C 
ATOM     13  H12 UNL     1     -60.615 -17.510 -18.749  1.00  0.00     0.277 HD
ATOM     14  H11 UNL     1     -62.018 -17.912 -19.255  1.00  0.00     0.277 HD
ENDBRANCH  10  11
ENDBRANCH   7  10
ENDBRANCH   2   3
ENDBRANCH   1   2
BRANCH   1  15
HETATM   15  C6  UNL     1     -65.214 -20.660 -23.791  1.00  0.00     0.356 C 
HETATM   16  O1  UNL     1     -64.130 -20.326 -24.339  1.00  0.00    -0.283 OA
ENDBRANCH   1  15
BRANCH   1  17
HETATM   17  C7  UNL     1     -66.391 -18.879 -22.544  1.00  0.00     0.037 A 
HETATM   18  C8  UNL     1     -66.431 -18.160 -21.367  1.00  0.00     0.030 A 
HETATM   19  C9  UNL     1     -67.184 -17.021 -21.295  1.00  0.00     0.017 A 
HETATM   20  C10 UNL     1     -67.927 -16.549 -22.384  1.00  0.00     0.007 A 
HETATM   21  C12 UNL     1     -67.876 -17.271 -23.539  1.00  0.00     0.017 A 
HETATM   22  C13 UNL     1     -67.113 -18.427 -23.616  1.00  0.00     0.030 A 
BRANCH  20  23
HETATM   23  C11 UNL     1     -68.707 -15.329 -22.243  1.00  0.00     0.146 C 
HETATM   24  N5  UNL     1     -69.872 -15.158 -23.024  1.00  0.00    -0.080 NA
HETATM   25  N6  UNL     1     -68.368 -14.398 -21.425  1.00  0.00    -0.255 N 
ATOM     26  H6  UNL     1     -67.528 -14.527 -20.861  1.00  0.00     0.195 HD
BRANCH  25  27
HETATM   27  O2  UNL     1     -69.088 -13.237 -21.276  1.00  0.00    -0.288 OA
ATOM     28  H2  UNL     1     -69.184 -12.792 -20.442  1.00  0.00     0.244 HD
ENDBRANCH  25  27
ENDBRANCH  20  23
ENDBRANCH   1  17
TORSDOF 8
ENDMDL
MODEL 3
REMARK VINA RESULT: -6.057743825      3.605      6.342
REMARK  8 active torsions:
REMARK  status: ('A' for Active; 'I' for Inactive)
REMARK    1  A    between atoms: N1_2  and  C2_5 
REMARK    2  A    between atoms: C2_5  and  C3_6 
REMARK    3  A    between atoms: C4_11  and  C5_12 
REMARK    4  A    between atoms: C5_12  and  N4_13 
REMARK    5  A    between atoms: N4_13  and  C6_14 
REMARK    6  A    between atoms: N4_13  and  C7_16 
REMARK    7  A    between atoms: C10_19  and  C11_20 
REMARK    8  A    between atoms: N6_22  and  O2_24 
ROOT
HETATM    1  N4  UNL     1     -65.786 -21.365 -22.005  1.00  0.00    -0.318 N 
ENDROOT
BRANCH   1   2
HETATM    2  C5  UNL     1     -65.661 -22.521 -22.825  1.00  0.00     0.217 C 
BRANCH   2   3
HETATM    3  C4  UNL     1     -65.151 -23.718 -22.121  1.00  0.00     0.158 A 
HETATM    4  N3  UNL     1     -63.842 -24.096 -21.997  1.00  0.00    -0.280 N 
HETATM    5  N2  UNL     1     -63.814 -25.211 -21.298  1.00  0.00    -0.280 N 
ATOM      6  H3  UNL     1     -63.034 -23.603 -22.376  1.00  0.00     0.189 HD
HETATM    7  C3  UNL     1     -65.079 -25.555 -20.973  1.00  0.00     0.166 A 
ATOM      8  H2  UNL     1     -62.974 -25.732 -21.044  1.00  0.00     0.189 HD
HETATM    9  O3  UNL     1     -65.832 -24.625 -21.492  1.00  0.00    -0.279 OA
BRANCH   7  10
HETATM   10  C2  UNL     1     -65.510 -26.753 -20.183  1.00  0.00     0.317 C 
BRANCH  10  11
HETATM   11  N1  UNL     1     -65.002 -26.625 -18.828  1.00  0.00    -0.072 N 
HETATM   12  C1  UNL     1     -66.067 -26.856 -17.873  1.00  0.00     0.267 C 
ATOM     13  H12 UNL     1     -64.541 -25.727 -18.676  1.00  0.00     0.277 HD
ATOM     14  H11 UNL     1     -64.201 -27.235 -18.661  1.00  0.00     0.277 HD
ENDBRANCH  10  11
ENDBRANCH   7  10
ENDBRANCH   2   3
ENDBRANCH   1   2
BRANCH   1  15
HETATM   15  C6  UNL     1     -67.089 -20.938 -21.584  1.00  0.00     0.356 C 
HETATM   16  O1  UNL     1     -67.358 -19.707 -21.576  1.00  0.00    -0.283 OA
ENDBRANCH   1  15
BRANCH   1  17
HETATM   17  C7  UNL     1     -64.636 -20.632 -21.625  1.00  0.00     0.037 A 
HETATM   18  C8  UNL     1     -64.042 -19.859 -22.602  1.00  0.00     0.030 A 
HETATM   19  C9  UNL     1     -62.930 -19.123 -22.300  1.00  0.00     0.017 A 
HETATM   20  C10 UNL     1     -62.362 -19.123 -21.021  1.00  0.00     0.007 A 
HETATM   21  C12 UNL     1     -62.961 -19.892 -20.067  1.00  0.00     0.017 A 
HETATM   22  C13 UNL     1     -64.089 -20.639 -20.369  1.00  0.00     0.030 A 
BRANCH  20  23
HETATM   23  C11 UNL     1     -61.179 -18.316 -20.763  1.00  0.00     0.146 C 
HETATM   24  N5  UNL     1     -60.024 -18.932 -20.229  1.00  0.00    -0.080 NA
HETATM   25  N6  UNL     1     -61.150 -17.056 -21.011  1.00  0.00    -0.255 N 
ATOM     26  H6  UNL     1     -61.984 -16.617 -21.399  1.00  0.00     0.195 HD
BRANCH  25  27
HETATM   27  O2  UNL     1     -60.045 -16.274 -20.774  1.00  0.00    -0.288 OA
ATOM     28  H2  UNL     1     -59.957 -15.390 -21.110  1.00  0.00     0.244 HD
ENDBRANCH  25  27
ENDBRANCH  20  23
ENDBRANCH   1  17
TORSDOF 8
ENDMDL
MODEL 4
REMARK VINA RESULT: -5.977520891      2.192      6.025
REMARK  8 active torsions:
REMARK  status: ('A' for Active; 'I' for Inactive)
REMARK    1  A    between atoms: N1_2  and  C2_5 
REMARK    2  A    between atoms: C2_5  and  C3_6 
REMARK    3  A    between atoms: C4_11  and  C5_12 
REMARK    4  A    between atoms: C5_12  and  N4_13 
REMARK    5  A    between atoms: N4_13  and  C6_14 
REMARK    6  A    between atoms: N4_13  and  C7_16 
REMARK    7  A    between atoms: C10_19  and  C11_20 
REMARK    8  A    between atoms: N6_22  and  O2_24 
ROOT
HETATM    1  N4  UNL     1     -65.762 -21.449 -21.859  1.00  0.00    -0.318 N 
ENDROOT
BRANCH   1   2
HETATM    2  C5  UNL     1     -67.055 -20.910 -21.612  1.00  0.00     0.217 C 
BRANCH   2   3
HETATM    3  C4  UNL     1     -67.189 -19.471 -21.927  1.00  0.00     0.158 A 
HETATM    4  N3  UNL     1     -67.267 -18.912 -23.173  1.00  0.00    -0.280 N 
HETATM    5  N2  UNL     1     -67.380 -17.610 -23.019  1.00  0.00    -0.280 N 
ATOM      6  H3  UNL     1     -67.243 -19.414 -24.061  1.00  0.00     0.189 HD
HETATM    7  C3  UNL     1     -67.375 -17.324 -21.699  1.00  0.00     0.166 A 
ATOM      8  H2  UNL     1     -67.459 -16.928 -23.774  1.00  0.00     0.189 HD
HETATM    9  O3  UNL     1     -67.258 -18.475 -21.099  1.00  0.00    -0.279 OA
BRANCH   7  10
HETATM   10  C2  UNL     1     -67.482 -15.966 -21.074  1.00  0.00     0.317 C 
BRANCH  10  11
HETATM   11  N1  UNL     1     -68.033 -16.110 -19.738  1.00  0.00    -0.072 N 
HETATM   12  C1  UNL     1     -69.477 -16.010 -19.781  1.00  0.00     0.267 C 
ATOM     13  H12 UNL     1     -67.623 -15.444 -19.083  1.00  0.00     0.277 HD
ATOM     14  H11 UNL     1     -67.723 -16.973 -19.288  1.00  0.00     0.277 HD
ENDBRANCH  10  11
ENDBRANCH   7  10
ENDBRANCH   2   3
ENDBRANCH   1   2
BRANCH   1  15
HETATM   15  C6  UNL     1     -65.635 -22.815 -22.276  1.00  0.00     0.356 C 
HETATM   16  O1  UNL     1     -65.281 -23.684 -21.435  1.00  0.00    -0.283 OA
ENDBRANCH   1  15
BRANCH   1  17
HETATM   17  C7  UNL     1     -64.609 -20.648 -21.674  1.00  0.00     0.037 A 
HETATM   18  C8  UNL     1     -64.120 -20.552 -20.386  1.00  0.00     0.030 A 
HETATM   19  C9  UNL     1     -63.007 -19.798 -20.140  1.00  0.00     0.017 A 
HETATM   20  C10 UNL     1     -62.334 -19.108 -21.156  1.00  0.00     0.007 A 
HETATM   21  C12 UNL     1     -62.830 -19.214 -22.422  1.00  0.00     0.017 A 
HETATM   22  C13 UNL     1     -63.958 -19.979 -22.676  1.00  0.00     0.030 A 
BRANCH  20  23
HETATM   23  C11 UNL     1     -61.153 -18.324 -20.828  1.00  0.00     0.146 C 
HETATM   24  N5  UNL     1     -60.035 -18.964 -20.248  1.00  0.00    -0.080 NA
HETATM   25  N6  UNL     1     -61.095 -17.061 -21.053  1.00  0.00    -0.255 N 
ATOM     26  H6  UNL     1     -61.902 -16.603 -21.476  1.00  0.00     0.195 HD
BRANCH  25  27
HETATM   27  O2  UNL     1     -59.991 -16.299 -20.751  1.00  0.00    -0.288 OA
ATOM     28  H2  UNL     1     -59.634 -15.649 -21.345  1.00  0.00     0.244 HD
ENDBRANCH  25  27
ENDBRANCH  20  23
ENDBRANCH   1  17
TORSDOF 8
ENDMDL
MODEL 5
REMARK VINA RESULT: -5.966784776      2.103      6.088
REMARK  8 active torsions:
REMARK  status: ('A' for Active; 'I' for Inactive)
REMARK    1  A    between atoms: N1_2  and  C2_5 
REMARK    2  A    between atoms: C2_5  and  C3_6 
REMARK    3  A    between atoms: C4_11  and  C5_12 
REMARK    4  A    between atoms: C5_12  and  N4_13 
REMARK    5  A    between atoms: N4_13  and  C6_14 
REMARK    6  A    between atoms: N4_13  and  C7_16 
REMARK    7  A    between atoms: C10_19  and  C11_20 
REMARK    8  A    between atoms: N6_22  and  O2_24 
ROOT
HETATM    1  N4  UNL     1     -65.888 -21.139 -22.109  1.00  0.00    -0.318 N 
ENDROOT
BRANCH   1   2
HETATM    2  C5  UNL     1     -66.867 -20.470 -22.896  1.00  0.00     0.217 C 
BRANCH   2   3
HETATM    3  C4  UNL     1     -67.497 -19.309 -22.229  1.00  0.00     0.158 A 
HETATM    4  N3  UNL     1     -68.795 -19.215 -21.808  1.00  0.00    -0.280 N 
HETATM    5  N2  UNL     1     -68.953 -18.026 -21.265  1.00  0.00    -0.280 N 
ATOM      6  H3  UNL     1     -69.511 -19.936 -21.898  1.00  0.00     0.189 HD
HETATM    7  C3  UNL     1     -67.781 -17.357 -21.331  1.00  0.00     0.166 A 
ATOM      8  H2  UNL     1     -69.819 -17.668 -20.861  1.00  0.00     0.189 HD
HETATM    9  O3  UNL     1     -66.951 -18.175 -21.916  1.00  0.00    -0.279 OA
BRANCH   7  10
HETATM   10  C2  UNL     1     -67.510 -15.971 -20.832  1.00  0.00     0.317 C 
BRANCH  10  11
HETATM   11  N1  UNL     1     -68.763 -15.237 -20.788  1.00  0.00    -0.072 N 
HETATM   12  C1  UNL     1     -68.930 -14.463 -22.001  1.00  0.00     0.267 C 
ATOM     13  H12 UNL     1     -68.835 -14.657 -19.952  1.00  0.00     0.277 HD
ATOM     14  H11 UNL     1     -69.559 -15.851 -20.614  1.00  0.00     0.277 HD
ENDBRANCH  10  11
ENDBRANCH   7  10
ENDBRANCH   2   3
ENDBRANCH   1   2
BRANCH   1  15
HETATM   15  C6  UNL     1     -66.117 -22.496 -21.704  1.00  0.00     0.356 C 
HETATM   16  O1  UNL     1     -66.919 -22.728 -20.761  1.00  0.00    -0.283 OA
ENDBRANCH   1  15
BRANCH   1  17
HETATM   17  C7  UNL     1     -64.708 -20.464 -21.713  1.00  0.00     0.037 A 
HETATM   18  C8  UNL     1     -64.037 -19.761 -22.693  1.00  0.00     0.030 A 
HETATM   19  C9  UNL     1     -62.893 -19.083 -22.375  1.00  0.00     0.017 A 
HETATM   20  C10 UNL     1     -62.368 -19.074 -21.077  1.00  0.00     0.007 A 
HETATM   21  C12 UNL     1     -63.044 -19.774 -20.122  1.00  0.00     0.017 A 
HETATM   22  C13 UNL     1     -64.205 -20.462 -20.439  1.00  0.00     0.030 A 
BRANCH  20  23
HETATM   23  C11 UNL     1     -61.147 -18.332 -20.804  1.00  0.00     0.146 C 
HETATM   24  N5  UNL     1     -60.030 -19.010 -20.266  1.00  0.00    -0.080 NA
HETATM   25  N6  UNL     1     -61.052 -17.073 -21.040  1.00  0.00    -0.255 N 
ATOM     26  H6  UNL     1     -61.859 -16.588 -21.432  1.00  0.00     0.195 HD
BRANCH  25  27
HETATM   27  O2  UNL     1     -59.909 -16.350 -20.789  1.00  0.00    -0.288 OA
ATOM     28  H2  UNL     1     -59.197 -16.681 -20.255  1.00  0.00     0.244 HD
ENDBRANCH  25  27
ENDBRANCH  20  23
ENDBRANCH   1  17
TORSDOF 8
ENDMDL
