MODEL 1
REMARK VINA RESULT: -5.532292180      0.000      0.000
REMARK  9 active torsions:
REMARK  status: ('A' for Active; 'I' for Inactive)
REMARK    1  A    between atoms: C1_2  and  C2_3 
REMARK    2  A    between atoms: C2_3  and  C3_4 
REMARK    3  A    between atoms: C2_3  and  C8_14 
REMARK    4  A    between atoms: C3_4  and  O2_5 
REMARK    5  A    between atoms: O2_5  and  C4_6 
REMARK    6  A    between atoms: C4_6  and  C5_7 
REMARK    7  A    between atoms: C8_14  and  O3_15 
REMARK    8  A    between atoms: C8_14  and  N3_17 
REMARK    9  A    between atoms: N3_17  and  C9_19 
ROOT
HETATM    1  C8  UNL     1     -63.502 -21.192 -21.652  1.00  0.00     0.232 C 
ENDROOT
BRANCH   1   2
HETATM    2  C2  UNL     1     -63.015 -21.392 -23.095  1.00  0.00     0.119 C 
BRANCH   2   3
HETATM    3  C1  UNL     1     -63.975 -20.669 -23.948  1.00  0.00     0.242 C 
HETATM    4  O1  UNL     1     -64.409 -19.570 -23.571  1.00  0.00    -0.306 OA
ENDBRANCH   2   3
BRANCH   2   5
HETATM    5  C3  UNL     1     -62.954 -22.839 -23.452  1.00  0.00     0.184 C 
BRANCH   5   6
HETATM    6  O2  UNL     1     -62.169 -23.586 -22.685  1.00  0.00    -0.384 OA
BRANCH   6   7
HETATM    7  C4  UNL     1     -62.029 -24.911 -22.734  1.00  0.00     0.226 C 
BRANCH   7   8
HETATM    8  C5  UNL     1     -63.364 -25.508 -22.302  1.00  0.00     0.049 A 
HETATM    9  C6  UNL     1     -64.168 -26.383 -22.971  1.00  0.00     0.116 A 
HETATM   10  N1  UNL     1     -65.265 -26.667 -22.246  1.00  0.00    -0.360 N 
HETATM   11  C7  UNL     1     -65.131 -25.958 -21.119  1.00  0.00     0.180 A 
ATOM     12  H1  UNL     1     -66.033 -27.289 -22.500  1.00  0.00     0.166 HD
HETATM   13  N2  UNL     1     -63.984 -25.251 -21.142  1.00  0.00    -0.353 N 
ATOM     14  H2  UNL     1     -63.646 -24.630 -20.406  1.00  0.00     0.166 HD
ENDBRANCH   7   8
ENDBRANCH   6   7
ENDBRANCH   5   6
ENDBRANCH   2   5
ENDBRANCH   1   2
BRANCH   1  15
HETATM   15  O3  UNL     1     -64.144 -22.322 -21.176  1.00  0.00    -0.376 OA
ATOM     16  H3  UNL     1     -63.589 -22.808 -20.578  1.00  0.00     0.212 HD
ENDBRANCH   1  15
BRANCH   1  17
HETATM   17  N3  UNL     1     -62.331 -20.890 -20.844  1.00  0.00    -0.345 N 
ATOM     18  H3  UNL     1     -61.858 -21.655 -20.362  1.00  0.00     0.163 HD
BRANCH  17  19
HETATM   19  C9  UNL     1     -61.825 -19.578 -20.700  1.00  0.00     0.172 A 
HETATM   20  N4  UNL     1     -62.448 -18.572 -21.328  1.00  0.00    -0.347 N 
HETATM   21  C10 UNL     1     -61.999 -17.291 -21.220  1.00  0.00     0.107 A 
ATOM     22  H4  UNL     1     -63.272 -18.769 -21.895  1.00  0.00     0.167 HD
HETATM   23  C11 UNL     1     -60.887 -17.023 -20.455  1.00  0.00     0.108 A 
HETATM   24  N5  UNL     1     -60.252 -18.014 -19.822  1.00  0.00    -0.329 N 
HETATM   25  C12 UNL     1     -60.718 -19.291 -19.942  1.00  0.00     0.289 A 
ATOM     26  H5  UNL     1     -59.427 -17.817 -19.255  1.00  0.00     0.168 HD
HETATM   27  O4  UNL     1     -60.137 -20.220 -19.359  1.00  0.00    -0.264 OA
ENDBRANCH  17  19
ENDBRANCH   1  17
TORSDOF 9
ENDMDL
MODEL 2
REMARK VINA RESULT: -5.507806059      1.162      1.737
REMARK  9 active torsions:
REMARK  status: ('A' for Active; 'I' for Inactive)
REMARK    1  A    between atoms: C1_2  and  C2_3 
REMARK    2  A    between atoms: C2_3  and  C3_4 
REMARK    3  A    between atoms: C2_3  and  C8_14 
REMARK    4  A    between atoms: C3_4  and  O2_5 
REMARK    5  A    between atoms: O2_5  and  C4_6 
REMARK    6  A    between atoms: C4_6  and  C5_7 
REMARK    7  A    between atoms: C8_14  and  O3_15 
REMARK    8  A    between atoms: C8_14  and  N3_17 
REMARK    9  A    between atoms: N3_17  and  C9_19 
ROOT
HETATM    1  C8  UNL     1     -62.210 -21.461 -22.421  1.00  0.00     0.232 C 
ENDROOT
BRANCH   1   2
HETATM    2  C2  UNL     1     -63.611 -21.737 -22.989  1.00  0.00     0.119 C 
BRANCH   2   3
HETATM    3  C1  UNL     1     -63.890 -20.631 -23.922  1.00  0.00     0.242 C 
HETATM    4  O1  UNL     1     -64.230 -19.529 -23.468  1.00  0.00    -0.306 OA
ENDBRANCH   2   3
BRANCH   2   5
HETATM    5  C3  UNL     1     -64.632 -21.805 -21.905  1.00  0.00     0.184 C 
BRANCH   5   6
HETATM    6  O2  UNL     1     -64.723 -22.970 -21.275  1.00  0.00    -0.384 OA
BRANCH   6   7
HETATM    7  C4  UNL     1     -65.404 -24.046 -21.675  1.00  0.00     0.226 C 
BRANCH   7   8
HETATM    8  C5  UNL     1     -64.435 -25.222 -21.621  1.00  0.00     0.049 A 
HETATM    9  C6  UNL     1     -64.666 -26.506 -21.224  1.00  0.00     0.116 A 
HETATM   10  N1  UNL     1     -63.545 -27.242 -21.325  1.00  0.00    -0.360 N 
HETATM   11  C7  UNL     1     -62.616 -26.398 -21.789  1.00  0.00     0.180 A 
ATOM     12  H1  UNL     1     -63.429 -28.229 -21.096  1.00  0.00     0.166 HD
HETATM   13  N2  UNL     1     -63.143 -25.171 -21.972  1.00  0.00    -0.353 N 
ATOM     14  H2  UNL     1     -62.645 -24.350 -22.316  1.00  0.00     0.166 HD
ENDBRANCH   7   8
ENDBRANCH   6   7
ENDBRANCH   5   6
ENDBRANCH   2   5
ENDBRANCH   1   2
BRANCH   1  15
HETATM   15  O3  UNL     1     -61.469 -20.664 -23.276  1.00  0.00    -0.376 OA
ATOM     16  H3  UNL     1     -61.352 -21.080 -24.122  1.00  0.00     0.212 HD
ENDBRANCH   1  15
BRANCH   1  17
HETATM   17  N3  UNL     1     -62.391 -20.803 -21.137  1.00  0.00    -0.345 N 
ATOM     18  H3  UNL     1     -62.917 -21.286 -20.408  1.00  0.00     0.163 HD
BRANCH  17  19
HETATM   19  C9  UNL     1     -61.867 -19.520 -20.860  1.00  0.00     0.172 A 
HETATM   20  N4  UNL     1     -62.426 -18.453 -21.444  1.00  0.00    -0.347 N 
HETATM   21  C10 UNL     1     -61.957 -17.196 -21.209  1.00  0.00     0.107 A 
ATOM     22  H4  UNL     1     -63.217 -18.583 -22.075  1.00  0.00     0.167 HD
HETATM   23  C11 UNL     1     -60.889 -17.017 -20.358  1.00  0.00     0.108 A 
HETATM   24  N5  UNL     1     -60.318 -18.071 -19.767  1.00  0.00    -0.329 N 
HETATM   25  C12 UNL     1     -60.803 -19.322 -20.015  1.00  0.00     0.289 A 
ATOM     26  H5  UNL     1     -59.526 -17.940 -19.137  1.00  0.00     0.168 HD
HETATM   27  O4  UNL     1     -60.281 -20.309 -19.472  1.00  0.00    -0.264 OA
ENDBRANCH  17  19
ENDBRANCH   1  17
TORSDOF 9
ENDMDL
MODEL 3
REMARK VINA RESULT: -5.470589236      2.500      4.253
REMARK  9 active torsions:
REMARK  status: ('A' for Active; 'I' for Inactive)
REMARK    1  A    between atoms: C1_2  and  C2_3 
REMARK    2  A    between atoms: C2_3  and  C3_4 
REMARK    3  A    between atoms: C2_3  and  C8_14 
REMARK    4  A    between atoms: C3_4  and  O2_5 
REMARK    5  A    between atoms: O2_5  and  C4_6 
REMARK    6  A    between atoms: C4_6  and  C5_7 
REMARK    7  A    between atoms: C8_14  and  O3_15 
REMARK    8  A    between atoms: C8_14  and  N3_17 
REMARK    9  A    between atoms: N3_17  and  C9_19 
ROOT
HETATM    1  C8  UNL     1     -61.893 -21.648 -22.389  1.00  0.00     0.232 C 
ENDROOT
BRANCH   1   2
HETATM    2  C2  UNL     1     -63.039 -22.659 -22.544  1.00  0.00     0.119 C 
BRANCH   2   3
HETATM    3  C1  UNL     1     -62.963 -23.142 -23.934  1.00  0.00     0.242 C 
HETATM    4  O1  UNL     1     -63.875 -22.856 -24.723  1.00  0.00    -0.306 OA
ENDBRANCH   2   3
BRANCH   2   5
HETATM    5  C3  UNL     1     -64.360 -22.031 -22.258  1.00  0.00     0.184 C 
BRANCH   5   6
HETATM    6  O2  UNL     1     -64.456 -20.740 -22.553  1.00  0.00    -0.384 OA
BRANCH   6   7
HETATM    7  C4  UNL     1     -65.554 -20.086 -22.935  1.00  0.00     0.226 C 
BRANCH   7   8
HETATM    8  C5  UNL     1     -65.389 -19.784 -24.420  1.00  0.00     0.049 A 
HETATM    9  C6  UNL     1     -66.324 -19.356 -25.317  1.00  0.00     0.116 A 
HETATM   10  N1  UNL     1     -65.776 -19.207 -26.537  1.00  0.00    -0.360 N 
HETATM   11  C7  UNL     1     -64.491 -19.548 -26.385  1.00  0.00     0.180 A 
ATOM     12  H1  UNL     1     -66.241 -18.901 -27.392  1.00  0.00     0.166 HD
HETATM   13  N2  UNL     1     -64.245 -19.900 -25.108  1.00  0.00    -0.353 N 
ATOM     14  H2  UNL     1     -63.346 -20.202 -24.730  1.00  0.00     0.166 HD
ENDBRANCH   7   8
ENDBRANCH   6   7
ENDBRANCH   5   6
ENDBRANCH   2   5
ENDBRANCH   1   2
BRANCH   1  15
HETATM   15  O3  UNL     1     -61.896 -20.723 -23.419  1.00  0.00    -0.376 OA
ATOM     16  H3  UNL     1     -61.024 -20.599 -23.775  1.00  0.00     0.212 HD
ENDBRANCH   1  15
BRANCH   1  17
HETATM   17  N3  UNL     1     -62.076 -20.986 -21.107  1.00  0.00    -0.345 N 
ATOM     18  H3  UNL     1     -62.513 -21.506 -20.345  1.00  0.00     0.163 HD
BRANCH  17  19
HETATM   19  C9  UNL     1     -61.673 -19.651 -20.877  1.00  0.00     0.172 A 
HETATM   20  N4  UNL     1     -62.284 -18.666 -21.546  1.00  0.00    -0.347 N 
HETATM   21  C10 UNL     1     -61.931 -17.364 -21.359  1.00  0.00     0.107 A 
ATOM     22  H4  UNL     1     -63.027 -18.894 -22.207  1.00  0.00     0.167 HD
HETATM   23  C11 UNL     1     -60.929 -17.053 -20.467  1.00  0.00     0.108 A 
HETATM   24  N5  UNL     1     -60.307 -18.023 -19.791  1.00  0.00    -0.329 N 
HETATM   25  C12 UNL     1     -60.676 -19.322 -19.992  1.00  0.00     0.289 A 
ATOM     26  H5  UNL     1     -59.564 -17.795 -19.131  1.00  0.00     0.168 HD
HETATM   27  O4  UNL     1     -60.106 -20.232 -19.370  1.00  0.00    -0.264 OA
ENDBRANCH  17  19
ENDBRANCH   1  17
TORSDOF 9
ENDMDL
MODEL 4
REMARK VINA RESULT: -5.441210781      1.269      1.759
REMARK  9 active torsions:
REMARK  status: ('A' for Active; 'I' for Inactive)
REMARK    1  A    between atoms: C1_2  and  C2_3 
REMARK    2  A    between atoms: C2_3  and  C3_4 
REMARK    3  A    between atoms: C2_3  and  C8_14 
REMARK    4  A    between atoms: C3_4  and  O2_5 
REMARK    5  A    between atoms: O2_5  and  C4_6 
REMARK    6  A    between atoms: C4_6  and  C5_7 
REMARK    7  A    between atoms: C8_14  and  O3_15 
REMARK    8  A    between atoms: C8_14  and  N3_17 
REMARK    9  A    between atoms: N3_17  and  C9_19 
ROOT
HETATM    1  C8  UNL     1     -61.669 -21.525 -22.315  1.00  0.00     0.232 C 
ENDROOT
BRANCH   1   2
HETATM    2  C2  UNL     1     -62.932 -21.965 -23.070  1.00  0.00     0.119 C 
BRANCH   2   3
HETATM    3  C1  UNL     1     -63.108 -20.988 -24.161  1.00  0.00     0.242 C 
HETATM    4  O1  UNL     1     -63.537 -19.856 -23.894  1.00  0.00    -0.306 OA
ENDBRANCH   2   3
BRANCH   2   5
HETATM    5  C3  UNL     1     -64.120 -21.994 -22.171  1.00  0.00     0.184 C 
BRANCH   5   6
HETATM    6  O2  UNL     1     -64.309 -23.129 -21.508  1.00  0.00    -0.384 OA
BRANCH   6   7
HETATM    7  C4  UNL     1     -64.134 -24.367 -21.973  1.00  0.00     0.226 C 
BRANCH   7   8
HETATM    8  C5  UNL     1     -65.035 -25.277 -21.146  1.00  0.00     0.049 A 
HETATM    9  C6  UNL     1     -66.389 -25.233 -20.993  1.00  0.00     0.116 A 
HETATM   10  N1  UNL     1     -66.805 -26.216 -20.174  1.00  0.00    -0.360 N 
HETATM   11  C7  UNL     1     -65.692 -26.870 -19.822  1.00  0.00     0.180 A 
ATOM     12  H1  UNL     1     -67.762 -26.419 -19.885  1.00  0.00     0.166 HD
HETATM   13  N2  UNL     1     -64.613 -26.309 -20.403  1.00  0.00    -0.353 N 
ATOM     14  H2  UNL     1     -63.646 -26.617 -20.297  1.00  0.00     0.166 HD
ENDBRANCH   7   8
ENDBRANCH   6   7
ENDBRANCH   5   6
ENDBRANCH   2   5
ENDBRANCH   1   2
BRANCH   1  15
HETATM   15  O3  UNL     1     -60.877 -20.700 -23.095  1.00  0.00    -0.376 OA
ATOM     16  H3  UNL     1     -60.534 -19.972 -22.590  1.00  0.00     0.212 HD
ENDBRANCH   1  15
BRANCH   1  17
HETATM   17  N3  UNL     1     -62.109 -20.827 -21.117  1.00  0.00    -0.345 N 
ATOM     18  H3  UNL     1     -62.688 -21.327 -20.443  1.00  0.00     0.163 HD
BRANCH  17  19
HETATM   19  C9  UNL     1     -61.763 -19.482 -20.851  1.00  0.00     0.172 A 
HETATM   20  N4  UNL     1     -62.369 -18.509 -21.546  1.00  0.00    -0.347 N 
HETATM   21  C10 UNL     1     -62.071 -17.199 -21.326  1.00  0.00     0.107 A 
ATOM     22  H4  UNL     1     -63.064 -18.755 -22.250  1.00  0.00     0.167 HD
HETATM   23  C11 UNL     1     -61.131 -16.866 -20.376  1.00  0.00     0.108 A 
HETATM   24  N5  UNL     1     -60.517 -17.822 -19.675  1.00  0.00    -0.329 N 
HETATM   25  C12 UNL     1     -60.830 -19.130 -19.908  1.00  0.00     0.289 A 
ATOM     26  H5  UNL     1     -59.820 -17.577 -18.971  1.00  0.00     0.168 HD
HETATM   27  O4  UNL     1     -60.266 -20.028 -19.263  1.00  0.00    -0.264 OA
ENDBRANCH  17  19
ENDBRANCH   1  17
TORSDOF 9
ENDMDL
MODEL 5
REMARK VINA RESULT: -5.437174545      2.486      3.895
REMARK  9 active torsions:
REMARK  status: ('A' for Active; 'I' for Inactive)
REMARK    1  A    between atoms: C1_2  and  C2_3 
REMARK    2  A    between atoms: C2_3  and  C3_4 
REMARK    3  A    between atoms: C2_3  and  C8_14 
REMARK    4  A    between atoms: C3_4  and  O2_5 
REMARK    5  A    between atoms: O2_5  and  C4_6 
REMARK    6  A    between atoms: C4_6  and  C5_7 
REMARK    7  A    between atoms: C8_14  and  O3_15 
REMARK    8  A    between atoms: C8_14  and  N3_17 
REMARK    9  A    between atoms: N3_17  and  C9_19 
ROOT
HETATM    1  C8  UNL     1     -63.269 -21.368 -21.910  1.00  0.00     0.232 C 
ENDROOT
BRANCH   1   2
HETATM    2  C2  UNL     1     -63.135 -22.123 -23.241  1.00  0.00     0.119 C 
BRANCH   2   3
HETATM    3  C1  UNL     1     -62.753 -21.108 -24.241  1.00  0.00     0.242 C 
HETATM    4  O1  UNL     1     -63.207 -19.960 -24.138  1.00  0.00    -0.306 OA
ENDBRANCH   2   3
BRANCH   2   5
HETATM    5  C3  UNL     1     -64.410 -22.799 -23.613  1.00  0.00     0.184 C 
BRANCH   5   6
HETATM    6  O2  UNL     1     -65.515 -22.242 -23.134  1.00  0.00    -0.384 OA
BRANCH   6   7
HETATM    7  C4  UNL     1     -66.385 -21.484 -23.803  1.00  0.00     0.226 C 
BRANCH   7   8
HETATM    8  C5  UNL     1     -66.641 -20.250 -22.945  1.00  0.00     0.049 A 
HETATM    9  C6  UNL     1     -67.615 -20.039 -22.015  1.00  0.00     0.116 A 
HETATM   10  N1  UNL     1     -67.498 -18.813 -21.476  1.00  0.00    -0.360 N 
HETATM   11  C7  UNL     1     -66.439 -18.265 -22.084  1.00  0.00     0.180 A 
ATOM     12  H1  UNL     1     -68.089 -18.391 -20.759  1.00  0.00     0.166 HD
HETATM   13  N2  UNL     1     -65.912 -19.126 -22.976  1.00  0.00    -0.353 N 
ATOM     14  H2  UNL     1     -65.101 -18.953 -23.571  1.00  0.00     0.166 HD
ENDBRANCH   7   8
ENDBRANCH   6   7
ENDBRANCH   5   6
ENDBRANCH   2   5
ENDBRANCH   1   2
BRANCH   1  15
HETATM   15  O3  UNL     1     -63.907 -22.142 -20.955  1.00  0.00    -0.376 OA
ATOM     16  H3  UNL     1     -63.719 -21.832 -20.077  1.00  0.00     0.212 HD
ENDBRANCH   1  15
BRANCH   1  17
HETATM   17  N3  UNL     1     -61.924 -21.026 -21.475  1.00  0.00    -0.345 N 
ATOM     18  H3  UNL     1     -61.212 -21.757 -21.460  1.00  0.00     0.163 HD
BRANCH  17  19
HETATM   19  C9  UNL     1     -61.566 -19.719 -21.073  1.00  0.00     0.172 A 
HETATM   20  N4  UNL     1     -62.117 -18.674 -21.705  1.00  0.00    -0.347 N 
HETATM   21  C10 UNL     1     -61.804 -17.395 -21.354  1.00  0.00     0.107 A 
ATOM     22  H4  UNL     1     -62.781 -18.838 -22.461  1.00  0.00     0.167 HD
HETATM   23  C11 UNL     1     -60.906 -17.171 -20.334  1.00  0.00     0.108 A 
HETATM   24  N5  UNL     1     -60.346 -18.201 -19.693  1.00  0.00    -0.329 N 
HETATM   25  C12 UNL     1     -60.673 -19.475 -20.059  1.00  0.00     0.289 A 
ATOM     26  H5  UNL     1     -59.681 -18.037 -18.938  1.00  0.00     0.168 HD
HETATM   27  O4  UNL     1     -60.160 -20.440 -19.471  1.00  0.00    -0.264 OA
ENDBRANCH  17  19
ENDBRANCH   1  17
TORSDOF 9
ENDMDL
