MODEL 1
REMARK VINA RESULT: -5.963263348      0.000      0.000
REMARK  10 active torsions:
REMARK  status: ('A' for Active; 'I' for Inactive)
REMARK    1  A    between atoms: N1_1  and  C1_5 
REMARK    2  A    between atoms: C1_5  and  N2_6 
REMARK    3  A    between atoms: C1_5  and  C2_10 
REMARK    4  A    between atoms: C2_10  and  C3_11 
REMARK    5  A    between atoms: C3_11  and  N3_12 
REMARK       I    between atoms: N3_12  and  C4_14 
REMARK    6  A    between atoms: C4_14  and  C5_16 
REMARK    7  A    between atoms: C5_16  and  N4_17 
REMARK    8  A    between atoms: C5_16  and  C6_21 
REMARK    9  A    between atoms: N6_25  and  C8_26 
REMARK   10  A    between atoms: C8_26  and  C9_27 
ROOT
HETATM    1  C5  UNL     1     -62.250 -21.824 -22.970  1.00  0.00     0.342 C 
ENDROOT
BRANCH   1   2
HETATM    2  C4  UNL     1     -61.360 -20.868 -22.276  1.00  0.00     0.256 C 
HETATM    3  N3  UNL     1     -61.297 -20.842 -20.866  1.00  0.00    -0.359 N 
ATOM      4  H3  UNL     1     -61.879 -21.495 -20.342  1.00  0.00     0.162 HD
HETATM    5  O1  UNL     1     -60.668 -20.085 -22.952  1.00  0.00    -0.271 OA
BRANCH   3   6
HETATM    6  C3  UNL     1     -60.449 -19.938 -20.132  1.00  0.00     0.126 C 
BRANCH   6   7
HETATM    7  C2  UNL     1     -61.223 -18.744 -19.621  1.00  0.00     0.081 C 
BRANCH   7   8
HETATM    8  C1  UNL     1     -60.879 -17.552 -20.507  1.00  0.00     0.379 C 
BRANCH   8   9
HETATM    9  N1  UNL     1     -60.892 -16.343 -19.704  1.00  0.00    -0.050 N 
ATOM     10  H13 UNL     1     -61.764 -15.831 -19.837  1.00  0.00     0.276 HD
ATOM     11  H12 UNL     1     -60.977 -16.569 -18.713  1.00  0.00     0.276 HD
ATOM     12  H11 UNL     1     -60.088 -15.738 -19.871  1.00  0.00     0.276 HD
ENDBRANCH   8   9
BRANCH   8  13
HETATM   13  N2  UNL     1     -61.748 -17.489 -21.643  1.00  0.00    -0.050 N 
ATOM     14  H23 UNL     1     -62.383 -16.694 -21.570  1.00  0.00     0.276 HD
ATOM     15  H22 UNL     1     -61.231 -17.218 -22.480  1.00  0.00     0.276 HD
ATOM     16  H21 UNL     1     -62.268 -18.352 -21.803  1.00  0.00     0.276 HD
ENDBRANCH   8  13
ENDBRANCH   7   8
ENDBRANCH   6   7
ENDBRANCH   3   6
ENDBRANCH   1   2
BRANCH   1  17
HETATM   17  N4  UNL     1     -62.703 -22.832 -22.035  1.00  0.00    -0.059 N 
ATOM     18  H43 UNL     1     -63.423 -22.477 -21.407  1.00  0.00     0.275 HD
ATOM     19  H42 UNL     1     -63.251 -23.561 -22.490  1.00  0.00     0.275 HD
ATOM     20  H41 UNL     1     -61.903 -23.211 -21.528  1.00  0.00     0.275 HD
ENDBRANCH   1  17
BRANCH   1  21
HETATM   21  C6  UNL     1     -63.424 -21.081 -23.548  1.00  0.00     0.137 A 
HETATM   22  N5  UNL     1     -63.411 -20.221 -24.584  1.00  0.00    -0.338 N 
HETATM   23  C7  UNL     1     -64.664 -19.773 -24.787  1.00  0.00     0.202 A 
ATOM     24  H5  UNL     1     -62.589 -19.953 -25.124  1.00  0.00     0.168 HD
HETATM   25  N6  UNL     1     -65.468 -20.350 -23.880  1.00  0.00    -0.282 N 
HETATM   26  N7  UNL     1     -64.703 -21.135 -23.142  1.00  0.00    -0.283 N 
ATOM     27  H7  UNL     1     -65.039 -21.707 -22.367  1.00  0.00     0.188 HD
BRANCH  25  28
HETATM   28  C8  UNL     1     -66.917 -20.150 -23.733  1.00  0.00     0.188 C 
BRANCH  28  29
HETATM   29  C9  UNL     1     -67.197 -18.871 -23.037  1.00  0.00    -0.038 A 
HETATM   30  C10 UNL     1     -67.770 -17.808 -23.703  1.00  0.00     0.009 A 
HETATM   31  C11 UNL     1     -68.022 -16.614 -23.022  1.00  0.00     0.001 A 
HETATM   32  C12 UNL     1     -67.702 -16.496 -21.692  1.00  0.00     0.000 A 
HETATM   33  C13 UNL     1     -67.126 -17.550 -21.000  1.00  0.00     0.001 A 
HETATM   34  C14 UNL     1     -66.885 -18.730 -21.704  1.00  0.00     0.009 A 
ENDBRANCH  28  29
ENDBRANCH  25  28
ENDBRANCH   1  21
TORSDOF 10
ENDMDL
MODEL 2
REMARK VINA RESULT: -5.946312806      0.111      1.021
REMARK  10 active torsions:
REMARK  status: ('A' for Active; 'I' for Inactive)
REMARK    1  A    between atoms: N1_1  and  C1_5 
REMARK    2  A    between atoms: C1_5  and  N2_6 
REMARK    3  A    between atoms: C1_5  and  C2_10 
REMARK    4  A    between atoms: C2_10  and  C3_11 
REMARK    5  A    between atoms: C3_11  and  N3_12 
REMARK       I    between atoms: N3_12  and  C4_14 
REMARK    6  A    between atoms: C4_14  and  C5_16 
REMARK    7  A    between atoms: C5_16  and  N4_17 
REMARK    8  A    between atoms: C5_16  and  C6_21 
REMARK    9  A    between atoms: N6_25  and  C8_26 
REMARK   10  A    between atoms: C8_26  and  C9_27 
ROOT
HETATM    1  C5  UNL     1     -62.262 -21.827 -22.957  1.00  0.00     0.342 C 
ENDROOT
BRANCH   1   2
HETATM    2  C4  UNL     1     -61.362 -20.879 -22.265  1.00  0.00     0.256 C 
HETATM    3  N3  UNL     1     -61.323 -20.830 -20.855  1.00  0.00    -0.359 N 
ATOM      4  H3  UNL     1     -61.929 -21.460 -20.330  1.00  0.00     0.162 HD
HETATM    5  O1  UNL     1     -60.640 -20.125 -22.943  1.00  0.00    -0.271 OA
BRANCH   3   6
HETATM    6  C3  UNL     1     -60.467 -19.932 -20.121  1.00  0.00     0.126 C 
BRANCH   6   7
HETATM    7  C2  UNL     1     -61.226 -18.722 -19.628  1.00  0.00     0.081 C 
BRANCH   7   8
HETATM    8  C1  UNL     1     -60.870 -17.548 -20.533  1.00  0.00     0.379 C 
BRANCH   8   9
HETATM    9  N1  UNL     1     -60.864 -16.327 -19.750  1.00  0.00    -0.050 N 
ATOM     10  H13 UNL     1     -61.287 -15.560 -20.272  1.00  0.00     0.276 HD
ATOM     11  H12 UNL     1     -61.526 -16.391 -18.976  1.00  0.00     0.276 HD
ATOM     12  H11 UNL     1     -59.937 -16.067 -19.412  1.00  0.00     0.276 HD
ENDBRANCH   8   9
BRANCH   8  13
HETATM   13  N2  UNL     1     -61.744 -17.492 -21.667  1.00  0.00    -0.050 N 
ATOM     14  H23 UNL     1     -62.280 -16.624 -21.668  1.00  0.00     0.276 HD
ATOM     15  H22 UNL     1     -61.212 -17.363 -22.527  1.00  0.00     0.276 HD
ATOM     16  H21 UNL     1     -62.364 -18.299 -21.741  1.00  0.00     0.276 HD
ENDBRANCH   8  13
ENDBRANCH   7   8
ENDBRANCH   6   7
ENDBRANCH   3   6
ENDBRANCH   1   2
BRANCH   1  17
HETATM   17  N4  UNL     1     -62.702 -22.845 -22.029  1.00  0.00    -0.059 N 
ATOM     18  H43 UNL     1     -61.980 -23.544 -21.854  1.00  0.00     0.275 HD
ATOM     19  H42 UNL     1     -62.792 -22.487 -21.078  1.00  0.00     0.275 HD
ATOM     20  H41 UNL     1     -63.569 -23.264 -22.366  1.00  0.00     0.275 HD
ENDBRANCH   1  17
BRANCH   1  21
HETATM   21  C6  UNL     1     -63.445 -21.076 -23.510  1.00  0.00     0.137 A 
HETATM   22  N5  UNL     1     -63.445 -20.194 -24.526  1.00  0.00    -0.338 N 
HETATM   23  C7  UNL     1     -64.701 -19.747 -24.710  1.00  0.00     0.202 A 
ATOM     24  H5  UNL     1     -62.628 -19.912 -25.068  1.00  0.00     0.168 HD
HETATM   25  N6  UNL     1     -65.495 -20.347 -23.807  1.00  0.00    -0.282 N 
HETATM   26  N7  UNL     1     -64.720 -21.144 -23.094  1.00  0.00    -0.283 N 
ATOM     27  H7  UNL     1     -65.047 -21.734 -22.328  1.00  0.00     0.188 HD
BRANCH  25  28
HETATM   28  C8  UNL     1     -66.944 -20.157 -23.643  1.00  0.00     0.188 C 
BRANCH  28  29
HETATM   29  C9  UNL     1     -67.227 -18.843 -23.017  1.00  0.00    -0.038 A 
HETATM   30  C10 UNL     1     -66.849 -18.576 -21.718  1.00  0.00     0.009 A 
HETATM   31  C11 UNL     1     -67.129 -17.328 -21.154  1.00  0.00     0.001 A 
HETATM   32  C12 UNL     1     -67.780 -16.368 -21.888  1.00  0.00     0.000 A 
HETATM   33  C13 UNL     1     -68.170 -16.612 -23.195  1.00  0.00     0.001 A 
HETATM   34  C14 UNL     1     -67.878 -17.865 -23.735  1.00  0.00     0.009 A 
ENDBRANCH  28  29
ENDBRANCH  25  28
ENDBRANCH   1  21
TORSDOF 10
ENDMDL
MODEL 3
REMARK VINA RESULT: -5.759351139      0.870      1.263
REMARK  10 active torsions:
REMARK  status: ('A' for Active; 'I' for Inactive)
REMARK    1  A    between atoms: N1_1  and  C1_5 
REMARK    2  A    between atoms: C1_5  and  N2_6 
REMARK    3  A    between atoms: C1_5  and  C2_10 
REMARK    4  A    between atoms: C2_10  and  C3_11 
REMARK    5  A    between atoms: C3_11  and  N3_12 
REMARK       I    between atoms: N3_12  and  C4_14 
REMARK    6  A    between atoms: C4_14  and  C5_16 
REMARK    7  A    between atoms: C5_16  and  N4_17 
REMARK    8  A    between atoms: C5_16  and  C6_21 
REMARK    9  A    between atoms: N6_25  and  C8_26 
REMARK   10  A    between atoms: C8_26  and  C9_27 
ROOT
HETATM    1  C5  UNL     1     -61.955 -21.990 -22.801  1.00  0.00     0.342 C 
ENDROOT
BRANCH   1   2
HETATM    2  C4  UNL     1     -61.196 -20.892 -22.164  1.00  0.00     0.256 C 
HETATM    3  N3  UNL     1     -61.062 -20.836 -20.760  1.00  0.00    -0.359 N 
ATOM      4  H3  UNL     1     -61.501 -21.566 -20.201  1.00  0.00     0.162 HD
HETATM    5  O1  UNL     1     -60.678 -20.018 -22.883  1.00  0.00    -0.271 OA
BRANCH   3   6
HETATM    6  C3  UNL     1     -60.333 -19.795 -20.080  1.00  0.00     0.126 C 
BRANCH   6   7
HETATM    7  C2  UNL     1     -61.245 -18.666 -19.656  1.00  0.00     0.081 C 
BRANCH   7   8
HETATM    8  C1  UNL     1     -60.949 -17.468 -20.550  1.00  0.00     0.379 C 
BRANCH   8   9
HETATM    9  N1  UNL     1     -60.970 -16.259 -19.748  1.00  0.00    -0.050 N 
ATOM     10  H13 UNL     1     -60.793 -15.437 -20.326  1.00  0.00     0.276 HD
ATOM     11  H12 UNL     1     -61.919 -16.047 -19.439  1.00  0.00     0.276 HD
ATOM     12  H11 UNL     1     -60.329 -16.288 -18.955  1.00  0.00     0.276 HD
ENDBRANCH   8   9
BRANCH   8  13
HETATM   13  N2  UNL     1     -61.848 -17.426 -21.665  1.00  0.00    -0.050 N 
ATOM     14  H23 UNL     1     -61.494 -17.991 -22.437  1.00  0.00     0.276 HD
ATOM     15  H22 UNL     1     -62.705 -17.939 -21.458  1.00  0.00     0.276 HD
ATOM     16  H21 UNL     1     -62.060 -16.479 -21.979  1.00  0.00     0.276 HD
ENDBRANCH   8  13
ENDBRANCH   7   8
ENDBRANCH   6   7
ENDBRANCH   3   6
ENDBRANCH   1   2
BRANCH   1  17
HETATM   17  N4  UNL     1     -61.530 -23.258 -22.250  1.00  0.00    -0.059 N 
ATOM     18  H43 UNL     1     -62.312 -23.801 -21.885  1.00  0.00     0.275 HD
ATOM     19  H42 UNL     1     -61.224 -23.909 -22.973  1.00  0.00     0.275 HD
ATOM     20  H41 UNL     1     -60.810 -23.100 -21.545  1.00  0.00     0.275 HD
ENDBRANCH   1  17
BRANCH   1  21
HETATM   21  C6  UNL     1     -63.427 -21.782 -22.560  1.00  0.00     0.137 A 
HETATM   22  N5  UNL     1     -64.138 -22.176 -21.488  1.00  0.00    -0.338 N 
HETATM   23  C7  UNL     1     -65.419 -21.800 -21.657  1.00  0.00     0.202 A 
ATOM     24  H5  UNL     1     -63.767 -22.676 -20.679  1.00  0.00     0.168 HD
HETATM   25  N6  UNL     1     -65.517 -21.168 -22.839  1.00  0.00    -0.282 N 
HETATM   26  N7  UNL     1     -64.306 -21.168 -23.368  1.00  0.00    -0.283 N 
ATOM     27  H7  UNL     1     -64.071 -20.755 -24.271  1.00  0.00     0.188 HD
BRANCH  25  28
HETATM   28  C8  UNL     1     -66.732 -20.589 -23.431  1.00  0.00     0.188 C 
BRANCH  28  29
HETATM   29  C9  UNL     1     -66.992 -19.242 -22.870  1.00  0.00    -0.038 A 
HETATM   30  C10 UNL     1     -67.501 -18.229 -23.655  1.00  0.00     0.009 A 
HETATM   31  C11 UNL     1     -67.736 -16.969 -23.099  1.00  0.00     0.001 A 
HETATM   32  C12 UNL     1     -67.461 -16.735 -21.773  1.00  0.00     0.000 A 
HETATM   33  C13 UNL     1     -66.949 -17.736 -20.964  1.00  0.00     0.001 A 
HETATM   34  C14 UNL     1     -66.723 -18.985 -21.544  1.00  0.00     0.009 A 
ENDBRANCH  28  29
ENDBRANCH  25  28
ENDBRANCH   1  21
TORSDOF 10
ENDMDL
MODEL 4
REMARK VINA RESULT: -5.585469543      0.972      1.599
REMARK  10 active torsions:
REMARK  status: ('A' for Active; 'I' for Inactive)
REMARK    1  A    between atoms: N1_1  and  C1_5 
REMARK    2  A    between atoms: C1_5  and  N2_6 
REMARK    3  A    between atoms: C1_5  and  C2_10 
REMARK    4  A    between atoms: C2_10  and  C3_11 
REMARK    5  A    between atoms: C3_11  and  N3_12 
REMARK       I    between atoms: N3_12  and  C4_14 
REMARK    6  A    between atoms: C4_14  and  C5_16 
REMARK    7  A    between atoms: C5_16  and  N4_17 
REMARK    8  A    between atoms: C5_16  and  C6_21 
REMARK    9  A    between atoms: N6_25  and  C8_26 
REMARK   10  A    between atoms: C8_26  and  C9_27 
ROOT
HETATM    1  C5  UNL     1     -62.992 -21.844 -22.824  1.00  0.00     0.342 C 
ENDROOT
BRANCH   1   2
HETATM    2  C4  UNL     1     -62.001 -20.857 -22.344  1.00  0.00     0.256 C 
HETATM    3  N3  UNL     1     -61.519 -20.914 -21.018  1.00  0.00    -0.359 N 
ATOM      4  H3  UNL     1     -61.872 -21.648 -20.405  1.00  0.00     0.162 HD
HETATM    5  O1  UNL     1     -61.598 -19.975 -23.124  1.00  0.00    -0.271 OA
BRANCH   3   6
HETATM    6  C3  UNL     1     -60.552 -19.985 -20.491  1.00  0.00     0.126 C 
BRANCH   6   7
HETATM    7  C2  UNL     1     -61.220 -18.848 -19.754  1.00  0.00     0.081 C 
BRANCH   7   8
HETATM    8  C1  UNL     1     -61.105 -17.599 -20.621  1.00  0.00     0.379 C 
BRANCH   8   9
HETATM    9  N1  UNL     1     -60.839 -16.453 -19.771  1.00  0.00    -0.050 N 
ATOM     10  H13 UNL     1     -59.850 -16.206 -19.796  1.00  0.00     0.276 HD
ATOM     11  H12 UNL     1     -61.236 -15.605 -20.175  1.00  0.00     0.276 HD
ATOM     12  H11 UNL     1     -61.156 -16.580 -18.810  1.00  0.00     0.276 HD
ENDBRANCH   8   9
BRANCH   8  13
HETATM   13  N2  UNL     1     -62.266 -17.439 -21.445  1.00  0.00    -0.050 N 
ATOM     14  H23 UNL     1     -62.620 -18.345 -21.751  1.00  0.00     0.276 HD
ATOM     15  H22 UNL     1     -63.062 -17.123 -20.890  1.00  0.00     0.276 HD
ATOM     16  H21 UNL     1     -62.113 -16.822 -22.243  1.00  0.00     0.276 HD
ENDBRANCH   8  13
ENDBRANCH   7   8
ENDBRANCH   6   7
ENDBRANCH   3   6
ENDBRANCH   1   2
BRANCH   1  17
HETATM   17  N4  UNL     1     -63.000 -22.993 -21.945  1.00  0.00    -0.059 N 
ATOM     18  H43 UNL     1     -62.748 -23.852 -22.433  1.00  0.00     0.275 HD
ATOM     19  H42 UNL     1     -62.228 -22.972 -21.278  1.00  0.00     0.275 HD
ATOM     20  H41 UNL     1     -63.906 -23.064 -21.483  1.00  0.00     0.275 HD
ENDBRANCH   1  17
BRANCH   1  21
HETATM   21  C6  UNL     1     -64.355 -21.203 -22.860  1.00  0.00     0.137 A 
HETATM   22  N5  UNL     1     -65.410 -21.496 -22.078  1.00  0.00    -0.338 N 
HETATM   23  C7  UNL     1     -66.438 -20.700 -22.425  1.00  0.00     0.202 A 
ATOM     24  H5  UNL     1     -65.428 -22.204 -21.343  1.00  0.00     0.168 HD
HETATM   25  N6  UNL     1     -66.031 -19.905 -23.428  1.00  0.00    -0.282 N 
HETATM   26  N7  UNL     1     -64.773 -20.223 -23.675  1.00  0.00    -0.283 N 
ATOM     27  H7  UNL     1     -64.196 -19.781 -24.392  1.00  0.00     0.188 HD
BRANCH  25  28
HETATM   28  C8  UNL     1     -66.828 -18.879 -24.118  1.00  0.00     0.188 C 
BRANCH  28  29
HETATM   29  C9  UNL     1     -67.232 -17.812 -23.171  1.00  0.00    -0.038 A 
HETATM   30  C10 UNL     1     -66.608 -17.669 -21.950  1.00  0.00     0.009 A 
HETATM   31  C11 UNL     1     -67.009 -16.653 -21.077  1.00  0.00     0.001 A 
HETATM   32  C12 UNL     1     -68.023 -15.798 -21.432  1.00  0.00     0.000 A 
HETATM   33  C13 UNL     1     -68.665 -15.921 -22.653  1.00  0.00     0.001 A 
HETATM   34  C14 UNL     1     -68.246 -16.942 -23.506  1.00  0.00     0.009 A 
ENDBRANCH  28  29
ENDBRANCH  25  28
ENDBRANCH   1  21
TORSDOF 10
ENDMDL
MODEL 5
REMARK VINA RESULT: -5.538972137      0.994      1.784
REMARK  10 active torsions:
REMARK  status: ('A' for Active; 'I' for Inactive)
REMARK    1  A    between atoms: N1_1  and  C1_5 
REMARK    2  A    between atoms: C1_5  and  N2_6 
REMARK    3  A    between atoms: C1_5  and  C2_10 
REMARK    4  A    between atoms: C2_10  and  C3_11 
REMARK    5  A    between atoms: C3_11  and  N3_12 
REMARK       I    between atoms: N3_12  and  C4_14 
REMARK    6  A    between atoms: C4_14  and  C5_16 
REMARK    7  A    between atoms: C5_16  and  N4_17 
REMARK    8  A    between atoms: C5_16  and  C6_21 
REMARK    9  A    between atoms: N6_25  and  C8_26 
REMARK   10  A    between atoms: C8_26  and  C9_27 
ROOT
HETATM    1  C5  UNL     1     -61.802 -21.728 -22.742  1.00  0.00     0.342 C 
ENDROOT
BRANCH   1   2
HETATM    2  C4  UNL     1     -61.195 -20.582 -22.032  1.00  0.00     0.256 C 
HETATM    3  N3  UNL     1     -60.988 -20.633 -20.637  1.00  0.00    -0.359 N 
ATOM      4  H3  UNL     1     -61.268 -21.475 -20.135  1.00  0.00     0.162 HD
HETATM    5  O1  UNL     1     -60.871 -19.570 -22.681  1.00  0.00    -0.271 OA
BRANCH   3   6
HETATM    6  C3  UNL     1     -60.400 -19.551 -19.887  1.00  0.00     0.126 C 
BRANCH   6   7
HETATM    7  C2  UNL     1     -61.455 -18.609 -19.353  1.00  0.00     0.081 C 
BRANCH   7   8
HETATM    8  C1  UNL     1     -61.340 -17.298 -20.122  1.00  0.00     0.379 C 
BRANCH   8   9
HETATM    9  N1  UNL     1     -62.300 -17.299 -21.210  1.00  0.00    -0.050 N 
ATOM     10  H13 UNL     1     -62.463 -16.351 -21.550  1.00  0.00     0.276 HD
ATOM     11  H12 UNL     1     -61.895 -17.713 -22.049  1.00  0.00     0.276 HD
ATOM     12  H11 UNL     1     -63.181 -17.754 -20.972  1.00  0.00     0.276 HD
ENDBRANCH   8   9
BRANCH   8  13
HETATM   13  N2  UNL     1     -59.993 -17.072 -20.553  1.00  0.00    -0.050 N 
ATOM     14  H23 UNL     1     -59.339 -17.213 -19.783  1.00  0.00     0.276 HD
ATOM     15  H22 UNL     1     -59.684 -17.817 -21.177  1.00  0.00     0.276 HD
ATOM     16  H21 UNL     1     -59.853 -16.158 -20.983  1.00  0.00     0.276 HD
ENDBRANCH   8  13
ENDBRANCH   7   8
ENDBRANCH   6   7
ENDBRANCH   3   6
ENDBRANCH   1   2
BRANCH   1  17
HETATM   17  N4  UNL     1     -61.255 -22.964 -22.225  1.00  0.00    -0.059 N 
ATOM     18  H43 UNL     1     -61.533 -23.132 -21.258  1.00  0.00     0.275 HD
ATOM     19  H42 UNL     1     -61.690 -23.784 -22.647  1.00  0.00     0.275 HD
ATOM     20  H41 UNL     1     -60.242 -22.963 -22.339  1.00  0.00     0.275 HD
ENDBRANCH   1  17
BRANCH   1  21
HETATM   21  C6  UNL     1     -63.295 -21.697 -22.554  1.00  0.00     0.137 A 
HETATM   22  N5  UNL     1     -64.005 -22.311 -21.590  1.00  0.00    -0.338 N 
HETATM   23  C7  UNL     1     -65.310 -22.035 -21.772  1.00  0.00     0.202 A 
ATOM     24  H5  UNL     1     -63.619 -22.891 -20.844  1.00  0.00     0.168 HD
HETATM   25  N6  UNL     1     -65.423 -21.246 -22.853  1.00  0.00    -0.282 N 
HETATM   26  N7  UNL     1     -64.199 -21.053 -23.310  1.00  0.00    -0.283 N 
ATOM     27  H7  UNL     1     -63.970 -20.490 -24.129  1.00  0.00     0.188 HD
BRANCH  25  28
HETATM   28  C8  UNL     1     -66.666 -20.700 -23.420  1.00  0.00     0.188 C 
BRANCH  28  29
HETATM   29  C9  UNL     1     -66.940 -19.352 -22.868  1.00  0.00    -0.038 A 
HETATM   30  C10 UNL     1     -66.703 -19.063 -21.541  1.00  0.00     0.009 A 
HETATM   31  C11 UNL     1     -66.971 -17.782 -21.049  1.00  0.00     0.001 A 
HETATM   32  C12 UNL     1     -67.469 -16.811 -21.882  1.00  0.00     0.000 A 
HETATM   33  C13 UNL     1     -67.714 -17.077 -23.220  1.00  0.00     0.001 A 
HETATM   34  C14 UNL     1     -67.439 -18.362 -23.686  1.00  0.00     0.009 A 
ENDBRANCH  28  29
ENDBRANCH  25  28
ENDBRANCH   1  21
TORSDOF 10
ENDMDL
