MODEL 1
REMARK VINA RESULT: -4.690344181      0.000      0.000
REMARK  11 active torsions:
REMARK  status: ('A' for Active; 'I' for Inactive)
REMARK    1  A    between atoms: C4_9  and  S1_10 
REMARK    2  A    between atoms: S1_10  and  C5_13 
REMARK    3  A    between atoms: C5_13  and  C6_14 
REMARK    4  A    between atoms: C6_14  and  N3_15 
REMARK    5  A    between atoms: N3_15  and  C7_17 
REMARK    6  A    between atoms: C7_17  and  C8_18 
REMARK    7  A    between atoms: C8_18  and  S2_19 
REMARK    8  A    between atoms: S2_19  and  C9_20 
REMARK    9  A    between atoms: C9_20  and  C10_21 
REMARK   10  A    between atoms: C10_21  and  N4_22 
REMARK   11  A    between atoms: N4_22  and  C11_24 
ROOT
HETATM    1  S1  UNL     1      13.833 -67.939  21.826  1.00  0.00     0.182 S 
HETATM    2  O1  UNL     1      13.589 -68.732  23.092  1.00  0.00    -0.222 OA
HETATM    3  O2  UNL     1      13.462 -68.786  20.642  1.00  0.00    -0.222 OA
ENDROOT
BRANCH   1   4
HETATM    4  C4  UNL     1      15.492 -67.405  21.787  1.00  0.00     0.118 A 
HETATM    5  C3  UNL     1      16.534 -68.298  21.706  1.00  0.00     0.123 A 
HETATM    6  N1  UNL     1      17.809 -67.849  21.672  1.00  0.00    -0.332 N 
HETATM    7  N2  UNL     1      16.279 -69.582  21.652  1.00  0.00    -0.384 N 
HETATM    8  C2  UNL     1      18.132 -66.544  21.715  1.00  0.00     0.078 A 
ATOM      9  H1  UNL     1      18.563 -68.534  21.611  1.00  0.00     0.168 HD
HETATM   10  C1  UNL     1      19.544 -66.077  21.677  1.00  0.00     0.089 C 
HETATM   11  N5  UNL     1      17.112 -65.670  21.794  1.00  0.00    -0.354 N 
HETATM   12  C12 UNL     1      15.825 -66.061  21.830  1.00  0.00     0.116 A 
ATOM     13  H5  UNL     1      17.323 -64.673  21.829  1.00  0.00     0.166 HD
ATOM     14  H22 UNL     1      17.053 -70.245  21.592  1.00  0.00     0.157 HD
ATOM     15  H21 UNL     1      15.318 -69.921  21.678  1.00  0.00     0.157 HD
ENDBRANCH   1   4
BRANCH   1  16
HETATM   16  C5  UNL     1      12.724 -66.559  21.828  1.00  0.00     0.165 C 
BRANCH  16  17
HETATM   17  C6  UNL     1      12.123 -66.524  23.244  1.00  0.00     0.134 C 
BRANCH  17  18
HETATM   18  N3  UNL     1      13.066 -66.001  24.164  1.00  0.00    -0.401 N 
ATOM     19  H3  UNL     1      13.836 -66.581  24.500  1.00  0.00     0.158 HD
BRANCH  18  20
HETATM   20  C7  UNL     1      12.930 -64.689  24.605  1.00  0.00     0.065 C 
BRANCH  20  21
HETATM   21  C8  UNL     1      13.900 -63.715  24.012  1.00  0.00     0.118 C 
BRANCH  21  22
HETATM   22  S2  UNL     1      13.251 -62.579  22.816  1.00  0.00    -0.162 SA
BRANCH  22  23
HETATM   23  C9  UNL     1      13.626 -62.892  21.108  1.00  0.00     0.093 C 
BRANCH  23  24
HETATM   24  C10 UNL     1      13.414 -61.698  20.199  1.00  0.00     0.132 C 
BRANCH  24  25
HETATM   25  N4  UNL     1      14.636 -61.214  19.603  1.00  0.00    -0.367 N 
ATOM     26  H4  UNL     1      14.652 -61.105  18.589  1.00  0.00     0.161 HD
BRANCH  25  27
HETATM   27  C11 UNL     1      15.803 -60.880  20.306  1.00  0.00     0.348 C 
HETATM   28  O3  UNL     1      15.830 -60.032  21.238  1.00  0.00    -0.284 OA
ENDBRANCH  25  27
ENDBRANCH  24  25
ENDBRANCH  23  24
ENDBRANCH  22  23
ENDBRANCH  21  22
ENDBRANCH  20  21
ENDBRANCH  18  20
ENDBRANCH  17  18
ENDBRANCH  16  17
ENDBRANCH   1  16
TORSDOF 11
ENDMDL
MODEL 2
REMARK VINA RESULT: -4.674685687      2.149      2.852
REMARK  11 active torsions:
REMARK  status: ('A' for Active; 'I' for Inactive)
REMARK    1  A    between atoms: C4_9  and  S1_10 
REMARK    2  A    between atoms: S1_10  and  C5_13 
REMARK    3  A    between atoms: C5_13  and  C6_14 
REMARK    4  A    between atoms: C6_14  and  N3_15 
REMARK    5  A    between atoms: N3_15  and  C7_17 
REMARK    6  A    between atoms: C7_17  and  C8_18 
REMARK    7  A    between atoms: C8_18  and  S2_19 
REMARK    8  A    between atoms: S2_19  and  C9_20 
REMARK    9  A    between atoms: C9_20  and  C10_21 
REMARK   10  A    between atoms: C10_21  and  N4_22 
REMARK   11  A    between atoms: N4_22  and  C11_24 
ROOT
HETATM    1  S1  UNL     1      16.984 -66.681  22.688  1.00  0.00     0.182 S 
HETATM    2  O1  UNL     1      16.587 -66.248  24.082  1.00  0.00    -0.222 OA
HETATM    3  O2  UNL     1      16.543 -68.101  22.476  1.00  0.00    -0.222 OA
ENDROOT
BRANCH   1   4
HETATM    4  C4  UNL     1      18.701 -66.465  22.480  1.00  0.00     0.118 A 
HETATM    5  C3  UNL     1      19.604 -66.931  23.407  1.00  0.00     0.123 A 
HETATM    6  N1  UNL     1      20.929 -66.750  23.211  1.00  0.00    -0.332 N 
HETATM    7  N2  UNL     1      19.168 -67.557  24.471  1.00  0.00    -0.384 N 
HETATM    8  C2  UNL     1      21.437 -66.123  22.135  1.00  0.00     0.078 A 
ATOM      9  H1  UNL     1      21.576 -67.108  23.914  1.00  0.00     0.168 HD
HETATM   10  C1  UNL     1      22.900 -65.938  21.944  1.00  0.00     0.089 C 
HETATM   11  N5  UNL     1      20.554 -65.667  21.228  1.00  0.00    -0.354 N 
HETATM   12  C12 UNL     1      19.225 -65.820  21.371  1.00  0.00     0.116 A 
ATOM     13  H5  UNL     1      20.906 -65.187  20.399  1.00  0.00     0.166 HD
ATOM     14  H22 UNL     1      19.837 -67.903  25.159  1.00  0.00     0.157 HD
ATOM     15  H21 UNL     1      18.168 -67.693  24.619  1.00  0.00     0.157 HD
ENDBRANCH   1   4
BRANCH   1  16
HETATM   16  C5  UNL     1      16.077 -65.692  21.534  1.00  0.00     0.165 C 
BRANCH  16  17
HETATM   17  C6  UNL     1      14.720 -66.399  21.374  1.00  0.00     0.134 C 
BRANCH  17  18
HETATM   18  N3  UNL     1      14.012 -66.387  22.603  1.00  0.00    -0.401 N 
ATOM     19  H3  UNL     1      14.280 -67.017  23.359  1.00  0.00     0.158 HD
BRANCH  18  20
HETATM   20  C7  UNL     1      12.948 -65.506  22.765  1.00  0.00     0.065 C 
BRANCH  20  21
HETATM   21  C8  UNL     1      13.255 -64.277  23.562  1.00  0.00     0.118 C 
BRANCH  21  22
HETATM   22  S2  UNL     1      13.471 -62.773  22.647  1.00  0.00    -0.162 SA
BRANCH  22  23
HETATM   23  C9  UNL     1      13.520 -62.898  20.876  1.00  0.00     0.093 C 
BRANCH  23  24
HETATM   24  C10 UNL     1      13.479 -61.563  20.160  1.00  0.00     0.132 C 
BRANCH  24  25
HETATM   25  N4  UNL     1      14.746 -61.192  19.578  1.00  0.00    -0.367 N 
ATOM     26  H4  UNL     1      14.811 -61.183  18.560  1.00  0.00     0.161 HD
BRANCH  25  27
HETATM   27  C11 UNL     1      15.898 -60.843  20.300  1.00  0.00     0.348 C 
HETATM   28  O3  UNL     1      15.882 -60.068  21.294  1.00  0.00    -0.284 OA
ENDBRANCH  25  27
ENDBRANCH  24  25
ENDBRANCH  23  24
ENDBRANCH  22  23
ENDBRANCH  21  22
ENDBRANCH  20  21
ENDBRANCH  18  20
ENDBRANCH  17  18
ENDBRANCH  16  17
ENDBRANCH   1  16
TORSDOF 11
ENDMDL
MODEL 3
REMARK VINA RESULT: -4.478871582      2.905      3.845
REMARK  11 active torsions:
REMARK  status: ('A' for Active; 'I' for Inactive)
REMARK    1  A    between atoms: C4_9  and  S1_10 
REMARK    2  A    between atoms: S1_10  and  C5_13 
REMARK    3  A    between atoms: C5_13  and  C6_14 
REMARK    4  A    between atoms: C6_14  and  N3_15 
REMARK    5  A    between atoms: N3_15  and  C7_17 
REMARK    6  A    between atoms: C7_17  and  C8_18 
REMARK    7  A    between atoms: C8_18  and  S2_19 
REMARK    8  A    between atoms: S2_19  and  C9_20 
REMARK    9  A    between atoms: C9_20  and  C10_21 
REMARK   10  A    between atoms: C10_21  and  N4_22 
REMARK   11  A    between atoms: N4_22  and  C11_24 
ROOT
HETATM    1  S1  UNL     1      18.151 -66.798  22.270  1.00  0.00     0.182 S 
HETATM    2  O1  UNL     1      17.846 -67.962  21.353  1.00  0.00    -0.222 OA
HETATM    3  O2  UNL     1      17.453 -65.573  21.751  1.00  0.00    -0.222 OA
ENDROOT
BRANCH   1   4
HETATM    4  C4  UNL     1      19.878 -66.594  22.393  1.00  0.00     0.118 A 
HETATM    5  C3  UNL     1      20.637 -66.215  21.312  1.00  0.00     0.123 A 
HETATM    6  N1  UNL     1      21.974 -66.061  21.444  1.00  0.00    -0.332 N 
HETATM    7  N2  UNL     1      20.053 -65.996  20.160  1.00  0.00    -0.384 N 
HETATM    8  C2  UNL     1      22.628 -66.262  22.602  1.00  0.00     0.078 A 
ATOM      9  H1  UNL     1      22.513 -65.777  20.625  1.00  0.00     0.168 HD
HETATM   10  C1  UNL     1      24.100 -66.086  22.720  1.00  0.00     0.089 C 
HETATM   11  N5  UNL     1      21.885 -66.633  23.660  1.00  0.00    -0.354 N 
HETATM   12  C12 UNL     1      20.552 -66.800  23.586  1.00  0.00     0.116 A 
ATOM     13  H5  UNL     1      22.350 -66.793  24.554  1.00  0.00     0.166 HD
ATOM     14  H22 UNL     1      20.617 -65.715  19.357  1.00  0.00     0.157 HD
ATOM     15  H21 UNL     1      19.045 -66.113  20.060  1.00  0.00     0.157 HD
ENDBRANCH   1   4
BRANCH   1  16
HETATM   16  C5  UNL     1      17.441 -67.152  23.852  1.00  0.00     0.165 C 
BRANCH  16  17
HETATM   17  C6  UNL     1      16.102 -66.396  23.874  1.00  0.00     0.134 C 
BRANCH  17  18
HETATM   18  N3  UNL     1      15.222 -66.926  22.896  1.00  0.00    -0.401 N 
ATOM     19  H3  UNL     1      15.487 -67.751  22.357  1.00  0.00     0.158 HD
BRANCH  18  20
HETATM   20  C7  UNL     1      13.995 -66.308  22.680  1.00  0.00     0.065 C 
BRANCH  20  21
HETATM   21  C8  UNL     1      14.013 -65.187  21.689  1.00  0.00     0.118 C 
BRANCH  21  22
HETATM   22  S2  UNL     1      13.399 -63.622  22.253  1.00  0.00    -0.162 SA
BRANCH  22  23
HETATM   23  C9  UNL     1      13.181 -62.346  21.036  1.00  0.00     0.093 C 
BRANCH  23  24
HETATM   24  C10 UNL     1      14.114 -62.459  19.847  1.00  0.00     0.132 C 
BRANCH  24  25
HETATM   25  N4  UNL     1      14.831 -61.239  19.570  1.00  0.00    -0.367 N 
ATOM     26  H4  UNL     1      14.468 -60.638  18.831  1.00  0.00     0.161 HD
BRANCH  25  27
HETATM   27  C11 UNL     1      15.990 -60.812  20.238  1.00  0.00     0.348 C 
HETATM   28  O3  UNL     1      15.967 -60.059  21.249  1.00  0.00    -0.284 OA
ENDBRANCH  25  27
ENDBRANCH  24  25
ENDBRANCH  23  24
ENDBRANCH  22  23
ENDBRANCH  21  22
ENDBRANCH  20  21
ENDBRANCH  18  20
ENDBRANCH  17  18
ENDBRANCH  16  17
ENDBRANCH   1  16
TORSDOF 11
ENDMDL
MODEL 4
REMARK VINA RESULT: -4.436138473      3.222      7.050
REMARK  11 active torsions:
REMARK  status: ('A' for Active; 'I' for Inactive)
REMARK    1  A    between atoms: C4_9  and  S1_10 
REMARK    2  A    between atoms: S1_10  and  C5_13 
REMARK    3  A    between atoms: C5_13  and  C6_14 
REMARK    4  A    between atoms: C6_14  and  N3_15 
REMARK    5  A    between atoms: N3_15  and  C7_17 
REMARK    6  A    between atoms: C7_17  and  C8_18 
REMARK    7  A    between atoms: C8_18  and  S2_19 
REMARK    8  A    between atoms: S2_19  and  C9_20 
REMARK    9  A    between atoms: C9_20  and  C10_21 
REMARK   10  A    between atoms: C10_21  and  N4_22 
REMARK   11  A    between atoms: N4_22  and  C11_24 
ROOT
HETATM    1  S1  UNL     1      14.317 -64.336  21.018  1.00  0.00     0.182 S 
HETATM    2  O1  UNL     1      15.666 -63.726  21.332  1.00  0.00    -0.222 OA
HETATM    3  O2  UNL     1      14.345 -64.883  19.619  1.00  0.00    -0.222 OA
ENDROOT
BRANCH   1   4
HETATM    4  C4  UNL     1      13.071 -63.141  21.255  1.00  0.00     0.118 A 
HETATM    5  C3  UNL     1      13.005 -62.005  20.483  1.00  0.00     0.123 A 
HETATM    6  N1  UNL     1      12.021 -61.101  20.690  1.00  0.00    -0.332 N 
HETATM    7  N2  UNL     1      13.895 -61.815  19.541  1.00  0.00    -0.384 N 
HETATM    8  C2  UNL     1      11.075 -61.246  21.635  1.00  0.00     0.078 A 
ATOM      9  H1  UNL     1      11.995 -60.269  20.101  1.00  0.00     0.168 HD
HETATM   10  C1  UNL     1      10.003 -60.236  21.843  1.00  0.00     0.089 C 
HETATM   11  N5  UNL     1      11.139 -62.357  22.392  1.00  0.00    -0.354 N 
HETATM   12  C12 UNL     1      12.095 -63.290  22.228  1.00  0.00     0.116 A 
ATOM     13  H5  UNL     1      10.436 -62.497  23.117  1.00  0.00     0.166 HD
ATOM     14  H22 UNL     1      13.846 -60.972  18.967  1.00  0.00     0.157 HD
ATOM     15  H21 UNL     1      14.638 -62.496  19.385  1.00  0.00     0.157 HD
ENDBRANCH   1   4
BRANCH   1  16
HETATM   16  C5  UNL     1      14.082 -65.718  22.098  1.00  0.00     0.165 C 
BRANCH  16  17
HETATM   17  C6  UNL     1      14.891 -66.866  21.468  1.00  0.00     0.134 C 
BRANCH  17  18
HETATM   18  N3  UNL     1      16.271 -66.538  21.442  1.00  0.00    -0.401 N 
ATOM     19  H3  UNL     1      16.685 -66.118  20.609  1.00  0.00     0.158 HD
BRANCH  18  20
HETATM   20  C7  UNL     1      17.052 -66.795  22.564  1.00  0.00     0.065 C 
BRANCH  20  21
HETATM   21  C8  UNL     1      18.453 -66.275  22.496  1.00  0.00     0.118 C 
BRANCH  21  22
HETATM   22  S2  UNL     1      19.645 -67.072  23.539  1.00  0.00    -0.162 SA
BRANCH  22  23
HETATM   23  C9  UNL     1      21.359 -66.873  23.117  1.00  0.00     0.093 C 
BRANCH  23  24
HETATM   24  C10 UNL     1      21.598 -66.029  21.881  1.00  0.00     0.132 C 
BRANCH  24  25
HETATM   25  N4  UNL     1      21.847 -66.815  20.697  1.00  0.00    -0.367 N 
ATOM     26  H4  UNL     1      22.806 -67.115  20.526  1.00  0.00     0.161 HD
BRANCH  25  27
HETATM   27  C11 UNL     1      20.874 -67.199  19.761  1.00  0.00     0.348 C 
HETATM   28  O3  UNL     1      20.103 -66.381  19.190  1.00  0.00    -0.284 OA
ENDBRANCH  25  27
ENDBRANCH  24  25
ENDBRANCH  23  24
ENDBRANCH  22  23
ENDBRANCH  21  22
ENDBRANCH  20  21
ENDBRANCH  18  20
ENDBRANCH  17  18
ENDBRANCH  16  17
ENDBRANCH   1  16
TORSDOF 11
ENDMDL
MODEL 5
REMARK VINA RESULT: -4.377274275      2.727      6.105
REMARK  11 active torsions:
REMARK  status: ('A' for Active; 'I' for Inactive)
REMARK    1  A    between atoms: C4_9  and  S1_10 
REMARK    2  A    between atoms: S1_10  and  C5_13 
REMARK    3  A    between atoms: C5_13  and  C6_14 
REMARK    4  A    between atoms: C6_14  and  N3_15 
REMARK    5  A    between atoms: N3_15  and  C7_17 
REMARK    6  A    between atoms: C7_17  and  C8_18 
REMARK    7  A    between atoms: C8_18  and  S2_19 
REMARK    8  A    between atoms: S2_19  and  C9_20 
REMARK    9  A    between atoms: C9_20  and  C10_21 
REMARK   10  A    between atoms: C10_21  and  N4_22 
REMARK   11  A    between atoms: N4_22  and  C11_24 
ROOT
HETATM    1  S1  UNL     1      13.058 -61.701  20.189  1.00  0.00     0.182 S 
HETATM    2  O1  UNL     1      12.604 -61.832  18.751  1.00  0.00    -0.222 OA
HETATM    3  O2  UNL     1      13.834 -60.423  20.339  1.00  0.00    -0.222 OA
ENDROOT
BRANCH   1   4
HETATM    4  C4  UNL     1      13.980 -63.111  20.637  1.00  0.00     0.118 A 
HETATM    5  C3  UNL     1      14.876 -63.085  21.679  1.00  0.00     0.123 A 
HETATM    6  N1  UNL     1      15.571 -64.199  22.003  1.00  0.00    -0.332 N 
HETATM    7  N2  UNL     1      15.043 -61.976  22.356  1.00  0.00    -0.384 N 
HETATM    8  C2  UNL     1      15.436 -65.367  21.350  1.00  0.00     0.078 A 
ATOM      9  H1  UNL     1      16.229 -64.151  22.781  1.00  0.00     0.168 HD
HETATM   10  C1  UNL     1      16.212 -66.578  21.727  1.00  0.00     0.089 C 
HETATM   11  N5  UNL     1      14.558 -65.393  20.331  1.00  0.00    -0.354 N 
HETATM   12  C12 UNL     1      13.841 -64.315  19.965  1.00  0.00     0.116 A 
ATOM     13  H5  UNL     1      14.432 -66.264  19.815  1.00  0.00     0.166 HD
ATOM     14  H22 UNL     1      15.709 -61.957  23.130  1.00  0.00     0.157 HD
ATOM     15  H21 UNL     1      14.520 -61.136  22.112  1.00  0.00     0.157 HD
ENDBRANCH   1   4
BRANCH   1  16
HETATM   16  C5  UNL     1      11.616 -61.539  21.201  1.00  0.00     0.165 C 
BRANCH  16  17
HETATM   17  C6  UNL     1      11.746 -62.637  22.271  1.00  0.00     0.134 C 
BRANCH  17  18
HETATM   18  N3  UNL     1      10.780 -63.652  22.054  1.00  0.00    -0.401 N 
ATOM     19  H3  UNL     1      10.038 -63.520  21.365  1.00  0.00     0.158 HD
BRANCH  18  20
HETATM   20  C7  UNL     1      10.856 -64.830  22.789  1.00  0.00     0.065 C 
BRANCH  20  21
HETATM   21  C8  UNL     1      12.208 -65.146  23.347  1.00  0.00     0.118 C 
BRANCH  21  22
HETATM   22  S2  UNL     1      12.637 -66.863  23.457  1.00  0.00    -0.162 SA
BRANCH  22  23
HETATM   23  C9  UNL     1      12.426 -67.850  21.995  1.00  0.00     0.093 C 
BRANCH  23  24
HETATM   24  C10 UNL     1      11.059 -68.495  21.875  1.00  0.00     0.132 C 
BRANCH  24  25
HETATM   25  N4  UNL     1      10.487 -68.373  20.557  1.00  0.00    -0.367 N 
ATOM     26  H4  UNL     1      10.251 -67.435  20.232  1.00  0.00     0.161 HD
BRANCH  25  27
HETATM   27  C11 UNL     1      10.230 -69.442  19.684  1.00  0.00     0.348 C 
HETATM   28  O3  UNL     1      11.045 -69.826  18.802  1.00  0.00    -0.284 OA
ENDBRANCH  25  27
ENDBRANCH  24  25
ENDBRANCH  23  24
ENDBRANCH  22  23
ENDBRANCH  21  22
ENDBRANCH  20  21
ENDBRANCH  18  20
ENDBRANCH  17  18
ENDBRANCH  16  17
ENDBRANCH   1  16
TORSDOF 11
ENDMDL
