MODEL 1
REMARK VINA RESULT: -5.513954215      0.000      0.000
REMARK  13 active torsions:
REMARK  status: ('A' for Active; 'I' for Inactive)
REMARK    1  A    between atoms: C3_5  and  N2_6 
REMARK    2  A    between atoms: N4_12  and  C5_13 
REMARK    3  A    between atoms: C5_13  and  C6_14 
REMARK    4  A    between atoms: C6_14  and  N5_15 
REMARK    5  A    between atoms: N5_15  and  C7_18 
REMARK    6  A    between atoms: C7_18  and  C8_19 
REMARK    7  A    between atoms: C8_19  and  N6_20 
REMARK    8  A    between atoms: N6_20  and  C9_22 
REMARK    9  A    between atoms: C9_22  and  C10_23 
REMARK   10  A    between atoms: C10_23  and  O1_24 
REMARK   11  A    between atoms: C10_23  and  C11_26 
REMARK   12  A    between atoms: C11_26  and  O2_27 
REMARK   13  A    between atoms: O2_27  and  C12_28 
ROOT
HETATM    1  N5  UNL     1      12.910 -65.349  21.515  1.00  0.00    -0.069 N 
ATOM      2  H51 UNL     1      12.688 -64.807  20.680  1.00  0.00     0.277 HD
ATOM      3  H52 UNL     1      12.192 -66.068  21.429  1.00  0.00     0.277 HD
ENDROOT
BRANCH   1   4
HETATM    4  C6  UNL     1      12.740 -64.573  22.707  1.00  0.00     0.253 C 
BRANCH   4   5
HETATM    5  C5  UNL     1      12.350 -63.142  22.440  1.00  0.00     0.158 C 
BRANCH   5   6
HETATM    6  N4  UNL     1      13.343 -62.391  21.774  1.00  0.00    -0.330 N 
HETATM    7  C2  UNL     1      13.084 -61.750  20.639  1.00  0.00     0.096 A 
HETATM    8  C1  UNL     1      11.767 -61.717  20.030  1.00  0.00     0.090 C 
HETATM    9  N1  UNL     1      14.060 -61.040  19.988  1.00  0.00    -0.181 N 
HETATM   10  C3  UNL     1      15.309 -60.961  20.465  1.00  0.00     0.678 A 
ATOM     11  H1  UNL     1      13.829 -60.560  19.118  1.00  0.00     0.185 HD
HETATM   12  N3  UNL     1      15.577 -61.605  21.609  1.00  0.00    -0.188 N 
HETATM   13  C4  UNL     1      14.622 -62.310  22.264  1.00  0.00     0.202 A 
ATOM     14  H3  UNL     1      16.519 -61.564  21.996  1.00  0.00     0.185 HD
BRANCH  10  15
HETATM   15  N2  UNL     1      16.226 -60.274  19.823  1.00  0.00    -0.234 N 
ATOM     16  H22 UNL     1      16.167 -60.100  18.819  1.00  0.00     0.174 HD
ATOM     17  H21 UNL     1      17.031 -59.892  20.320  1.00  0.00     0.174 HD
ENDBRANCH  10  15
ENDBRANCH   5   6
ENDBRANCH   4   5
ENDBRANCH   1   4
BRANCH   1  18
HETATM   18  C7  UNL     1      14.256 -65.918  21.446  1.00  0.00     0.276 C 
BRANCH  18  19
HETATM   19  C8  UNL     1      14.112 -67.407  21.592  1.00  0.00     0.082 C 
BRANCH  19  20
HETATM   20  N6  UNL     1      14.725 -68.025  22.671  1.00  0.00    -0.398 N 
ATOM     21  H6  UNL     1      15.527 -68.642  22.539  1.00  0.00     0.158 HD
BRANCH  20  22
HETATM   22  C9  UNL     1      14.199 -67.774  23.966  1.00  0.00     0.152 C 
BRANCH  22  23
HETATM   23  C10 UNL     1      15.322 -67.237  24.871  1.00  0.00     0.160 C 
BRANCH  23  24
HETATM   24  O1  UNL     1      15.293 -65.835  24.896  1.00  0.00    -0.392 OA
ATOM     25  H1  UNL     1      15.711 -65.513  25.686  1.00  0.00     0.210 HD
ENDBRANCH  23  24
BRANCH  23  26
HETATM   26  C11 UNL     1      16.683 -67.629  24.338  1.00  0.00     0.209 C 
BRANCH  26  27
HETATM   27  O2  UNL     1      17.174 -66.575  23.562  1.00  0.00    -0.349 OA
BRANCH  27  28
HETATM   28  C12 UNL     1      18.338 -66.427  22.900  1.00  0.00     0.068 A 
HETATM   29  C13 UNL     1      18.532 -65.910  21.652  1.00  0.00     0.037 A 
HETATM   30  C14 UNL     1      19.780 -65.803  21.059  1.00  0.00     0.003 A 
HETATM   31  C15 UNL     1      20.903 -66.227  21.723  1.00  0.00     0.000 A 
HETATM   32  C16 UNL     1      20.742 -66.756  22.985  1.00  0.00     0.003 A 
HETATM   33  C17 UNL     1      19.500 -66.857  23.565  1.00  0.00     0.037 A 
ENDBRANCH  27  28
ENDBRANCH  26  27
ENDBRANCH  23  26
ENDBRANCH  22  23
ENDBRANCH  20  22
ENDBRANCH  19  20
ENDBRANCH  18  19
ENDBRANCH   1  18
TORSDOF 13
ENDMDL
MODEL 2
REMARK VINA RESULT: -5.489287661      3.481      7.054
REMARK  13 active torsions:
REMARK  status: ('A' for Active; 'I' for Inactive)
REMARK    1  A    between atoms: C3_5  and  N2_6 
REMARK    2  A    between atoms: N4_12  and  C5_13 
REMARK    3  A    between atoms: C5_13  and  C6_14 
REMARK    4  A    between atoms: C6_14  and  N5_15 
REMARK    5  A    between atoms: N5_15  and  C7_18 
REMARK    6  A    between atoms: C7_18  and  C8_19 
REMARK    7  A    between atoms: C8_19  and  N6_20 
REMARK    8  A    between atoms: N6_20  and  C9_22 
REMARK    9  A    between atoms: C9_22  and  C10_23 
REMARK   10  A    between atoms: C10_23  and  O1_24 
REMARK   11  A    between atoms: C10_23  and  C11_26 
REMARK   12  A    between atoms: C11_26  and  O2_27 
REMARK   13  A    between atoms: O2_27  and  C12_28 
ROOT
HETATM    1  N5  UNL     1      15.257 -66.355  21.994  1.00  0.00    -0.069 N 
ATOM      2  H51 UNL     1      14.889 -66.312  22.945  1.00  0.00     0.277 HD
ATOM      3  H52 UNL     1      14.545 -66.957  21.579  1.00  0.00     0.277 HD
ENDROOT
BRANCH   1   4
HETATM    4  C6  UNL     1      16.552 -66.967  21.958  1.00  0.00     0.253 C 
BRANCH   4   5
HETATM    5  C5  UNL     1      17.483 -66.460  23.029  1.00  0.00     0.158 C 
BRANCH   5   6
HETATM    6  N4  UNL     1      18.829 -66.353  22.616  1.00  0.00    -0.330 N 
HETATM    7  C2  UNL     1      19.828 -66.747  23.398  1.00  0.00     0.096 A 
HETATM    8  C1  UNL     1      19.624 -67.368  24.694  1.00  0.00     0.090 C 
HETATM    9  N1  UNL     1      21.134 -66.620  22.997  1.00  0.00    -0.181 N 
HETATM   10  C3  UNL     1      21.456 -66.097  21.807  1.00  0.00     0.678 A 
ATOM     11  H1  UNL     1      21.878 -66.933  23.621  1.00  0.00     0.185 HD
HETATM   12  N3  UNL     1      20.453 -65.697  21.014  1.00  0.00    -0.188 N 
HETATM   13  C4  UNL     1      19.158 -65.817  21.397  1.00  0.00     0.202 A 
ATOM     14  H3  UNL     1      20.668 -65.293  20.103  1.00  0.00     0.185 HD
BRANCH  10  15
HETATM   15  N2  UNL     1      22.715 -65.986  21.446  1.00  0.00    -0.234 N 
ATOM     16  H22 UNL     1      23.362 -66.773  21.496  1.00  0.00     0.174 HD
ATOM     17  H21 UNL     1      23.079 -65.097  21.103  1.00  0.00     0.174 HD
ENDBRANCH  10  15
ENDBRANCH   5   6
ENDBRANCH   4   5
ENDBRANCH   1   4
BRANCH   1  18
HETATM   18  C7  UNL     1      15.281 -65.035  21.365  1.00  0.00     0.276 C 
BRANCH  18  19
HETATM   19  C8  UNL     1      14.295 -65.070  20.231  1.00  0.00     0.082 C 
BRANCH  19  20
HETATM   20  N6  UNL     1      13.689 -63.883  19.848  1.00  0.00    -0.398 N 
ATOM     21  H6  UNL     1      12.702 -63.854  19.593  1.00  0.00     0.158 HD
BRANCH  20  22
HETATM   22  C9  UNL     1      14.487 -62.709  19.821  1.00  0.00     0.152 C 
BRANCH  22  23
HETATM   23  C10 UNL     1      13.569 -61.477  19.729  1.00  0.00     0.160 C 
BRANCH  23  24
HETATM   24  O1  UNL     1      14.230 -60.345  20.229  1.00  0.00    -0.392 OA
ATOM     25  H1  UNL     1      13.933 -59.566  19.773  1.00  0.00     0.210 HD
ENDBRANCH  23  24
BRANCH  23  26
HETATM   26  C11 UNL     1      12.328 -61.659  20.577  1.00  0.00     0.209 C 
BRANCH  26  27
HETATM   27  O2  UNL     1      12.699 -61.590  21.923  1.00  0.00    -0.349 OA
BRANCH  27  28
HETATM   28  C12 UNL     1      12.954 -62.558  22.825  1.00  0.00     0.068 A 
HETATM   29  C13 UNL     1      12.239 -63.697  23.055  1.00  0.00     0.037 A 
HETATM   30  C14 UNL     1      12.590 -64.633  24.015  1.00  0.00     0.003 A 
HETATM   31  C15 UNL     1      13.702 -64.445  24.794  1.00  0.00     0.000 A 
HETATM   32  C16 UNL     1      14.446 -63.304  24.588  1.00  0.00     0.003 A 
HETATM   33  C17 UNL     1      14.091 -62.381  23.634  1.00  0.00     0.037 A 
ENDBRANCH  27  28
ENDBRANCH  26  27
ENDBRANCH  23  26
ENDBRANCH  22  23
ENDBRANCH  20  22
ENDBRANCH  19  20
ENDBRANCH  18  19
ENDBRANCH   1  18
TORSDOF 13
ENDMDL
MODEL 3
REMARK VINA RESULT: -5.484618742      0.924      1.502
REMARK  13 active torsions:
REMARK  status: ('A' for Active; 'I' for Inactive)
REMARK    1  A    between atoms: C3_5  and  N2_6 
REMARK    2  A    between atoms: N4_12  and  C5_13 
REMARK    3  A    between atoms: C5_13  and  C6_14 
REMARK    4  A    between atoms: C6_14  and  N5_15 
REMARK    5  A    between atoms: N5_15  and  C7_18 
REMARK    6  A    between atoms: C7_18  and  C8_19 
REMARK    7  A    between atoms: C8_19  and  N6_20 
REMARK    8  A    between atoms: N6_20  and  C9_22 
REMARK    9  A    between atoms: C9_22  and  C10_23 
REMARK   10  A    between atoms: C10_23  and  O1_24 
REMARK   11  A    between atoms: C10_23  and  C11_26 
REMARK   12  A    between atoms: C11_26  and  O2_27 
REMARK   13  A    between atoms: O2_27  and  C12_28 
ROOT
HETATM    1  N5  UNL     1      14.606 -65.901  21.973  1.00  0.00    -0.069 N 
ATOM      2  H51 UNL     1      14.873 -65.805  22.952  1.00  0.00     0.277 HD
ATOM      3  H52 UNL     1      15.250 -65.221  21.568  1.00  0.00     0.277 HD
ENDROOT
BRANCH   1   4
HETATM    4  C6  UNL     1      13.240 -65.526  21.759  1.00  0.00     0.253 C 
BRANCH   4   5
HETATM    5  C5  UNL     1      12.934 -64.112  22.183  1.00  0.00     0.158 C 
BRANCH   5   6
HETATM    6  N4  UNL     1      13.778 -63.142  21.598  1.00  0.00    -0.330 N 
HETATM    7  C2  UNL     1      14.494 -62.307  22.343  1.00  0.00     0.096 A 
HETATM    8  C1  UNL     1      14.520 -62.359  23.793  1.00  0.00     0.090 C 
HETATM    9  N1  UNL     1      15.296 -61.355  21.767  1.00  0.00    -0.181 N 
HETATM   10  C3  UNL     1      15.390 -61.225  20.437  1.00  0.00     0.678 A 
ATOM     11  H1  UNL     1      15.833 -60.729  22.367  1.00  0.00     0.185 HD
HETATM   12  N3  UNL     1      14.669 -62.065  19.681  1.00  0.00    -0.188 N 
HETATM   13  C4  UNL     1      13.874 -63.011  20.237  1.00  0.00     0.202 A 
ATOM     14  H3  UNL     1      14.720 -61.989  18.665  1.00  0.00     0.185 HD
BRANCH  10  15
HETATM   15  N2  UNL     1      16.165 -60.305  19.910  1.00  0.00    -0.234 N 
ATOM     16  H22 UNL     1      15.891 -59.323  19.875  1.00  0.00     0.174 HD
ATOM     17  H21 UNL     1      17.073 -60.555  19.517  1.00  0.00     0.174 HD
ENDBRANCH  10  15
ENDBRANCH   5   6
ENDBRANCH   4   5
ENDBRANCH   1   4
BRANCH   1  18
HETATM   18  C7  UNL     1      14.864 -67.252  21.474  1.00  0.00     0.276 C 
BRANCH  18  19
HETATM   19  C8  UNL     1      14.264 -68.209  22.465  1.00  0.00     0.082 C 
BRANCH  19  20
HETATM   20  N6  UNL     1      15.010 -68.557  23.580  1.00  0.00    -0.398 N 
ATOM     21  H6  UNL     1      15.839 -69.146  23.497  1.00  0.00     0.158 HD
BRANCH  20  22
HETATM   22  C9  UNL     1      14.584 -68.067  24.842  1.00  0.00     0.152 C 
BRANCH  22  23
HETATM   23  C10 UNL     1      15.605 -67.036  25.356  1.00  0.00     0.160 C 
BRANCH  23  24
HETATM   24  O1  UNL     1      15.292 -65.761  24.865  1.00  0.00    -0.392 OA
ATOM     25  H1  UNL     1      16.087 -65.299  24.624  1.00  0.00     0.210 HD
ENDBRANCH  23  24
BRANCH  23  26
HETATM   26  C11 UNL     1      16.998 -67.358  24.859  1.00  0.00     0.209 C 
BRANCH  26  27
HETATM   27  O2  UNL     1      17.252 -66.583  23.724  1.00  0.00    -0.349 OA
BRANCH  27  28
HETATM   28  C12 UNL     1      18.368 -66.427  22.986  1.00  0.00     0.068 A 
HETATM   29  C13 UNL     1      18.477 -65.908  21.729  1.00  0.00     0.037 A 
HETATM   30  C14 UNL     1      19.682 -65.794  21.055  1.00  0.00     0.003 A 
HETATM   31  C15 UNL     1      20.849 -66.211  21.643  1.00  0.00     0.000 A 
HETATM   32  C16 UNL     1      20.775 -66.741  22.912  1.00  0.00     0.003 A 
HETATM   33  C17 UNL     1      19.575 -66.850  23.573  1.00  0.00     0.037 A 
ENDBRANCH  27  28
ENDBRANCH  26  27
ENDBRANCH  23  26
ENDBRANCH  22  23
ENDBRANCH  20  22
ENDBRANCH  19  20
ENDBRANCH  18  19
ENDBRANCH   1  18
TORSDOF 13
ENDMDL
MODEL 4
REMARK VINA RESULT: -5.467443058      3.497      6.518
REMARK  13 active torsions:
REMARK  status: ('A' for Active; 'I' for Inactive)
REMARK    1  A    between atoms: C3_5  and  N2_6 
REMARK    2  A    between atoms: N4_12  and  C5_13 
REMARK    3  A    between atoms: C5_13  and  C6_14 
REMARK    4  A    between atoms: C6_14  and  N5_15 
REMARK    5  A    between atoms: N5_15  and  C7_18 
REMARK    6  A    between atoms: C7_18  and  C8_19 
REMARK    7  A    between atoms: C8_19  and  N6_20 
REMARK    8  A    between atoms: N6_20  and  C9_22 
REMARK    9  A    between atoms: C9_22  and  C10_23 
REMARK   10  A    between atoms: C10_23  and  O1_24 
REMARK   11  A    between atoms: C10_23  and  C11_26 
REMARK   12  A    between atoms: C11_26  and  O2_27 
REMARK   13  A    between atoms: O2_27  and  C12_28 
ROOT
HETATM    1  N5  UNL     1      12.555 -65.497  21.782  1.00  0.00    -0.069 N 
ATOM      2  H51 UNL     1      12.048 -65.123  20.980  1.00  0.00     0.277 HD
ATOM      3  H52 UNL     1      11.929 -66.268  22.016  1.00  0.00     0.277 HD
ENDROOT
BRANCH   1   4
HETATM    4  C6  UNL     1      12.637 -64.542  22.846  1.00  0.00     0.253 C 
BRANCH   4   5
HETATM    5  C5  UNL     1      12.215 -63.153  22.438  1.00  0.00     0.158 C 
BRANCH   5   6
HETATM    6  N4  UNL     1      13.219 -62.420  21.770  1.00  0.00    -0.330 N 
HETATM    7  C2  UNL     1      12.956 -61.734  20.663  1.00  0.00     0.096 A 
HETATM    8  C1  UNL     1      11.627 -61.630  20.090  1.00  0.00     0.090 C 
HETATM    9  N1  UNL     1      13.943 -61.042  20.008  1.00  0.00    -0.181 N 
HETATM   10  C3  UNL     1      15.205 -61.027  20.453  1.00  0.00     0.678 A 
ATOM     11  H1  UNL     1      13.708 -60.525  19.160  1.00  0.00     0.185 HD
HETATM   12  N3  UNL     1      15.477 -61.717  21.569  1.00  0.00    -0.188 N 
HETATM   13  C4  UNL     1      14.512 -62.405  22.227  1.00  0.00     0.202 A 
ATOM     14  H3  UNL     1      16.430 -61.725  21.932  1.00  0.00     0.185 HD
BRANCH  10  15
HETATM   15  N2  UNL     1      16.132 -60.355  19.808  1.00  0.00    -0.234 N 
ATOM     16  H22 UNL     1      16.924 -59.929  20.289  1.00  0.00     0.174 HD
ATOM     17  H21 UNL     1      16.080 -60.242  18.795  1.00  0.00     0.174 HD
ENDBRANCH  10  15
ENDBRANCH   5   6
ENDBRANCH   4   5
ENDBRANCH   1   4
BRANCH   1  18
HETATM   18  C7  UNL     1      13.884 -65.978  21.404  1.00  0.00     0.276 C 
BRANCH  18  19
HETATM   19  C8  UNL     1      14.165 -67.197  22.236  1.00  0.00     0.082 C 
BRANCH  19  20
HETATM   20  N6  UNL     1      13.121 -68.071  22.498  1.00  0.00    -0.398 N 
ATOM     21  H6  UNL     1      12.635 -68.058  23.395  1.00  0.00     0.158 HD
BRANCH  20  22
HETATM   22  C9  UNL     1      12.751 -68.987  21.478  1.00  0.00     0.152 C 
BRANCH  22  23
HETATM   23  C10 UNL     1      11.244 -68.847  21.196  1.00  0.00     0.160 C 
BRANCH  23  24
HETATM   24  O1  UNL     1      11.013 -67.762  20.338  1.00  0.00    -0.392 OA
ATOM     25  H1  UNL     1      11.079 -68.043  19.432  1.00  0.00     0.210 HD
ENDBRANCH  23  24
BRANCH  23  26
HETATM   26  C11 UNL     1      10.479 -68.559  22.469  1.00  0.00     0.209 C 
BRANCH  26  27
HETATM   27  O2  UNL     1      10.126 -67.206  22.477  1.00  0.00    -0.349 OA
BRANCH  27  28
HETATM   28  C12 UNL     1       9.053 -66.570  22.984  1.00  0.00     0.068 A 
HETATM   29  C13 UNL     1       9.027 -65.406  23.696  1.00  0.00     0.037 A 
HETATM   30  C14 UNL     1       7.859 -64.835  24.177  1.00  0.00     0.003 A 
HETATM   31  C15 UNL     1       6.648 -65.435  23.949  1.00  0.00     0.000 A 
HETATM   32  C16 UNL     1       6.638 -66.613  23.235  1.00  0.00     0.003 A 
HETATM   33  C17 UNL     1       7.801 -67.172  22.761  1.00  0.00     0.037 A 
ENDBRANCH  27  28
ENDBRANCH  26  27
ENDBRANCH  23  26
ENDBRANCH  22  23
ENDBRANCH  20  22
ENDBRANCH  19  20
ENDBRANCH  18  19
ENDBRANCH   1  18
TORSDOF 13
ENDMDL
MODEL 5
REMARK VINA RESULT: -5.390219057      1.508      2.476
REMARK  13 active torsions:
REMARK  status: ('A' for Active; 'I' for Inactive)
REMARK    1  A    between atoms: C3_5  and  N2_6 
REMARK    2  A    between atoms: N4_12  and  C5_13 
REMARK    3  A    between atoms: C5_13  and  C6_14 
REMARK    4  A    between atoms: C6_14  and  N5_15 
REMARK    5  A    between atoms: N5_15  and  C7_18 
REMARK    6  A    between atoms: C7_18  and  C8_19 
REMARK    7  A    between atoms: C8_19  and  N6_20 
REMARK    8  A    between atoms: N6_20  and  C9_22 
REMARK    9  A    between atoms: C9_22  and  C10_23 
REMARK   10  A    between atoms: C10_23  and  O1_24 
REMARK   11  A    between atoms: C10_23  and  C11_26 
REMARK   12  A    between atoms: C11_26  and  O2_27 
REMARK   13  A    between atoms: O2_27  and  C12_28 
ROOT
HETATM    1  N5  UNL     1      14.488 -65.846  21.497  1.00  0.00    -0.069 N 
ATOM      2  H51 UNL     1      14.923 -65.478  22.342  1.00  0.00     0.277 HD
ATOM      3  H52 UNL     1      15.165 -66.578  21.280  1.00  0.00     0.277 HD
ENDROOT
BRANCH   1   4
HETATM    4  C6  UNL     1      14.428 -64.859  20.461  1.00  0.00     0.253 C 
BRANCH   4   5
HETATM    5  C5  UNL     1      14.709 -63.461  20.949  1.00  0.00     0.158 C 
BRANCH   5   6
HETATM    6  N4  UNL     1      13.551 -62.682  21.161  1.00  0.00    -0.330 N 
HETATM    7  C2  UNL     1      13.204 -62.271  22.376  1.00  0.00     0.096 A 
HETATM    8  C1  UNL     1      14.004 -62.529  23.560  1.00  0.00     0.090 C 
HETATM    9  N1  UNL     1      12.066 -61.533  22.576  1.00  0.00    -0.181 N 
HETATM   10  C3  UNL     1      11.259 -61.196  21.562  1.00  0.00     0.678 A 
ATOM     11  H1  UNL     1      11.828 -61.233  23.522  1.00  0.00     0.185 HD
HETATM   12  N3  UNL     1      11.604 -61.608  20.334  1.00  0.00    -0.188 N 
HETATM   13  C4  UNL     1      12.726 -62.337  20.122  1.00  0.00     0.202 A 
ATOM     14  H3  UNL     1      11.008 -61.367  19.542  1.00  0.00     0.185 HD
BRANCH  10  15
HETATM   15  N2  UNL     1      10.175 -60.487  21.779  1.00  0.00    -0.234 N 
ATOM     16  H22 UNL     1       9.246 -60.910  21.789  1.00  0.00     0.174 HD
ATOM     17  H21 UNL     1      10.237 -59.482  21.946  1.00  0.00     0.174 HD
ENDBRANCH  10  15
ENDBRANCH   5   6
ENDBRANCH   4   5
ENDBRANCH   1   4
BRANCH   1  18
HETATM   18  C7  UNL     1      13.163 -66.402  21.770  1.00  0.00     0.276 C 
BRANCH  18  19
HETATM   19  C8  UNL     1      12.873 -66.154  23.224  1.00  0.00     0.082 C 
BRANCH  19  20
HETATM   20  N6  UNL     1      13.942 -66.034  24.098  1.00  0.00    -0.398 N 
ATOM     21  H6  UNL     1      14.578 -65.238  24.046  1.00  0.00     0.158 HD
BRANCH  20  22
HETATM   22  C9  UNL     1      14.125 -67.055  25.067  1.00  0.00     0.152 C 
BRANCH  22  23
HETATM   23  C10 UNL     1      15.632 -67.279  25.287  1.00  0.00     0.160 C 
BRANCH  23  24
HETATM   24  O1  UNL     1      16.247 -66.078  25.670  1.00  0.00    -0.392 OA
ATOM     25  H1  UNL     1      17.169 -66.225  25.849  1.00  0.00     0.210 HD
ENDBRANCH  23  24
BRANCH  23  26
HETATM   26  C11 UNL     1      16.308 -67.718  24.006  1.00  0.00     0.209 C 
BRANCH  26  27
HETATM   27  O2  UNL     1      16.902 -66.599  23.413  1.00  0.00    -0.349 OA
BRANCH  27  28
HETATM   28  C12 UNL     1      18.105 -66.436  22.831  1.00  0.00     0.068 A 
HETATM   29  C13 UNL     1      18.378 -65.886  21.612  1.00  0.00     0.037 A 
HETATM   30  C14 UNL     1      19.661 -65.767  21.103  1.00  0.00     0.003 A 
HETATM   31  C15 UNL     1      20.739 -66.212  21.824  1.00  0.00     0.000 A 
HETATM   32  C16 UNL     1      20.499 -66.775  23.058  1.00  0.00     0.003 A 
HETATM   33  C17 UNL     1      19.223 -66.888  23.556  1.00  0.00     0.037 A 
ENDBRANCH  27  28
ENDBRANCH  26  27
ENDBRANCH  23  26
ENDBRANCH  22  23
ENDBRANCH  20  22
ENDBRANCH  19  20
ENDBRANCH  18  19
ENDBRANCH   1  18
TORSDOF 13
ENDMDL
