MODEL 1
REMARK VINA RESULT: -6.227513266      0.000      0.000
REMARK  8 active torsions:
REMARK  status: ('A' for Active; 'I' for Inactive)
REMARK    1  A    between atoms: N1_2  and  S1_4 
REMARK    2  A    between atoms: S1_4  and  N2_6 
REMARK    3  A    between atoms: S1_4  and  C4_11 
REMARK       I    between atoms: N2_6  and  C2_8 
REMARK    4  A    between atoms: C4_11  and  C5_12 
REMARK    5  A    between atoms: C4_11  and  C12_32 
REMARK    6  A    between atoms: N3_13  and  N4_15 
REMARK       I    between atoms: N4_15  and  C6_17 
REMARK    7  A    between atoms: C6_17  and  C7_19 
REMARK    8  A    between atoms: C9_21  and  O4_22 
ROOT
HETATM    1  C5  UNL     1     -64.204 -19.164 -22.810  1.00  0.00     0.111 C 
HETATM    2  N3  UNL     1     -65.091 -18.847 -21.960  1.00  0.00    -0.311 N 
ATOM      3  H3  UNL     1     -65.108 -19.407 -21.108  1.00  0.00     0.185 HD
ENDROOT
BRANCH   2   4
HETATM    4  N4  UNL     1     -66.028 -17.850 -22.037  1.00  0.00    -0.265 N 
HETATM    5  C6  UNL     1     -67.398 -18.024 -21.869  1.00  0.00     0.287 C 
HETATM    6  O3  UNL     1     -67.844 -19.186 -21.623  1.00  0.00    -0.264 OA
ATOM      7  H4  UNL     1     -65.695 -16.906 -22.233  1.00  0.00     0.190 HD
BRANCH   5   8
HETATM    8  C7  UNL     1     -68.336 -16.937 -21.960  1.00  0.00     0.122 A 
HETATM    9  C8  UNL     1     -67.929 -15.671 -21.594  1.00  0.00     0.092 A 
HETATM   10  C9  UNL     1     -68.774 -14.587 -21.658  1.00  0.00     0.159 A 
HETATM   11  N5  UNL     1     -70.041 -14.819 -22.105  1.00  0.00    -0.171 N 
HETATM   12  C11 UNL     1     -70.456 -16.039 -22.466  1.00  0.00     0.678 A 
ATOM     13  H5  UNL     1     -70.695 -14.037 -22.166  1.00  0.00     0.186 HD
HETATM   14  N6  UNL     1     -71.643 -16.293 -22.893  1.00  0.00    -0.234 N 
HETATM   15  N7  UNL     1     -69.591 -17.094 -22.388  1.00  0.00    -0.186 N 
ATOM     16  H62 UNL     1     -72.289 -15.506 -22.951  1.00  0.00     0.174 HD
ATOM     17  H61 UNL     1     -71.959 -17.223 -23.168  1.00  0.00     0.174 HD
ATOM     18  H7  UNL     1     -69.911 -18.022 -22.664  1.00  0.00     0.184 HD
BRANCH  10  19
HETATM   19  O4  UNL     1     -68.365 -13.315 -21.290  1.00  0.00    -0.340 OA
HETATM   20  C10 UNL     1     -69.164 -12.220 -21.673  1.00  0.00     0.211 C 
ENDBRANCH  10  19
ENDBRANCH   5   8
ENDBRANCH   2   4
BRANCH   1  21
HETATM   21  C4  UNL     1     -63.314 -20.305 -22.452  1.00  0.00     0.247 C 
BRANCH  21  22
HETATM   22  S1  UNL     1     -61.699 -19.681 -22.126  1.00  0.00     0.127 S 
HETATM   23  O1  UNL     1     -60.866 -19.569 -23.365  1.00  0.00    -0.227 OA
BRANCH  22  24
HETATM   24  N1  UNL     1     -60.941 -20.636 -21.155  1.00  0.00    -0.339 N 
HETATM   25  C1  UNL     1     -59.786 -21.307 -21.692  1.00  0.00     0.157 C 
ATOM     26  H1  UNL     1     -61.246 -20.777 -20.192  1.00  0.00     0.170 HD
ENDBRANCH  22  24
BRANCH  22  27
HETATM   27  N2  UNL     1     -61.844 -18.104 -21.445  1.00  0.00    -0.271 N 
HETATM   28  C2  UNL     1     -60.841 -17.504 -20.658  1.00  0.00     0.225 C 
HETATM   29  C3  UNL     1     -61.010 -16.146 -20.096  1.00  0.00     0.118 C 
HETATM   30  O2  UNL     1     -59.787 -18.128 -20.428  1.00  0.00    -0.273 OA
ATOM     31  H2  UNL     1     -62.700 -17.578 -21.621  1.00  0.00     0.180 HD
ENDBRANCH  22  27
ENDBRANCH  21  22
BRANCH  21  32
HETATM   32  C12 UNL     1     -63.848 -21.013 -21.271  1.00  0.00     0.197 C 
HETATM   33  O5  UNL     1     -64.504 -22.076 -21.376  1.00  0.00    -0.647 OA
HETATM   34  O6  UNL     1     -63.631 -20.502 -19.978  1.00  0.00    -0.647 OA
ENDBRANCH  21  32
ENDBRANCH   1  21
TORSDOF 8
ENDMDL
MODEL 2
REMARK VINA RESULT: -6.197296039      1.296      1.303
REMARK  8 active torsions:
REMARK  status: ('A' for Active; 'I' for Inactive)
REMARK    1  A    between atoms: N1_2  and  S1_4 
REMARK    2  A    between atoms: S1_4  and  N2_6 
REMARK    3  A    between atoms: S1_4  and  C4_11 
REMARK       I    between atoms: N2_6  and  C2_8 
REMARK    4  A    between atoms: C4_11  and  C5_12 
REMARK    5  A    between atoms: C4_11  and  C12_32 
REMARK    6  A    between atoms: N3_13  and  N4_15 
REMARK       I    between atoms: N4_15  and  C6_17 
REMARK    7  A    between atoms: C6_17  and  C7_19 
REMARK    8  A    between atoms: C9_21  and  O4_22 
ROOT
HETATM    1  C5  UNL     1     -63.803 -19.679 -23.250  1.00  0.00     0.111 C 
HETATM    2  N3  UNL     1     -64.919 -19.359 -22.740  1.00  0.00    -0.311 N 
ATOM      3  H3  UNL     1     -65.146 -19.808 -21.852  1.00  0.00     0.185 HD
ENDROOT
BRANCH   2   4
HETATM    4  N4  UNL     1     -65.861 -18.489 -23.224  1.00  0.00    -0.265 N 
HETATM    5  C6  UNL     1     -66.792 -17.804 -22.450  1.00  0.00     0.287 C 
HETATM    6  O3  UNL     1     -66.792 -17.978 -21.194  1.00  0.00    -0.264 OA
ATOM      7  H4  UNL     1     -65.881 -18.332 -24.232  1.00  0.00     0.190 HD
BRANCH   5   8
HETATM    8  C7  UNL     1     -67.758 -16.901 -23.016  1.00  0.00     0.122 A 
HETATM    9  C8  UNL     1     -68.211 -15.844 -22.254  1.00  0.00     0.092 A 
HETATM   10  C9  UNL     1     -69.133 -14.943 -22.734  1.00  0.00     0.159 A 
HETATM   11  N5  UNL     1     -69.583 -15.139 -24.006  1.00  0.00    -0.171 N 
HETATM   12  C11 UNL     1     -69.156 -16.157 -24.762  1.00  0.00     0.678 A 
ATOM     13  H5  UNL     1     -70.267 -14.488 -24.394  1.00  0.00     0.186 HD
HETATM   14  N6  UNL     1     -69.557 -16.371 -25.966  1.00  0.00    -0.234 N 
HETATM   15  N7  UNL     1     -68.240 -17.034 -24.254  1.00  0.00    -0.186 N 
ATOM     16  H62 UNL     1     -70.240 -15.715 -26.346  1.00  0.00     0.174 HD
ATOM     17  H61 UNL     1     -69.232 -17.147 -26.542  1.00  0.00     0.174 HD
ATOM     18  H7  UNL     1     -67.917 -17.809 -24.833  1.00  0.00     0.184 HD
BRANCH  10  19
HETATM   19  O4  UNL     1     -69.589 -13.881 -21.968  1.00  0.00    -0.340 OA
HETATM   20  C10 UNL     1     -68.806 -12.711 -21.918  1.00  0.00     0.211 C 
ENDBRANCH  10  19
ENDBRANCH   5   8
ENDBRANCH   2   4
BRANCH   1  21
HETATM   21  C4  UNL     1     -62.978 -20.662 -22.489  1.00  0.00     0.247 C 
BRANCH  21  22
HETATM   22  S1  UNL     1     -61.464 -19.890 -22.026  1.00  0.00     0.127 S 
HETATM   23  O1  UNL     1     -60.511 -19.762 -23.174  1.00  0.00    -0.227 OA
BRANCH  22  24
HETATM   24  N1  UNL     1     -60.745 -20.733 -20.931  1.00  0.00    -0.339 N 
HETATM   25  C1  UNL     1     -59.441 -21.240 -21.269  1.00  0.00     0.157 C 
ATOM     26  H1  UNL     1     -61.174 -20.916 -20.024  1.00  0.00     0.170 HD
ENDBRANCH  22  24
BRANCH  22  27
HETATM   27  N2  UNL     1     -61.808 -18.302 -21.449  1.00  0.00    -0.271 N 
HETATM   28  C2  UNL     1     -60.883 -17.522 -20.727  1.00  0.00     0.225 C 
HETATM   29  C3  UNL     1     -61.223 -16.163 -20.254  1.00  0.00     0.118 C 
HETATM   30  O2  UNL     1     -59.752 -17.984 -20.481  1.00  0.00    -0.273 OA
ATOM     31  H2  UNL     1     -62.729 -17.907 -21.639  1.00  0.00     0.180 HD
ENDBRANCH  22  27
ENDBRANCH  21  22
BRANCH  21  32
HETATM   32  C12 UNL     1     -63.715 -21.124 -21.296  1.00  0.00     0.197 C 
HETATM   33  O5  UNL     1     -64.424 -22.158 -21.313  1.00  0.00    -0.647 OA
HETATM   34  O6  UNL     1     -63.638 -20.403 -20.090  1.00  0.00    -0.647 OA
ENDBRANCH  21  32
ENDBRANCH   1  21
TORSDOF 8
ENDMDL
MODEL 3
REMARK VINA RESULT: -6.144441094      1.301      1.634
REMARK  8 active torsions:
REMARK  status: ('A' for Active; 'I' for Inactive)
REMARK    1  A    between atoms: N1_2  and  S1_4 
REMARK    2  A    between atoms: S1_4  and  N2_6 
REMARK    3  A    between atoms: S1_4  and  C4_11 
REMARK       I    between atoms: N2_6  and  C2_8 
REMARK    4  A    between atoms: C4_11  and  C5_12 
REMARK    5  A    between atoms: C4_11  and  C12_32 
REMARK    6  A    between atoms: N3_13  and  N4_15 
REMARK       I    between atoms: N4_15  and  C6_17 
REMARK    7  A    between atoms: C6_17  and  C7_19 
REMARK    8  A    between atoms: C9_21  and  O4_22 
ROOT
HETATM    1  C5  UNL     1     -63.871 -18.869 -22.482  1.00  0.00     0.111 C 
HETATM    2  N3  UNL     1     -64.950 -18.777 -21.820  1.00  0.00    -0.311 N 
ATOM      3  H3  UNL     1     -65.199 -19.594 -21.262  1.00  0.00     0.185 HD
ENDROOT
BRANCH   2   4
HETATM    4  N4  UNL     1     -65.823 -17.722 -21.755  1.00  0.00    -0.265 N 
HETATM    5  C6  UNL     1     -67.206 -17.834 -21.644  1.00  0.00     0.287 C 
HETATM    6  O3  UNL     1     -67.727 -18.989 -21.596  1.00  0.00    -0.264 OA
ATOM      7  H4  UNL     1     -65.429 -16.783 -21.791  1.00  0.00     0.190 HD
BRANCH   5   8
HETATM    8  C7  UNL     1     -68.074 -16.689 -21.580  1.00  0.00     0.122 A 
HETATM    9  C8  UNL     1     -68.398 -16.031 -22.747  1.00  0.00     0.092 A 
HETATM   10  C9  UNL     1     -69.225 -14.930 -22.758  1.00  0.00     0.159 A 
HETATM   11  N5  UNL     1     -69.715 -14.515 -21.555  1.00  0.00    -0.171 N 
HETATM   12  C11 UNL     1     -69.412 -15.140 -20.411  1.00  0.00     0.678 A 
ATOM     13  H5  UNL     1     -70.331 -13.703 -21.526  1.00  0.00     0.186 HD
HETATM   14  N6  UNL     1     -69.857 -14.777 -19.259  1.00  0.00    -0.234 N 
HETATM   15  N7  UNL     1     -68.588 -16.229 -20.436  1.00  0.00    -0.186 N 
ATOM     16  H62 UNL     1     -70.473 -13.964 -19.240  1.00  0.00     0.174 HD
ATOM     17  H61 UNL     1     -69.627 -15.253 -18.387  1.00  0.00     0.174 HD
ATOM     18  H7  UNL     1     -68.360 -16.703 -19.562  1.00  0.00     0.184 HD
BRANCH  10  19
HETATM   19  O4  UNL     1     -69.551 -14.269 -23.932  1.00  0.00    -0.340 OA
HETATM   20  C10 UNL     1     -69.827 -15.042 -25.077  1.00  0.00     0.211 C 
ENDBRANCH  10  19
ENDBRANCH   5   8
ENDBRANCH   2   4
BRANCH   1  21
HETATM   21  C4  UNL     1     -63.119 -20.151 -22.357  1.00  0.00     0.247 C 
BRANCH  21  22
HETATM   22  S1  UNL     1     -61.416 -19.784 -22.103  1.00  0.00     0.127 S 
HETATM   23  O1  UNL     1     -60.583 -20.051 -23.318  1.00  0.00    -0.227 OA
BRANCH  22  24
HETATM   24  N1  UNL     1     -60.841 -20.670 -20.956  1.00  0.00    -0.339 N 
HETATM   25  C1  UNL     1     -59.446 -21.011 -21.052  1.00  0.00     0.157 C 
ATOM     26  H1  UNL     1     -61.421 -20.990 -20.181  1.00  0.00     0.170 HD
ENDBRANCH  22  24
BRANCH  22  27
HETATM   27  N2  UNL     1     -61.263 -18.110 -21.717  1.00  0.00    -0.271 N 
HETATM   28  C2  UNL     1     -61.191 -17.621 -20.398  1.00  0.00     0.225 C 
HETATM   29  C3  UNL     1     -61.058 -16.176 -20.117  1.00  0.00     0.118 C 
HETATM   30  O2  UNL     1     -61.240 -18.423 -19.444  1.00  0.00    -0.273 OA
ATOM     31  H2  UNL     1     -61.223 -17.439 -22.484  1.00  0.00     0.180 HD
ENDBRANCH  22  27
ENDBRANCH  21  22
BRANCH  21  32
HETATM   32  C12 UNL     1     -63.656 -20.945 -21.233  1.00  0.00     0.197 C 
HETATM   33  O5  UNL     1     -64.195 -22.064 -21.409  1.00  0.00    -0.647 OA
HETATM   34  O6  UNL     1     -63.574 -20.458 -19.915  1.00  0.00    -0.647 OA
ENDBRANCH  21  32
ENDBRANCH   1  21
TORSDOF 8
ENDMDL
MODEL 4
REMARK VINA RESULT: -6.079963553      1.044      1.189
REMARK  8 active torsions:
REMARK  status: ('A' for Active; 'I' for Inactive)
REMARK    1  A    between atoms: N1_2  and  S1_4 
REMARK    2  A    between atoms: S1_4  and  N2_6 
REMARK    3  A    between atoms: S1_4  and  C4_11 
REMARK       I    between atoms: N2_6  and  C2_8 
REMARK    4  A    between atoms: C4_11  and  C5_12 
REMARK    5  A    between atoms: C4_11  and  C12_32 
REMARK    6  A    between atoms: N3_13  and  N4_15 
REMARK       I    between atoms: N4_15  and  C6_17 
REMARK    7  A    between atoms: C6_17  and  C7_19 
REMARK    8  A    between atoms: C9_21  and  O4_22 
ROOT
HETATM    1  C5  UNL     1     -64.161 -19.185 -22.845  1.00  0.00     0.111 C 
HETATM    2  N3  UNL     1     -64.975 -18.756 -21.971  1.00  0.00    -0.311 N 
ATOM      3  H3  UNL     1     -64.957 -19.240 -21.073  1.00  0.00     0.185 HD
ENDROOT
BRANCH   2   4
HETATM    4  N4  UNL     1     -65.875 -17.728 -22.076  1.00  0.00    -0.265 N 
HETATM    5  C6  UNL     1     -67.249 -17.844 -21.890  1.00  0.00     0.287 C 
HETATM    6  O3  UNL     1     -67.735 -18.979 -21.600  1.00  0.00    -0.264 OA
ATOM      7  H4  UNL     1     -65.508 -16.805 -22.308  1.00  0.00     0.190 HD
BRANCH   5   8
HETATM    8  C7  UNL     1     -68.146 -16.727 -22.013  1.00  0.00     0.122 A 
HETATM    9  C8  UNL     1     -68.512 -16.036 -20.877  1.00  0.00     0.092 A 
HETATM   10  C9  UNL     1     -69.364 -14.957 -20.923  1.00  0.00     0.159 A 
HETATM   11  N5  UNL     1     -69.836 -14.596 -22.150  1.00  0.00    -0.171 N 
HETATM   12  C11 UNL     1     -69.494 -15.252 -23.265  1.00  0.00     0.678 A 
ATOM     13  H5  UNL     1     -70.470 -13.799 -22.221  1.00  0.00     0.186 HD
HETATM   14  N6  UNL     1     -69.918 -14.939 -24.438  1.00  0.00    -0.234 N 
HETATM   15  N7  UNL     1     -68.645 -16.320 -23.183  1.00  0.00    -0.186 N 
ATOM     16  H62 UNL     1     -70.552 -14.141 -24.499  1.00  0.00     0.174 HD
ATOM     17  H61 UNL     1     -69.658 -15.439 -25.288  1.00  0.00     0.174 HD
ATOM     18  H7  UNL     1     -68.387 -16.818 -24.034  1.00  0.00     0.184 HD
BRANCH  10  19
HETATM   19  O4  UNL     1     -69.731 -14.263 -19.780  1.00  0.00    -0.340 OA
HETATM   20  C10 UNL     1     -70.207 -14.999 -18.677  1.00  0.00     0.211 C 
ENDBRANCH  10  19
ENDBRANCH   5   8
ENDBRANCH   2   4
BRANCH   1  21
HETATM   21  C4  UNL     1     -63.294 -20.331 -22.445  1.00  0.00     0.247 C 
BRANCH  21  22
HETATM   22  S1  UNL     1     -61.670 -19.727 -22.129  1.00  0.00     0.127 S 
HETATM   23  O1  UNL     1     -60.841 -19.633 -23.373  1.00  0.00    -0.227 OA
BRANCH  22  24
HETATM   24  N1  UNL     1     -60.920 -20.685 -21.156  1.00  0.00    -0.339 N 
HETATM   25  C1  UNL     1     -59.750 -21.340 -21.680  1.00  0.00     0.157 C 
ATOM     26  H1  UNL     1     -61.241 -20.841 -20.200  1.00  0.00     0.170 HD
ENDBRANCH  22  24
BRANCH  22  27
HETATM   27  N2  UNL     1     -61.790 -18.144 -21.456  1.00  0.00    -0.271 N 
HETATM   28  C2  UNL     1     -60.803 -17.576 -20.627  1.00  0.00     0.225 C 
HETATM   29  C3  UNL     1     -60.949 -16.212 -20.074  1.00  0.00     0.118 C 
HETATM   30  O2  UNL     1     -59.782 -18.235 -20.351  1.00  0.00    -0.273 OA
ATOM     31  H2  UNL     1     -62.619 -17.589 -21.670  1.00  0.00     0.180 HD
ENDBRANCH  22  27
ENDBRANCH  21  22
BRANCH  21  32
HETATM   32  C12 UNL     1     -63.848 -20.989 -21.244  1.00  0.00     0.197 C 
HETATM   33  O5  UNL     1     -64.553 -22.024 -21.321  1.00  0.00    -0.647 OA
HETATM   34  O6  UNL     1     -63.596 -20.462 -19.964  1.00  0.00    -0.647 OA
ENDBRANCH  21  32
ENDBRANCH   1  21
TORSDOF 8
ENDMDL
MODEL 5
REMARK VINA RESULT: -6.006673695      2.766      8.478
REMARK  8 active torsions:
REMARK  status: ('A' for Active; 'I' for Inactive)
REMARK    1  A    between atoms: N1_2  and  S1_4 
REMARK    2  A    between atoms: S1_4  and  N2_6 
REMARK    3  A    between atoms: S1_4  and  C4_11 
REMARK       I    between atoms: N2_6  and  C2_8 
REMARK    4  A    between atoms: C4_11  and  C5_12 
REMARK    5  A    between atoms: C4_11  and  C12_32 
REMARK    6  A    between atoms: N3_13  and  N4_15 
REMARK       I    between atoms: N4_15  and  C6_17 
REMARK    7  A    between atoms: C6_17  and  C7_19 
REMARK    8  A    between atoms: C9_21  and  O4_22 
ROOT
HETATM    1  C5  UNL     1     -66.761 -19.292 -22.668  1.00  0.00     0.111 C 
HETATM    2  N3  UNL     1     -65.828 -18.441 -22.797  1.00  0.00    -0.311 N 
ATOM      3  H3  UNL     1     -65.944 -17.767 -23.553  1.00  0.00     0.185 HD
ENDROOT
BRANCH   2   4
HETATM    4  N4  UNL     1     -64.685 -18.310 -22.053  1.00  0.00    -0.265 N 
HETATM    5  C6  UNL     1     -63.425 -18.761 -22.433  1.00  0.00     0.287 C 
HETATM    6  O3  UNL     1     -63.294 -19.343 -23.553  1.00  0.00    -0.264 OA
ATOM      7  H4  UNL     1     -64.764 -17.845 -21.148  1.00  0.00     0.190 HD
BRANCH   5   8
HETATM    8  C7  UNL     1     -62.259 -18.594 -21.608  1.00  0.00     0.122 A 
HETATM    9  C8  UNL     1     -61.448 -19.684 -21.370  1.00  0.00     0.092 A 
HETATM   10  C9  UNL     1     -60.316 -19.594 -20.592  1.00  0.00     0.159 A 
HETATM   11  N5  UNL     1     -60.027 -18.371 -20.063  1.00  0.00    -0.171 N 
HETATM   12  C11 UNL     1     -60.800 -17.301 -20.283  1.00  0.00     0.678 A 
ATOM     13  H5  UNL     1     -59.195 -18.268 -19.482  1.00  0.00     0.186 HD
HETATM   14  N6  UNL     1     -60.557 -16.133 -19.801  1.00  0.00    -0.234 N 
HETATM   15  N7  UNL     1     -61.918 -17.426 -21.060  1.00  0.00    -0.186 N 
ATOM     16  H62 UNL     1     -59.723 -16.039 -19.221  1.00  0.00     0.174 HD
ATOM     17  H61 UNL     1     -61.146 -15.317 -19.968  1.00  0.00     0.174 HD
ATOM     18  H7  UNL     1     -62.504 -16.608 -21.225  1.00  0.00     0.184 HD
BRANCH  10  19
HETATM   19  O4  UNL     1     -59.502 -20.690 -20.352  1.00  0.00    -0.340 OA
HETATM   20  C10 UNL     1     -58.816 -21.262 -21.442  1.00  0.00     0.211 C 
ENDBRANCH  10  19
ENDBRANCH   5   8
ENDBRANCH   2   4
BRANCH   1  21
HETATM   21  C4  UNL     1     -67.893 -19.192 -23.634  1.00  0.00     0.247 C 
BRANCH  21  22
HETATM   22  S1  UNL     1     -69.358 -18.781 -22.746  1.00  0.00     0.127 S 
HETATM   23  O1  UNL     1     -69.852 -19.912 -21.899  1.00  0.00    -0.227 OA
BRANCH  22  24
HETATM   24  N1  UNL     1     -70.504 -18.422 -23.739  1.00  0.00    -0.339 N 
HETATM   25  C1  UNL     1     -71.446 -19.471 -24.032  1.00  0.00     0.157 C 
ATOM     26  H1  UNL     1     -70.584 -17.495 -24.158  1.00  0.00     0.170 HD
ENDBRANCH  22  24
BRANCH  22  27
HETATM   27  N2  UNL     1     -69.016 -17.452 -21.702  1.00  0.00    -0.271 N 
HETATM   28  C2  UNL     1     -69.998 -16.554 -21.242  1.00  0.00     0.225 C 
HETATM   29  C3  UNL     1     -69.657 -15.429 -20.344  1.00  0.00     0.118 C 
HETATM   30  O2  UNL     1     -71.183 -16.707 -21.597  1.00  0.00    -0.273 OA
ATOM     31  H2  UNL     1     -68.051 -17.309 -21.401  1.00  0.00     0.180 HD
ENDBRANCH  22  27
ENDBRANCH  21  22
BRANCH  21  32
HETATM   32  C12 UNL     1     -67.598 -18.168 -24.656  1.00  0.00     0.197 C 
HETATM   33  O5  UNL     1     -68.078 -17.011 -24.595  1.00  0.00    -0.647 OA
HETATM   34  O6  UNL     1     -66.755 -18.470 -25.742  1.00  0.00    -0.647 OA
ENDBRANCH  21  32
ENDBRANCH   1  21
TORSDOF 8
ENDMDL
