MODEL 1
REMARK VINA RESULT: -6.580945128      0.000      0.000
REMARK  7 active torsions:
REMARK  status: ('A' for Active; 'I' for Inactive)
REMARK    1  A    between atoms: C2_5  and  N3_6 
REMARK    2  A    between atoms: N3_6  and  N4_8 
REMARK    3  A    between atoms: N5_10  and  C3_12 
REMARK    4  A    between atoms: C7_22  and  S2_23 
REMARK    5  A    between atoms: S2_23  and  N8_26 
REMARK    6  A    between atoms: N8_26  and  C8_28 
REMARK    7  A    between atoms: C8_28  and  C9_29 
ROOT
HETATM    1  N1  UNL     1     -62.938 -20.299 -19.186  1.00  0.00    -0.080 NA
HETATM    2  C1  UNL     1     -62.915 -20.072 -20.567  1.00  0.00     0.161 A 
HETATM    3  N2  UNL     1     -64.018 -20.011 -21.323  1.00  0.00    -0.176 N 
ATOM      4  H2  UNL     1     -64.931 -20.135 -20.885  1.00  0.00     0.185 HD
HETATM    5  C2  UNL     1     -63.948 -19.792 -22.645  1.00  0.00     0.702 A 
HETATM    6  N7  UNL     1     -62.781 -19.622 -23.284  1.00  0.00    -0.153 N 
ATOM      7  H7  UNL     1     -62.760 -19.456 -24.291  1.00  0.00     0.187 HD
HETATM    8  C6  UNL     1     -61.647 -19.673 -22.578  1.00  0.00     0.286 A 
HETATM    9  O1  UNL     1     -60.554 -19.507 -23.219  1.00  0.00    -0.266 OA
HETATM   10  C7  UNL     1     -61.695 -19.897 -21.221  1.00  0.00     0.189 A 
ENDROOT
BRANCH   5  11
HETATM   11  N3  UNL     1     -65.025 -19.738 -23.346  1.00  0.00    -0.117 N 
ATOM     12  H3  UNL     1     -65.098 -19.022 -24.068  1.00  0.00     0.207 HD
BRANCH  11  13
HETATM   13  N4  UNL     1     -66.085 -20.603 -23.169  1.00  0.00    -0.226 N 
HETATM   14  N5  UNL     1     -67.251 -20.262 -22.806  1.00  0.00    -0.265 N 
ATOM     15  H5  UNL     1     -68.005 -20.939 -22.688  1.00  0.00     0.190 HD
ATOM     16  H4  UNL     1     -65.919 -21.594 -23.343  1.00  0.00     0.209 HD
BRANCH  14  17
HETATM   17  C3  UNL     1     -67.442 -18.850 -22.569  1.00  0.00     0.164 A 
HETATM   18  N6  UNL     1     -67.310 -18.243 -21.400  1.00  0.00    -0.345 N 
HETATM   19  C4  UNL     1     -67.505 -16.969 -21.308  1.00  0.00     0.097 A 
ATOM     20  H6  UNL     1     -67.054 -18.781 -20.572  1.00  0.00     0.167 HD
HETATM   21  C5  UNL     1     -67.849 -16.290 -22.448  1.00  0.00     0.070 A 
HETATM   22  S1  UNL     1     -67.866 -17.563 -23.602  1.00  0.00    -0.063 SA
ENDBRANCH  14  17
ENDBRANCH  11  13
ENDBRANCH   5  11
BRANCH  10  23
HETATM   23  S2  UNL     1     -60.193 -19.961 -20.345  1.00  0.00     0.268 S 
HETATM   24  O2  UNL     1     -59.117 -20.434 -21.305  1.00  0.00    -0.200 OA
HETATM   25  O3  UNL     1     -60.237 -20.961 -19.228  1.00  0.00    -0.200 OA
BRANCH  23  26
HETATM   26  N8  UNL     1     -59.790 -18.395 -19.802  1.00  0.00    -0.305 N 
ATOM     27  H8  UNL     1     -58.830 -18.098 -19.626  1.00  0.00     0.172 HD
BRANCH  26  28
HETATM   28  C8  UNL     1     -60.914 -17.534 -19.614  1.00  0.00     0.245 C 
BRANCH  28  29
HETATM   29  C9  UNL     1     -61.033 -16.505 -20.676  1.00  0.00     0.191 C 
HETATM   30  O4  UNL     1     -61.924 -15.643 -20.603  1.00  0.00    -0.647 OA
HETATM   31  O5  UNL     1     -60.153 -16.509 -21.740  1.00  0.00    -0.647 OA
ENDBRANCH  28  29
ENDBRANCH  26  28
ENDBRANCH  23  26
ENDBRANCH  10  23
TORSDOF 7
ENDMDL
MODEL 2
REMARK VINA RESULT: -6.571019456      0.782      1.832
REMARK  7 active torsions:
REMARK  status: ('A' for Active; 'I' for Inactive)
REMARK    1  A    between atoms: C2_5  and  N3_6 
REMARK    2  A    between atoms: N3_6  and  N4_8 
REMARK    3  A    between atoms: N5_10  and  C3_12 
REMARK    4  A    between atoms: C7_22  and  S2_23 
REMARK    5  A    between atoms: S2_23  and  N8_26 
REMARK    6  A    between atoms: N8_26  and  C8_28 
REMARK    7  A    between atoms: C8_28  and  C9_29 
ROOT
HETATM    1  N1  UNL     1     -60.536 -19.669 -23.232  1.00  0.00    -0.080 NA
HETATM    2  C1  UNL     1     -61.722 -19.831 -22.506  1.00  0.00     0.161 A 
HETATM    3  N2  UNL     1     -62.937 -19.838 -23.069  1.00  0.00    -0.176 N 
ATOM      4  H2  UNL     1     -63.020 -19.720 -24.079  1.00  0.00     0.185 HD
HETATM    5  C2  UNL     1     -64.047 -19.997 -22.333  1.00  0.00     0.702 A 
HETATM    6  N7  UNL     1     -64.010 -20.157 -21.001  1.00  0.00    -0.153 N 
ATOM      7  H7  UNL     1     -64.872 -20.276 -20.468  1.00  0.00     0.187 HD
HETATM    8  C6  UNL     1     -62.822 -20.158 -20.386  1.00  0.00     0.286 A 
HETATM    9  O1  UNL     1     -62.824 -20.312 -19.118  1.00  0.00    -0.266 OA
HETATM   10  C7  UNL     1     -61.670 -19.997 -21.121  1.00  0.00     0.189 A 
ENDROOT
BRANCH   5  11
HETATM   11  N3  UNL     1     -65.200 -20.000 -22.901  1.00  0.00    -0.117 N 
ATOM     12  H3  UNL     1     -65.337 -19.414 -23.724  1.00  0.00     0.207 HD
BRANCH  11  13
HETATM   13  N4  UNL     1     -66.262 -20.758 -22.450  1.00  0.00    -0.226 N 
HETATM   14  N5  UNL     1     -67.390 -20.297 -22.098  1.00  0.00    -0.265 N 
ATOM     15  H5  UNL     1     -68.146 -20.898 -21.772  1.00  0.00     0.190 HD
ATOM     16  H4  UNL     1     -66.130 -21.768 -22.396  1.00  0.00     0.209 HD
BRANCH  14  17
HETATM   17  C3  UNL     1     -67.532 -18.863 -22.191  1.00  0.00     0.164 A 
HETATM   18  N6  UNL     1     -67.214 -17.997 -21.241  1.00  0.00    -0.345 N 
HETATM   19  C4  UNL     1     -67.385 -16.731 -21.437  1.00  0.00     0.097 A 
ATOM     20  H6  UNL     1     -66.834 -18.329 -20.355  1.00  0.00     0.167 HD
HETATM   21  C5  UNL     1     -67.901 -16.335 -22.644  1.00  0.00     0.070 A 
HETATM   22  S1  UNL     1     -68.107 -17.847 -23.433  1.00  0.00    -0.063 SA
ENDBRANCH  14  17
ENDBRANCH  11  13
ENDBRANCH   5  11
BRANCH  10  23
HETATM   23  S2  UNL     1     -60.149 -19.999 -20.276  1.00  0.00     0.268 S 
HETATM   24  O2  UNL     1     -59.091 -20.520 -21.231  1.00  0.00    -0.200 OA
HETATM   25  O3  UNL     1     -60.161 -20.932 -19.103  1.00  0.00    -0.200 OA
BRANCH  23  26
HETATM   26  N8  UNL     1     -59.747 -18.401 -19.835  1.00  0.00    -0.305 N 
ATOM     27  H8  UNL     1     -58.785 -18.082 -19.722  1.00  0.00     0.172 HD
BRANCH  26  28
HETATM   28  C8  UNL     1     -60.876 -17.548 -19.637  1.00  0.00     0.245 C 
BRANCH  28  29
HETATM   29  C9  UNL     1     -61.001 -16.510 -20.689  1.00  0.00     0.191 C 
HETATM   30  O4  UNL     1     -60.244 -16.533 -21.674  1.00  0.00    -0.647 OA
HETATM   31  O5  UNL     1     -61.958 -15.521 -20.570  1.00  0.00    -0.647 OA
ENDBRANCH  28  29
ENDBRANCH  26  28
ENDBRANCH  23  26
ENDBRANCH  10  23
TORSDOF 7
ENDMDL
MODEL 3
REMARK VINA RESULT: -6.297242757      2.969      4.943
REMARK  7 active torsions:
REMARK  status: ('A' for Active; 'I' for Inactive)
REMARK    1  A    between atoms: C2_5  and  N3_6 
REMARK    2  A    between atoms: N3_6  and  N4_8 
REMARK    3  A    between atoms: N5_10  and  C3_12 
REMARK    4  A    between atoms: C7_22  and  S2_23 
REMARK    5  A    between atoms: S2_23  and  N8_26 
REMARK    6  A    between atoms: N8_26  and  C8_28 
REMARK    7  A    between atoms: C8_28  and  C9_29 
ROOT
HETATM    1  N1  UNL     1     -61.387 -18.468 -22.967  1.00  0.00    -0.080 NA
HETATM    2  C1  UNL     1     -62.343 -19.255 -22.315  1.00  0.00     0.161 A 
HETATM    3  N2  UNL     1     -63.269 -19.977 -22.960  1.00  0.00    -0.176 N 
ATOM      4  H2  UNL     1     -63.292 -19.963 -23.979  1.00  0.00     0.185 HD
HETATM    5  C2  UNL     1     -64.167 -20.717 -22.293  1.00  0.00     0.702 A 
HETATM    6  N7  UNL     1     -64.194 -20.780 -20.952  1.00  0.00    -0.153 N 
ATOM      7  H7  UNL     1     -64.889 -21.353 -20.473  1.00  0.00     0.187 HD
HETATM    8  C6  UNL     1     -63.292 -20.079 -20.258  1.00  0.00     0.286 A 
HETATM    9  O1  UNL     1     -63.346 -20.161 -18.984  1.00  0.00    -0.266 OA
HETATM   10  C7  UNL     1     -62.361 -19.312 -20.921  1.00  0.00     0.189 A 
ENDROOT
BRANCH   5  11
HETATM   11  N3  UNL     1     -65.044 -21.401 -22.938  1.00  0.00    -0.117 N 
ATOM     12  H3  UNL     1     -65.079 -21.309 -23.953  1.00  0.00     0.207 HD
BRANCH  11  13
HETATM   13  N4  UNL     1     -65.940 -22.252 -22.324  1.00  0.00    -0.226 N 
HETATM   14  N5  UNL     1     -65.756 -23.493 -22.137  1.00  0.00    -0.265 N 
ATOM     15  H5  UNL     1     -66.449 -24.083 -21.676  1.00  0.00     0.190 HD
ATOM     16  H4  UNL     1     -66.819 -21.853 -21.994  1.00  0.00     0.209 HD
BRANCH  14  17
HETATM   17  C3  UNL     1     -64.499 -24.015 -22.620  1.00  0.00     0.164 A 
HETATM   18  N6  UNL     1     -63.429 -24.250 -21.877  1.00  0.00    -0.345 N 
HETATM   19  C4  UNL     1     -62.356 -24.721 -22.421  1.00  0.00     0.097 A 
ATOM     20  H6  UNL     1     -63.452 -24.060 -20.876  1.00  0.00     0.167 HD
HETATM   21  C5  UNL     1     -62.374 -24.959 -23.771  1.00  0.00     0.070 A 
HETATM   22  S1  UNL     1     -63.973 -24.479 -24.174  1.00  0.00    -0.063 SA
ENDBRANCH  14  17
ENDBRANCH  11  13
ENDBRANCH   5  11
BRANCH  10  23
HETATM   23  S2  UNL     1     -61.211 -18.412 -19.974  1.00  0.00     0.268 S 
HETATM   24  O2  UNL     1     -61.576 -18.591 -18.512  1.00  0.00    -0.200 OA
HETATM   25  O3  UNL     1     -61.283 -16.941 -20.254  1.00  0.00    -0.200 OA
BRANCH  23  26
HETATM   26  N8  UNL     1     -59.650 -19.049 -20.229  1.00  0.00    -0.305 N 
ATOM     27  H8  UNL     1     -58.842 -18.466 -20.451  1.00  0.00     0.172 HD
BRANCH  26  28
HETATM   28  C8  UNL     1     -59.571 -20.470 -20.106  1.00  0.00     0.245 C 
BRANCH  28  29
HETATM   29  C9  UNL     1     -59.260 -21.141 -21.391  1.00  0.00     0.191 C 
HETATM   30  O4  UNL     1     -58.138 -21.000 -21.906  1.00  0.00    -0.647 OA
HETATM   31  O5  UNL     1     -60.217 -21.920 -22.011  1.00  0.00    -0.647 OA
ENDBRANCH  28  29
ENDBRANCH  26  28
ENDBRANCH  23  26
ENDBRANCH  10  23
TORSDOF 7
ENDMDL
MODEL 4
REMARK VINA RESULT: -6.294599531      1.679      3.071
REMARK  7 active torsions:
REMARK  status: ('A' for Active; 'I' for Inactive)
REMARK    1  A    between atoms: C2_5  and  N3_6 
REMARK    2  A    between atoms: N3_6  and  N4_8 
REMARK    3  A    between atoms: N5_10  and  C3_12 
REMARK    4  A    between atoms: C7_22  and  S2_23 
REMARK    5  A    between atoms: S2_23  and  N8_26 
REMARK    6  A    between atoms: N8_26  and  C8_28 
REMARK    7  A    between atoms: C8_28  and  C9_29 
ROOT
HETATM    1  N1  UNL     1     -61.637 -18.063 -22.818  1.00  0.00    -0.080 NA
HETATM    2  C1  UNL     1     -62.677 -18.768 -22.200  1.00  0.00     0.161 A 
HETATM    3  N2  UNL     1     -63.870 -18.975 -22.772  1.00  0.00    -0.176 N 
ATOM      4  H2  UNL     1     -64.047 -18.605 -23.707  1.00  0.00     0.185 HD
HETATM    5  C2  UNL     1     -64.839 -19.658 -22.142  1.00  0.00     0.702 A 
HETATM    6  N7  UNL     1     -64.673 -20.170 -20.913  1.00  0.00    -0.153 N 
ATOM      7  H7  UNL     1     -65.428 -20.685 -20.460  1.00  0.00     0.187 HD
HETATM    8  C6  UNL     1     -63.501 -19.994 -20.295  1.00  0.00     0.286 A 
HETATM    9  O1  UNL     1     -63.378 -20.494 -19.126  1.00  0.00    -0.266 OA
HETATM   10  C7  UNL     1     -62.493 -19.297 -20.922  1.00  0.00     0.189 A 
ENDROOT
BRANCH   5  11
HETATM   11  N3  UNL     1     -65.974 -19.840 -22.716  1.00  0.00    -0.117 N 
ATOM     12  H3  UNL     1     -66.086 -19.529 -23.680  1.00  0.00     0.207 HD
BRANCH  11  13
HETATM   13  N4  UNL     1     -67.049 -20.438 -22.090  1.00  0.00    -0.226 N 
HETATM   14  N5  UNL     1     -68.111 -19.841 -21.737  1.00  0.00    -0.265 N 
ATOM     15  H5  UNL     1     -68.881 -20.327 -21.276  1.00  0.00     0.190 HD
ATOM     16  H4  UNL     1     -66.984 -21.437 -21.895  1.00  0.00     0.209 HD
BRANCH  14  17
HETATM   17  C3  UNL     1     -68.159 -18.428 -22.031  1.00  0.00     0.164 A 
HETATM   18  N6  UNL     1     -67.730 -17.463 -21.233  1.00  0.00    -0.345 N 
HETATM   19  C4  UNL     1     -67.823 -16.229 -21.604  1.00  0.00     0.097 A 
ATOM     20  H6  UNL     1     -67.325 -17.694 -20.326  1.00  0.00     0.167 HD
HETATM   21  C5  UNL     1     -68.376 -15.970 -22.831  1.00  0.00     0.070 A 
HETATM   22  S1  UNL     1     -68.730 -17.558 -23.381  1.00  0.00    -0.063 SA
ENDBRANCH  14  17
ENDBRANCH  11  13
ENDBRANCH   5  11
BRANCH  10  23
HETATM   23  S2  UNL     1     -60.987 -19.088 -20.076  1.00  0.00     0.268 S 
HETATM   24  O2  UNL     1     -61.309 -18.628 -18.666  1.00  0.00    -0.200 OA
HETATM   25  O3  UNL     1     -60.142 -18.014 -20.692  1.00  0.00    -0.200 OA
BRANCH  23  26
HETATM   26  N8  UNL     1     -60.177 -20.587 -19.990  1.00  0.00    -0.305 N 
ATOM     27  H8  UNL     1     -59.674 -20.899 -19.159  1.00  0.00     0.172 HD
BRANCH  26  28
HETATM   28  C8  UNL     1     -60.262 -21.366 -21.183  1.00  0.00     0.245 C 
BRANCH  28  29
HETATM   29  C9  UNL     1     -59.149 -21.097 -22.125  1.00  0.00     0.191 C 
HETATM   30  O4  UNL     1     -59.286 -20.242 -23.016  1.00  0.00    -0.647 OA
HETATM   31  O5  UNL     1     -57.963 -21.797 -22.009  1.00  0.00    -0.647 OA
ENDBRANCH  28  29
ENDBRANCH  26  28
ENDBRANCH  23  26
ENDBRANCH  10  23
TORSDOF 7
ENDMDL
MODEL 5
REMARK VINA RESULT: -6.236469116      1.602      2.609
REMARK  7 active torsions:
REMARK  status: ('A' for Active; 'I' for Inactive)
REMARK    1  A    between atoms: C2_5  and  N3_6 
REMARK    2  A    between atoms: N3_6  and  N4_8 
REMARK    3  A    between atoms: N5_10  and  C3_12 
REMARK    4  A    between atoms: C7_22  and  S2_23 
REMARK    5  A    between atoms: S2_23  and  N8_26 
REMARK    6  A    between atoms: N8_26  and  C8_28 
REMARK    7  A    between atoms: C8_28  and  C9_29 
ROOT
HETATM    1  N1  UNL     1     -63.347 -20.397 -19.054  1.00  0.00    -0.080 NA
HETATM    2  C1  UNL     1     -63.508 -19.846 -20.330  1.00  0.00     0.161 A 
HETATM    3  N2  UNL     1     -64.651 -19.915 -21.025  1.00  0.00    -0.176 N 
ATOM      4  H2  UNL     1     -65.455 -20.392 -20.617  1.00  0.00     0.185 HD
HETATM    5  C2  UNL     1     -64.760 -19.372 -22.247  1.00  0.00     0.702 A 
HETATM    6  N7  UNL     1     -63.742 -18.731 -22.842  1.00  0.00    -0.153 N 
ATOM      7  H7  UNL     1     -63.856 -18.328 -23.772  1.00  0.00     0.187 HD
HETATM    8  C6  UNL     1     -62.577 -18.632 -22.193  1.00  0.00     0.286 A 
HETATM    9  O1  UNL     1     -61.630 -18.017 -22.790  1.00  0.00    -0.266 OA
HETATM   10  C7  UNL     1     -62.442 -19.182 -20.939  1.00  0.00     0.189 A 
ENDROOT
BRANCH   5  11
HETATM   11  N3  UNL     1     -65.870 -19.454 -22.890  1.00  0.00    -0.117 N 
ATOM     12  H3  UNL     1     -65.949 -18.971 -23.785  1.00  0.00     0.207 HD
BRANCH  11  13
HETATM   13  N4  UNL     1     -66.959 -20.164 -22.429  1.00  0.00    -0.226 N 
HETATM   14  N5  UNL     1     -68.036 -19.649 -21.998  1.00  0.00    -0.265 N 
ATOM     15  H5  UNL     1     -68.816 -20.217 -21.667  1.00  0.00     0.190 HD
ATOM     16  H4  UNL     1     -66.895 -21.182 -22.435  1.00  0.00     0.209 HD
BRANCH  14  17
HETATM   17  C3  UNL     1     -68.083 -18.206 -22.007  1.00  0.00     0.164 A 
HETATM   18  N6  UNL     1     -67.680 -17.419 -21.023  1.00  0.00    -0.345 N 
HETATM   19  C4  UNL     1     -67.771 -16.135 -21.143  1.00  0.00     0.097 A 
ATOM     20  H6  UNL     1     -67.298 -17.825 -20.169  1.00  0.00     0.167 HD
HETATM   21  C5  UNL     1     -68.292 -15.638 -22.309  1.00  0.00     0.070 A 
HETATM   22  S1  UNL     1     -68.624 -17.085 -23.172  1.00  0.00    -0.063 SA
ENDBRANCH  14  17
ENDBRANCH  11  13
ENDBRANCH   5  11
BRANCH  10  23
HETATM   23  S2  UNL     1     -60.906 -19.033 -20.136  1.00  0.00     0.268 S 
HETATM   24  O2  UNL     1     -61.168 -18.559 -18.719  1.00  0.00    -0.200 OA
HETATM   25  O3  UNL     1     -60.036 -17.993 -20.778  1.00  0.00    -0.200 OA
BRANCH  23  26
HETATM   26  N8  UNL     1     -60.153 -20.562 -20.071  1.00  0.00    -0.305 N 
ATOM     27  H8  UNL     1     -59.665 -20.905 -19.243  1.00  0.00     0.172 HD
BRANCH  26  28
HETATM   28  C8  UNL     1     -60.265 -21.321 -21.276  1.00  0.00     0.245 C 
BRANCH  28  29
HETATM   29  C9  UNL     1     -59.138 -21.082 -22.210  1.00  0.00     0.191 C 
HETATM   30  O4  UNL     1     -59.262 -20.255 -23.129  1.00  0.00    -0.647 OA
HETATM   31  O5  UNL     1     -57.955 -21.778 -22.056  1.00  0.00    -0.647 OA
ENDBRANCH  28  29
ENDBRANCH  26  28
ENDBRANCH  23  26
ENDBRANCH  10  23
TORSDOF 7
ENDMDL
