MODEL 1
REMARK VINA RESULT: -3.773236202      0.000      0.000
REMARK  2 active torsions:
REMARK  status: ('A' for Active; 'I' for Inactive)
REMARK    1  A    between atoms: C2_2  and  N1_3 
REMARK    2  A    between atoms: N3_12  and  O1_13 
ROOT
HETATM    1  N1  UNL     1      18.468  15.397  52.673  1.00  0.00    -0.224 N 
ATOM      2  H1  UNL     1      18.968  14.702  52.118  1.00  0.00     0.177 HD
HETATM    3  C3  UNL     1      17.699  16.121  51.996  1.00  0.00     0.704 A 
HETATM    4  N2  UNL     1      17.661  15.861  50.654  1.00  0.00    -0.200 N 
ATOM      5  H2  UNL     1      18.245  15.112  50.282  1.00  0.00     0.183 HD
HETATM    6  C4  UNL     1      16.885  16.556  49.808  1.00  0.00     0.108 A 
HETATM    7  C5  UNL     1      16.101  17.568  50.329  1.00  0.00     0.045 A 
HETATM    8  C6  UNL     1      16.113  17.860  51.681  1.00  0.00     0.056 A 
HETATM    9  C7  UNL     1      15.263  18.956  52.241  1.00  0.00     0.071 C 
HETATM   10  N3  UNL     1      16.924  17.110  52.452  1.00  0.00    -0.057 N 
ENDROOT
BRANCH   1  11
HETATM   11  C2  UNL     1      18.779  15.350  54.039  1.00  0.00     0.134 C 
HETATM   12  C1  UNL     1      18.151  14.169  54.782  1.00  0.00     0.027 C 
ENDBRANCH   1  11
BRANCH  10  13
HETATM   13  O1  UNL     1      16.944  17.387  53.782  1.00  0.00    -0.269 OA
ATOM     14  H1  UNL     1      16.915  18.297  54.055  1.00  0.00     0.245 HD
ENDBRANCH  10  13
TORSDOF 2
ENDMDL
MODEL 2
REMARK VINA RESULT: -3.652639413      5.121      6.149
REMARK  2 active torsions:
REMARK  status: ('A' for Active; 'I' for Inactive)
REMARK    1  A    between atoms: C2_2  and  N1_3 
REMARK    2  A    between atoms: N3_12  and  O1_13 
ROOT
HETATM    1  N1  UNL     1      17.414  18.060  57.850  1.00  0.00    -0.224 N 
ATOM      2  H1  UNL     1      18.173  18.706  58.063  1.00  0.00     0.177 HD
HETATM    3  C3  UNL     1      17.801  16.984  57.332  1.00  0.00     0.704 A 
HETATM    4  N2  UNL     1      19.150  16.863  57.145  1.00  0.00    -0.200 N 
ATOM      5  H2  UNL     1      19.756  17.633  57.427  1.00  0.00     0.183 HD
HETATM    6  C4  UNL     1      19.706  15.768  56.601  1.00  0.00     0.108 A 
HETATM    7  C5  UNL     1      18.869  14.735  56.224  1.00  0.00     0.045 A 
HETATM    8  C6  UNL     1      17.500  14.821  56.398  1.00  0.00     0.056 A 
HETATM    9  C7  UNL     1      16.599  13.701  55.988  1.00  0.00     0.071 C 
HETATM   10  N3  UNL     1      17.034  15.958  56.950  1.00  0.00    -0.057 N 
ENDROOT
BRANCH   1  11
HETATM   11  C2  UNL     1      16.147  18.551  58.195  1.00  0.00     0.134 C 
HETATM   12  C1  UNL     1      16.158  19.541  59.363  1.00  0.00     0.027 C 
ENDBRANCH   1  11
BRANCH  10  13
HETATM   13  O1  UNL     1      15.689  16.054  57.127  1.00  0.00    -0.269 OA
ATOM     14  H1  UNL     1      15.119  15.720  56.445  1.00  0.00     0.245 HD
ENDBRANCH  10  13
TORSDOF 2
ENDMDL
MODEL 3
REMARK VINA RESULT: -3.646896263      4.329      5.683
REMARK  2 active torsions:
REMARK  status: ('A' for Active; 'I' for Inactive)
REMARK    1  A    between atoms: C2_2  and  N1_3 
REMARK    2  A    between atoms: N3_12  and  O1_13 
ROOT
HETATM    1  N1  UNL     1      16.521  16.521  58.252  1.00  0.00    -0.224 N 
ATOM      2  H1  UNL     1      15.767  16.076  58.775  1.00  0.00     0.177 HD
HETATM    3  C3  UNL     1      16.952  15.825  57.302  1.00  0.00     0.704 A 
HETATM    4  N2  UNL     1      16.349  14.609  57.131  1.00  0.00    -0.200 N 
ATOM      5  H2  UNL     1      15.599  14.339  57.768  1.00  0.00     0.183 HD
HETATM    6  C4  UNL     1      16.706  13.759  56.156  1.00  0.00     0.108 A 
HETATM    7  C5  UNL     1      17.724  14.142  55.302  1.00  0.00     0.045 A 
HETATM    8  C6  UNL     1      18.358  15.362  55.444  1.00  0.00     0.056 A 
HETATM    9  C7  UNL     1      19.458  15.772  54.519  1.00  0.00     0.071 C 
HETATM   10  N3  UNL     1      17.931  16.148  56.452  1.00  0.00    -0.057 N 
ENDROOT
BRANCH   1  11
HETATM   11  C2  UNL     1      16.868  17.789  58.740  1.00  0.00     0.134 C 
HETATM   12  C1  UNL     1      15.970  18.920  58.233  1.00  0.00     0.027 C 
ENDBRANCH   1  11
BRANCH  10  13
HETATM   13  O1  UNL     1      18.546  17.351  56.601  1.00  0.00    -0.269 OA
ATOM     14  H1  UNL     1      18.354  18.038  55.974  1.00  0.00     0.245 HD
ENDBRANCH  10  13
TORSDOF 2
ENDMDL
MODEL 4
REMARK VINA RESULT: -3.600662570      4.389      5.578
REMARK  2 active torsions:
REMARK  status: ('A' for Active; 'I' for Inactive)
REMARK    1  A    between atoms: C2_2  and  N1_3 
REMARK    2  A    between atoms: N3_12  and  O1_13 
ROOT
HETATM    1  N1  UNL     1      16.600  14.939  57.244  1.00  0.00    -0.224 N 
ATOM      2  H1  UNL     1      16.440  14.424  58.109  1.00  0.00     0.177 HD
HETATM    3  C3  UNL     1      16.729  16.176  57.413  1.00  0.00     0.704 A 
HETATM    4  N2  UNL     1      16.633  16.615  58.705  1.00  0.00    -0.200 N 
ATOM      5  H2  UNL     1      16.467  15.933  59.445  1.00  0.00     0.183 HD
HETATM    6  C4  UNL     1      16.750  17.911  59.035  1.00  0.00     0.108 A 
HETATM    7  C5  UNL     1      16.975  18.821  58.020  1.00  0.00     0.045 A 
HETATM    8  C6  UNL     1      17.077  18.415  56.702  1.00  0.00     0.056 A 
HETATM    9  C7  UNL     1      17.320  19.404  55.607  1.00  0.00     0.071 C 
HETATM   10  N3  UNL     1      16.946  17.095  56.467  1.00  0.00    -0.057 N 
ENDROOT
BRANCH   1  11
HETATM   11  C2  UNL     1      16.634  14.124  56.104  1.00  0.00     0.134 C 
HETATM   12  C1  UNL     1      18.030  13.608  55.746  1.00  0.00     0.027 C 
ENDBRANCH   1  11
BRANCH  10  13
HETATM   13  O1  UNL     1      17.045  16.684  55.175  1.00  0.00    -0.269 OA
ATOM     14  H1  UNL     1      16.462  17.070  54.532  1.00  0.00     0.245 HD
ENDBRANCH  10  13
TORSDOF 2
ENDMDL
MODEL 5
REMARK VINA RESULT: -3.571098409      5.421      6.611
REMARK  2 active torsions:
REMARK  status: ('A' for Active; 'I' for Inactive)
REMARK    1  A    between atoms: C2_2  and  N1_3 
REMARK    2  A    between atoms: N3_12  and  O1_13 
ROOT
HETATM    1  N1  UNL     1      16.493  17.508  59.084  1.00  0.00    -0.224 N 
ATOM      2  H1  UNL     1      15.561  17.222  59.386  1.00  0.00     0.177 HD
HETATM    3  C3  UNL     1      16.993  16.750  58.218  1.00  0.00     0.704 A 
HETATM    4  N2  UNL     1      16.221  15.690  57.833  1.00  0.00    -0.200 N 
ATOM      5  H2  UNL     1      15.301  15.572  58.258  1.00  0.00     0.183 HD
HETATM    6  C4  UNL     1      16.627  14.797  56.917  1.00  0.00     0.108 A 
HETATM    7  C5  UNL     1      17.877  14.972  56.351  1.00  0.00     0.045 A 
HETATM    8  C6  UNL     1      18.687  16.032  56.716  1.00  0.00     0.056 A 
HETATM    9  C7  UNL     1      20.037  16.216  56.102  1.00  0.00     0.071 C 
HETATM   10  N3  UNL     1      18.194  16.875  57.644  1.00  0.00    -0.057 N 
ENDROOT
BRANCH   1  11
HETATM   11  C2  UNL     1      16.956  18.668  59.720  1.00  0.00     0.134 C 
HETATM   12  C1  UNL     1      16.018  19.871  59.586  1.00  0.00     0.027 C 
ENDBRANCH   1  11
BRANCH  10  13
HETATM   13  O1  UNL     1      18.981  17.921  58.010  1.00  0.00    -0.269 OA
ATOM     14  H1  UNL     1      18.772  18.784  57.671  1.00  0.00     0.245 HD
ENDBRANCH  10  13
TORSDOF 2
ENDMDL
