MODEL 1
REMARK VINA RESULT: -4.033006292      0.000      0.000
REMARK  3 active torsions:
REMARK  status: ('A' for Active; 'I' for Inactive)
REMARK    1  A    between atoms: C2_2  and  N1_4 
REMARK    2  A    between atoms: N1_4  and  C4_6 
REMARK    3  A    between atoms: N3_12  and  O1_13 
ROOT
HETATM    1  C4  UNL     1      17.472  16.372  56.779  1.00  0.00     0.704 A 
HETATM    2  N2  UNL     1      18.100  16.276  55.574  1.00  0.00    -0.200 N 
ATOM      3  H2  UNL     1      18.569  17.103  55.205  1.00  0.00     0.183 HD
HETATM    4  C5  UNL     1      18.133  15.150  54.851  1.00  0.00     0.107 A 
HETATM    5  C6  UNL     1      17.497  14.032  55.349  1.00  0.00     0.038 A 
HETATM    6  C7  UNL     1      16.863  14.116  56.559  1.00  0.00     0.143 A 
HETATM    7  N3  UNL     1      16.865  15.276  57.240  1.00  0.00    -0.064 N 
ENDROOT
BRANCH   1   8
HETATM    8  N1  UNL     1      17.514  17.480  57.356  1.00  0.00    -0.220 N 
ATOM      9  H1  UNL     1      18.290  17.557  58.014  1.00  0.00     0.178 HD
BRANCH   8  10
HETATM   10  C2  UNL     1      16.719  18.649  57.294  1.00  0.00     0.091 C 
HETATM   11  C1  UNL     1      16.250  19.077  58.702  1.00  0.00     0.032 C 
HETATM   12  C3  UNL     1      15.435  18.354  56.507  1.00  0.00     0.032 C 
ENDBRANCH   8  10
ENDBRANCH   1   8
BRANCH   7  13
HETATM   13  O1  UNL     1      16.195  15.277  58.465  1.00  0.00    -0.270 OA
ATOM     14  H1  UNL     1      15.258  15.426  58.517  1.00  0.00     0.245 HD
ENDBRANCH   7  13
TORSDOF 3
ENDMDL
MODEL 2
REMARK VINA RESULT: -3.953642920      1.564      4.057
REMARK  3 active torsions:
REMARK  status: ('A' for Active; 'I' for Inactive)
REMARK    1  A    between atoms: C2_2  and  N1_4 
REMARK    2  A    between atoms: N1_4  and  C4_6 
REMARK    3  A    between atoms: N3_12  and  O1_13 
ROOT
HETATM    1  C4  UNL     1      17.690  16.324  56.857  1.00  0.00     0.704 A 
HETATM    2  N2  UNL     1      18.942  16.653  57.281  1.00  0.00    -0.200 N 
ATOM      3  H2  UNL     1      19.739  16.352  56.721  1.00  0.00     0.183 HD
HETATM    4  C5  UNL     1      19.179  17.353  58.398  1.00  0.00     0.107 A 
HETATM    5  C6  UNL     1      18.102  17.761  59.157  1.00  0.00     0.038 A 
HETATM    6  C7  UNL     1      16.839  17.436  58.741  1.00  0.00     0.143 A 
HETATM    7  N3  UNL     1      16.664  16.730  57.609  1.00  0.00    -0.064 N 
ENDROOT
BRANCH   1   8
HETATM    8  N1  UNL     1      17.603  15.668  55.798  1.00  0.00    -0.220 N 
ATOM      9  H1  UNL     1      16.704  15.784  55.330  1.00  0.00     0.178 HD
BRANCH   8  10
HETATM   10  C2  UNL     1      18.480  14.799  55.107  1.00  0.00     0.091 C 
HETATM   11  C1  UNL     1      18.490  15.108  53.594  1.00  0.00     0.032 C 
HETATM   12  C3  UNL     1      17.972  13.356  55.227  1.00  0.00     0.032 C 
ENDBRANCH   8  10
ENDBRANCH   1   8
BRANCH   7  13
HETATM   13  O1  UNL     1      15.345  16.441  57.256  1.00  0.00    -0.270 OA
ATOM     14  H1  UNL     1      15.133  16.027  56.427  1.00  0.00     0.245 HD
ENDBRANCH   7  13
TORSDOF 3
ENDMDL
MODEL 3
REMARK VINA RESULT: -3.939095629      0.997      1.472
REMARK  3 active torsions:
REMARK  status: ('A' for Active; 'I' for Inactive)
REMARK    1  A    between atoms: C2_2  and  N1_4 
REMARK    2  A    between atoms: N1_4  and  C4_6 
REMARK    3  A    between atoms: N3_12  and  O1_13 
ROOT
HETATM    1  C4  UNL     1      17.244  16.391  56.640  1.00  0.00     0.704 A 
HETATM    2  N2  UNL     1      17.866  16.307  55.431  1.00  0.00    -0.200 N 
ATOM      3  H2  UNL     1      18.208  17.165  55.001  1.00  0.00     0.183 HD
HETATM    4  C5  UNL     1      18.050  15.152  54.780  1.00  0.00     0.107 A 
HETATM    5  C6  UNL     1      17.587  13.989  55.360  1.00  0.00     0.038 A 
HETATM    6  C7  UNL     1      16.960  14.062  56.576  1.00  0.00     0.143 A 
HETATM    7  N3  UNL     1      16.804  15.253  57.182  1.00  0.00    -0.064 N 
ENDROOT
BRANCH   1   8
HETATM    8  N1  UNL     1      17.134  17.529  57.144  1.00  0.00    -0.220 N 
ATOM      9  H1  UNL     1      16.317  18.038  56.807  1.00  0.00     0.178 HD
BRANCH   8  10
HETATM   10  C2  UNL     1      17.898  18.263  58.082  1.00  0.00     0.091 C 
HETATM   11  C1  UNL     1      19.089  17.429  58.603  1.00  0.00     0.032 C 
HETATM   12  C3  UNL     1      17.038  18.565  59.317  1.00  0.00     0.032 C 
ENDBRANCH   8  10
ENDBRANCH   1   8
BRANCH   7  13
HETATM   13  O1  UNL     1      16.155  15.239  58.417  1.00  0.00    -0.270 OA
ATOM     14  H1  UNL     1      16.495  14.739  59.150  1.00  0.00     0.245 HD
ENDBRANCH   7  13
TORSDOF 3
ENDMDL
MODEL 4
REMARK VINA RESULT: -3.918357547      1.141      4.013
REMARK  3 active torsions:
REMARK  status: ('A' for Active; 'I' for Inactive)
REMARK    1  A    between atoms: C2_2  and  N1_4 
REMARK    2  A    between atoms: N1_4  and  C4_6 
REMARK    3  A    between atoms: N3_12  and  O1_13 
ROOT
HETATM    1  C4  UNL     1      16.965  16.686  56.810  1.00  0.00     0.704 A 
HETATM    2  N2  UNL     1      17.168  17.817  56.077  1.00  0.00    -0.200 N 
ATOM      3  H2  UNL     1      17.445  17.719  55.101  1.00  0.00     0.183 HD
HETATM    4  C5  UNL     1      17.021  19.050  56.576  1.00  0.00     0.107 A 
HETATM    5  C6  UNL     1      16.647  19.184  57.897  1.00  0.00     0.038 A 
HETATM    6  C7  UNL     1      16.439  18.055  58.643  1.00  0.00     0.143 A 
HETATM    7  N3  UNL     1      16.603  16.841  58.085  1.00  0.00    -0.064 N 
ENDROOT
BRANCH   1   8
HETATM    8  N1  UNL     1      17.135  15.594  56.228  1.00  0.00    -0.220 N 
ATOM      9  H1  UNL     1      16.321  14.981  56.284  1.00  0.00     0.178 HD
BRANCH   8  10
HETATM   10  C2  UNL     1      18.211  15.023  55.508  1.00  0.00     0.091 C 
HETATM   11  C1  UNL     1      17.966  13.522  55.241  1.00  0.00     0.032 C 
HETATM   12  C3  UNL     1      19.486  15.085  56.359  1.00  0.00     0.032 C 
ENDBRANCH   8  10
ENDBRANCH   1   8
BRANCH   7  13
HETATM   13  O1  UNL     1      16.373  15.742  58.914  1.00  0.00    -0.270 OA
ATOM     14  H1  UNL     1      16.836  14.922  58.790  1.00  0.00     0.245 HD
ENDBRANCH   7  13
TORSDOF 3
ENDMDL
MODEL 5
REMARK VINA RESULT: -3.829729738      1.003      1.194
REMARK  3 active torsions:
REMARK  status: ('A' for Active; 'I' for Inactive)
REMARK    1  A    between atoms: C2_2  and  N1_4 
REMARK    2  A    between atoms: N1_4  and  C4_6 
REMARK    3  A    between atoms: N3_12  and  O1_13 
ROOT
HETATM    1  C4  UNL     1      17.277  16.379  56.638  1.00  0.00     0.704 A 
HETATM    2  N2  UNL     1      17.901  16.299  55.430  1.00  0.00    -0.200 N 
ATOM      3  H2  UNL     1      18.259  17.157  55.012  1.00  0.00     0.183 HD
HETATM    4  C5  UNL     1      18.066  15.150  54.764  1.00  0.00     0.107 A 
HETATM    5  C6  UNL     1      17.581  13.989  55.328  1.00  0.00     0.038 A 
HETATM    6  C7  UNL     1      16.952  14.057  56.543  1.00  0.00     0.143 A 
HETATM    7  N3  UNL     1      16.816  15.242  57.164  1.00  0.00    -0.064 N 
ENDROOT
BRANCH   1   8
HETATM    8  N1  UNL     1      17.186  17.512  57.157  1.00  0.00    -0.220 N 
ATOM      9  H1  UNL     1      16.456  18.087  56.735  1.00  0.00     0.178 HD
BRANCH   8  10
HETATM   10  C2  UNL     1      17.875  18.169  58.204  1.00  0.00     0.091 C 
HETATM   11  C1  UNL     1      16.904  18.595  59.327  1.00  0.00     0.032 C 
HETATM   12  C3  UNL     1      18.486  19.473  57.674  1.00  0.00     0.032 C 
ENDBRANCH   8  10
ENDBRANCH   1   8
BRANCH   7  13
HETATM   13  O1  UNL     1      16.162  15.224  58.397  1.00  0.00    -0.270 OA
ATOM     14  H1  UNL     1      15.276  14.894  58.484  1.00  0.00     0.245 HD
ENDBRANCH   7  13
TORSDOF 3
ENDMDL
