MODEL 1
REMARK VINA RESULT: -6.385743923      0.000      0.000
REMARK  11 active torsions:
REMARK  status: ('A' for Active; 'I' for Inactive)
REMARK    1  A    between atoms: C2_2  and  C3_3 
REMARK    2  A    between atoms: C3_3  and  C4_4 
REMARK    3  A    between atoms: C4_4  and  C5_5 
REMARK    4  A    between atoms: C7_10  and  C8_11 
REMARK    5  A    between atoms: C8_11  and  C9_12 
REMARK    6  A    between atoms: C9_12  and  C10_13 
REMARK    7  A    between atoms: C10_13  and  N2_14 
REMARK    8  A    between atoms: C14_23  and  C15_24 
REMARK    9  A    between atoms: C15_24  and  C17_26 
REMARK   10  A    between atoms: C20_32  and  C21_33 
REMARK   11  A    between atoms: C21_33  and  C22_34 
ROOT
HETATM    1  C5  UNL     1      17.482 -18.145  22.716  1.00  0.00     0.171 C 
HETATM    2  C6  UNL     1      18.708 -18.960  22.782  1.00  0.00     0.240 C 
HETATM    3  O1  UNL     1      18.479 -20.226  22.617  1.00  0.00    -0.271 OA
HETATM    4  N1  UNL     1      20.021 -18.597  22.987  1.00  0.00    -0.346 N 
ATOM      5  H1  UNL     1      20.476 -19.111  23.742  1.00  0.00     0.163 HD
HETATM    6  C7  UNL     1      20.876 -17.633  22.343  1.00  0.00     0.176 C 
HETATM    7  C12 UNL     1      21.811 -16.991  23.330  1.00  0.00     0.243 C 
HETATM    8  O2  UNL     1      23.055 -17.108  23.065  1.00  0.00    -0.271 OA
HETATM    9  N5  UNL     1      21.431 -16.282  24.504  1.00  0.00    -0.341 N 
HETATM   10  C13 UNL     1      22.292 -16.535  25.643  1.00  0.00     0.153 C 
HETATM   11  C14 UNL     1      20.279 -15.413  24.479  1.00  0.00     0.182 C 
HETATM   12  C19 UNL     1      20.507 -14.169  23.681  1.00  0.00     0.241 C 
HETATM   13  O3  UNL     1      21.761 -13.859  23.613  1.00  0.00    -0.271 OA
HETATM   14  N6  UNL     1      19.613 -13.343  23.042  1.00  0.00    -0.346 N 
ATOM     15  H6  UNL     1      19.603 -12.398  23.426  1.00  0.00     0.163 HD
HETATM   16  C20 UNL     1      18.687 -13.514  21.953  1.00  0.00     0.177 C 
HETATM   17  C25 UNL     1      17.327 -13.857  22.334  1.00  0.00     0.240 C 
HETATM   18  O4  UNL     1      16.980 -13.682  23.536  1.00  0.00    -0.271 OA
HETATM   19  N7  UNL     1      16.344 -14.374  21.474  1.00  0.00    -0.358 N 
ATOM     20  H7  UNL     1      15.436 -13.908  21.488  1.00  0.00     0.162 HD
HETATM   21  C26 UNL     1      16.483 -15.502  20.567  1.00  0.00     0.142 C 
HETATM   22  C27 UNL     1      17.492 -16.493  20.982  1.00  0.00     0.136 C 
HETATM   23  N8  UNL     1      17.034 -17.786  21.404  1.00  0.00    -0.403 N 
HETATM   24  C28 UNL     1      15.712 -18.136  21.055  1.00  0.00     0.144 C 
ENDROOT
BRANCH   6  25
HETATM   25  C8  UNL     1      21.721 -18.262  21.233  1.00  0.00     0.036 C 
BRANCH  25  26
HETATM   26  C9  UNL     1      21.832 -19.736  21.309  1.00  0.00     0.022 C 
BRANCH  26  27
HETATM   27  C10 UNL     1      21.421 -20.373  19.989  1.00  0.00     0.122 C 
BRANCH  27  28
HETATM   28  N2  UNL     1      20.003 -20.279  19.880  1.00  0.00    -0.367 N 
HETATM   29  C11 UNL     1      19.306 -20.296  18.804  1.00  0.00     0.196 C 
HETATM   30  N3  UNL     1      17.898 -20.191  18.904  1.00  0.00    -0.067 NA
HETATM   31  N4  UNL     1      19.914 -20.414  17.536  1.00  0.00    -0.067 NA
ATOM     32  H2  UNL     1      19.486 -20.187  20.755  1.00  0.00     0.161 HD
ENDBRANCH  27  28
ENDBRANCH  26  27
ENDBRANCH  25  26
ENDBRANCH   6  25
BRANCH   1  33
HETATM   33  C4  UNL     1      16.307 -18.815  23.436  1.00  0.00     0.034 C 
BRANCH  33  34
HETATM   34  C3  UNL     1      16.205 -18.258  24.860  1.00  0.00     0.002 C 
BRANCH  34  35
HETATM   35  C2  UNL     1      16.079 -19.373  25.864  1.00  0.00    -0.004 C 
HETATM   36  C1  UNL     1      17.366 -20.096  26.115  1.00  0.00     0.005 C 
ENDBRANCH  34  35
ENDBRANCH  33  34
ENDBRANCH   1  33
BRANCH  11  37
HETATM   37  C15 UNL     1      19.822 -14.998  25.850  1.00  0.00     0.013 C 
HETATM   38  C16 UNL     1      20.257 -13.665  26.311  1.00  0.00     0.012 C 
BRANCH  37  39
HETATM   39  C17 UNL     1      18.454 -15.463  26.232  1.00  0.00     0.002 C 
HETATM   40  C18 UNL     1      18.525 -16.688  27.150  1.00  0.00     0.005 C 
ENDBRANCH  37  39
ENDBRANCH  11  37
BRANCH  16  41
HETATM   41  C21 UNL     1      18.531 -12.146  21.229  1.00  0.00     0.038 C 
BRANCH  41  42
HETATM   42  C22 UNL     1      19.114 -12.210  19.844  1.00  0.00    -0.020 C 
HETATM   43  C23 UNL     1      17.924 -12.388  18.901  1.00  0.00     0.009 C 
HETATM   44  C24 UNL     1      20.029 -13.385  19.629  1.00  0.00     0.009 C 
ENDBRANCH  41  42
ENDBRANCH  16  41
TORSDOF 11
ENDMDL
MODEL 2
REMARK VINA RESULT: -6.212104644      1.614      2.212
REMARK  11 active torsions:
REMARK  status: ('A' for Active; 'I' for Inactive)
REMARK    1  A    between atoms: C2_2  and  C3_3 
REMARK    2  A    between atoms: C3_3  and  C4_4 
REMARK    3  A    between atoms: C4_4  and  C5_5 
REMARK    4  A    between atoms: C7_10  and  C8_11 
REMARK    5  A    between atoms: C8_11  and  C9_12 
REMARK    6  A    between atoms: C9_12  and  C10_13 
REMARK    7  A    between atoms: C10_13  and  N2_14 
REMARK    8  A    between atoms: C14_23  and  C15_24 
REMARK    9  A    between atoms: C15_24  and  C17_26 
REMARK   10  A    between atoms: C20_32  and  C21_33 
REMARK   11  A    between atoms: C21_33  and  C22_34 
ROOT
HETATM    1  C5  UNL     1      17.488 -18.141  22.717  1.00  0.00     0.171 C 
HETATM    2  C6  UNL     1      18.718 -18.950  22.780  1.00  0.00     0.240 C 
HETATM    3  O1  UNL     1      18.496 -20.216  22.612  1.00  0.00    -0.271 OA
HETATM    4  N1  UNL     1      20.030 -18.581  22.985  1.00  0.00    -0.346 N 
ATOM      5  H1  UNL     1      20.488 -19.095  23.738  1.00  0.00     0.163 HD
HETATM    6  C7  UNL     1      20.879 -17.611  22.343  1.00  0.00     0.176 C 
HETATM    7  C12 UNL     1      21.812 -16.967  23.331  1.00  0.00     0.243 C 
HETATM    8  O2  UNL     1      23.056 -17.077  23.064  1.00  0.00    -0.271 OA
HETATM    9  N5  UNL     1      21.429 -16.263  24.506  1.00  0.00    -0.341 N 
HETATM   10  C13 UNL     1      22.292 -16.515  25.644  1.00  0.00     0.153 C 
HETATM   11  C14 UNL     1      20.273 -15.400  24.485  1.00  0.00     0.182 C 
HETATM   12  C19 UNL     1      20.494 -14.152  23.690  1.00  0.00     0.241 C 
HETATM   13  O3  UNL     1      21.746 -13.836  23.622  1.00  0.00    -0.271 OA
HETATM   14  N6  UNL     1      19.595 -13.329  23.055  1.00  0.00    -0.346 N 
ATOM     15  H6  UNL     1      19.581 -12.385  23.441  1.00  0.00     0.163 HD
HETATM   16  C20 UNL     1      18.669 -13.502  21.966  1.00  0.00     0.177 C 
HETATM   17  C25 UNL     1      17.311 -13.853  22.347  1.00  0.00     0.240 C 
HETATM   18  O4  UNL     1      16.965 -13.682  23.550  1.00  0.00    -0.271 OA
HETATM   19  N7  UNL     1      16.330 -14.372  21.487  1.00  0.00    -0.358 N 
ATOM     20  H7  UNL     1      15.420 -13.911  21.502  1.00  0.00     0.162 HD
HETATM   21  C26 UNL     1      16.473 -15.498  20.576  1.00  0.00     0.142 C 
HETATM   22  C27 UNL     1      17.488 -16.484  20.987  1.00  0.00     0.136 C 
HETATM   23  N8  UNL     1      17.037 -17.781  21.406  1.00  0.00    -0.403 N 
HETATM   24  C28 UNL     1      15.717 -18.137  21.058  1.00  0.00     0.144 C 
ENDROOT
BRANCH   6  25
HETATM   25  C8  UNL     1      21.726 -18.233  21.230  1.00  0.00     0.036 C 
BRANCH  25  26
HETATM   26  C9  UNL     1      21.802 -19.711  21.272  1.00  0.00     0.022 C 
BRANCH  26  27
HETATM   27  C10 UNL     1      23.205 -20.185  20.922  1.00  0.00     0.122 C 
BRANCH  27  28
HETATM   28  N2  UNL     1      24.133 -19.256  21.476  1.00  0.00    -0.367 N 
HETATM   29  C11 UNL     1      25.393 -19.194  21.254  1.00  0.00     0.196 C 
HETATM   30  N3  UNL     1      26.151 -18.190  21.904  1.00  0.00    -0.067 NA
HETATM   31  N4  UNL     1      26.033 -20.101  20.382  1.00  0.00    -0.067 NA
ATOM     32  H2  UNL     1      23.751 -18.565  22.123  1.00  0.00     0.161 HD
ENDBRANCH  27  28
ENDBRANCH  26  27
ENDBRANCH  25  26
ENDBRANCH   6  25
BRANCH   1  33
HETATM   33  C4  UNL     1      16.317 -18.818  23.436  1.00  0.00     0.034 C 
BRANCH  33  34
HETATM   34  C3  UNL     1      16.201 -18.252  24.856  1.00  0.00     0.002 C 
BRANCH  34  35
HETATM   35  C2  UNL     1      16.079 -19.360  25.867  1.00  0.00    -0.004 C 
HETATM   36  C1  UNL     1      17.367 -20.080  26.119  1.00  0.00     0.005 C 
ENDBRANCH  34  35
ENDBRANCH  33  34
ENDBRANCH   1  33
BRANCH  11  37
HETATM   37  C15 UNL     1      19.815 -14.991  25.858  1.00  0.00     0.013 C 
HETATM   38  C16 UNL     1      20.252 -13.661  26.326  1.00  0.00     0.012 C 
BRANCH  37  39
HETATM   39  C17 UNL     1      18.445 -15.455  26.235  1.00  0.00     0.002 C 
HETATM   40  C18 UNL     1      18.512 -16.687  27.145  1.00  0.00     0.005 C 
ENDBRANCH  37  39
ENDBRANCH  11  37
BRANCH  16  41
HETATM   41  C21 UNL     1      18.506 -12.133  21.246  1.00  0.00     0.038 C 
BRANCH  41  42
HETATM   42  C22 UNL     1      19.091 -12.189  19.861  1.00  0.00    -0.020 C 
HETATM   43  C23 UNL     1      17.905 -12.386  18.917  1.00  0.00     0.009 C 
HETATM   44  C24 UNL     1      20.023 -13.350  19.648  1.00  0.00     0.009 C 
ENDBRANCH  41  42
ENDBRANCH  16  41
TORSDOF 11
ENDMDL
MODEL 3
REMARK VINA RESULT: -6.116886152      1.046      1.385
REMARK  11 active torsions:
REMARK  status: ('A' for Active; 'I' for Inactive)
REMARK    1  A    between atoms: C2_2  and  C3_3 
REMARK    2  A    between atoms: C3_3  and  C4_4 
REMARK    3  A    between atoms: C4_4  and  C5_5 
REMARK    4  A    between atoms: C7_10  and  C8_11 
REMARK    5  A    between atoms: C8_11  and  C9_12 
REMARK    6  A    between atoms: C9_12  and  C10_13 
REMARK    7  A    between atoms: C10_13  and  N2_14 
REMARK    8  A    between atoms: C14_23  and  C15_24 
REMARK    9  A    between atoms: C15_24  and  C17_26 
REMARK   10  A    between atoms: C20_32  and  C21_33 
REMARK   11  A    between atoms: C21_33  and  C22_34 
ROOT
HETATM    1  C5  UNL     1      17.501 -18.126  22.815  1.00  0.00     0.171 C 
HETATM    2  C6  UNL     1      18.727 -18.941  22.890  1.00  0.00     0.240 C 
HETATM    3  O1  UNL     1      18.497 -20.208  22.741  1.00  0.00    -0.271 OA
HETATM    4  N1  UNL     1      20.040 -18.575  23.090  1.00  0.00    -0.346 N 
ATOM      5  H1  UNL     1      20.495 -19.080  23.851  1.00  0.00     0.163 HD
HETATM    6  C7  UNL     1      20.895 -17.619  22.433  1.00  0.00     0.176 C 
HETATM    7  C12 UNL     1      21.830 -16.965  23.411  1.00  0.00     0.243 C 
HETATM    8  O2  UNL     1      23.074 -17.086  23.147  1.00  0.00    -0.271 OA
HETATM    9  N5  UNL     1      21.451 -16.241  24.576  1.00  0.00    -0.341 N 
HETATM   10  C13 UNL     1      22.313 -16.481  25.718  1.00  0.00     0.153 C 
HETATM   11  C14 UNL     1      20.299 -15.373  24.541  1.00  0.00     0.182 C 
HETATM   12  C19 UNL     1      20.527 -14.139  23.727  1.00  0.00     0.241 C 
HETATM   13  O3  UNL     1      21.781 -13.830  23.655  1.00  0.00    -0.271 OA
HETATM   14  N6  UNL     1      19.633 -13.321  23.079  1.00  0.00    -0.346 N 
ATOM     15  H6  UNL     1      19.623 -12.371  23.451  1.00  0.00     0.163 HD
HETATM   16  C20 UNL     1      18.706 -13.506  21.993  1.00  0.00     0.177 C 
HETATM   17  C25 UNL     1      17.347 -13.843  22.379  1.00  0.00     0.240 C 
HETATM   18  O4  UNL     1      17.000 -13.652  23.579  1.00  0.00    -0.271 OA
HETATM   19  N7  UNL     1      16.362 -14.371  21.526  1.00  0.00    -0.358 N 
ATOM     20  H7  UNL     1      15.455 -13.905  21.535  1.00  0.00     0.162 HD
HETATM   21  C26 UNL     1      16.500 -15.510  20.633  1.00  0.00     0.142 C 
HETATM   22  C27 UNL     1      17.510 -16.496  21.060  1.00  0.00     0.136 C 
HETATM   23  N8  UNL     1      17.052 -17.784  21.498  1.00  0.00    -0.403 N 
HETATM   24  C28 UNL     1      15.730 -18.138  21.155  1.00  0.00     0.144 C 
ENDROOT
BRANCH   6  25
HETATM   25  C8  UNL     1      21.738 -18.262  21.330  1.00  0.00     0.036 C 
BRANCH  25  26
HETATM   26  C9  UNL     1      20.972 -19.107  20.387  1.00  0.00     0.022 C 
BRANCH  26  27
HETATM   27  C10 UNL     1      21.537 -20.520  20.352  1.00  0.00     0.122 C 
BRANCH  27  28
HETATM   28  N2  UNL     1      22.853 -20.452  19.809  1.00  0.00    -0.367 N 
HETATM   29  C11 UNL     1      23.201 -20.661  18.594  1.00  0.00     0.196 C 
HETATM   30  N3  UNL     1      24.568 -20.543  18.247  1.00  0.00    -0.067 NA
HETATM   31  N4  UNL     1      22.253 -21.006  17.606  1.00  0.00    -0.067 NA
ATOM     32  H2  UNL     1      23.600 -20.211  20.461  1.00  0.00     0.161 HD
ENDBRANCH  27  28
ENDBRANCH  26  27
ENDBRANCH  25  26
ENDBRANCH   6  25
BRANCH   1  33
HETATM   33  C4  UNL     1      16.326 -18.786  23.544  1.00  0.00     0.034 C 
BRANCH  33  34
HETATM   34  C3  UNL     1      16.262 -18.256  24.980  1.00  0.00     0.002 C 
BRANCH  34  35
HETATM   35  C2  UNL     1      16.128 -19.388  25.964  1.00  0.00    -0.004 C 
HETATM   36  C1  UNL     1      17.417 -20.102  26.229  1.00  0.00     0.005 C 
ENDBRANCH  34  35
ENDBRANCH  33  34
ENDBRANCH   1  33
BRANCH  11  37
HETATM   37  C15 UNL     1      19.843 -14.940  25.908  1.00  0.00     0.013 C 
HETATM   38  C16 UNL     1      20.274 -13.599  26.349  1.00  0.00     0.012 C 
BRANCH  37  39
HETATM   39  C17 UNL     1      18.477 -15.405  26.298  1.00  0.00     0.002 C 
HETATM   40  C18 UNL     1      18.553 -16.656  27.181  1.00  0.00     0.005 C 
ENDBRANCH  37  39
ENDBRANCH  11  37
BRANCH  16  41
HETATM   41  C21 UNL     1      18.550 -12.147  21.252  1.00  0.00     0.038 C 
BRANCH  41  42
HETATM   42  C22 UNL     1      19.133 -12.227  19.868  1.00  0.00    -0.020 C 
HETATM   43  C23 UNL     1      17.944 -12.432  18.928  1.00  0.00     0.009 C 
HETATM   44  C24 UNL     1      20.057 -13.397  19.671  1.00  0.00     0.009 C 
ENDBRANCH  41  42
ENDBRANCH  16  41
TORSDOF 11
ENDMDL
MODEL 4
REMARK VINA RESULT: -6.048314231      1.083      1.533
REMARK  11 active torsions:
REMARK  status: ('A' for Active; 'I' for Inactive)
REMARK    1  A    between atoms: C2_2  and  C3_3 
REMARK    2  A    between atoms: C3_3  and  C4_4 
REMARK    3  A    between atoms: C4_4  and  C5_5 
REMARK    4  A    between atoms: C7_10  and  C8_11 
REMARK    5  A    between atoms: C8_11  and  C9_12 
REMARK    6  A    between atoms: C9_12  and  C10_13 
REMARK    7  A    between atoms: C10_13  and  N2_14 
REMARK    8  A    between atoms: C14_23  and  C15_24 
REMARK    9  A    between atoms: C15_24  and  C17_26 
REMARK   10  A    between atoms: C20_32  and  C21_33 
REMARK   11  A    between atoms: C21_33  and  C22_34 
ROOT
HETATM    1  C5  UNL     1      17.387 -18.064  22.863  1.00  0.00     0.171 C 
HETATM    2  C6  UNL     1      18.596 -18.904  22.921  1.00  0.00     0.240 C 
HETATM    3  O1  UNL     1      18.337 -20.167  22.786  1.00  0.00    -0.271 OA
HETATM    4  N1  UNL     1      19.921 -18.566  23.095  1.00  0.00    -0.346 N 
ATOM      5  H1  UNL     1      20.379 -19.075  23.851  1.00  0.00     0.163 HD
HETATM    6  C7  UNL     1      20.783 -17.633  22.416  1.00  0.00     0.176 C 
HETATM    7  C12 UNL     1      21.751 -16.993  23.372  1.00  0.00     0.243 C 
HETATM    8  O2  UNL     1      22.986 -17.142  23.085  1.00  0.00    -0.271 OA
HETATM    9  N5  UNL     1      21.409 -16.254  24.538  1.00  0.00    -0.341 N 
HETATM   10  C13 UNL     1      22.286 -16.504  25.666  1.00  0.00     0.153 C 
HETATM   11  C14 UNL     1      20.275 -15.361  24.519  1.00  0.00     0.182 C 
HETATM   12  C19 UNL     1      20.515 -14.137  23.692  1.00  0.00     0.241 C 
HETATM   13  O3  UNL     1      21.773 -13.856  23.594  1.00  0.00    -0.271 OA
HETATM   14  N6  UNL     1      19.626 -13.304  23.055  1.00  0.00    -0.346 N 
ATOM     15  H6  UNL     1      19.644 -12.352  23.421  1.00  0.00     0.163 HD
HETATM   16  C20 UNL     1      18.675 -13.476  21.987  1.00  0.00     0.177 C 
HETATM   17  C25 UNL     1      17.317 -13.782  22.401  1.00  0.00     0.240 C 
HETATM   18  O4  UNL     1      16.997 -13.576  23.605  1.00  0.00    -0.271 OA
HETATM   19  N7  UNL     1      16.306 -14.293  21.570  1.00  0.00    -0.358 N 
ATOM     20  H7  UNL     1      15.409 -13.808  21.592  1.00  0.00     0.162 HD
HETATM   21  C26 UNL     1      16.402 -15.441  20.683  1.00  0.00     0.142 C 
HETATM   22  C27 UNL     1      17.398 -16.445  21.097  1.00  0.00     0.136 C 
HETATM   23  N8  UNL     1      16.921 -17.720  21.553  1.00  0.00    -0.403 N 
HETATM   24  C28 UNL     1      15.585 -18.048  21.237  1.00  0.00     0.144 C 
ENDROOT
BRANCH   6  25
HETATM   25  C8  UNL     1      21.592 -18.302  21.302  1.00  0.00     0.036 C 
BRANCH  25  26
HETATM   26  C9  UNL     1      20.792 -19.145  20.385  1.00  0.00     0.022 C 
BRANCH  26  27
HETATM   27  C10 UNL     1      21.413 -20.528  20.250  1.00  0.00     0.122 C 
BRANCH  27  28
HETATM   28  N2  UNL     1      20.841 -21.364  21.252  1.00  0.00    -0.367 N 
HETATM   29  C11 UNL     1      21.423 -21.835  22.292  1.00  0.00     0.196 C 
HETATM   30  N3  UNL     1      20.679 -22.652  23.177  1.00  0.00    -0.067 NA
HETATM   31  N4  UNL     1      22.780 -21.557  22.566  1.00  0.00    -0.067 NA
ATOM     32  H2  UNL     1      19.860 -21.616  21.127  1.00  0.00     0.161 HD
ENDBRANCH  27  28
ENDBRANCH  26  27
ENDBRANCH  25  26
ENDBRANCH   6  25
BRANCH   1  33
HETATM   33  C4  UNL     1      16.212 -18.694  23.618  1.00  0.00     0.034 C 
BRANCH  33  34
HETATM   34  C3  UNL     1      16.340 -18.371  25.111  1.00  0.00     0.002 C 
BRANCH  34  35
HETATM   35  C2  UNL     1      15.874 -19.529  25.952  1.00  0.00    -0.004 C 
HETATM   36  C1  UNL     1      16.806 -19.862  27.075  1.00  0.00     0.005 C 
ENDBRANCH  34  35
ENDBRANCH  33  34
ENDBRANCH   1  33
BRANCH  11  37
HETATM   37  C15 UNL     1      19.854 -14.909  25.890  1.00  0.00     0.013 C 
HETATM   38  C16 UNL     1      20.322 -13.576  26.315  1.00  0.00     0.012 C 
BRANCH  37  39
HETATM   39  C17 UNL     1      18.486 -15.342  26.309  1.00  0.00     0.002 C 
HETATM   40  C18 UNL     1      18.548 -16.608  27.171  1.00  0.00     0.005 C 
ENDBRANCH  37  39
ENDBRANCH  11  37
BRANCH  16  41
HETATM   41  C21 UNL     1      18.535 -12.119  21.240  1.00  0.00     0.038 C 
BRANCH  41  42
HETATM   42  C22 UNL     1      19.107 -12.216  19.852  1.00  0.00    -0.020 C 
HETATM   43  C23 UNL     1      17.910 -12.424  18.924  1.00  0.00     0.009 C 
HETATM   44  C24 UNL     1      20.024 -13.392  19.660  1.00  0.00     0.009 C 
ENDBRANCH  41  42
ENDBRANCH  16  41
TORSDOF 11
ENDMDL
MODEL 5
REMARK VINA RESULT: -6.037432896      2.394      5.805
REMARK  11 active torsions:
REMARK  status: ('A' for Active; 'I' for Inactive)
REMARK    1  A    between atoms: C2_2  and  C3_3 
REMARK    2  A    between atoms: C3_3  and  C4_4 
REMARK    3  A    between atoms: C4_4  and  C5_5 
REMARK    4  A    between atoms: C7_10  and  C8_11 
REMARK    5  A    between atoms: C8_11  and  C9_12 
REMARK    6  A    between atoms: C9_12  and  C10_13 
REMARK    7  A    between atoms: C10_13  and  N2_14 
REMARK    8  A    between atoms: C14_23  and  C15_24 
REMARK    9  A    between atoms: C15_24  and  C17_26 
REMARK   10  A    between atoms: C20_32  and  C21_33 
REMARK   11  A    between atoms: C21_33  and  C22_34 
ROOT
HETATM    1  C5  UNL     1      17.061 -17.137  21.647  1.00  0.00     0.171 C 
HETATM    2  C6  UNL     1      16.461 -16.739  22.933  1.00  0.00     0.240 C 
HETATM    3  O1  UNL     1      15.165 -16.774  22.914  1.00  0.00    -0.271 OA
HETATM    4  N1  UNL     1      17.046 -16.345  24.117  1.00  0.00    -0.346 N 
ATOM      5  H1  UNL     1      16.691 -15.457  24.474  1.00  0.00     0.163 HD
HETATM    6  C7  UNL     1      18.061 -16.942  24.946  1.00  0.00     0.176 C 
HETATM    7  C12 UNL     1      18.941 -15.893  25.568  1.00  0.00     0.243 C 
HETATM    8  O2  UNL     1      18.994 -15.906  26.843  1.00  0.00    -0.271 OA
HETATM    9  N5  UNL     1      19.698 -14.914  24.867  1.00  0.00    -0.341 N 
HETATM   10  C13 UNL     1      19.703 -13.612  25.505  1.00  0.00     0.153 C 
HETATM   11  C14 UNL     1      20.367 -15.266  23.637  1.00  0.00     0.182 C 
HETATM   12  C19 UNL     1      21.543 -16.165  23.853  1.00  0.00     0.241 C 
HETATM   13  O3  UNL     1      22.038 -16.042  25.041  1.00  0.00    -0.271 OA
HETATM   14  N6  UNL     1      22.147 -17.061  23.003  1.00  0.00    -0.346 N 
ATOM     15  H6  UNL     1      23.113 -16.814  22.789  1.00  0.00     0.163 HD
HETATM   16  C20 UNL     1      21.720 -18.270  22.348  1.00  0.00     0.177 C 
HETATM   17  C25 UNL     1      21.208 -18.105  20.998  1.00  0.00     0.240 C 
HETATM   18  O4  UNL     1      21.450 -17.022  20.395  1.00  0.00    -0.271 OA
HETATM   19  N7  UNL     1      20.457 -19.055  20.287  1.00  0.00    -0.358 N 
ATOM     20  H7  UNL     1      20.772 -19.271  19.341  1.00  0.00     0.162 HD
HETATM   21  C26 UNL     1      19.276 -19.764  20.757  1.00  0.00     0.142 C 
HETATM   22  C27 UNL     1      18.506 -19.043  21.785  1.00  0.00     0.136 C 
HETATM   23  N8  UNL     1      17.207 -18.545  21.430  1.00  0.00    -0.403 N 
HETATM   24  C28 UNL     1      16.619 -19.082  20.265  1.00  0.00     0.144 C 
ENDROOT
BRANCH   6  25
HETATM   25  C8  UNL     1      17.461 -17.784  26.075  1.00  0.00     0.036 C 
BRANCH  25  26
HETATM   26  C9  UNL     1      17.220 -19.201  25.719  1.00  0.00     0.022 C 
BRANCH  26  27
HETATM   27  C10 UNL     1      15.794 -19.604  26.065  1.00  0.00     0.122 C 
BRANCH  27  28
HETATM   28  N2  UNL     1      14.960 -19.253  24.964  1.00  0.00    -0.367 N 
HETATM   29  C11 UNL     1      14.054 -19.976  24.417  1.00  0.00     0.196 C 
HETATM   30  N3  UNL     1      13.326 -19.445  23.326  1.00  0.00    -0.067 NA
HETATM   31  N4  UNL     1      13.774 -21.281  24.879  1.00  0.00    -0.067 NA
ATOM     32  H2  UNL     1      15.101 -18.325  24.566  1.00  0.00     0.161 HD
ENDBRANCH  27  28
ENDBRANCH  26  27
ENDBRANCH  25  26
ENDBRANCH   6  25
BRANCH   1  33
HETATM   33  C4  UNL     1      16.293 -16.564  20.452  1.00  0.00     0.034 C 
BRANCH  33  34
HETATM   34  C3  UNL     1      16.758 -15.127  20.195  1.00  0.00     0.002 C 
BRANCH  34  35
HETATM   35  C2  UNL     1      15.684 -14.141  20.569  1.00  0.00    -0.004 C 
HETATM   36  C1  UNL     1      16.071 -13.240  21.700  1.00  0.00     0.005 C 
ENDBRANCH  34  35
ENDBRANCH  33  34
ENDBRANCH   1  33
BRANCH  11  37
HETATM   37  C15 UNL     1      20.845 -14.069  22.861  1.00  0.00     0.013 C 
HETATM   38  C16 UNL     1      22.219 -13.611  23.142  1.00  0.00     0.012 C 
BRANCH  37  39
HETATM   39  C17 UNL     1      20.349 -13.986  21.453  1.00  0.00     0.002 C 
HETATM   40  C18 UNL     1      20.705 -12.635  20.823  1.00  0.00     0.005 C 
ENDBRANCH  37  39
ENDBRANCH  11  37
BRANCH  16  41
HETATM   41  C21 UNL     1      22.964 -19.185  22.159  1.00  0.00     0.038 C 
BRANCH  41  42
HETATM   42  C22 UNL     1      24.200 -18.518  22.696  1.00  0.00    -0.020 C 
HETATM   43  C23 UNL     1      25.186 -18.470  21.528  1.00  0.00     0.009 C 
HETATM   44  C24 UNL     1      24.865 -19.287  23.805  1.00  0.00     0.009 C 
ENDBRANCH  41  42
ENDBRANCH  16  41
TORSDOF 11
ENDMDL
