MODEL 1
REMARK VINA RESULT: -7.676477968      0.000      0.000
REMARK  11 active torsions:
REMARK  status: ('A' for Active; 'I' for Inactive)
REMARK    1  A    between atoms: C2_2  and  C3_3 
REMARK    2  A    between atoms: C3_3  and  N1_4 
REMARK       I    between atoms: N1_4  and  C4_6 
REMARK    3  A    between atoms: C4_6  and  C5_8 
REMARK    4  A    between atoms: C5_8  and  C6_9 
REMARK    5  A    between atoms: C9_18  and  C10_19 
REMARK    6  A    between atoms: C10_19  and  C11_20 
REMARK    7  A    between atoms: C15_27  and  C16_28 
REMARK    8  A    between atoms: C16_28  and  C17_29 
REMARK    9  A    between atoms: C20_34  and  O5_35 
REMARK   10  A    between atoms: C21_37  and  C22_38 
REMARK   11  A    between atoms: C22_38  and  C23_39 
ROOT
HETATM    1  C6  UNL     1      13.991 -14.410  19.697  1.00  0.00     0.187 C 
HETATM    2  N2  UNL     1      15.073 -14.345  18.728  1.00  0.00    -0.329 N 
ATOM      3  H2  UNL     1      15.366 -15.236  18.326  1.00  0.00     0.165 HD
HETATM    4  C7  UNL     1      15.756 -13.225  18.280  1.00  0.00     0.323 C 
HETATM    5  O2  UNL     1      15.962 -13.195  16.998  1.00  0.00    -0.247 OA
HETATM    6  N3  UNL     1      16.268 -12.123  18.973  1.00  0.00    -0.278 N 
ATOM      7  H3  UNL     1      16.269 -11.250  18.447  1.00  0.00     0.173 HD
HETATM    8  C8  UNL     1      16.778 -12.025  20.270  1.00  0.00     0.248 C 
HETATM    9  O3  UNL     1      16.175 -11.261  21.107  1.00  0.00    -0.271 OA
HETATM   10  C9  UNL     1      17.973 -12.708  20.846  1.00  0.00     0.177 C 
HETATM   11  N4  UNL     1      17.636 -13.129  22.191  1.00  0.00    -0.346 N 
ATOM     12  H4  UNL     1      17.309 -12.396  22.820  1.00  0.00     0.163 HD
HETATM   13  C14 UNL     1      17.705 -14.427  22.736  1.00  0.00     0.241 C 
HETATM   14  O4  UNL     1      18.217 -14.543  23.908  1.00  0.00    -0.271 OA
HETATM   15  C15 UNL     1      17.243 -15.675  22.107  1.00  0.00     0.175 C 
HETATM   16  N5  UNL     1      15.857 -15.914  22.468  1.00  0.00    -0.359 N 
ATOM     17  H5  UNL     1      15.443 -15.167  23.027  1.00  0.00     0.162 HD
HETATM   18  C20 UNL     1      14.993 -16.950  22.204  1.00  0.00     0.135 C 
HETATM   19  C21 UNL     1      14.524 -17.571  20.943  1.00  0.00     0.161 C 
HETATM   20  N6  UNL     1      13.344 -16.860  20.423  1.00  0.00    -0.343 N 
HETATM   21  C26 UNL     1      12.043 -17.457  20.827  1.00  0.00     0.153 C 
HETATM   22  C27 UNL     1      13.309 -15.725  19.620  1.00  0.00     0.243 C 
HETATM   23  O6  UNL     1      12.539 -15.779  18.582  1.00  0.00    -0.271 OA
ENDROOT
BRANCH   1  24
HETATM   24  C5  UNL     1      12.998 -13.292  19.293  1.00  0.00     0.137 C 
BRANCH  24  25
HETATM   25  C4  UNL     1      13.058 -12.130  20.181  1.00  0.00     0.220 C 
HETATM   26  N1  UNL     1      12.958 -12.082  21.569  1.00  0.00    -0.358 N 
ATOM     27  H1  UNL     1      12.820 -12.956  22.077  1.00  0.00     0.162 HD
HETATM   28  O1  UNL     1      13.227 -11.001  19.594  1.00  0.00    -0.274 OA
BRANCH  26  29
HETATM   29  C3  UNL     1      13.040 -10.861  22.319  1.00  0.00     0.149 C 
BRANCH  29  30
HETATM   30  C2  UNL     1      11.734 -10.353  22.737  1.00  0.00    -0.018 C 
HETATM   31  C1  UNL     1      11.408 -10.409  24.012  1.00  0.00     0.008 C 
ENDBRANCH  29  30
ENDBRANCH  26  29
ENDBRANCH  24  25
ENDBRANCH   1  24
BRANCH  19  32
HETATM   32  C22 UNL     1      15.570 -17.876  19.942  1.00  0.00     0.037 C 
BRANCH  32  33
HETATM   33  C23 UNL     1      15.537 -19.300  19.481  1.00  0.00    -0.020 C 
HETATM   34  C24 UNL     1      15.755 -20.236  20.659  1.00  0.00     0.009 C 
HETATM   35  C25 UNL     1      16.703 -19.562  18.517  1.00  0.00     0.009 C 
ENDBRANCH  32  33
ENDBRANCH  19  32
BRANCH  18  36
HETATM   36  O5  UNL     1      14.500 -17.474  23.299  1.00  0.00    -0.348 OA
ATOM     37  H5  UNL     1      14.299 -16.815  23.953  1.00  0.00     0.219 HD
ENDBRANCH  18  36
BRANCH  10  38
HETATM   38  C10 UNL     1      19.106 -11.672  21.015  1.00  0.00     0.038 C 
BRANCH  38  39
HETATM   39  C11 UNL     1      20.412 -12.144  20.479  1.00  0.00    -0.020 C 
HETATM   40  C12 UNL     1      20.225 -12.783  19.145  1.00  0.00     0.009 C 
HETATM   41  C13 UNL     1      20.984 -13.182  21.458  1.00  0.00     0.009 C 
ENDBRANCH  38  39
ENDBRANCH  10  38
BRANCH  15  42
HETATM   42  C16 UNL     1      18.158 -16.797  22.360  1.00  0.00     0.038 C 
BRANCH  42  43
HETATM   43  C17 UNL     1      19.051 -17.193  21.254  1.00  0.00    -0.020 C 
HETATM   44  C18 UNL     1      19.162 -18.751  21.218  1.00  0.00     0.009 C 
HETATM   45  C19 UNL     1      20.465 -16.743  21.223  1.00  0.00     0.009 C 
ENDBRANCH  42  43
ENDBRANCH  15  42
TORSDOF 11
ENDMDL
MODEL 2
REMARK VINA RESULT: -7.337787972      1.752      4.057
REMARK  11 active torsions:
REMARK  status: ('A' for Active; 'I' for Inactive)
REMARK    1  A    between atoms: C2_2  and  C3_3 
REMARK    2  A    between atoms: C3_3  and  N1_4 
REMARK       I    between atoms: N1_4  and  C4_6 
REMARK    3  A    between atoms: C4_6  and  C5_8 
REMARK    4  A    between atoms: C5_8  and  C6_9 
REMARK    5  A    between atoms: C9_18  and  C10_19 
REMARK    6  A    between atoms: C10_19  and  C11_20 
REMARK    7  A    between atoms: C15_27  and  C16_28 
REMARK    8  A    between atoms: C16_28  and  C17_29 
REMARK    9  A    between atoms: C20_34  and  O5_35 
REMARK   10  A    between atoms: C21_37  and  C22_38 
REMARK   11  A    between atoms: C22_38  and  C23_39 
ROOT
HETATM    1  C6  UNL     1      14.741 -15.840  20.821  1.00  0.00     0.187 C 
HETATM    2  N2  UNL     1      15.390 -16.038  19.535  1.00  0.00    -0.329 N 
ATOM      3  H2  UNL     1      16.200 -16.656  19.534  1.00  0.00     0.165 HD
HETATM    4  C7  UNL     1      15.044 -15.492  18.308  1.00  0.00     0.323 C 
HETATM    5  O2  UNL     1      15.082 -16.328  17.315  1.00  0.00    -0.247 OA
HETATM    6  N3  UNL     1      14.667 -14.192  17.954  1.00  0.00    -0.278 N 
ATOM      7  H3  UNL     1      14.014 -14.134  17.173  1.00  0.00     0.173 HD
HETATM    8  C8  UNL     1      15.042 -12.961  18.497  1.00  0.00     0.248 C 
HETATM    9  O3  UNL     1      14.132 -12.224  19.024  1.00  0.00    -0.271 OA
HETATM   10  C9  UNL     1      16.403 -12.352  18.553  1.00  0.00     0.177 C 
HETATM   11  N4  UNL     1      16.555 -11.727  19.851  1.00  0.00    -0.346 N 
ATOM     12  H4  UNL     1      15.847 -11.036  20.100  1.00  0.00     0.163 HD
HETATM   13  C14 UNL     1      17.560 -11.957  20.812  1.00  0.00     0.241 C 
HETATM   14  O4  UNL     1      18.079 -10.924  21.373  1.00  0.00    -0.271 OA
HETATM   15  C15 UNL     1      18.080 -13.261  21.252  1.00  0.00     0.175 C 
HETATM   16  N5  UNL     1      17.301 -13.735  22.382  1.00  0.00    -0.359 N 
ATOM     17  H5  UNL     1      16.518 -13.128  22.625  1.00  0.00     0.162 HD
HETATM   18  C20 UNL     1      17.413 -14.842  23.189  1.00  0.00     0.135 C 
HETATM   19  C21 UNL     1      17.440 -16.297  22.902  1.00  0.00     0.161 C 
HETATM   20  N6  UNL     1      16.074 -16.842  22.862  1.00  0.00    -0.343 N 
HETATM   21  C26 UNL     1      15.611 -17.429  24.148  1.00  0.00     0.153 C 
HETATM   22  C27 UNL     1      15.190 -16.871  21.788  1.00  0.00     0.243 C 
HETATM   23  O6  UNL     1      14.620 -18.006  21.543  1.00  0.00    -0.271 OA
ENDROOT
BRANCH   1  24
HETATM   24  C5  UNL     1      13.224 -16.010  20.557  1.00  0.00     0.137 C 
BRANCH  24  25
HETATM   25  C4  UNL     1      12.500 -14.738  20.557  1.00  0.00     0.220 C 
HETATM   26  N1  UNL     1      12.474 -13.745  21.533  1.00  0.00    -0.358 N 
ATOM     27  H1  UNL     1      13.019 -13.886  22.385  1.00  0.00     0.162 HD
HETATM   28  O1  UNL     1      11.794 -14.510  19.509  1.00  0.00    -0.274 OA
BRANCH  26  29
HETATM   29  C3  UNL     1      11.716 -12.534  21.398  1.00  0.00     0.149 C 
BRANCH  29  30
HETATM   30  C2  UNL     1      12.182 -11.462  22.276  1.00  0.00    -0.018 C 
HETATM   31  C1  UNL     1      11.772 -10.231  22.052  1.00  0.00     0.008 C 
ENDBRANCH  29  30
ENDBRANCH  26  29
ENDBRANCH  24  25
ENDBRANCH   1  24
BRANCH  19  32
HETATM   32  C22 UNL     1      18.324 -16.722  21.795  1.00  0.00     0.037 C 
BRANCH  32  33
HETATM   33  C23 UNL     1      19.765 -16.795  22.195  1.00  0.00    -0.020 C 
HETATM   34  C24 UNL     1      20.643 -16.943  20.963  1.00  0.00     0.009 C 
HETATM   35  C25 UNL     1      20.008 -18.056  23.036  1.00  0.00     0.009 C 
ENDBRANCH  32  33
ENDBRANCH  19  32
BRANCH  18  36
HETATM   36  O5  UNL     1      17.511 -14.524  24.456  1.00  0.00    -0.348 OA
ATOM     37  H5  UNL     1      16.662 -14.462  24.877  1.00  0.00     0.219 HD
ENDBRANCH  18  36
BRANCH  10  38
HETATM   38  C10 UNL     1      16.473 -11.194  17.532  1.00  0.00     0.038 C 
BRANCH  38  39
HETATM   39  C11 UNL     1      15.852 -11.532  16.223  1.00  0.00    -0.020 C 
HETATM   40  C12 UNL     1      16.895 -11.958  15.246  1.00  0.00     0.009 C 
HETATM   41  C13 UNL     1      15.146 -10.275  15.689  1.00  0.00     0.009 C 
ENDBRANCH  38  39
ENDBRANCH  10  38
BRANCH  15  42
HETATM   42  C16 UNL     1      19.535 -13.239  21.459  1.00  0.00     0.038 C 
BRANCH  42  43
HETATM   43  C17 UNL     1      20.381 -13.157  20.253  1.00  0.00    -0.020 C 
HETATM   44  C18 UNL     1      21.229 -11.847  20.312  1.00  0.00     0.009 C 
HETATM   45  C19 UNL     1      19.771 -13.118  18.901  1.00  0.00     0.009 C 
ENDBRANCH  42  43
ENDBRANCH  15  42
TORSDOF 11
ENDMDL
MODEL 3
REMARK VINA RESULT: -7.247984942      2.189      6.473
REMARK  11 active torsions:
REMARK  status: ('A' for Active; 'I' for Inactive)
REMARK    1  A    between atoms: C2_2  and  C3_3 
REMARK    2  A    between atoms: C3_3  and  N1_4 
REMARK       I    between atoms: N1_4  and  C4_6 
REMARK    3  A    between atoms: C4_6  and  C5_8 
REMARK    4  A    between atoms: C5_8  and  C6_9 
REMARK    5  A    between atoms: C9_18  and  C10_19 
REMARK    6  A    between atoms: C10_19  and  C11_20 
REMARK    7  A    between atoms: C15_27  and  C16_28 
REMARK    8  A    between atoms: C16_28  and  C17_29 
REMARK    9  A    between atoms: C20_34  and  O5_35 
REMARK   10  A    between atoms: C21_37  and  C22_38 
REMARK   11  A    between atoms: C22_38  and  C23_39 
ROOT
HETATM    1  C6  UNL     1      16.917 -12.491  20.495  1.00  0.00     0.187 C 
HETATM    2  N2  UNL     1      15.933 -12.358  21.557  1.00  0.00    -0.329 N 
ATOM      3  H2  UNL     1      16.300 -12.367  22.509  1.00  0.00     0.165 HD
HETATM    4  C7  UNL     1      14.558 -12.220  21.440  1.00  0.00     0.323 C 
HETATM    5  O2  UNL     1      14.037 -11.328  22.226  1.00  0.00    -0.247 OA
HETATM    6  N3  UNL     1      13.635 -12.883  20.624  1.00  0.00    -0.278 N 
ATOM      7  H3  UNL     1      12.831 -12.321  20.345  1.00  0.00     0.173 HD
HETATM    8  C8  UNL     1      13.636 -14.190  20.131  1.00  0.00     0.248 C 
HETATM    9  O3  UNL     1      13.676 -14.363  18.859  1.00  0.00    -0.271 OA
HETATM   10  C9  UNL     1      13.592 -15.468  20.901  1.00  0.00     0.177 C 
HETATM   11  N4  UNL     1      14.502 -16.398  20.264  1.00  0.00    -0.346 N 
ATOM     12  H4  UNL     1      14.339 -16.576  19.273  1.00  0.00     0.163 HD
HETATM   13  C14 UNL     1      15.585 -17.088  20.846  1.00  0.00     0.241 C 
HETATM   14  O4  UNL     1      15.706 -18.334  20.560  1.00  0.00    -0.271 OA
HETATM   15  C15 UNL     1      16.605 -16.531  21.748  1.00  0.00     0.175 C 
HETATM   16  N5  UNL     1      17.723 -16.034  20.965  1.00  0.00    -0.359 N 
ATOM     17  H5  UNL     1      17.581 -16.103  19.957  1.00  0.00     0.162 HD
HETATM   18  C20 UNL     1      18.935 -15.490  21.318  1.00  0.00     0.135 C 
HETATM   19  C21 UNL     1      19.309 -14.323  22.152  1.00  0.00     0.161 C 
HETATM   20  N6  UNL     1      19.339 -13.095  21.342  1.00  0.00    -0.343 N 
HETATM   21  C26 UNL     1      20.684 -12.743  20.813  1.00  0.00     0.153 C 
HETATM   22  C27 UNL     1      18.281 -12.249  21.023  1.00  0.00     0.243 C 
HETATM   23  O6  UNL     1      18.481 -10.984  21.209  1.00  0.00    -0.271 OA
ENDROOT
BRANCH   1  24
HETATM   24  C5  UNL     1      16.566 -11.395  19.457  1.00  0.00     0.137 C 
BRANCH  24  25
HETATM   25  C4  UNL     1      16.662 -11.868  18.076  1.00  0.00     0.220 C 
HETATM   26  N1  UNL     1      15.676 -12.441  17.276  1.00  0.00    -0.358 N 
ATOM     27  H1  UNL     1      14.744 -12.569  17.669  1.00  0.00     0.162 HD
HETATM   28  O1  UNL     1      17.817 -11.735  17.531  1.00  0.00    -0.274 OA
BRANCH  26  29
HETATM   29  C3  UNL     1      15.911 -12.860  15.923  1.00  0.00     0.149 C 
BRANCH  29  30
HETATM   30  C2  UNL     1      15.537 -11.850  14.935  1.00  0.00    -0.018 C 
HETATM   31  C1  UNL     1      16.486 -11.236  14.259  1.00  0.00     0.008 C 
ENDBRANCH  29  30
ENDBRANCH  26  29
ENDBRANCH  24  25
ENDBRANCH   1  24
BRANCH  19  32
HETATM   32  C22 UNL     1      18.613 -14.207  23.452  1.00  0.00     0.037 C 
BRANCH  32  33
HETATM   33  C23 UNL     1      19.508 -13.726  24.552  1.00  0.00    -0.020 C 
HETATM   34  C24 UNL     1      20.949 -14.108  24.257  1.00  0.00     0.009 C 
HETATM   35  C25 UNL     1      19.146 -14.435  25.864  1.00  0.00     0.009 C 
ENDBRANCH  32  33
ENDBRANCH  19  32
BRANCH  18  36
HETATM   36  O5  UNL     1      19.942 -16.148  20.799  1.00  0.00    -0.348 OA
ATOM     37  H5  UNL     1      20.403 -16.668  21.448  1.00  0.00     0.219 HD
ENDBRANCH  18  36
BRANCH  10  38
HETATM   38  C10 UNL     1      12.190 -16.097  20.744  1.00  0.00     0.038 C 
BRANCH  38  39
HETATM   39  C11 UNL     1      12.186 -17.299  19.867  1.00  0.00    -0.020 C 
HETATM   40  C12 UNL     1      11.197 -17.133  18.763  1.00  0.00     0.009 C 
HETATM   41  C13 UNL     1      11.787 -18.513  20.720  1.00  0.00     0.009 C 
ENDBRANCH  38  39
ENDBRANCH  10  38
BRANCH  15  42
HETATM   42  C16 UNL     1      16.962 -17.462  22.828  1.00  0.00     0.038 C 
BRANCH  42  43
HETATM   43  C17 UNL     1      16.118 -17.437  24.038  1.00  0.00    -0.020 C 
HETATM   44  C18 UNL     1      17.037 -17.418  25.301  1.00  0.00     0.009 C 
HETATM   45  C19 UNL     1      15.162 -18.535  24.319  1.00  0.00     0.009 C 
ENDBRANCH  42  43
ENDBRANCH  15  42
TORSDOF 11
ENDMDL
MODEL 4
REMARK VINA RESULT: -6.969253027      2.380      5.475
REMARK  11 active torsions:
REMARK  status: ('A' for Active; 'I' for Inactive)
REMARK    1  A    between atoms: C2_2  and  C3_3 
REMARK    2  A    between atoms: C3_3  and  N1_4 
REMARK       I    between atoms: N1_4  and  C4_6 
REMARK    3  A    between atoms: C4_6  and  C5_8 
REMARK    4  A    between atoms: C5_8  and  C6_9 
REMARK    5  A    between atoms: C9_18  and  C10_19 
REMARK    6  A    between atoms: C10_19  and  C11_20 
REMARK    7  A    between atoms: C15_27  and  C16_28 
REMARK    8  A    between atoms: C16_28  and  C17_29 
REMARK    9  A    between atoms: C20_34  and  O5_35 
REMARK   10  A    between atoms: C21_37  and  C22_38 
REMARK   11  A    between atoms: C22_38  and  C23_39 
ROOT
HETATM    1  C6  UNL     1      15.608 -16.905  21.414  1.00  0.00     0.187 C 
HETATM    2  N2  UNL     1      16.343 -17.124  20.179  1.00  0.00    -0.329 N 
ATOM      3  H2  UNL     1      17.345 -17.283  20.278  1.00  0.00     0.165 HD
HETATM    4  C7  UNL     1      15.851 -17.144  18.882  1.00  0.00     0.323 C 
HETATM    5  O2  UNL     1      16.319 -18.104  18.143  1.00  0.00    -0.247 OA
HETATM    6  N3  UNL     1      14.943 -16.303  18.230  1.00  0.00    -0.278 N 
ATOM      7  H3  UNL     1      14.378 -16.759  17.514  1.00  0.00     0.173 HD
HETATM    8  C8  UNL     1      14.686 -14.941  18.401  1.00  0.00     0.248 C 
HETATM    9  O3  UNL     1      13.514 -14.585  18.786  1.00  0.00    -0.271 OA
HETATM   10  C9  UNL     1      15.615 -13.793  18.191  1.00  0.00     0.177 C 
HETATM   11  N4  UNL     1      15.396 -12.845  19.265  1.00  0.00    -0.346 N 
ATOM     12  H4  UNL     1      14.439 -12.510  19.378  1.00  0.00     0.163 HD
HETATM   13  C14 UNL     1      16.343 -12.328  20.172  1.00  0.00     0.241 C 
HETATM   14  O4  UNL     1      16.304 -11.065  20.402  1.00  0.00    -0.271 OA
HETATM   15  C15 UNL     1      17.376 -13.085  20.897  1.00  0.00     0.175 C 
HETATM   16  N5  UNL     1      16.840 -13.538  22.168  1.00  0.00    -0.359 N 
ATOM     17  H5  UNL     1      15.855 -13.310  22.304  1.00  0.00     0.162 HD
HETATM   18  C20 UNL     1      17.402 -14.213  23.226  1.00  0.00     0.135 C 
HETATM   19  C21 UNL     1      18.103 -15.515  23.329  1.00  0.00     0.161 C 
HETATM   20  N6  UNL     1      17.141 -16.608  23.538  1.00  0.00    -0.343 N 
HETATM   21  C26 UNL     1      16.929 -16.973  24.964  1.00  0.00     0.153 C 
HETATM   22  C27 UNL     1      16.426 -17.320  22.580  1.00  0.00     0.243 C 
HETATM   23  O6  UNL     1      16.449 -18.609  22.685  1.00  0.00    -0.271 OA
ENDROOT
BRANCH   1  24
HETATM   24  C5  UNL     1      14.351 -17.807  21.321  1.00  0.00     0.137 C 
BRANCH  24  25
HETATM   25  C4  UNL     1      13.129 -17.051  21.042  1.00  0.00     0.220 C 
HETATM   26  N1  UNL     1      12.130 -17.316  20.108  1.00  0.00    -0.358 N 
ATOM     27  H1  UNL     1      12.226 -18.140  19.513  1.00  0.00     0.162 HD
HETATM   28  O1  UNL     1      12.959 -16.001  21.760  1.00  0.00    -0.274 OA
BRANCH  26  29
HETATM   29  C3  UNL     1      10.973 -16.484  19.943  1.00  0.00     0.149 C 
BRANCH  29  30
HETATM   30  C2  UNL     1      10.334 -16.638  18.637  1.00  0.00    -0.018 C 
HETATM   31  C1  UNL     1      10.681 -17.655  17.874  1.00  0.00     0.008 C 
ENDBRANCH  29  30
ENDBRANCH  26  29
ENDBRANCH  24  25
ENDBRANCH   1  24
BRANCH  19  32
HETATM   32  C22 UNL     1      19.142 -15.774  22.307  1.00  0.00     0.037 C 
BRANCH  32  33
HETATM   33  C23 UNL     1      20.529 -15.765  22.870  1.00  0.00    -0.020 C 
HETATM   34  C24 UNL     1      20.557 -16.496  24.202  1.00  0.00     0.009 C 
HETATM   35  C25 UNL     1      20.957 -14.322  23.174  1.00  0.00     0.009 C 
ENDBRANCH  32  33
ENDBRANCH  19  32
BRANCH  18  36
HETATM   36  O5  UNL     1      17.276 -13.559  24.354  1.00  0.00    -0.348 OA
ATOM     37  H5  UNL     1      17.615 -14.050  25.093  1.00  0.00     0.219 HD
ENDBRANCH  18  36
BRANCH  10  38
HETATM   38  C10 UNL     1      15.204 -13.049  16.901  1.00  0.00     0.038 C 
BRANCH  38  39
HETATM   39  C11 UNL     1      16.360 -12.449  16.181  1.00  0.00    -0.020 C 
HETATM   40  C12 UNL     1      16.480 -10.998  16.508  1.00  0.00     0.009 C 
HETATM   41  C13 UNL     1      16.118 -12.605  14.671  1.00  0.00     0.009 C 
ENDBRANCH  38  39
ENDBRANCH  10  38
BRANCH  15  42
HETATM   42  C16 UNL     1      18.648 -12.352  20.979  1.00  0.00     0.038 C 
BRANCH  42  43
HETATM   43  C17 UNL     1      19.697 -12.725  20.011  1.00  0.00    -0.020 C 
HETATM   44  C18 UNL     1      21.013 -11.962  20.365  1.00  0.00     0.009 C 
HETATM   45  C19 UNL     1      19.520 -12.461  18.562  1.00  0.00     0.009 C 
ENDBRANCH  42  43
ENDBRANCH  15  42
TORSDOF 11
ENDMDL
MODEL 5
REMARK VINA RESULT: -6.947231751      1.249      1.329
REMARK  11 active torsions:
REMARK  status: ('A' for Active; 'I' for Inactive)
REMARK    1  A    between atoms: C2_2  and  C3_3 
REMARK    2  A    between atoms: C3_3  and  N1_4 
REMARK       I    between atoms: N1_4  and  C4_6 
REMARK    3  A    between atoms: C4_6  and  C5_8 
REMARK    4  A    between atoms: C5_8  and  C6_9 
REMARK    5  A    between atoms: C9_18  and  C10_19 
REMARK    6  A    between atoms: C10_19  and  C11_20 
REMARK    7  A    between atoms: C15_27  and  C16_28 
REMARK    8  A    between atoms: C16_28  and  C17_29 
REMARK    9  A    between atoms: C20_34  and  O5_35 
REMARK   10  A    between atoms: C21_37  and  C22_38 
REMARK   11  A    between atoms: C22_38  and  C23_39 
ROOT
HETATM    1  C6  UNL     1      13.732 -14.657  20.005  1.00  0.00     0.187 C 
HETATM    2  N2  UNL     1      14.847 -14.482  19.088  1.00  0.00    -0.329 N 
ATOM      3  H2  UNL     1      15.053 -15.275  18.481  1.00  0.00     0.165 HD
HETATM    4  C7  UNL     1      15.665 -13.373  18.936  1.00  0.00     0.323 C 
HETATM    5  O2  UNL     1      15.916 -13.054  17.702  1.00  0.00    -0.247 OA
HETATM    6  N3  UNL     1      16.272 -12.542  19.883  1.00  0.00    -0.278 N 
ATOM      7  H3  UNL     1      16.388 -11.573  19.588  1.00  0.00     0.173 HD
HETATM    8  C8  UNL     1      16.745 -12.825  21.166  1.00  0.00     0.248 C 
HETATM    9  O3  UNL     1      16.203 -12.224  22.163  1.00  0.00    -0.271 OA
HETATM   10  C9  UNL     1      17.837 -13.762  21.562  1.00  0.00     0.177 C 
HETATM   11  N4  UNL     1      17.410 -14.457  22.759  1.00  0.00    -0.346 N 
ATOM     12  H4  UNL     1      17.145 -13.868  23.549  1.00  0.00     0.163 HD
HETATM   13  C14 UNL     1      17.315 -15.849  22.967  1.00  0.00     0.241 C 
HETATM   14  O4  UNL     1      17.771 -16.306  24.077  1.00  0.00    -0.271 OA
HETATM   15  C15 UNL     1      16.739 -16.842  22.046  1.00  0.00     0.175 C 
HETATM   16  N5  UNL     1      15.324 -17.000  22.329  1.00  0.00    -0.359 N 
ATOM     17  H5  UNL     1      14.977 -16.370  23.053  1.00  0.00     0.162 HD
HETATM   18  C20 UNL     1      14.360 -17.832  21.812  1.00  0.00     0.135 C 
HETATM   19  C21 UNL     1      13.868 -18.066  20.434  1.00  0.00     0.161 C 
HETATM   20  N6  UNL     1      12.793 -17.118  20.100  1.00  0.00    -0.343 N 
HETATM   21  C26 UNL     1      11.420 -17.640  20.336  1.00  0.00     0.153 C 
HETATM   22  C27 UNL     1      12.911 -15.824  19.601  1.00  0.00     0.243 C 
HETATM   23  O6  UNL     1      12.176 -15.533  18.578  1.00  0.00    -0.271 OA
ENDROOT
BRANCH   1  24
HETATM   24  C5  UNL     1      12.883 -13.366  19.885  1.00  0.00     0.137 C 
BRANCH  24  25
HETATM   25  C4  UNL     1      12.583 -12.760  21.183  1.00  0.00     0.220 C 
HETATM   26  N1  UNL     1      11.871 -11.597  21.463  1.00  0.00    -0.358 N 
ATOM     27  H1  UNL     1      11.489 -11.061  20.684  1.00  0.00     0.162 HD
HETATM   28  O1  UNL     1      13.043 -13.393  22.202  1.00  0.00    -0.274 OA
BRANCH  26  29
HETATM   29  C3  UNL     1      11.647 -11.118  22.798  1.00  0.00     0.149 C 
BRANCH  29  30
HETATM   30  C2  UNL     1      12.112  -9.747  23.002  1.00  0.00    -0.018 C 
HETATM   31  C1  UNL     1      11.704  -9.088  24.068  1.00  0.00     0.008 C 
ENDBRANCH  29  30
ENDBRANCH  26  29
ENDBRANCH  24  25
ENDBRANCH   1  24
BRANCH  19  32
HETATM   32  C22 UNL     1      14.907 -18.236  19.394  1.00  0.00     0.037 C 
BRANCH  32  33
HETATM   33  C23 UNL     1      14.741 -19.497  18.605  1.00  0.00    -0.020 C 
HETATM   34  C24 UNL     1      14.970 -20.706  19.497  1.00  0.00     0.009 C 
HETATM   35  C25 UNL     1      15.816 -19.573  17.513  1.00  0.00     0.009 C 
ENDBRANCH  32  33
ENDBRANCH  19  32
BRANCH  18  36
HETATM   36  O5  UNL     1      13.774 -18.548  22.741  1.00  0.00    -0.348 OA
ATOM     37  H5  UNL     1      13.890 -19.480  22.601  1.00  0.00     0.219 HD
ENDBRANCH  18  36
BRANCH  10  38
HETATM   38  C10 UNL     1      19.071 -12.937  21.989  1.00  0.00     0.038 C 
BRANCH  38  39
HETATM   39  C11 UNL     1      20.305 -13.308  21.244  1.00  0.00    -0.020 C 
HETATM   40  C12 UNL     1      20.610 -12.285  20.202  1.00  0.00     0.009 C 
HETATM   41  C13 UNL     1      20.063 -14.663  20.560  1.00  0.00     0.009 C 
ENDBRANCH  38  39
ENDBRANCH  10  38
BRANCH  15  42
HETATM   42  C16 UNL     1      17.515 -18.090  22.019  1.00  0.00     0.038 C 
BRANCH  42  43
HETATM   43  C17 UNL     1      18.636 -18.159  21.062  1.00  0.00    -0.020 C 
HETATM   44  C18 UNL     1      18.456 -19.415  20.152  1.00  0.00     0.009 C 
HETATM   45  C19 UNL     1      20.036 -18.273  21.541  1.00  0.00     0.009 C 
ENDBRANCH  42  43
ENDBRANCH  15  42
TORSDOF 11
ENDMDL
