MODEL 1
REMARK VINA RESULT: -7.980487076      0.000      0.000
REMARK  13 active torsions:
REMARK  status: ('A' for Active; 'I' for Inactive)
REMARK    1  A    between atoms: C2_2  and  C4_4 
REMARK    2  A    between atoms: C4_4  and  C5_5 
REMARK    3  A    between atoms: C7_10  and  C8_11 
REMARK    4  A    between atoms: C8_11  and  C9_12 
REMARK    5  A    between atoms: C19_28  and  O4_29 
REMARK    6  A    between atoms: C20_31  and  C21_32 
REMARK    7  A    between atoms: C21_32  and  C22_33 
REMARK    8  A    between atoms: C22_33  and  C23_34 
REMARK    9  A    between atoms: C23_34  and  C24_35 
REMARK   10  A    between atoms: C24_35  and  C25_36 
REMARK   11  A    between atoms: C25_36  and  C26_37 
REMARK   12  A    between atoms: C26_37  and  C27_38 
REMARK   13  A    between atoms: C28_45  and  O5_46 
ROOT
HETATM    1  C5  UNL     1      19.111 -13.606  21.324  1.00  0.00     0.063 C 
HETATM    2  N1  UNL     1      17.661 -13.500  21.337  1.00  0.00    -0.325 N 
ATOM      3  H1  UNL     1      17.245 -13.918  22.169  1.00  0.00     0.169 HD
HETATM    4  C6  UNL     1      16.731 -12.974  20.496  1.00  0.00     0.244 C 
HETATM    5  O1  UNL     1      15.833 -12.196  21.008  1.00  0.00    -0.271 OA
HETATM    6  C7  UNL     1      16.504 -13.106  19.021  1.00  0.00     0.177 C 
HETATM    7  N2  UNL     1      15.416 -13.974  18.715  1.00  0.00    -0.346 N 
ATOM      8  H2  UNL     1      15.413 -14.286  17.744  1.00  0.00     0.163 HD
HETATM    9  C12 UNL     1      14.359 -14.489  19.456  1.00  0.00     0.240 C 
HETATM   10  O2  UNL     1      13.170 -14.177  19.166  1.00  0.00    -0.271 OA
HETATM   11  C13 UNL     1      14.410 -15.431  20.631  1.00  0.00     0.174 C 
HETATM   12  C14 UNL     1      13.009 -15.646  21.221  1.00  0.00     0.042 C 
HETATM   13  N3  UNL     1      14.905 -16.715  20.312  1.00  0.00    -0.342 N 
HETATM   14  C15 UNL     1      14.918 -17.210  18.935  1.00  0.00     0.153 C 
HETATM   15  C16 UNL     1      15.404 -17.569  21.317  1.00  0.00     0.238 C 
HETATM   16  O3  UNL     1      15.489 -18.831  21.138  1.00  0.00    -0.272 OA
HETATM   17  C17 UNL     1      15.851 -17.012  22.633  1.00  0.00     0.227 C 
HETATM   18  N4  UNL     1      16.824 -17.856  23.292  1.00  0.00    -0.356 N 
HETATM   19  C18 UNL     1      16.422 -19.254  23.511  1.00  0.00     0.152 C 
HETATM   20  C19 UNL     1      18.110 -17.459  23.736  1.00  0.00     0.161 C 
HETATM   21  C20 UNL     1      18.594 -16.123  24.112  1.00  0.00     0.062 C 
HETATM   22  N7  UNL     1      19.427 -15.573  23.063  1.00  0.00    -0.335 N 
ATOM     23  H7  UNL     1      20.004 -16.310  22.657  1.00  0.00     0.168 HD
HETATM   24  C28 UNL     1      19.688 -14.384  22.444  1.00  0.00     0.163 C 
ENDROOT
BRANCH  21  25
HETATM   25  C21 UNL     1      17.776 -15.226  24.914  1.00  0.00     0.062 C 
BRANCH  25  26
HETATM   26  C22 UNL     1      18.419 -14.375  25.966  1.00  0.00     0.006 C 
BRANCH  26  27
HETATM   27  C23 UNL     1      19.854 -14.557  26.233  1.00  0.00     0.000 C 
BRANCH  27  28
HETATM   28  C24 UNL     1      20.455 -13.262  26.726  1.00  0.00     0.000 C 
BRANCH  28  29
HETATM   29  C25 UNL     1      21.714 -12.856  26.032  1.00  0.00     0.007 C 
BRANCH  29  30
HETATM   30  C26 UNL     1      22.646 -14.064  25.976  1.00  0.00     0.072 C 
BRANCH  30  31
HETATM   31  C27 UNL     1      23.531 -13.889  24.805  1.00  0.00     0.086 C 
HETATM   32  N5  UNL     1      23.407 -14.642  23.763  1.00  0.00    -0.391 N 
ATOM     33  H52 UNL     1      22.695 -15.372  23.731  1.00  0.00     0.157 HD
ATOM     34  H51 UNL     1      24.018 -14.522  22.955  1.00  0.00     0.157 HD
HETATM   35  N6  UNL     1      24.536 -12.859  24.850  1.00  0.00    -0.088 NA
ENDBRANCH  30  31
ENDBRANCH  29  30
ENDBRANCH  28  29
ENDBRANCH  27  28
ENDBRANCH  26  27
ENDBRANCH  25  26
ENDBRANCH  21  25
BRANCH  20  36
HETATM   36  O4  UNL     1      18.998 -18.410  23.823  1.00  0.00    -0.345 OA
ATOM     37  H4  UNL     1      18.691 -19.230  24.191  1.00  0.00     0.219 HD
ENDBRANCH  20  36
BRANCH  24  38
HETATM   38  O5  UNL     1      20.724 -13.746  22.962  1.00  0.00    -0.345 OA
ATOM     39  H5  UNL     1      21.095 -13.146  22.325  1.00  0.00     0.219 HD
ENDBRANCH  24  38
BRANCH   1  40
HETATM   40  C4  UNL     1      19.677 -13.809  19.975  1.00  0.00     0.065 C 
BRANCH  40  41
HETATM   41  C2  UNL     1      20.552 -12.802  19.346  1.00  0.00    -0.017 C 
HETATM   42  C1  UNL     1      21.161 -11.735  20.175  1.00  0.00     0.010 C 
HETATM   43  C3  UNL     1      20.008 -12.270  18.024  1.00  0.00     0.010 C 
ENDBRANCH  40  41
ENDBRANCH   1  40
BRANCH   6  44
HETATM   44  C8  UNL     1      16.294 -11.735  18.434  1.00  0.00     0.038 C 
BRANCH  44  45
HETATM   45  C9  UNL     1      16.011 -11.599  16.993  1.00  0.00    -0.020 C 
HETATM   46  C10 UNL     1      14.691 -11.088  16.550  1.00  0.00     0.009 C 
HETATM   47  C11 UNL     1      17.069 -10.611  16.432  1.00  0.00     0.009 C 
ENDBRANCH  44  45
ENDBRANCH   6  44
TORSDOF 13
ENDMDL
MODEL 2
REMARK VINA RESULT: -7.720751459      2.176      4.484
REMARK  13 active torsions:
REMARK  status: ('A' for Active; 'I' for Inactive)
REMARK    1  A    between atoms: C2_2  and  C4_4 
REMARK    2  A    between atoms: C4_4  and  C5_5 
REMARK    3  A    between atoms: C7_10  and  C8_11 
REMARK    4  A    between atoms: C8_11  and  C9_12 
REMARK    5  A    between atoms: C19_28  and  O4_29 
REMARK    6  A    between atoms: C20_31  and  C21_32 
REMARK    7  A    between atoms: C21_32  and  C22_33 
REMARK    8  A    between atoms: C22_33  and  C23_34 
REMARK    9  A    between atoms: C23_34  and  C24_35 
REMARK   10  A    between atoms: C24_35  and  C25_36 
REMARK   11  A    between atoms: C25_36  and  C26_37 
REMARK   12  A    between atoms: C26_37  and  C27_38 
REMARK   13  A    between atoms: C28_45  and  O5_46 
ROOT
HETATM    1  C5  UNL     1      15.994 -14.749  20.193  1.00  0.00     0.063 C 
HETATM    2  N1  UNL     1      15.379 -15.414  21.330  1.00  0.00    -0.325 N 
ATOM      3  H1  UNL     1      15.945 -15.348  22.176  1.00  0.00     0.169 HD
HETATM    4  C6  UNL     1      14.224 -16.104  21.528  1.00  0.00     0.244 C 
HETATM    5  O1  UNL     1      13.499 -15.779  22.549  1.00  0.00    -0.271 OA
HETATM    6  C7  UNL     1      13.569 -17.223  20.778  1.00  0.00     0.177 C 
HETATM    7  N2  UNL     1      13.728 -18.480  21.433  1.00  0.00    -0.346 N 
ATOM      8  H2  UNL     1      13.531 -19.275  20.825  1.00  0.00     0.163 HD
HETATM    9  C12 UNL     1      14.093 -18.855  22.720  1.00  0.00     0.240 C 
HETATM   10  O2  UNL     1      13.269 -19.456  23.464  1.00  0.00    -0.271 OA
HETATM   11  C13 UNL     1      15.413 -18.645  23.416  1.00  0.00     0.174 C 
HETATM   12  C14 UNL     1      15.340 -19.112  24.877  1.00  0.00     0.042 C 
HETATM   13  N3  UNL     1      16.486 -19.352  22.830  1.00  0.00    -0.342 N 
HETATM   14  C15 UNL     1      16.258 -20.502  21.955  1.00  0.00     0.153 C 
HETATM   15  C16 UNL     1      17.822 -18.971  23.071  1.00  0.00     0.238 C 
HETATM   16  O3  UNL     1      18.791 -19.784  22.891  1.00  0.00    -0.272 OA
HETATM   17  C17 UNL     1      18.142 -17.588  23.549  1.00  0.00     0.227 C 
HETATM   18  N4  UNL     1      19.486 -17.179  23.205  1.00  0.00    -0.356 N 
HETATM   19  C18 UNL     1      20.568 -18.069  23.653  1.00  0.00     0.152 C 
HETATM   20  C19 UNL     1      19.845 -16.013  22.482  1.00  0.00     0.161 C 
HETATM   21  C20 UNL     1      19.118 -14.743  22.343  1.00  0.00     0.062 C 
HETATM   22  N7  UNL     1      18.499 -14.655  21.037  1.00  0.00    -0.335 N 
ATOM     23  H7  UNL     1      19.120 -15.053  20.332  1.00  0.00     0.168 HD
HETATM   24  C28 UNL     1      17.351 -14.211  20.446  1.00  0.00     0.163 C 
ENDROOT
BRANCH  21  25
HETATM   25  C21 UNL     1      18.460 -14.125  23.484  1.00  0.00     0.062 C 
BRANCH  25  26
HETATM   26  C22 UNL     1      19.284 -13.501  24.569  1.00  0.00     0.006 C 
BRANCH  26  27
HETATM   27  C23 UNL     1      19.561 -14.291  25.779  1.00  0.00     0.000 C 
BRANCH  27  28
HETATM   28  C24 UNL     1      20.432 -13.497  26.724  1.00  0.00     0.000 C 
BRANCH  28  29
HETATM   29  C25 UNL     1      21.583 -12.801  26.074  1.00  0.00     0.007 C 
BRANCH  29  30
HETATM   30  C26 UNL     1      22.724 -13.804  25.911  1.00  0.00     0.072 C 
BRANCH  30  31
HETATM   31  C27 UNL     1      23.366 -13.539  24.607  1.00  0.00     0.086 C 
HETATM   32  N5  UNL     1      24.555 -13.038  24.543  1.00  0.00    -0.391 N 
ATOM     33  H52 UNL     1      25.072 -12.815  25.395  1.00  0.00     0.157 HD
ATOM     34  H51 UNL     1      24.998 -12.855  23.643  1.00  0.00     0.157 HD
HETATM   35  N6  UNL     1      22.638 -13.853  23.405  1.00  0.00    -0.088 NA
ENDBRANCH  30  31
ENDBRANCH  29  30
ENDBRANCH  28  29
ENDBRANCH  27  28
ENDBRANCH  26  27
ENDBRANCH  25  26
ENDBRANCH  21  25
BRANCH  20  36
HETATM   36  O4  UNL     1      20.981 -16.068  21.845  1.00  0.00    -0.345 OA
ATOM     37  H4  UNL     1      20.925 -16.254  20.915  1.00  0.00     0.219 HD
ENDBRANCH  20  36
BRANCH  24  38
HETATM   38  O5  UNL     1      17.456 -12.983  19.965  1.00  0.00    -0.345 OA
ATOM     39  H5  UNL     1      17.088 -12.938  19.090  1.00  0.00     0.219 HD
ENDBRANCH  24  38
BRANCH   1  40
HETATM   40  C4  UNL     1      15.747 -15.429  18.906  1.00  0.00     0.065 C 
BRANCH  40  41
HETATM   41  C2  UNL     1      14.834 -14.862  17.897  1.00  0.00    -0.017 C 
HETATM   42  C1  UNL     1      15.388 -14.157  16.715  1.00  0.00     0.010 C 
HETATM   43  C3  UNL     1      13.644 -14.126  18.504  1.00  0.00     0.010 C 
ENDBRANCH  40  41
ENDBRANCH   1  40
BRANCH   6  44
HETATM   44  C8  UNL     1      12.114 -16.890  20.575  1.00  0.00     0.038 C 
BRANCH  44  45
HETATM   45  C9  UNL     1      11.441 -17.309  19.331  1.00  0.00    -0.020 C 
HETATM   46  C10 UNL     1      10.584 -16.344  18.601  1.00  0.00     0.009 C 
HETATM   47  C11 UNL     1      12.567 -17.721  18.344  1.00  0.00     0.009 C 
ENDBRANCH  44  45
ENDBRANCH   6  44
TORSDOF 13
ENDMDL
MODEL 3
REMARK VINA RESULT: -7.649739849      2.155      3.170
REMARK  13 active torsions:
REMARK  status: ('A' for Active; 'I' for Inactive)
REMARK    1  A    between atoms: C2_2  and  C4_4 
REMARK    2  A    between atoms: C4_4  and  C5_5 
REMARK    3  A    between atoms: C7_10  and  C8_11 
REMARK    4  A    between atoms: C8_11  and  C9_12 
REMARK    5  A    between atoms: C19_28  and  O4_29 
REMARK    6  A    between atoms: C20_31  and  C21_32 
REMARK    7  A    between atoms: C21_32  and  C22_33 
REMARK    8  A    between atoms: C22_33  and  C23_34 
REMARK    9  A    between atoms: C23_34  and  C24_35 
REMARK   10  A    between atoms: C24_35  and  C25_36 
REMARK   11  A    between atoms: C25_36  and  C26_37 
REMARK   12  A    between atoms: C26_37  and  C27_38 
REMARK   13  A    between atoms: C28_45  and  O5_46 
ROOT
HETATM    1  C5  UNL     1      16.807 -11.804  20.850  1.00  0.00     0.063 C 
HETATM    2  N1  UNL     1      15.894 -12.716  21.520  1.00  0.00    -0.325 N 
ATOM      3  H1  UNL     1      16.373 -13.351  22.158  1.00  0.00     0.169 HD
HETATM    4  C6  UNL     1      14.550 -12.919  21.492  1.00  0.00     0.244 C 
HETATM    5  O1  UNL     1      13.932 -12.992  22.627  1.00  0.00    -0.271 OA
HETATM    6  C7  UNL     1      13.570 -13.086  20.372  1.00  0.00     0.177 C 
HETATM    7  N2  UNL     1      13.175 -14.444  20.196  1.00  0.00    -0.346 N 
ATOM      8  H2  UNL     1      12.732 -14.619  19.294  1.00  0.00     0.163 HD
HETATM    9  C12 UNL     1      13.263 -15.582  20.988  1.00  0.00     0.240 C 
HETATM   10  O2  UNL     1      12.214 -16.148  21.405  1.00  0.00    -0.271 OA
HETATM   11  C13 UNL     1      14.501 -16.300  21.460  1.00  0.00     0.174 C 
HETATM   12  C14 UNL     1      14.138 -17.445  22.416  1.00  0.00     0.042 C 
HETATM   13  N3  UNL     1      15.255 -16.882  20.417  1.00  0.00    -0.342 N 
HETATM   14  C15 UNL     1      14.666 -17.156  19.106  1.00  0.00     0.153 C 
HETATM   15  C16 UNL     1      16.611 -17.222  20.606  1.00  0.00     0.238 C 
HETATM   16  O3  UNL     1      17.196 -18.074  19.856  1.00  0.00    -0.272 OA
HETATM   17  C17 UNL     1      17.407 -16.585  21.703  1.00  0.00     0.227 C 
HETATM   18  N4  UNL     1      18.826 -16.575  21.425  1.00  0.00    -0.356 N 
HETATM   19  C18 UNL     1      19.436 -17.881  21.131  1.00  0.00     0.152 C 
HETATM   20  C19 UNL     1      19.667 -15.433  21.411  1.00  0.00     0.161 C 
HETATM   21  C20 UNL     1      19.507 -14.150  22.110  1.00  0.00     0.062 C 
HETATM   22  N7  UNL     1      19.075 -13.122  21.186  1.00  0.00    -0.335 N 
ATOM     23  H7  UNL     1      19.545 -13.243  20.289  1.00  0.00     0.168 HD
HETATM   24  C28 UNL     1      18.242 -12.042  21.130  1.00  0.00     0.163 C 
ENDROOT
BRANCH  21  25
HETATM   25  C21 UNL     1      19.055 -14.099  23.492  1.00  0.00     0.062 C 
BRANCH  25  26
HETATM   26  C22 UNL     1      19.509 -15.147  24.461  1.00  0.00     0.006 C 
BRANCH  26  27
HETATM   27  C23 UNL     1      19.984 -14.718  25.785  1.00  0.00     0.000 C 
BRANCH  27  28
HETATM   28  C24 UNL     1      20.262 -13.233  25.777  1.00  0.00     0.000 C 
BRANCH  28  29
HETATM   29  C25 UNL     1      21.618 -12.850  26.273  1.00  0.00     0.007 C 
BRANCH  29  30
HETATM   30  C26 UNL     1      22.599 -13.960  25.901  1.00  0.00     0.072 C 
BRANCH  30  31
HETATM   31  C27 UNL     1      23.310 -13.533  24.678  1.00  0.00     0.086 C 
HETATM   32  N5  UNL     1      22.860 -13.843  23.507  1.00  0.00    -0.391 N 
ATOM     33  H52 UNL     1      22.004 -14.389  23.408  1.00  0.00     0.157 HD
ATOM     34  H51 UNL     1      23.351 -13.548  22.663  1.00  0.00     0.157 HD
HETATM   35  N6  UNL     1      24.518 -12.762  24.818  1.00  0.00    -0.088 NA
ENDBRANCH  30  31
ENDBRANCH  29  30
ENDBRANCH  28  29
ENDBRANCH  27  28
ENDBRANCH  26  27
ENDBRANCH  25  26
ENDBRANCH  21  25
BRANCH  20  36
HETATM   36  O4  UNL     1      20.737 -15.527  20.673  1.00  0.00    -0.345 OA
ATOM     37  H4  UNL     1      21.494 -15.923  21.089  1.00  0.00     0.219 HD
ENDBRANCH  20  36
BRANCH  24  38
HETATM   38  O5  UNL     1      18.855 -10.899  21.390  1.00  0.00    -0.345 OA
ATOM     39  H5  UNL     1      18.703 -10.640  22.292  1.00  0.00     0.219 HD
ENDBRANCH  24  38
BRANCH   1  40
HETATM   40  C4  UNL     1      16.416 -11.491  19.461  1.00  0.00     0.065 C 
BRANCH  40  41
HETATM   41  C2  UNL     1      16.900 -12.295  18.323  1.00  0.00    -0.017 C 
HETATM   42  C1  UNL     1      17.627 -11.636  17.211  1.00  0.00     0.010 C 
HETATM   43  C3  UNL     1      15.879 -13.313  17.825  1.00  0.00     0.010 C 
ENDBRANCH  40  41
ENDBRANCH   1  40
BRANCH   6  44
HETATM   44  C8  UNL     1      12.382 -12.196  20.624  1.00  0.00     0.038 C 
BRANCH  44  45
HETATM   45  C9  UNL     1      12.566 -10.934  21.364  1.00  0.00    -0.020 C 
HETATM   46  C10 UNL     1      12.442  -9.640  20.650  1.00  0.00     0.009 C 
HETATM   47  C11 UNL     1      11.484 -10.920  22.478  1.00  0.00     0.009 C 
ENDBRANCH  44  45
ENDBRANCH   6  44
TORSDOF 13
ENDMDL
MODEL 4
REMARK VINA RESULT: -7.567264761      1.343      1.724
REMARK  13 active torsions:
REMARK  status: ('A' for Active; 'I' for Inactive)
REMARK    1  A    between atoms: C2_2  and  C4_4 
REMARK    2  A    between atoms: C4_4  and  C5_5 
REMARK    3  A    between atoms: C7_10  and  C8_11 
REMARK    4  A    between atoms: C8_11  and  C9_12 
REMARK    5  A    between atoms: C19_28  and  O4_29 
REMARK    6  A    between atoms: C20_31  and  C21_32 
REMARK    7  A    between atoms: C21_32  and  C22_33 
REMARK    8  A    between atoms: C22_33  and  C23_34 
REMARK    9  A    between atoms: C23_34  and  C24_35 
REMARK   10  A    between atoms: C24_35  and  C25_36 
REMARK   11  A    between atoms: C25_36  and  C26_37 
REMARK   12  A    between atoms: C26_37  and  C27_38 
REMARK   13  A    between atoms: C28_45  and  O5_46 
ROOT
HETATM    1  C5  UNL     1      19.518 -13.926  21.342  1.00  0.00     0.063 C 
HETATM    2  N1  UNL     1      18.115 -14.188  21.623  1.00  0.00    -0.325 N 
ATOM      3  H1  UNL     1      17.985 -14.831  22.403  1.00  0.00     0.169 HD
HETATM    4  C6  UNL     1      16.937 -13.774  21.085  1.00  0.00     0.244 C 
HETATM    5  O1  UNL     1      16.027 -13.342  21.898  1.00  0.00    -0.271 OA
HETATM    6  C7  UNL     1      16.432 -13.703  19.677  1.00  0.00     0.177 C 
HETATM    7  N2  UNL     1      15.511 -14.750  19.379  1.00  0.00    -0.346 N 
ATOM      8  H2  UNL     1      15.364 -14.881  18.378  1.00  0.00     0.163 HD
HETATM    9  C12 UNL     1      14.769 -15.630  20.158  1.00  0.00     0.240 C 
HETATM   10  O2  UNL     1      13.508 -15.578  20.148  1.00  0.00    -0.271 OA
HETATM   11  C13 UNL     1      15.269 -16.715  21.075  1.00  0.00     0.174 C 
HETATM   12  C14 UNL     1      14.104 -17.369  21.833  1.00  0.00     0.042 C 
HETATM   13  N3  UNL     1      15.941 -17.762  20.407  1.00  0.00    -0.342 N 
HETATM   14  C15 UNL     1      15.763 -17.996  18.974  1.00  0.00     0.153 C 
HETATM   15  C16 UNL     1      16.813 -18.624  21.105  1.00  0.00     0.238 C 
HETATM   16  O3  UNL     1      17.121 -19.776  20.645  1.00  0.00    -0.272 OA
HETATM   17  C17 UNL     1      17.405 -18.207  22.415  1.00  0.00     0.227 C 
HETATM   18  N4  UNL     1      18.651 -18.883  22.702  1.00  0.00    -0.356 N 
HETATM   19  C18 UNL     1      18.610 -20.353  22.678  1.00  0.00     0.152 C 
HETATM   20  C19 UNL     1      19.891 -18.261  22.997  1.00  0.00     0.161 C 
HETATM   21  C20 UNL     1      20.153 -16.931  23.567  1.00  0.00     0.062 C 
HETATM   22  N7  UNL     1      20.606 -16.020  22.536  1.00  0.00    -0.335 N 
ATOM     23  H7  UNL     1      21.223 -16.510  21.888  1.00  0.00     0.168 HD
HETATM   24  C28 UNL     1      20.473 -14.716  22.153  1.00  0.00     0.163 C 
ENDROOT
BRANCH  21  25
HETATM   25  C21 UNL     1      19.356 -16.416  24.670  1.00  0.00     0.062 C 
BRANCH  25  26
HETATM   26  C22 UNL     1      20.016 -15.622  25.755  1.00  0.00     0.006 C 
BRANCH  26  27
HETATM   27  C23 UNL     1      19.502 -14.275  26.049  1.00  0.00     0.000 C 
BRANCH  27  28
HETATM   28  C24 UNL     1      20.569 -13.243  25.769  1.00  0.00     0.000 C 
BRANCH  28  29
HETATM   29  C25 UNL     1      21.848 -13.455  26.511  1.00  0.00     0.007 C 
BRANCH  29  30
HETATM   30  C26 UNL     1      22.996 -13.459  25.504  1.00  0.00     0.072 C 
BRANCH  30  31
HETATM   31  C27 UNL     1      23.402 -14.866  25.298  1.00  0.00     0.086 C 
HETATM   32  N5  UNL     1      23.658 -15.635  26.304  1.00  0.00    -0.391 N 
ATOM     33  H52 UNL     1      23.586 -15.283  27.259  1.00  0.00     0.157 HD
ATOM     34  H51 UNL     1      23.939 -16.605  26.162  1.00  0.00     0.157 HD
HETATM   35  N6  UNL     1      23.504 -15.362  23.951  1.00  0.00    -0.088 NA
ENDBRANCH  30  31
ENDBRANCH  29  30
ENDBRANCH  28  29
ENDBRANCH  27  28
ENDBRANCH  26  27
ENDBRANCH  25  26
ENDBRANCH  21  25
BRANCH  20  36
HETATM   36  O4  UNL     1      20.956 -18.962  22.725  1.00  0.00    -0.345 OA
ATOM     37  H4  UNL     1      20.893 -19.533  21.969  1.00  0.00     0.219 HD
ENDBRANCH  20  36
BRANCH  24  38
HETATM   38  O5  UNL     1      21.438 -13.939  22.615  1.00  0.00    -0.345 OA
ATOM     39  H5  UNL     1      22.251 -14.111  22.152  1.00  0.00     0.219 HD
ENDBRANCH  24  38
BRANCH   1  40
HETATM   40  C4  UNL     1      19.810 -13.749  19.906  1.00  0.00     0.065 C 
BRANCH  40  41
HETATM   41  C2  UNL     1      20.182 -12.434  19.351  1.00  0.00    -0.017 C 
HETATM   42  C1  UNL     1      20.478 -12.302  17.904  1.00  0.00     0.010 C 
HETATM   43  C3  UNL     1      21.179 -11.672  20.218  1.00  0.00     0.010 C 
ENDBRANCH  40  41
ENDBRANCH   1  40
BRANCH   6  44
HETATM   44  C8  UNL     1      15.817 -12.348  19.445  1.00  0.00     0.038 C 
BRANCH  44  45
HETATM   45  C9  UNL     1      16.010 -11.677  18.145  1.00  0.00    -0.020 C 
HETATM   46  C10 UNL     1      17.048 -12.176  17.210  1.00  0.00     0.009 C 
HETATM   47  C11 UNL     1      14.657 -11.788  17.392  1.00  0.00     0.009 C 
ENDBRANCH  44  45
ENDBRANCH   6  44
TORSDOF 13
ENDMDL
MODEL 5
REMARK VINA RESULT: -7.496118539      1.997      4.477
REMARK  13 active torsions:
REMARK  status: ('A' for Active; 'I' for Inactive)
REMARK    1  A    between atoms: C2_2  and  C4_4 
REMARK    2  A    between atoms: C4_4  and  C5_5 
REMARK    3  A    between atoms: C7_10  and  C8_11 
REMARK    4  A    between atoms: C8_11  and  C9_12 
REMARK    5  A    between atoms: C19_28  and  O4_29 
REMARK    6  A    between atoms: C20_31  and  C21_32 
REMARK    7  A    between atoms: C21_32  and  C22_33 
REMARK    8  A    between atoms: C22_33  and  C23_34 
REMARK    9  A    between atoms: C23_34  and  C24_35 
REMARK   10  A    between atoms: C24_35  and  C25_36 
REMARK   11  A    between atoms: C25_36  and  C26_37 
REMARK   12  A    between atoms: C26_37  and  C27_38 
REMARK   13  A    between atoms: C28_45  and  O5_46 
ROOT
HETATM    1  C5  UNL     1      15.533 -13.739  20.676  1.00  0.00     0.063 C 
HETATM    2  N1  UNL     1      15.158 -15.004  21.287  1.00  0.00    -0.325 N 
ATOM      3  H1  UNL     1      15.761 -15.255  22.070  1.00  0.00     0.169 HD
HETATM    4  C6  UNL     1      14.189 -15.930  21.057  1.00  0.00     0.244 C 
HETATM    5  O1  UNL     1      13.493 -16.333  22.070  1.00  0.00    -0.271 OA
HETATM    6  C7  UNL     1      13.723 -16.626  19.815  1.00  0.00     0.177 C 
HETATM    7  N2  UNL     1      14.188 -17.971  19.741  1.00  0.00    -0.346 N 
ATOM      8  H2  UNL     1      14.114 -18.369  18.805  1.00  0.00     0.163 HD
HETATM    9  C12 UNL     1      14.721 -18.857  20.669  1.00  0.00     0.240 C 
HETATM   10  O2  UNL     1      14.098 -19.914  20.967  1.00  0.00    -0.271 OA
HETATM   11  C13 UNL     1      16.018 -18.750  21.428  1.00  0.00     0.174 C 
HETATM   12  C14 UNL     1      16.155 -19.896  22.440  1.00  0.00     0.042 C 
HETATM   13  N3  UNL     1      17.166 -18.810  20.607  1.00  0.00    -0.342 N 
HETATM   14  C15 UNL     1      17.114 -19.375  19.258  1.00  0.00     0.153 C 
HETATM   15  C16 UNL     1      18.409 -18.325  21.063  1.00  0.00     0.238 C 
HETATM   16  O3  UNL     1      19.508 -18.703  20.533  1.00  0.00    -0.272 OA
HETATM   17  C17 UNL     1      18.473 -17.345  22.193  1.00  0.00     0.227 C 
HETATM   18  N4  UNL     1      19.672 -16.538  22.161  1.00  0.00    -0.356 N 
HETATM   19  C18 UNL     1      20.946 -17.274  22.136  1.00  0.00     0.152 C 
HETATM   20  C19 UNL     1      19.726 -15.121  22.152  1.00  0.00     0.161 C 
HETATM   21  C20 UNL     1      18.744 -14.148  22.652  1.00  0.00     0.062 C 
HETATM   22  N7  UNL     1      18.022 -13.547  21.550  1.00  0.00    -0.335 N 
ATOM     23  H7  UNL     1      18.656 -13.387  20.767  1.00  0.00     0.168 HD
HETATM   24  C28 UNL     1      16.765 -13.125  21.223  1.00  0.00     0.163 C 
ENDROOT
BRANCH  21  25
HETATM   25  C21 UNL     1      18.062 -14.354  23.921  1.00  0.00     0.062 C 
BRANCH  25  26
HETATM   26  C22 UNL     1      18.831 -14.249  25.202  1.00  0.00     0.006 C 
BRANCH  26  27
HETATM   27  C23 UNL     1      19.931 -13.276  25.281  1.00  0.00     0.000 C 
BRANCH  27  28
HETATM   28  C24 UNL     1      20.652 -13.418  26.601  1.00  0.00     0.000 C 
BRANCH  28  29
HETATM   29  C25 UNL     1      22.137 -13.286  26.517  1.00  0.00     0.007 C 
BRANCH  29  30
HETATM   30  C26 UNL     1      22.680 -14.454  25.696  1.00  0.00     0.072 C 
BRANCH  30  31
HETATM   31  C27 UNL     1      23.495 -13.887  24.600  1.00  0.00     0.086 C 
HETATM   32  N5  UNL     1      24.746 -13.617  24.776  1.00  0.00    -0.391 N 
ATOM     33  H52 UNL     1      25.193 -13.791  25.677  1.00  0.00     0.157 HD
ATOM     34  H51 UNL     1      25.307 -13.226  24.021  1.00  0.00     0.157 HD
HETATM   35  N6  UNL     1      22.863 -13.642  23.330  1.00  0.00    -0.088 NA
ENDBRANCH  30  31
ENDBRANCH  29  30
ENDBRANCH  28  29
ENDBRANCH  27  28
ENDBRANCH  26  27
ENDBRANCH  25  26
ENDBRANCH  21  25
BRANCH  20  36
HETATM   36  O4  UNL     1      20.797 -14.598  21.623  1.00  0.00    -0.345 OA
ATOM     37  H4  UNL     1      21.610 -15.059  21.793  1.00  0.00     0.219 HD
ENDBRANCH  20  36
BRANCH  24  38
HETATM   38  O5  UNL     1      16.578 -11.834  21.442  1.00  0.00    -0.345 OA
ATOM     39  H5  UNL     1      17.201 -11.514  22.083  1.00  0.00     0.219 HD
ENDBRANCH  24  38
BRANCH   1  40
HETATM   40  C4  UNL     1      15.335 -13.708  19.213  1.00  0.00     0.065 C 
BRANCH  40  41
HETATM   41  C2  UNL     1      14.351 -12.803  18.588  1.00  0.00    -0.017 C 
HETATM   42  C1  UNL     1      14.768 -11.921  17.472  1.00  0.00     0.010 C 
HETATM   43  C3  UNL     1      13.467 -12.081  19.598  1.00  0.00     0.010 C 
ENDBRANCH  40  41
ENDBRANCH   1  40
BRANCH   6  44
HETATM   44  C8  UNL     1      12.220 -16.560  19.751  1.00  0.00     0.038 C 
BRANCH  44  45
HETATM   45  C9  UNL     1      11.503 -17.341  18.726  1.00  0.00    -0.020 C 
HETATM   46  C10 UNL     1      10.980 -18.687  19.062  1.00  0.00     0.009 C 
HETATM   47  C11 UNL     1      10.273 -16.489  18.310  1.00  0.00     0.009 C 
ENDBRANCH  44  45
ENDBRANCH   6  44
TORSDOF 13
ENDMDL
