MODEL 1
REMARK VINA RESULT: -7.419116024      0.000      0.000
REMARK  11 active torsions:
REMARK  status: ('A' for Active; 'I' for Inactive)
REMARK    1  A    between atoms: C2_2  and  C3_3 
REMARK    2  A    between atoms: C3_3  and  N1_5 
REMARK    3  A    between atoms: C8_11  and  C9_12 
REMARK    4  A    between atoms: C9_12  and  C10_13 
REMARK    5  A    between atoms: C10_13  and  C11_14 
REMARK    6  A    between atoms: C11_14  and  N3_15 
REMARK    7  A    between atoms: C13_20  and  O2_21 
REMARK    8  A    between atoms: C14_25  and  C15_26 
REMARK    9  A    between atoms: C15_26  and  C16_27 
REMARK   10  A    between atoms: C20_34  and  C21_35 
REMARK   11  A    between atoms: C21_35  and  C22_36 
ROOT
HETATM    1  N1  UNL     1      16.343 -15.865  21.009  1.00  0.00    -0.353 N 
HETATM    2  C5  UNL     1      15.427 -16.455  22.046  1.00  0.00     0.228 C 
HETATM    3  C6  UNL     1      15.926 -17.876  21.825  1.00  0.00     0.247 C 
HETATM    4  O1  UNL     1      15.185 -18.798  21.599  1.00  0.00    -0.271 OA
HETATM    5  N2  UNL     1      17.400 -17.738  21.963  1.00  0.00    -0.272 N 
HETATM    6  C7  UNL     1      17.652 -16.434  21.449  1.00  0.00     0.123 C 
HETATM    7  C8  UNL     1      18.820 -15.756  21.354  1.00  0.00     0.037 C 
HETATM    8  C13 UNL     1      20.160 -16.155  21.758  1.00  0.00     0.146 C 
HETATM    9  N6  UNL     1      20.809 -16.387  22.987  1.00  0.00    -0.357 N 
ATOM     10  H6  UNL     1      21.489 -17.147  22.979  1.00  0.00     0.162 HD
HETATM   11  C14 UNL     1      20.659 -15.706  24.272  1.00  0.00     0.176 C 
HETATM   12  C19 UNL     1      21.047 -16.553  25.413  1.00  0.00     0.241 C 
HETATM   13  O3  UNL     1      22.277 -16.517  25.763  1.00  0.00    -0.271 OA
HETATM   14  N7  UNL     1      20.191 -17.396  26.146  1.00  0.00    -0.346 N 
ATOM     15  H7  UNL     1      20.508 -18.351  26.312  1.00  0.00     0.163 HD
HETATM   16  C20 UNL     1      18.883 -17.018  26.691  1.00  0.00     0.177 C 
HETATM   17  C25 UNL     1      17.858 -17.077  25.637  1.00  0.00     0.240 C 
HETATM   18  O4  UNL     1      17.118 -16.023  25.537  1.00  0.00    -0.271 OA
HETATM   19  N8  UNL     1      17.578 -18.104  24.736  1.00  0.00    -0.354 N 
ATOM     20  H8  UNL     1      16.587 -18.325  24.649  1.00  0.00     0.162 HD
HETATM   21  C26 UNL     1      18.428 -18.899  23.918  1.00  0.00     0.175 C 
HETATM   22  C27 UNL     1      18.135 -18.850  22.468  1.00  0.00     0.013 C 
HETATM   23  C28 UNL     1      19.295 -19.362  21.667  1.00  0.00     0.066 C 
ENDROOT
BRANCH   7  24
HETATM   24  C9  UNL     1      18.756 -14.356  20.760  1.00  0.00     0.048 C 
BRANCH  24  25
HETATM   25  C10 UNL     1      18.769 -13.280  21.830  1.00  0.00     0.025 C 
BRANCH  25  26
HETATM   26  C11 UNL     1      18.431 -11.926  21.165  1.00  0.00     0.122 C 
BRANCH  26  27
HETATM   27  N3  UNL     1      17.090 -11.578  21.487  1.00  0.00    -0.367 N 
HETATM   28  C12 UNL     1      16.254 -11.293  20.553  1.00  0.00     0.196 C 
HETATM   29  N4  UNL     1      14.910 -10.944  20.876  1.00  0.00    -0.067 NA
HETATM   30  N5  UNL     1      16.716 -11.340  19.206  1.00  0.00    -0.067 NA
ATOM     31  H3  UNL     1      16.791 -11.555  22.461  1.00  0.00     0.161 HD
ENDBRANCH  26  27
ENDBRANCH  25  26
ENDBRANCH  24  25
ENDBRANCH   7  24
BRANCH   8  32
HETATM   32  O2  UNL     1      21.003 -16.356  20.782  1.00  0.00    -0.346 OA
ATOM     33  H2  UNL     1      21.433 -15.578  20.448  1.00  0.00     0.219 HD
ENDBRANCH   8  32
BRANCH   1  34
HETATM   34  C3  UNL     1      15.874 -15.136  19.938  1.00  0.00     0.082 C 
HETATM   35  C4  UNL     1      15.431 -16.184  18.841  1.00  0.00     0.032 C 
BRANCH  34  36
HETATM   36  C2  UNL     1      14.493 -14.530  20.296  1.00  0.00     0.020 C 
HETATM   37  C1  UNL     1      13.843 -13.955  19.058  1.00  0.00     0.007 C 
ENDBRANCH  34  36
ENDBRANCH   1  34
BRANCH  11  38
HETATM   38  C15 UNL     1      21.536 -14.475  24.349  1.00  0.00     0.038 C 
BRANCH  38  39
HETATM   39  C16 UNL     1      20.928 -13.317  25.035  1.00  0.00    -0.020 C 
HETATM   40  C17 UNL     1      21.611 -13.051  26.373  1.00  0.00     0.009 C 
HETATM   41  C18 UNL     1      19.454 -13.673  25.283  1.00  0.00     0.009 C 
ENDBRANCH  38  39
ENDBRANCH  11  38
BRANCH  16  42
HETATM   42  C21 UNL     1      18.532 -17.887  27.848  1.00  0.00     0.038 C 
BRANCH  42  43
HETATM   43  C22 UNL     1      19.374 -19.064  28.165  1.00  0.00    -0.020 C 
HETATM   44  C23 UNL     1      19.857 -19.282  29.540  1.00  0.00     0.009 C 
HETATM   45  C24 UNL     1      18.675 -20.350  27.698  1.00  0.00     0.009 C 
ENDBRANCH  42  43
ENDBRANCH  16  42
TORSDOF 11
ENDMDL
MODEL 2
REMARK VINA RESULT: -7.367030711      0.820      1.007
REMARK  11 active torsions:
REMARK  status: ('A' for Active; 'I' for Inactive)
REMARK    1  A    between atoms: C2_2  and  C3_3 
REMARK    2  A    between atoms: C3_3  and  N1_5 
REMARK    3  A    between atoms: C8_11  and  C9_12 
REMARK    4  A    between atoms: C9_12  and  C10_13 
REMARK    5  A    between atoms: C10_13  and  C11_14 
REMARK    6  A    between atoms: C11_14  and  N3_15 
REMARK    7  A    between atoms: C13_20  and  O2_21 
REMARK    8  A    between atoms: C14_25  and  C15_26 
REMARK    9  A    between atoms: C15_26  and  C16_27 
REMARK   10  A    between atoms: C20_34  and  C21_35 
REMARK   11  A    between atoms: C21_35  and  C22_36 
ROOT
HETATM    1  N1  UNL     1      16.208 -16.540  21.270  1.00  0.00    -0.353 N 
HETATM    2  C5  UNL     1      15.566 -17.445  22.287  1.00  0.00     0.228 C 
HETATM    3  C6  UNL     1      16.383 -18.660  21.869  1.00  0.00     0.247 C 
HETATM    4  O1  UNL     1      15.880 -19.716  21.583  1.00  0.00    -0.271 OA
HETATM    5  N2  UNL     1      17.782 -18.159  21.929  1.00  0.00    -0.272 N 
HETATM    6  C7  UNL     1      17.651 -16.791  21.557  1.00  0.00     0.123 C 
HETATM    7  C8  UNL     1      18.599 -15.828  21.469  1.00  0.00     0.037 C 
HETATM    8  C13 UNL     1      20.027 -15.903  21.738  1.00  0.00     0.146 C 
HETATM    9  N6  UNL     1      20.822 -16.078  22.889  1.00  0.00    -0.357 N 
ATOM     10  H6  UNL     1      21.667 -16.632  22.748  1.00  0.00     0.162 HD
HETATM   11  C14 UNL     1      20.624 -15.588  24.251  1.00  0.00     0.176 C 
HETATM   12  C19 UNL     1      21.314 -16.412  25.258  1.00  0.00     0.241 C 
HETATM   13  O3  UNL     1      22.523 -16.093  25.532  1.00  0.00    -0.271 OA
HETATM   14  N7  UNL     1      20.767 -17.515  25.940  1.00  0.00    -0.346 N 
ATOM     15  H7  UNL     1      21.327 -18.367  25.972  1.00  0.00     0.163 HD
HETATM   16  C20 UNL     1      19.461 -17.543  26.606  1.00  0.00     0.177 C 
HETATM   17  C25 UNL     1      18.392 -17.763  25.620  1.00  0.00     0.240 C 
HETATM   18  O4  UNL     1      17.406 -16.932  25.691  1.00  0.00    -0.271 OA
HETATM   19  N8  UNL     1      18.298 -18.735  24.624  1.00  0.00    -0.354 N 
ATOM     20  H8  UNL     1      17.389 -19.195  24.574  1.00  0.00     0.162 HD
HETATM   21  C26 UNL     1      19.241 -19.199  23.666  1.00  0.00     0.175 C 
HETATM   22  C27 UNL     1      18.814 -19.086  22.253  1.00  0.00     0.013 C 
HETATM   23  C28 UNL     1      19.988 -19.201  21.327  1.00  0.00     0.066 C 
ENDROOT
BRANCH   7  24
HETATM   24  C9  UNL     1      18.132 -14.441  21.049  1.00  0.00     0.048 C 
BRANCH  24  25
HETATM   25  C10 UNL     1      18.906 -13.340  21.750  1.00  0.00     0.025 C 
BRANCH  25  26
HETATM   26  C11 UNL     1      18.542 -11.991  21.089  1.00  0.00     0.122 C 
BRANCH  26  27
HETATM   27  N3  UNL     1      17.223 -11.628  21.480  1.00  0.00    -0.367 N 
HETATM   28  C12 UNL     1      16.353 -11.300  20.594  1.00  0.00     0.196 C 
HETATM   29  N4  UNL     1      15.032 -10.936  20.985  1.00  0.00    -0.067 NA
HETATM   30  N5  UNL     1      16.755 -11.316  19.226  1.00  0.00    -0.067 NA
ATOM     31  H3  UNL     1      16.968 -11.628  22.467  1.00  0.00     0.161 HD
ENDBRANCH  26  27
ENDBRANCH  25  26
ENDBRANCH  24  25
ENDBRANCH   7  24
BRANCH   8  32
HETATM   32  O2  UNL     1      20.801 -15.784  20.695  1.00  0.00    -0.346 OA
ATOM     33  H2  UNL     1      21.731 -15.732  20.881  1.00  0.00     0.219 HD
ENDBRANCH   8  32
BRANCH   1  34
HETATM   34  C3  UNL     1      15.475 -15.857  20.324  1.00  0.00     0.082 C 
HETATM   35  C4  UNL     1      15.427 -16.779  19.041  1.00  0.00     0.032 C 
BRANCH  34  36
HETATM   36  C2  UNL     1      13.978 -15.878  20.721  1.00  0.00     0.020 C 
HETATM   37  C1  UNL     1      13.542 -14.503  21.173  1.00  0.00     0.007 C 
ENDBRANCH  34  36
ENDBRANCH   1  34
BRANCH  11  38
HETATM   38  C15 UNL     1      21.168 -14.186  24.417  1.00  0.00     0.038 C 
BRANCH  38  39
HETATM   39  C16 UNL     1      20.301 -13.265  25.181  1.00  0.00    -0.020 C 
HETATM   40  C17 UNL     1      20.910 -12.940  26.541  1.00  0.00     0.009 C 
HETATM   41  C18 UNL     1      18.961 -13.988  25.387  1.00  0.00     0.009 C 
ENDBRANCH  38  39
ENDBRANCH  11  38
BRANCH  16  42
HETATM   42  C21 UNL     1      19.445 -18.582  27.674  1.00  0.00     0.038 C 
BRANCH  42  43
HETATM   43  C22 UNL     1      18.273 -18.693  28.572  1.00  0.00    -0.020 C 
HETATM   44  C23 UNL     1      17.410 -19.887  28.522  1.00  0.00     0.009 C 
HETATM   45  C24 UNL     1      18.708 -18.483  30.031  1.00  0.00     0.009 C 
ENDBRANCH  42  43
ENDBRANCH  16  42
TORSDOF 11
ENDMDL
MODEL 3
REMARK VINA RESULT: -7.041252344      3.107      6.683
REMARK  11 active torsions:
REMARK  status: ('A' for Active; 'I' for Inactive)
REMARK    1  A    between atoms: C2_2  and  C3_3 
REMARK    2  A    between atoms: C3_3  and  N1_5 
REMARK    3  A    between atoms: C8_11  and  C9_12 
REMARK    4  A    between atoms: C9_12  and  C10_13 
REMARK    5  A    between atoms: C10_13  and  C11_14 
REMARK    6  A    between atoms: C11_14  and  N3_15 
REMARK    7  A    between atoms: C13_20  and  O2_21 
REMARK    8  A    between atoms: C14_25  and  C15_26 
REMARK    9  A    between atoms: C15_26  and  C16_27 
REMARK   10  A    between atoms: C20_34  and  C21_35 
REMARK   11  A    between atoms: C21_35  and  C22_36 
ROOT
HETATM    1  N1  UNL     1      15.540 -13.102  18.030  1.00  0.00    -0.353 N 
HETATM    2  C5  UNL     1      16.902 -12.651  18.482  1.00  0.00     0.228 C 
HETATM    3  C6  UNL     1      16.352 -11.772  19.597  1.00  0.00     0.247 C 
HETATM    4  O1  UNL     1      16.653 -10.612  19.719  1.00  0.00    -0.271 OA
HETATM    5  N2  UNL     1      15.464 -12.699  20.347  1.00  0.00    -0.272 N 
HETATM    6  C7  UNL     1      14.961 -13.559  19.329  1.00  0.00     0.123 C 
HETATM    7  C8  UNL     1      14.126 -14.620  19.432  1.00  0.00     0.037 C 
HETATM    8  C13 UNL     1      13.507 -15.202  20.613  1.00  0.00     0.146 C 
HETATM    9  N6  UNL     1      13.967 -15.910  21.741  1.00  0.00    -0.357 N 
ATOM     10  H6  UNL     1      13.475 -15.702  22.610  1.00  0.00     0.162 HD
HETATM   11  C14 UNL     1      15.039 -16.896  21.858  1.00  0.00     0.176 C 
HETATM   12  C19 UNL     1      15.588 -16.980  23.222  1.00  0.00     0.241 C 
HETATM   13  O3  UNL     1      15.017 -17.799  24.023  1.00  0.00    -0.271 OA
HETATM   14  N7  UNL     1      16.676 -16.241  23.723  1.00  0.00    -0.346 N 
ATOM     15  H7  UNL     1      16.551 -15.779  24.624  1.00  0.00     0.163 HD
HETATM   16  C20 UNL     1      17.974 -16.079  23.059  1.00  0.00     0.177 C 
HETATM   17  C25 UNL     1      17.887 -15.039  22.021  1.00  0.00     0.240 C 
HETATM   18  O4  UNL     1      18.350 -15.383  20.865  1.00  0.00    -0.271 OA
HETATM   19  N8  UNL     1      17.375 -13.745  22.111  1.00  0.00    -0.354 N 
ATOM     20  H8  UNL     1      17.972 -13.030  21.696  1.00  0.00     0.162 HD
HETATM   21  C26 UNL     1      16.170 -13.244  22.677  1.00  0.00     0.175 C 
HETATM   22  C27 UNL     1      15.301 -12.489  21.746  1.00  0.00     0.013 C 
HETATM   23  C28 UNL     1      13.910 -12.363  22.293  1.00  0.00     0.066 C 
ENDROOT
BRANCH   7  24
HETATM   24  C9  UNL     1      13.782 -15.351  18.142  1.00  0.00     0.048 C 
BRANCH  24  25
HETATM   25  C10 UNL     1      14.454 -16.709  18.056  1.00  0.00     0.025 C 
BRANCH  25  26
HETATM   26  C11 UNL     1      13.358 -17.798  18.071  1.00  0.00     0.122 C 
BRANCH  26  27
HETATM   27  N3  UNL     1      12.102 -17.190  17.795  1.00  0.00    -0.367 N 
HETATM   28  C12 UNL     1      11.131 -17.304  18.629  1.00  0.00     0.196 C 
HETATM   29  N4  UNL     1       9.872 -16.696  18.352  1.00  0.00    -0.067 NA
HETATM   30  N5  UNL     1      11.359 -18.051  19.822  1.00  0.00    -0.067 NA
ATOM     31  H3  UNL     1      11.971 -16.663  16.932  1.00  0.00     0.161 HD
ENDBRANCH  26  27
ENDBRANCH  25  26
ENDBRANCH  24  25
ENDBRANCH   7  24
BRANCH   8  32
HETATM   32  O2  UNL     1      12.211 -15.063  20.691  1.00  0.00    -0.346 OA
ATOM     33  H2  UNL     1      11.867 -14.942  21.568  1.00  0.00     0.219 HD
ENDBRANCH   8  32
BRANCH   1  34
HETATM   34  C3  UNL     1      15.093 -12.921  16.739  1.00  0.00     0.082 C 
HETATM   35  C4  UNL     1      14.737 -11.388  16.599  1.00  0.00     0.032 C 
BRANCH  34  36
HETATM   36  C2  UNL     1      16.295 -13.004  15.765  1.00  0.00     0.020 C 
HETATM   37  C1  UNL     1      15.928 -13.842  14.560  1.00  0.00     0.007 C 
ENDBRANCH  34  36
ENDBRANCH   1  34
BRANCH  11  38
HETATM   38  C15 UNL     1      14.547 -18.287  21.521  1.00  0.00     0.038 C 
BRANCH  38  39
HETATM   39  C16 UNL     1      15.596 -19.232  21.083  1.00  0.00    -0.020 C 
HETATM   40  C17 UNL     1      16.621 -18.538  20.192  1.00  0.00     0.009 C 
HETATM   41  C18 UNL     1      14.889 -20.334  20.278  1.00  0.00     0.009 C 
ENDBRANCH  38  39
ENDBRANCH  11  38
BRANCH  16  42
HETATM   42  C21 UNL     1      19.033 -15.769  24.059  1.00  0.00     0.038 C 
BRANCH  42  43
HETATM   43  C22 UNL     1      18.725 -14.882  25.204  1.00  0.00    -0.020 C 
HETATM   44  C23 UNL     1      18.696 -15.423  26.575  1.00  0.00     0.009 C 
HETATM   45  C24 UNL     1      19.664 -13.665  25.194  1.00  0.00     0.009 C 
ENDBRANCH  42  43
ENDBRANCH  16  42
TORSDOF 11
ENDMDL
MODEL 4
REMARK VINA RESULT: -7.040724466      3.041      8.297
REMARK  11 active torsions:
REMARK  status: ('A' for Active; 'I' for Inactive)
REMARK    1  A    between atoms: C2_2  and  C3_3 
REMARK    2  A    between atoms: C3_3  and  N1_5 
REMARK    3  A    between atoms: C8_11  and  C9_12 
REMARK    4  A    between atoms: C9_12  and  C10_13 
REMARK    5  A    between atoms: C10_13  and  C11_14 
REMARK    6  A    between atoms: C11_14  and  N3_15 
REMARK    7  A    between atoms: C13_20  and  O2_21 
REMARK    8  A    between atoms: C14_25  and  C15_26 
REMARK    9  A    between atoms: C15_26  and  C16_27 
REMARK   10  A    between atoms: C20_34  and  C21_35 
REMARK   11  A    between atoms: C21_35  and  C22_36 
ROOT
HETATM    1  N1  UNL     1      18.444 -14.404  21.627  1.00  0.00    -0.353 N 
HETATM    2  C5  UNL     1      18.246 -13.015  22.169  1.00  0.00     0.228 C 
HETATM    3  C6  UNL     1      18.252 -12.368  20.791  1.00  0.00     0.247 C 
HETATM    4  O1  UNL     1      18.971 -11.444  20.509  1.00  0.00    -0.271 OA
HETATM    5  N2  UNL     1      17.230 -13.152  20.048  1.00  0.00    -0.272 N 
HETATM    6  C7  UNL     1      17.354 -14.456  20.608  1.00  0.00     0.123 C 
HETATM    7  C8  UNL     1      16.650 -15.580  20.336  1.00  0.00     0.037 C 
HETATM    8  C13 UNL     1      15.553 -15.786  19.403  1.00  0.00     0.146 C 
HETATM    9  N6  UNL     1      14.213 -15.357  19.322  1.00  0.00    -0.357 N 
ATOM     10  H6  UNL     1      13.878 -15.168  18.377  1.00  0.00     0.162 HD
HETATM   11  C14 UNL     1      13.229 -15.142  20.381  1.00  0.00     0.176 C 
HETATM   12  C19 UNL     1      12.177 -14.187  19.994  1.00  0.00     0.241 C 
HETATM   13  O3  UNL     1      11.147 -14.671  19.409  1.00  0.00    -0.271 OA
HETATM   14  N7  UNL     1      12.205 -12.796  20.206  1.00  0.00    -0.346 N 
ATOM     15  H7  UNL     1      11.973 -12.198  19.412  1.00  0.00     0.163 HD
HETATM   16  C20 UNL     1      12.539 -12.132  21.471  1.00  0.00     0.177 C 
HETATM   17  C25 UNL     1      13.999 -12.077  21.645  1.00  0.00     0.240 C 
HETATM   18  O4  UNL     1      14.427 -12.496  22.789  1.00  0.00    -0.271 OA
HETATM   19  N8  UNL     1      14.977 -11.640  20.752  1.00  0.00    -0.354 N 
ATOM     20  H8  UNL     1      15.672 -11.019  21.164  1.00  0.00     0.162 HD
HETATM   21  C26 UNL     1      15.178 -11.906  19.369  1.00  0.00     0.175 C 
HETATM   22  C27 UNL     1      16.492 -12.493  19.023  1.00  0.00     0.013 C 
HETATM   23  C28 UNL     1      16.462 -13.109  17.656  1.00  0.00     0.066 C 
ENDROOT
BRANCH   7  24
HETATM   24  C9  UNL     1      17.021 -16.830  21.123  1.00  0.00     0.048 C 
BRANCH  24  25
HETATM   25  C10 UNL     1      15.895 -17.289  22.031  1.00  0.00     0.025 C 
BRANCH  25  26
HETATM   26  C11 UNL     1      16.466 -17.487  23.454  1.00  0.00     0.122 C 
BRANCH  26  27
HETATM   27  N3  UNL     1      16.613 -16.214  24.071  1.00  0.00    -0.367 N 
HETATM   28  C12 UNL     1      17.583 -15.999  24.887  1.00  0.00     0.196 C 
HETATM   29  N4  UNL     1      17.730 -14.724  25.506  1.00  0.00    -0.067 NA
HETATM   30  N5  UNL     1      18.489 -17.069  25.143  1.00  0.00    -0.067 NA
ATOM     31  H3  UNL     1      15.948 -15.469  23.866  1.00  0.00     0.161 HD
ENDBRANCH  26  27
ENDBRANCH  25  26
ENDBRANCH  24  25
ENDBRANCH   7  24
BRANCH   8  32
HETATM   32  O2  UNL     1      15.824 -16.546  18.378  1.00  0.00    -0.346 OA
ATOM     33  H2  UNL     1      15.112 -17.100  18.081  1.00  0.00     0.219 HD
ENDBRANCH   8  32
BRANCH   1  34
HETATM   34  C3  UNL     1      19.503 -15.201  22.007  1.00  0.00     0.082 C 
HETATM   35  C4  UNL     1      20.392 -15.412  20.718  1.00  0.00     0.032 C 
BRANCH  34  36
HETATM   36  C2  UNL     1      20.484 -14.371  22.872  1.00  0.00     0.020 C 
HETATM   37  C1  UNL     1      21.375 -15.293  23.674  1.00  0.00     0.007 C 
ENDBRANCH  34  36
ENDBRANCH   1  34
BRANCH  11  38
HETATM   38  C15 UNL     1      12.514 -16.427  20.738  1.00  0.00     0.038 C 
BRANCH  38  39
HETATM   39  C16 UNL     1      12.831 -17.581  19.871  1.00  0.00    -0.020 C 
HETATM   40  C17 UNL     1      11.705 -17.844  18.875  1.00  0.00     0.009 C 
HETATM   41  C18 UNL     1      12.982 -18.799  20.795  1.00  0.00     0.009 C 
ENDBRANCH  38  39
ENDBRANCH  11  38
BRANCH  16  42
HETATM   42  C21 UNL     1      11.927 -10.775  21.523  1.00  0.00     0.038 C 
BRANCH  42  43
HETATM   43  C22 UNL     1      11.581 -10.176  22.832  1.00  0.00    -0.020 C 
HETATM   44  C23 UNL     1      11.336 -11.039  24.002  1.00  0.00     0.009 C 
HETATM   45  C24 UNL     1      12.634  -9.129  23.226  1.00  0.00     0.009 C 
ENDBRANCH  42  43
ENDBRANCH  16  42
TORSDOF 11
ENDMDL
MODEL 5
REMARK VINA RESULT: -6.985728414      2.532      5.805
REMARK  11 active torsions:
REMARK  status: ('A' for Active; 'I' for Inactive)
REMARK    1  A    between atoms: C2_2  and  C3_3 
REMARK    2  A    between atoms: C3_3  and  N1_5 
REMARK    3  A    between atoms: C8_11  and  C9_12 
REMARK    4  A    between atoms: C9_12  and  C10_13 
REMARK    5  A    between atoms: C10_13  and  C11_14 
REMARK    6  A    between atoms: C11_14  and  N3_15 
REMARK    7  A    between atoms: C13_20  and  O2_21 
REMARK    8  A    between atoms: C14_25  and  C15_26 
REMARK    9  A    between atoms: C15_26  and  C16_27 
REMARK   10  A    between atoms: C20_34  and  C21_35 
REMARK   11  A    between atoms: C21_35  and  C22_36 
ROOT
HETATM    1  N1  UNL     1      19.502 -13.502  20.543  1.00  0.00    -0.353 N 
HETATM    2  C5  UNL     1      20.468 -14.637  20.750  1.00  0.00     0.228 C 
HETATM    3  C6  UNL     1      20.448 -14.511  22.267  1.00  0.00     0.247 C 
HETATM    4  O1  UNL     1      21.451 -14.408  22.925  1.00  0.00    -0.271 OA
HETATM    5  N2  UNL     1      18.997 -14.552  22.587  1.00  0.00    -0.272 N 
HETATM    6  C7  UNL     1      18.400 -13.914  21.462  1.00  0.00     0.123 C 
HETATM    7  C8  UNL     1      17.092 -13.693  21.190  1.00  0.00     0.037 C 
HETATM    8  C13 UNL     1      15.911 -14.053  21.959  1.00  0.00     0.146 C 
HETATM    9  N6  UNL     1      15.266 -15.258  22.302  1.00  0.00    -0.357 N 
ATOM     10  H6  UNL     1      14.855 -15.277  23.236  1.00  0.00     0.162 HD
HETATM   11  C14 UNL     1      15.095 -16.486  21.528  1.00  0.00     0.176 C 
HETATM   12  C19 UNL     1      14.894 -17.672  22.378  1.00  0.00     0.241 C 
HETATM   13  O3  UNL     1      13.687 -17.947  22.705  1.00  0.00    -0.271 OA
HETATM   14  N7  UNL     1      15.904 -18.523  22.863  1.00  0.00    -0.346 N 
ATOM     15  H7  UNL     1      15.882 -18.752  23.857  1.00  0.00     0.163 HD
HETATM   16  C20 UNL     1      16.984 -19.107  22.062  1.00  0.00     0.177 C 
HETATM   17  C25 UNL     1      18.060 -18.123  21.866  1.00  0.00     0.240 C 
HETATM   18  O4  UNL     1      18.447 -17.975  20.643  1.00  0.00    -0.271 OA
HETATM   19  N8  UNL     1      18.714 -17.332  22.810  1.00  0.00    -0.354 N 
ATOM     20  H8  UNL     1      19.729 -17.321  22.716  1.00  0.00     0.162 HD
HETATM   21  C26 UNL     1      18.218 -16.538  23.882  1.00  0.00     0.175 C 
HETATM   22  C27 UNL     1      18.599 -15.108  23.837  1.00  0.00     0.013 C 
HETATM   23  C28 UNL     1      17.721 -14.289  24.736  1.00  0.00     0.066 C 
ENDROOT
BRANCH   7  24
HETATM   24  C9  UNL     1      16.772 -12.985  19.880  1.00  0.00     0.048 C 
BRANCH  24  25
HETATM   25  C10 UNL     1      15.831 -13.794  19.008  1.00  0.00     0.025 C 
BRANCH  25  26
HETATM   26  C11 UNL     1      14.691 -12.867  18.528  1.00  0.00     0.122 C 
BRANCH  26  27
HETATM   27  N3  UNL     1      14.593 -11.761  19.418  1.00  0.00    -0.367 N 
HETATM   28  C12 UNL     1      13.565 -11.632  20.178  1.00  0.00     0.196 C 
HETATM   29  N4  UNL     1      13.466 -10.523  21.069  1.00  0.00    -0.067 NA
HETATM   30  N5  UNL     1      12.544 -12.623  20.095  1.00  0.00    -0.067 NA
ATOM     31  H3  UNL     1      15.341 -11.069  19.453  1.00  0.00     0.161 HD
ENDBRANCH  26  27
ENDBRANCH  25  26
ENDBRANCH  24  25
ENDBRANCH   7  24
BRANCH   8  32
HETATM   32  O2  UNL     1      15.252 -13.052  22.476  1.00  0.00    -0.346 OA
ATOM     33  H2  UNL     1      15.741 -12.513  23.086  1.00  0.00     0.219 HD
ENDBRANCH   8  32
BRANCH   1  34
HETATM   34  C3  UNL     1      19.812 -12.400  19.774  1.00  0.00     0.082 C 
HETATM   35  C4  UNL     1      21.108 -11.759  20.411  1.00  0.00     0.032 C 
BRANCH  34  36
HETATM   36  C2  UNL     1      20.389 -12.870  18.416  1.00  0.00     0.020 C 
HETATM   37  C1  UNL     1      20.391 -11.723  17.430  1.00  0.00     0.007 C 
ENDBRANCH  34  36
ENDBRANCH   1  34
BRANCH  11  38
HETATM   38  C15 UNL     1      13.880 -16.406  20.629  1.00  0.00     0.038 C 
BRANCH  38  39
HETATM   39  C16 UNL     1      13.982 -17.173  19.371  1.00  0.00    -0.020 C 
HETATM   40  C17 UNL     1      15.436 -17.318  18.933  1.00  0.00     0.009 C 
HETATM   41  C18 UNL     1      13.211 -16.378  18.306  1.00  0.00     0.009 C 
ENDBRANCH  38  39
ENDBRANCH  11  38
BRANCH  16  42
HETATM   42  C21 UNL     1      17.490 -20.353  22.702  1.00  0.00     0.038 C 
BRANCH  42  43
HETATM   43  C22 UNL     1      17.237 -20.595  24.141  1.00  0.00    -0.020 C 
HETATM   44  C23 UNL     1      16.688 -21.886  24.592  1.00  0.00     0.009 C 
HETATM   45  C24 UNL     1      18.510 -20.310  24.953  1.00  0.00     0.009 C 
ENDBRANCH  42  43
ENDBRANCH  16  42
TORSDOF 11
ENDMDL
