MODEL 1
REMARK VINA RESULT: -11.268442816      0.000      0.000
REMARK  10 active torsions:
REMARK  status: ('A' for Active; 'I' for Inactive)
REMARK    1  A    between atoms: N1_1  and  C1_4 
REMARK    2  A    between atoms: C2_7  and  C3_8 
REMARK       I    between atoms: C3_8  and  N3_10 
REMARK    3  A    between atoms: N3_10  and  C4_12 
REMARK    4  A    between atoms: C4_12  and  C5_13 
REMARK    5  A    between atoms: C4_12  and  N12_34 
REMARK    6  A    between atoms: C5_13  and  C6_14 
REMARK    7  A    between atoms: C6_14  and  C7_15 
REMARK    8  A    between atoms: C7_15  and  O2_16 
REMARK    9  A    between atoms: C10_26  and  C11_27 
REMARK   10  A    between atoms: C14_39  and  O3_40 
ROOT
HETATM    1  C4  UNL     1     -21.592   3.956 -16.333  1.00  0.00     0.197 C 
ENDROOT
BRANCH   1   2
HETATM    2  N3  UNL     1     -21.145   5.010 -17.185  1.00  0.00    -0.334 N 
HETATM    3  C3  UNL     1     -19.918   5.683 -17.022  1.00  0.00     0.270 C 
HETATM    4  O1  UNL     1     -19.192   5.294 -16.043  1.00  0.00    -0.266 OA
ATOM      5  H3  UNL     1     -21.749   5.293 -17.956  1.00  0.00     0.165 HD
BRANCH   3   6
HETATM    6  C2  UNL     1     -19.455   6.759 -17.881  1.00  0.00     0.122 A 
HETATM    7  N2  UNL     1     -19.512   8.048 -17.523  1.00  0.00    -0.186 N 
HETATM    8  C1  UNL     1     -19.070   9.036 -18.353  1.00  0.00     0.679 A 
ATOM      9  H2  UNL     1     -19.895   8.296 -16.611  1.00  0.00     0.184 HD
HETATM   10  N17 UNL     1     -18.553   8.786 -19.568  1.00  0.00    -0.156 N 
HETATM   11  C16 UNL     1     -18.478   7.502 -19.967  1.00  0.00     0.261 A 
ATOM     12  H17 UNL     1     -18.229   9.543 -20.168  1.00  0.00     0.187 HD
HETATM   13  C15 UNL     1     -18.929   6.481 -19.123  1.00  0.00     0.110 A 
HETATM   14  O4  UNL     1     -18.000   7.260 -21.097  1.00  0.00    -0.268 OA
BRANCH   8  15
HETATM   15  N1  UNL     1     -19.149  10.259 -17.954  1.00  0.00    -0.234 N 
ATOM     16  H12 UNL     1     -18.620  10.541 -17.128  1.00  0.00     0.174 HD
ATOM     17  H11 UNL     1     -19.740  10.907 -18.476  1.00  0.00     0.174 HD
ENDBRANCH   8  15
ENDBRANCH   3   6
ENDBRANCH   1   2
BRANCH   1  18
HETATM   18  C5  UNL     1     -22.524   2.963 -17.066  1.00  0.00     0.052 C 
BRANCH  18  19
HETATM   19  C6  UNL     1     -22.315   3.105 -18.524  1.00  0.00     0.066 C 
BRANCH  19  20
HETATM   20  C7  UNL     1     -22.635   1.861 -19.336  1.00  0.00     0.150 A 
HETATM   21  N4  UNL     1     -21.564   1.533 -20.222  1.00  0.00    -0.332 N 
HETATM   22  C8  UNL     1     -21.659   1.307 -21.475  1.00  0.00     0.191 A 
ATOM     23  H4  UNL     1     -20.632   1.476 -19.814  1.00  0.00     0.165 HD
HETATM   24  N5  UNL     1     -20.495   0.984 -22.264  1.00  0.00    -0.063 NA
HETATM   25  N6  UNL     1     -22.937   1.381 -22.085  1.00  0.00    -0.322 N 
HETATM   26  C9  UNL     1     -23.985   1.670 -21.410  1.00  0.00     0.111 A 
ATOM     27  H6  UNL     1     -23.023   1.200 -23.086  1.00  0.00     0.169 HD
HETATM   28  N7  UNL     1     -25.228   1.714 -22.144  1.00  0.00    -0.086 NA
HETATM   29  C10 UNL     1     -23.987   1.954 -19.961  1.00  0.00     0.175 A 
BRANCH  20  30
HETATM   30  O2  UNL     1     -22.656   0.823 -18.360  1.00  0.00    -0.370 OA
ATOM     31  H2  UNL     1     -22.832   0.042 -18.871  1.00  0.00     0.212 HD
ENDBRANCH  20  30
BRANCH  29  32
HETATM   32  C11 UNL     1     -24.992   1.082 -19.278  1.00  0.00     0.122 A 
HETATM   33  N8  UNL     1     -25.844   1.392 -18.279  1.00  0.00    -0.273 N 
HETATM   34  N9  UNL     1     -26.569   0.338 -17.955  1.00  0.00    -0.007 NA
ATOM     35  H8  UNL     1     -25.916   2.309 -17.837  1.00  0.00     0.185 HD
HETATM   36  N10 UNL     1     -26.182  -0.659 -18.753  1.00  0.00    -0.007 NA
HETATM   37  N11 UNL     1     -25.218  -0.196 -19.557  1.00  0.00    -0.273 N 
ATOM     38  H11 UNL     1     -24.734  -0.739 -20.272  1.00  0.00     0.185 HD
ENDBRANCH  29  32
ENDBRANCH  19  20
ENDBRANCH  18  19
ENDBRANCH   1  18
BRANCH   1  39
HETATM   39  N12 UNL     1     -22.301   4.375 -15.201  1.00  0.00    -0.277 N 
HETATM   40  C12 UNL     1     -23.357   3.698 -14.821  1.00  0.00     0.202 A 
HETATM   41  N13 UNL     1     -23.545   4.388 -13.932  1.00  0.00    -0.334 N 
HETATM   42  N16 UNL     1     -24.567   2.906 -14.399  1.00  0.00    -0.259 N 
HETATM   43  C13 UNL     1     -23.293   5.241 -13.323  1.00  0.00     0.276 A 
ATOM     44  H13 UNL     1     -24.376   3.999 -13.485  1.00  0.00     0.164 HD
HETATM   45  C14 UNL     1     -22.203   5.430 -14.232  1.00  0.00     0.164 A 
HETATM   46  N14 UNL     1     -24.555   4.705 -12.591  1.00  0.00    -0.091 NA
HETATM   47  N15 UNL     1     -25.062   3.564 -13.233  1.00  0.00    -0.242 N 
ATOM     48  H15 UNL     1     -25.894   3.151 -12.811  1.00  0.00     0.204 HD
ATOM     49  H16 UNL     1     -24.951   2.076 -14.851  1.00  0.00     0.191 HD
BRANCH  45  50
HETATM   50  O3  UNL     1     -21.343   6.411 -14.108  1.00  0.00    -0.346 OA
ATOM     51  H3  UNL     1     -21.464   7.324 -13.873  1.00  0.00     0.219 HD
ENDBRANCH  45  50
ENDBRANCH   1  39
TORSDOF 10
ENDMDL
MODEL 2
REMARK VINA RESULT: -10.972680778      1.118      1.443
REMARK  10 active torsions:
REMARK  status: ('A' for Active; 'I' for Inactive)
REMARK    1  A    between atoms: N1_1  and  C1_4 
REMARK    2  A    between atoms: C2_7  and  C3_8 
REMARK       I    between atoms: C3_8  and  N3_10 
REMARK    3  A    between atoms: N3_10  and  C4_12 
REMARK    4  A    between atoms: C4_12  and  C5_13 
REMARK    5  A    between atoms: C4_12  and  N12_34 
REMARK    6  A    between atoms: C5_13  and  C6_14 
REMARK    7  A    between atoms: C6_14  and  C7_15 
REMARK    8  A    between atoms: C7_15  and  O2_16 
REMARK    9  A    between atoms: C10_26  and  C11_27 
REMARK   10  A    between atoms: C14_39  and  O3_40 
ROOT
HETATM    1  C4  UNL     1     -21.913   3.592 -16.621  1.00  0.00     0.197 C 
ENDROOT
BRANCH   1   2
HETATM    2  N3  UNL     1     -21.382   4.742 -17.279  1.00  0.00    -0.334 N 
HETATM    3  C3  UNL     1     -20.118   5.295 -16.993  1.00  0.00     0.270 C 
HETATM    4  O1  UNL     1     -19.440   4.702 -16.085  1.00  0.00    -0.266 OA
ATOM      5  H3  UNL     1     -21.950   5.189 -17.998  1.00  0.00     0.165 HD
BRANCH   3   6
HETATM    6  C2  UNL     1     -19.570   6.466 -17.653  1.00  0.00     0.122 A 
HETATM    7  N2  UNL     1     -18.982   6.412 -18.856  1.00  0.00    -0.186 N 
HETATM    8  C1  UNL     1     -18.475   7.530 -19.450  1.00  0.00     0.679 A 
ATOM      9  H2  UNL     1     -18.913   5.515 -19.337  1.00  0.00     0.184 HD
HETATM   10  N17 UNL     1     -18.532   8.745 -18.878  1.00  0.00    -0.156 N 
HETATM   11  C16 UNL     1     -19.115   8.843 -17.668  1.00  0.00     0.261 A 
ATOM     12  H17 UNL     1     -18.147   9.565 -19.345  1.00  0.00     0.187 HD
HETATM   13  C15 UNL     1     -19.637   7.702 -17.049  1.00  0.00     0.110 A 
HETATM   14  O4  UNL     1     -19.170   9.970 -17.128  1.00  0.00    -0.268 OA
BRANCH   8  15
HETATM   15  N1  UNL     1     -17.922   7.417 -20.609  1.00  0.00    -0.234 N 
ATOM     16  H12 UNL     1     -18.350   6.798 -21.299  1.00  0.00     0.174 HD
ATOM     17  H11 UNL     1     -17.073   7.949 -20.799  1.00  0.00     0.174 HD
ENDBRANCH   8  15
ENDBRANCH   3   6
ENDBRANCH   1   2
BRANCH   1  18
HETATM   18  C5  UNL     1     -22.838   2.763 -17.542  1.00  0.00     0.052 C 
BRANCH  18  19
HETATM   19  C6  UNL     1     -22.145   2.536 -18.829  1.00  0.00     0.066 C 
BRANCH  19  20
HETATM   20  C7  UNL     1     -22.724   1.411 -19.673  1.00  0.00     0.150 A 
HETATM   21  N4  UNL     1     -21.844   1.064 -20.743  1.00  0.00    -0.332 N 
HETATM   22  C8  UNL     1     -22.154   0.966 -21.977  1.00  0.00     0.191 A 
ATOM     23  H4  UNL     1     -20.873   0.876 -20.497  1.00  0.00     0.165 HD
HETATM   24  N5  UNL     1     -21.169   0.606 -22.968  1.00  0.00    -0.063 NA
HETATM   25  N6  UNL     1     -23.494   1.223 -22.365  1.00  0.00    -0.322 N 
HETATM   26  C9  UNL     1     -24.387   1.549 -21.509  1.00  0.00     0.111 A 
ATOM     27  H6  UNL     1     -23.751   1.146 -23.350  1.00  0.00     0.169 HD
HETATM   28  N7  UNL     1     -25.715   1.784 -22.027  1.00  0.00    -0.086 NA
HETATM   29  C10 UNL     1     -24.136   1.695 -20.061  1.00  0.00     0.175 A 
BRANCH  20  30
HETATM   30  O2  UNL     1     -22.711   0.293 -18.789  1.00  0.00    -0.370 OA
ATOM     31  H2  UNL     1     -22.052  -0.279 -19.166  1.00  0.00     0.212 HD
ENDBRANCH  20  30
BRANCH  29  32
HETATM   32  C11 UNL     1     -25.116   0.866 -19.294  1.00  0.00     0.122 A 
HETATM   33  N8  UNL     1     -25.941   1.238 -18.293  1.00  0.00    -0.273 N 
HETATM   34  N9  UNL     1     -26.651   0.204 -17.880  1.00  0.00    -0.007 NA
ATOM     35  H8  UNL     1     -26.006   2.182 -17.910  1.00  0.00     0.185 HD
HETATM   36  N10 UNL     1     -26.281  -0.841 -18.621  1.00  0.00    -0.007 NA
HETATM   37  N11 UNL     1     -25.343  -0.429 -19.482  1.00  0.00    -0.273 N 
ATOM     38  H11 UNL     1     -24.876  -1.016 -20.173  1.00  0.00     0.185 HD
ENDBRANCH  29  32
ENDBRANCH  19  20
ENDBRANCH  18  19
ENDBRANCH   1  18
BRANCH   1  39
HETATM   39  N12 UNL     1     -22.668   3.867 -15.475  1.00  0.00    -0.277 N 
HETATM   40  C12 UNL     1     -23.767   3.187 -15.255  1.00  0.00     0.202 A 
HETATM   41  N13 UNL     1     -23.980   3.743 -14.281  1.00  0.00    -0.334 N 
HETATM   42  N16 UNL     1     -25.028   2.396 -15.020  1.00  0.00    -0.259 N 
HETATM   43  C13 UNL     1     -23.731   4.482 -13.537  1.00  0.00     0.276 A 
ATOM     44  H13 UNL     1     -24.848   3.328 -13.941  1.00  0.00     0.164 HD
HETATM   45  C14 UNL     1     -22.586   4.758 -14.352  1.00  0.00     0.164 A 
HETATM   46  N14 UNL     1     -25.050   3.899 -12.960  1.00  0.00    -0.091 NA
HETATM   47  N15 UNL     1     -25.562   2.892 -13.792  1.00  0.00    -0.242 N 
ATOM     48  H15 UNL     1     -26.431   2.457 -13.480  1.00  0.00     0.204 HD
ATOM     49  H16 UNL     1     -25.416   1.661 -15.611  1.00  0.00     0.191 HD
BRANCH  45  50
HETATM   50  O3  UNL     1     -21.699   5.670 -14.037  1.00  0.00    -0.346 OA
ATOM     51  H3  UNL     1     -21.146   6.219 -14.580  1.00  0.00     0.219 HD
ENDBRANCH  45  50
ENDBRANCH   1  39
TORSDOF 10
ENDMDL
MODEL 3
REMARK VINA RESULT: -10.911872607      1.450      1.988
REMARK  10 active torsions:
REMARK  status: ('A' for Active; 'I' for Inactive)
REMARK    1  A    between atoms: N1_1  and  C1_4 
REMARK    2  A    between atoms: C2_7  and  C3_8 
REMARK       I    between atoms: C3_8  and  N3_10 
REMARK    3  A    between atoms: N3_10  and  C4_12 
REMARK    4  A    between atoms: C4_12  and  C5_13 
REMARK    5  A    between atoms: C4_12  and  N12_34 
REMARK    6  A    between atoms: C5_13  and  C6_14 
REMARK    7  A    between atoms: C6_14  and  C7_15 
REMARK    8  A    between atoms: C7_15  and  O2_16 
REMARK    9  A    between atoms: C10_26  and  C11_27 
REMARK   10  A    between atoms: C14_39  and  O3_40 
ROOT
HETATM    1  C4  UNL     1     -21.823   3.514 -16.928  1.00  0.00     0.197 C 
ENDROOT
BRANCH   1   2
HETATM    2  N3  UNL     1     -21.346   4.759 -17.437  1.00  0.00    -0.334 N 
HETATM    3  C3  UNL     1     -20.011   5.193 -17.323  1.00  0.00     0.270 C 
HETATM    4  O1  UNL     1     -19.212   4.395 -16.722  1.00  0.00    -0.266 OA
ATOM      5  H3  UNL     1     -22.011   5.369 -17.912  1.00  0.00     0.165 HD
BRANCH   3   6
HETATM    6  C2  UNL     1     -19.516   6.459 -17.835  1.00  0.00     0.122 A 
HETATM    7  N2  UNL     1     -18.990   6.590 -19.060  1.00  0.00    -0.186 N 
HETATM    8  C1  UNL     1     -18.533   7.794 -19.511  1.00  0.00     0.679 A 
ATOM      9  H2  UNL     1     -18.931   5.773 -19.667  1.00  0.00     0.184 HD
HETATM   10  N17 UNL     1     -18.581   8.912 -18.768  1.00  0.00    -0.156 N 
HETATM   11  C16 UNL     1     -19.101   8.824 -17.531  1.00  0.00     0.261 A 
ATOM     12  H17 UNL     1     -18.233   9.800 -19.131  1.00  0.00     0.187 HD
HETATM   13  C15 UNL     1     -19.573   7.594 -17.057  1.00  0.00     0.110 A 
HETATM   14  O4  UNL     1     -19.148   9.860 -16.832  1.00  0.00    -0.268 OA
BRANCH   8  15
HETATM   15  N1  UNL     1     -18.039   7.860 -20.700  1.00  0.00    -0.234 N 
ATOM     16  H12 UNL     1     -18.630   8.197 -21.460  1.00  0.00     0.174 HD
ATOM     17  H11 UNL     1     -17.071   7.570 -20.843  1.00  0.00     0.174 HD
ENDBRANCH   8  15
ENDBRANCH   3   6
ENDBRANCH   1   2
BRANCH   1  18
HETATM   18  C5  UNL     1     -22.807   2.820 -17.898  1.00  0.00     0.052 C 
BRANCH  18  19
HETATM   19  C6  UNL     1     -22.065   2.404 -19.109  1.00  0.00     0.066 C 
BRANCH  19  20
HETATM   20  C7  UNL     1     -22.724   1.290 -19.907  1.00  0.00     0.150 A 
HETATM   21  N4  UNL     1     -21.914   0.903 -21.018  1.00  0.00    -0.332 N 
HETATM   22  C8  UNL     1     -22.292   0.802 -22.233  1.00  0.00     0.191 A 
ATOM     23  H4  UNL     1     -20.938   0.686 -20.821  1.00  0.00     0.165 HD
HETATM   24  N5  UNL     1     -21.373   0.399 -23.269  1.00  0.00    -0.063 NA
HETATM   25  N6  UNL     1     -23.642   1.100 -22.553  1.00  0.00    -0.322 N 
HETATM   26  C9  UNL     1     -24.477   1.464 -21.654  1.00  0.00     0.111 A 
ATOM     27  H6  UNL     1     -23.953   1.021 -23.521  1.00  0.00     0.169 HD
HETATM   28  N7  UNL     1     -25.822   1.738 -22.105  1.00  0.00    -0.086 NA
HETATM   29  C10 UNL     1     -24.145   1.617 -20.224  1.00  0.00     0.175 A 
BRANCH  20  30
HETATM   30  O2  UNL     1     -22.701   0.181 -19.011  1.00  0.00    -0.370 OA
ATOM     31  H2  UNL     1     -23.621  -0.001 -18.861  1.00  0.00     0.212 HD
ENDBRANCH  20  30
BRANCH  29  32
HETATM   32  C11 UNL     1     -25.110   0.829 -19.396  1.00  0.00     0.122 A 
HETATM   33  N8  UNL     1     -25.879   1.243 -18.368  1.00  0.00    -0.273 N 
HETATM   34  N9  UNL     1     -26.595   0.236 -17.902  1.00  0.00    -0.007 NA
ATOM     35  H8  UNL     1     -25.904   2.195 -18.003  1.00  0.00     0.185 HD
HETATM   36  N10 UNL     1     -26.284  -0.834 -18.635  1.00  0.00    -0.007 NA
HETATM   37  N11 UNL     1     -25.375  -0.463 -19.545  1.00  0.00    -0.273 N 
ATOM     38  H11 UNL     1     -24.954  -1.076 -20.243  1.00  0.00     0.185 HD
ENDBRANCH  29  32
ENDBRANCH  19  20
ENDBRANCH  18  19
ENDBRANCH   1  18
BRANCH   1  39
HETATM   39  N12 UNL     1     -22.495   3.598 -15.703  1.00  0.00    -0.277 N 
HETATM   40  C12 UNL     1     -22.369   4.683 -14.978  1.00  0.00     0.202 A 
HETATM   41  N13 UNL     1     -23.057   4.281 -14.161  1.00  0.00    -0.334 N 
HETATM   42  N16 UNL     1     -22.211   5.937 -14.158  1.00  0.00    -0.259 N 
HETATM   43  C13 UNL     1     -23.693   3.514 -13.748  1.00  0.00     0.276 A 
ATOM     44  H13 UNL     1     -23.085   5.028 -13.467  1.00  0.00     0.164 HD
HETATM   45  C14 UNL     1     -23.376   2.769 -14.930  1.00  0.00     0.164 A 
HETATM   46  N14 UNL     1     -23.781   4.609 -12.649  1.00  0.00    -0.091 NA
HETATM   47  N15 UNL     1     -23.007   5.729 -12.991  1.00  0.00    -0.242 N 
ATOM     48  H15 UNL     1     -23.013   6.495 -12.317  1.00  0.00     0.204 HD
ATOM     49  H16 UNL     1     -21.655   6.761 -14.389  1.00  0.00     0.191 HD
BRANCH  45  50
HETATM   50  O3  UNL     1     -23.855   1.571 -15.158  1.00  0.00    -0.346 OA
ATOM     51  H3  UNL     1     -24.309   0.959 -14.589  1.00  0.00     0.219 HD
ENDBRANCH  45  50
ENDBRANCH   1  39
TORSDOF 10
ENDMDL
MODEL 4
REMARK VINA RESULT: -10.656331520      0.914      1.142
REMARK  10 active torsions:
REMARK  status: ('A' for Active; 'I' for Inactive)
REMARK    1  A    between atoms: N1_1  and  C1_4 
REMARK    2  A    between atoms: C2_7  and  C3_8 
REMARK       I    between atoms: C3_8  and  N3_10 
REMARK    3  A    between atoms: N3_10  and  C4_12 
REMARK    4  A    between atoms: C4_12  and  C5_13 
REMARK    5  A    between atoms: C4_12  and  N12_34 
REMARK    6  A    between atoms: C5_13  and  C6_14 
REMARK    7  A    between atoms: C6_14  and  C7_15 
REMARK    8  A    between atoms: C7_15  and  O2_16 
REMARK    9  A    between atoms: C10_26  and  C11_27 
REMARK   10  A    between atoms: C14_39  and  O3_40 
ROOT
HETATM    1  C4  UNL     1     -21.036   4.364 -17.003  1.00  0.00     0.197 C 
ENDROOT
BRANCH   1   2
HETATM    2  N3  UNL     1     -20.641   5.364 -17.941  1.00  0.00    -0.334 N 
HETATM    3  C3  UNL     1     -19.382   5.996 -17.930  1.00  0.00     0.270 C 
HETATM    4  O1  UNL     1     -18.577   5.622 -17.010  1.00  0.00    -0.266 OA
ATOM      5  H3  UNL     1     -21.309   5.637 -18.662  1.00  0.00     0.165 HD
BRANCH   3   6
HETATM    6  C2  UNL     1     -18.972   7.017 -18.878  1.00  0.00     0.122 A 
HETATM    7  N2  UNL     1     -19.142   8.327 -18.652  1.00  0.00    -0.186 N 
HETATM    8  C1  UNL     1     -18.746   9.262 -19.564  1.00  0.00     0.679 A 
ATOM      9  H2  UNL     1     -19.577   8.630 -17.781  1.00  0.00     0.184 HD
HETATM   10  N17 UNL     1     -18.165   8.936 -20.731  1.00  0.00    -0.156 N 
HETATM   11  C16 UNL     1     -17.976   7.630 -20.997  1.00  0.00     0.261 A 
ATOM     12  H17 UNL     1     -17.878   9.655 -21.394  1.00  0.00     0.187 HD
HETATM   13  C15 UNL     1     -18.379   6.663 -20.069  1.00  0.00     0.110 A 
HETATM   14  O4  UNL     1     -17.438   7.319 -22.082  1.00  0.00    -0.268 OA
BRANCH   8  15
HETATM   15  N1  UNL     1     -18.935  10.507 -19.291  1.00  0.00    -0.234 N 
ATOM     16  H12 UNL     1     -19.820  10.940 -19.557  1.00  0.00     0.174 HD
ATOM     17  H11 UNL     1     -18.191  11.022 -18.819  1.00  0.00     0.174 HD
ENDBRANCH   8  15
ENDBRANCH   3   6
ENDBRANCH   1   2
BRANCH   1  18
HETATM   18  C5  UNL     1     -22.115   3.415 -17.575  1.00  0.00     0.052 C 
BRANCH  18  19
HETATM   19  C6  UNL     1     -21.958   3.350 -19.045  1.00  0.00     0.066 C 
BRANCH  19  20
HETATM   20  C7  UNL     1     -22.210   1.978 -19.651  1.00  0.00     0.150 A 
HETATM   21  N4  UNL     1     -21.080   1.530 -20.401  1.00  0.00    -0.332 N 
HETATM   22  C8  UNL     1     -21.091   1.092 -21.600  1.00  0.00     0.191 A 
ATOM     23  H4  UNL     1     -20.175   1.564 -19.933  1.00  0.00     0.165 HD
HETATM   24  N5  UNL     1     -19.875   0.668 -22.250  1.00  0.00    -0.063 NA
HETATM   25  N6  UNL     1     -22.328   1.032 -22.291  1.00  0.00    -0.322 N 
HETATM   26  C9  UNL     1     -23.421   1.407 -21.740  1.00  0.00     0.111 A 
ATOM     27  H6  UNL     1     -22.347   0.683 -23.250  1.00  0.00     0.169 HD
HETATM   28  N7  UNL     1     -24.614   1.297 -22.546  1.00  0.00    -0.086 NA
HETATM   29  C10 UNL     1     -23.520   1.933 -20.364  1.00  0.00     0.175 A 
BRANCH  20  30
HETATM   30  O2  UNL     1     -22.280   1.121 -18.515  1.00  0.00    -0.370 OA
ATOM     31  H2  UNL     1     -23.213   0.998 -18.388  1.00  0.00     0.212 HD
ENDBRANCH  20  30
BRANCH  29  32
HETATM   32  C11 UNL     1     -24.556   1.166 -19.605  1.00  0.00     0.122 A 
HETATM   33  N8  UNL     1     -24.952  -0.113 -19.768  1.00  0.00    -0.273 N 
HETATM   34  N9  UNL     1     -25.895  -0.412 -18.894  1.00  0.00    -0.007 NA
ATOM     35  H8  UNL     1     -24.577  -0.756 -20.466  1.00  0.00     0.185 HD
HETATM   36  N10 UNL     1     -26.107   0.682 -18.162  1.00  0.00    -0.007 NA
HETATM   37  N11 UNL     1     -25.286   1.642 -18.604  1.00  0.00    -0.273 N 
ATOM     38  H11 UNL     1     -25.229   2.589 -18.230  1.00  0.00     0.185 HD
ENDBRANCH  29  32
ENDBRANCH  19  20
ENDBRANCH  18  19
ENDBRANCH   1  18
BRANCH   1  39
HETATM   39  N12 UNL     1     -21.564   4.858 -15.805  1.00  0.00    -0.277 N 
HETATM   40  C12 UNL     1     -22.577   4.239 -15.249  1.00  0.00     0.202 A 
HETATM   41  N13 UNL     1     -22.616   4.973 -14.376  1.00  0.00    -0.334 N 
HETATM   42  N16 UNL     1     -23.742   3.514 -14.626  1.00  0.00    -0.259 N 
HETATM   43  C13 UNL     1     -22.252   5.840 -13.849  1.00  0.00     0.276 A 
ATOM     44  H13 UNL     1     -23.388   4.636 -13.800  1.00  0.00     0.164 HD
HETATM   45  C14 UNL     1     -21.295   5.947 -14.909  1.00  0.00     0.164 A 
HETATM   46  N14 UNL     1     -23.415   5.385 -12.924  1.00  0.00    -0.091 NA
HETATM   47  N15 UNL     1     -24.045   4.240 -13.434  1.00  0.00    -0.242 N 
ATOM     48  H15 UNL     1     -24.822   3.878 -12.881  1.00  0.00     0.204 HD
ATOM     49  H16 UNL     1     -24.214   2.681 -14.980  1.00  0.00     0.191 HD
BRANCH  45  50
HETATM   50  O3  UNL     1     -20.394   6.898 -14.952  1.00  0.00    -0.346 OA
ATOM     51  H3  UNL     1     -19.472   6.897 -14.724  1.00  0.00     0.219 HD
ENDBRANCH  45  50
ENDBRANCH   1  39
TORSDOF 10
ENDMDL
MODEL 5
REMARK VINA RESULT: -10.490505800      1.971      3.465
REMARK  10 active torsions:
REMARK  status: ('A' for Active; 'I' for Inactive)
REMARK    1  A    between atoms: N1_1  and  C1_4 
REMARK    2  A    between atoms: C2_7  and  C3_8 
REMARK       I    between atoms: C3_8  and  N3_10 
REMARK    3  A    between atoms: N3_10  and  C4_12 
REMARK    4  A    between atoms: C4_12  and  C5_13 
REMARK    5  A    between atoms: C4_12  and  N12_34 
REMARK    6  A    between atoms: C5_13  and  C6_14 
REMARK    7  A    between atoms: C6_14  and  C7_15 
REMARK    8  A    between atoms: C7_15  and  O2_16 
REMARK    9  A    between atoms: C10_26  and  C11_27 
REMARK   10  A    between atoms: C14_39  and  O3_40 
ROOT
HETATM    1  C4  UNL     1     -22.020   3.110 -17.337  1.00  0.00     0.197 C 
ENDROOT
BRANCH   1   2
HETATM    2  N3  UNL     1     -21.464   4.323 -17.842  1.00  0.00    -0.334 N 
HETATM    3  C3  UNL     1     -20.214   4.838 -17.445  1.00  0.00     0.270 C 
HETATM    4  O1  UNL     1     -19.573   4.146 -16.582  1.00  0.00    -0.266 OA
ATOM      5  H3  UNL     1     -22.004   4.849 -18.529  1.00  0.00     0.165 HD
BRANCH   3   6
HETATM    6  C2  UNL     1     -19.641   6.073 -17.950  1.00  0.00     0.122 A 
HETATM    7  N2  UNL     1     -19.053   6.162 -19.151  1.00  0.00    -0.186 N 
HETATM    8  C1  UNL     1     -18.523   7.337 -19.597  1.00  0.00     0.679 A 
ATOM      9  H2  UNL     1     -19.001   5.334 -19.743  1.00  0.00     0.184 HD
HETATM   10  N17 UNL     1     -18.556   8.469 -18.873  1.00  0.00    -0.156 N 
HETATM   11  C16 UNL     1     -19.137   8.422 -17.659  1.00  0.00     0.261 A 
ATOM     12  H17 UNL     1     -18.153   9.334 -19.230  1.00  0.00     0.187 HD
HETATM   13  C15 UNL     1     -19.684   7.222 -17.192  1.00  0.00     0.110 A 
HETATM   14  O4  UNL     1     -19.171   9.470 -16.979  1.00  0.00    -0.268 OA
BRANCH   8  15
HETATM   15  N1  UNL     1     -17.971   7.363 -20.761  1.00  0.00    -0.234 N 
ATOM     16  H12 UNL     1     -18.014   8.224 -21.306  1.00  0.00     0.174 HD
ATOM     17  H11 UNL     1     -17.510   6.519 -21.102  1.00  0.00     0.174 HD
ENDBRANCH   8  15
ENDBRANCH   3   6
ENDBRANCH   1   2
BRANCH   1  18
HETATM   18  C5  UNL     1     -22.944   2.415 -18.363  1.00  0.00     0.052 C 
BRANCH  18  19
HETATM   19  C6  UNL     1     -22.105   1.672 -19.330  1.00  0.00     0.066 C 
BRANCH  19  20
HETATM   20  C7  UNL     1     -22.389   1.985 -20.790  1.00  0.00     0.150 A 
HETATM   21  N4  UNL     1     -23.424   2.962 -20.917  1.00  0.00    -0.332 N 
HETATM   22  C8  UNL     1     -24.468   2.870 -21.644  1.00  0.00     0.191 A 
ATOM     23  H4  UNL     1     -23.318   3.817 -20.371  1.00  0.00     0.165 HD
HETATM   24  N5  UNL     1     -25.445   3.931 -21.686  1.00  0.00    -0.063 NA
HETATM   25  N6  UNL     1     -24.659   1.695 -22.416  1.00  0.00    -0.322 N 
HETATM   26  C9  UNL     1     -23.811   0.736 -22.394  1.00  0.00     0.111 A 
ATOM     27  H6  UNL     1     -25.490   1.612 -23.001  1.00  0.00     0.169 HD
HETATM   28  N7  UNL     1     -24.117  -0.407 -23.224  1.00  0.00    -0.086 NA
HETATM   29  C10 UNL     1     -22.575   0.737 -21.586  1.00  0.00     0.175 A 
BRANCH  20  30
HETATM   30  O2  UNL     1     -21.197   2.632 -21.229  1.00  0.00    -0.370 OA
ATOM     31  H2  UNL     1     -21.402   3.555 -21.143  1.00  0.00     0.212 HD
ENDBRANCH  20  30
BRANCH  29  32
HETATM   32  C11 UNL     1     -21.401   0.439 -22.462  1.00  0.00     0.122 A 
HETATM   33  N8  UNL     1     -21.266   0.623 -23.792  1.00  0.00    -0.273 N 
HETATM   34  N9  UNL     1     -20.069   0.231 -24.187  1.00  0.00    -0.007 NA
ATOM     35  H8  UNL     1     -21.986   1.011 -24.403  1.00  0.00     0.185 HD
HETATM   36  N10 UNL     1     -19.428  -0.210 -23.103  1.00  0.00    -0.007 NA
HETATM   37  N11 UNL     1     -20.249  -0.080 -22.054  1.00  0.00    -0.273 N 
ATOM     38  H11 UNL     1     -20.024  -0.339 -21.094  1.00  0.00     0.185 HD
ENDBRANCH  29  32
ENDBRANCH  19  20
ENDBRANCH  18  19
ENDBRANCH   1  18
BRANCH   1  39
HETATM   39  N12 UNL     1     -22.787   3.253 -16.174  1.00  0.00    -0.277 N 
HETATM   40  C12 UNL     1     -24.031   2.841 -16.174  1.00  0.00     0.202 A 
HETATM   41  N13 UNL     1     -24.191   3.154 -15.088  1.00  0.00    -0.334 N 
HETATM   42  N16 UNL     1     -25.460   2.362 -16.193  1.00  0.00    -0.259 N 
HETATM   43  C13 UNL     1     -23.840   3.582 -14.163  1.00  0.00     0.276 A 
ATOM     44  H13 UNL     1     -25.159   2.898 -14.894  1.00  0.00     0.164 HD
HETATM   45  C14 UNL     1     -22.594   3.764 -14.846  1.00  0.00     0.164 A 
HETATM   46  N14 UNL     1     -25.306   3.220 -13.796  1.00  0.00    -0.091 NA
HETATM   47  N15 UNL     1     -25.967   2.634 -14.887  1.00  0.00    -0.242 N 
ATOM     48  H15 UNL     1     -26.938   2.367 -14.725  1.00  0.00     0.204 HD
ATOM     49  H16 UNL     1     -25.958   1.934 -16.974  1.00  0.00     0.191 HD
BRANCH  45  50
HETATM   50  O3  UNL     1     -21.547   4.304 -14.272  1.00  0.00    -0.346 OA
ATOM     51  H3  UNL     1     -20.701   3.938 -14.043  1.00  0.00     0.219 HD
ENDBRANCH  45  50
ENDBRANCH   1  39
TORSDOF 10
ENDMDL
