MODEL 1
REMARK VINA RESULT: -9.368955475      0.000      0.000
REMARK  15 active torsions:
REMARK  status: ('A' for Active; 'I' for Inactive)
REMARK    1  A    between atoms: N1_1  and  C1_4 
REMARK    2  A    between atoms: C3_12  and  N5_13 
REMARK    3  A    between atoms: C5_15  and  C6_16 
REMARK    4  A    between atoms: C6_16  and  O1_17 
REMARK    5  A    between atoms: C6_16  and  N6_19 
REMARK    6  A    between atoms: N6_19  and  C7_21 
REMARK    7  A    between atoms: C9_30  and  C10_31 
REMARK    8  A    between atoms: C11_33  and  C12_34 
REMARK    9  A    between atoms: C12_34  and  O3_35 
REMARK   10  A    between atoms: C12_34  and  C13_37 
REMARK   11  A    between atoms: C13_37  and  O4_38 
REMARK   12  A    between atoms: C14_40  and  O5_41 
REMARK   13  A    between atoms: C15_43  and  O6_44 
REMARK   14  A    between atoms: O6_44  and  C16_45 
REMARK   15  A    between atoms: C16_45  and  O7_46 
ROOT
HETATM    1  N5  UNL     1     -24.909   0.829 -18.547  1.00  0.00    -0.136 N 
HETATM    2  C4  UNL     1     -25.847  -0.159 -18.422  1.00  0.00     0.146 A 
HETATM    3  C5  UNL     1     -26.074  -0.401 -17.091  1.00  0.00     0.076 A 
HETATM    4  N10 UNL     1     -25.268   0.447 -16.436  1.00  0.00    -0.338 N 
ATOM      5  H10 UNL     1     -25.200   0.516 -15.421  1.00  0.00     0.167 HD
HETATM    6  C9  UNL     1     -24.561   1.194 -17.301  1.00  0.00     0.166 A 
ENDROOT
BRANCH   1   7
HETATM    7  C3  UNL     1     -24.399   1.370 -19.759  1.00  0.00     0.730 A 
HETATM    8  N4  UNL     1     -24.949   2.281 -20.589  1.00  0.00    -0.116 N 
HETATM    9  N3  UNL     1     -24.169   2.524 -21.611  1.00  0.00    -0.116 N 
ATOM     10  H4  UNL     1     -25.856   2.724 -20.438  1.00  0.00     0.206 HD
HETATM   11  C2  UNL     1     -23.063   1.760 -21.472  1.00  0.00     0.737 A 
ATOM     12  H3  UNL     1     -24.361   3.173 -22.374  1.00  0.00     0.206 HD
HETATM   13  N2  UNL     1     -21.954   1.610 -22.212  1.00  0.00    -0.020 N 
HETATM   14  N11 UNL     1     -23.218   1.055 -20.327  1.00  0.00     0.081 N 
HETATM   15  C1  UNL     1     -20.975   0.767 -21.850  1.00  0.00     0.694 A 
ATOM     16  H2  UNL     1     -21.853   2.150 -23.071  1.00  0.00     0.203 HD
HETATM   17  N12 UNL     1     -21.112   0.060 -20.720  1.00  0.00    -0.140 N 
HETATM   18  C17 UNL     1     -22.223   0.216 -19.987  1.00  0.00     0.376 A 
ATOM     19  H12 UNL     1     -20.382  -0.587 -20.422  1.00  0.00     0.189 HD
HETATM   20  O8  UNL     1     -22.394  -0.433 -18.910  1.00  0.00    -0.244 OA
BRANCH  15  21
HETATM   21  N1  UNL     1     -19.901   0.637 -22.590  1.00  0.00    -0.234 N 
ATOM     22  H12 UNL     1     -19.814  -0.141 -23.244  1.00  0.00     0.174 HD
ATOM     23  H11 UNL     1     -19.141   1.313 -22.521  1.00  0.00     0.174 HD
ENDBRANCH  15  21
ENDBRANCH   1   7
BRANCH   6  24
HETATM   24  C10 UNL     1     -23.574   2.234 -17.001  1.00  0.00     0.157 A 
HETATM   25  O2  UNL     1     -22.763   2.836 -17.813  1.00  0.00    -0.302 OA
HETATM   26  C11 UNL     1     -22.019   3.709 -17.216  1.00  0.00     0.120 A 
HETATM   27  C14 UNL     1     -22.354   3.698 -15.887  1.00  0.00     0.135 A 
HETATM   28  C15 UNL     1     -23.350   2.753 -15.745  1.00  0.00     0.144 A 
BRANCH  26  29
HETATM   29  C12 UNL     1     -20.976   4.591 -17.818  1.00  0.00     0.201 C 
BRANCH  29  30
HETATM   30  O3  UNL     1     -19.725   4.336 -17.298  1.00  0.00    -0.387 OA
ATOM     31  H3  UNL     1     -19.673   3.471 -16.909  1.00  0.00     0.210 HD
ENDBRANCH  29  30
BRANCH  29  32
HETATM   32  C13 UNL     1     -20.940   4.441 -19.313  1.00  0.00     0.202 C 
BRANCH  32  33
HETATM   33  O4  UNL     1     -20.565   3.138 -19.649  1.00  0.00    -0.398 OA
ATOM     34  H4  UNL     1     -21.149   2.517 -19.230  1.00  0.00     0.209 HD
ENDBRANCH  32  33
ENDBRANCH  29  32
ENDBRANCH  26  29
BRANCH  27  35
HETATM   35  O5  UNL     1     -21.813   4.470 -14.880  1.00  0.00    -0.356 OA
ATOM     36  H5  UNL     1     -21.399   4.168 -14.080  1.00  0.00     0.218 HD
ENDBRANCH  27  35
BRANCH  28  37
HETATM   37  O6  UNL     1     -23.989   2.410 -14.549  1.00  0.00    -0.320 OA
BRANCH  37  38
HETATM   38  C16 UNL     1     -24.927   3.203 -13.890  1.00  0.00     0.342 C 
BRANCH  38  39
HETATM   39  O7  UNL     1     -24.361   4.178 -13.061  1.00  0.00    -0.377 OA
ATOM     40  H7  UNL     1     -24.952   4.891 -12.848  1.00  0.00     0.212 HD
ENDBRANCH  38  39
ENDBRANCH  37  38
ENDBRANCH  28  37
ENDBRANCH   6  24
BRANCH   3  41
HETATM   41  C6  UNL     1     -27.006  -1.381 -16.489  1.00  0.00     0.273 C 
BRANCH  41  42
HETATM   42  O1  UNL     1     -28.305  -0.872 -16.497  1.00  0.00    -0.371 OA
ATOM     43  H1  UNL     1     -28.501  -0.469 -15.660  1.00  0.00     0.212 HD
ENDBRANCH  41  42
BRANCH  41  44
HETATM   44  N6  UNL     1     -27.009  -2.640 -17.224  1.00  0.00    -0.330 N 
ATOM     45  H6  UNL     1     -26.739  -2.656 -18.207  1.00  0.00     0.165 HD
BRANCH  44  46
HETATM   46  C7  UNL     1     -27.390  -3.849 -16.571  1.00  0.00     0.190 C 
HETATM   47  N7  UNL     1     -28.528  -4.064 -16.033  1.00  0.00    -0.346 N 
HETATM   48  C8  UNL     1     -28.515  -5.395 -15.484  1.00  0.00     0.259 C 
ATOM     49  H7  UNL     1     -29.308  -3.408 -15.999  1.00  0.00     0.163 HD
HETATM   50  N8  UNL     1     -27.388  -6.035 -16.107  1.00  0.00    -0.119 NA
HETATM   51  N9  UNL     1     -26.520  -4.975 -16.448  1.00  0.00    -0.274 N 
ATOM     52  H9  UNL     1     -25.509  -5.007 -16.577  1.00  0.00     0.185 HD
ENDBRANCH  44  46
ENDBRANCH  41  44
ENDBRANCH   3  41
TORSDOF 15
ENDMDL
MODEL 2
REMARK VINA RESULT: -8.857209006      1.275      1.790
REMARK  15 active torsions:
REMARK  status: ('A' for Active; 'I' for Inactive)
REMARK    1  A    between atoms: N1_1  and  C1_4 
REMARK    2  A    between atoms: C3_12  and  N5_13 
REMARK    3  A    between atoms: C5_15  and  C6_16 
REMARK    4  A    between atoms: C6_16  and  O1_17 
REMARK    5  A    between atoms: C6_16  and  N6_19 
REMARK    6  A    between atoms: N6_19  and  C7_21 
REMARK    7  A    between atoms: C9_30  and  C10_31 
REMARK    8  A    between atoms: C11_33  and  C12_34 
REMARK    9  A    between atoms: C12_34  and  O3_35 
REMARK   10  A    between atoms: C12_34  and  C13_37 
REMARK   11  A    between atoms: C13_37  and  O4_38 
REMARK   12  A    between atoms: C14_40  and  O5_41 
REMARK   13  A    between atoms: C15_43  and  O6_44 
REMARK   14  A    between atoms: O6_44  and  C16_45 
REMARK   15  A    between atoms: C16_45  and  O7_46 
ROOT
HETATM    1  N5  UNL     1     -24.467   0.112 -18.288  1.00  0.00    -0.136 N 
HETATM    2  C4  UNL     1     -25.458  -0.821 -18.149  1.00  0.00     0.146 A 
HETATM    3  C5  UNL     1     -26.085  -0.638 -16.943  1.00  0.00     0.076 A 
HETATM    4  N10 UNL     1     -25.461   0.404 -16.375  1.00  0.00    -0.338 N 
ATOM      5  H10 UNL     1     -25.695   0.793 -15.461  1.00  0.00     0.167 HD
HETATM    6  C9  UNL     1     -24.485   0.866 -17.175  1.00  0.00     0.166 A 
ENDROOT
BRANCH   1   7
HETATM    7  C3  UNL     1     -23.588   0.262 -19.395  1.00  0.00     0.730 A 
HETATM    8  N4  UNL     1     -22.241   0.350 -19.413  1.00  0.00    -0.116 N 
HETATM    9  N3  UNL     1     -21.792   0.483 -20.635  1.00  0.00    -0.116 N 
ATOM     10  H4  UNL     1     -21.651   0.318 -18.583  1.00  0.00     0.206 HD
HETATM   11  C2  UNL     1     -22.857   0.484 -21.465  1.00  0.00     0.737 A 
ATOM     12  H3  UNL     1     -20.813   0.570 -20.910  1.00  0.00     0.206 HD
HETATM   13  N2  UNL     1     -22.981   0.588 -22.797  1.00  0.00    -0.020 N 
HETATM   14  N11 UNL     1     -23.957   0.347 -20.689  1.00  0.00     0.081 N 
HETATM   15  C1  UNL     1     -24.181   0.561 -23.397  1.00  0.00     0.694 A 
ATOM     16  H2  UNL     1     -22.142   0.690 -23.368  1.00  0.00     0.203 HD
HETATM   17  N12 UNL     1     -25.281   0.426 -22.643  1.00  0.00    -0.140 N 
HETATM   18  C17 UNL     1     -25.148   0.323 -21.314  1.00  0.00     0.376 A 
ATOM     19  H12 UNL     1     -26.205   0.401 -23.075  1.00  0.00     0.189 HD
HETATM   20  O8  UNL     1     -26.162   0.194 -20.562  1.00  0.00    -0.244 OA
BRANCH  15  21
HETATM   21  N1  UNL     1     -24.276   0.664 -24.700  1.00  0.00    -0.234 N 
ATOM     22  H12 UNL     1     -25.146   0.425 -25.177  1.00  0.00     0.174 HD
ATOM     23  H11 UNL     1     -23.482   0.986 -25.252  1.00  0.00     0.174 HD
ENDBRANCH  15  21
ENDBRANCH   1   7
BRANCH   6  24
HETATM   24  C10 UNL     1     -23.572   1.985 -16.932  1.00  0.00     0.157 A 
HETATM   25  O2  UNL     1     -22.785   2.582 -17.772  1.00  0.00    -0.302 OA
HETATM   26  C11 UNL     1     -22.109   3.540 -17.225  1.00  0.00     0.120 A 
HETATM   27  C14 UNL     1     -22.468   3.597 -15.904  1.00  0.00     0.135 A 
HETATM   28  C15 UNL     1     -23.405   2.602 -15.712  1.00  0.00     0.144 A 
BRANCH  26  29
HETATM   29  C12 UNL     1     -21.113   4.444 -17.872  1.00  0.00     0.201 C 
BRANCH  29  30
HETATM   30  O3  UNL     1     -19.843   4.249 -17.372  1.00  0.00    -0.387 OA
ATOM     31  H3  UNL     1     -19.212   4.841 -17.767  1.00  0.00     0.210 HD
ENDBRANCH  29  30
BRANCH  29  32
HETATM   32  C13 UNL     1     -21.101   4.256 -19.363  1.00  0.00     0.202 C 
BRANCH  32  33
HETATM   33  O4  UNL     1     -20.708   2.953 -19.673  1.00  0.00    -0.398 OA
ATOM     34  H4  UNL     1     -19.969   2.972 -20.270  1.00  0.00     0.209 HD
ENDBRANCH  32  33
ENDBRANCH  29  32
ENDBRANCH  26  29
BRANCH  27  35
HETATM   35  O5  UNL     1     -21.996   4.469 -14.944  1.00  0.00    -0.356 OA
ATOM     36  H5  UNL     1     -22.184   4.458 -14.013  1.00  0.00     0.218 HD
ENDBRANCH  27  35
BRANCH  28  37
HETATM   37  O6  UNL     1     -24.043   2.300 -14.505  1.00  0.00    -0.320 OA
BRANCH  37  38
HETATM   38  C16 UNL     1     -24.984   3.113 -13.875  1.00  0.00     0.342 C 
BRANCH  38  39
HETATM   39  O7  UNL     1     -24.424   4.066 -13.016  1.00  0.00    -0.377 OA
ATOM     40  H7  UNL     1     -24.755   4.024 -12.127  1.00  0.00     0.212 HD
ENDBRANCH  38  39
ENDBRANCH  37  38
ENDBRANCH  28  37
ENDBRANCH   6  24
BRANCH   3  41
HETATM   41  C6  UNL     1     -27.211  -1.413 -16.374  1.00  0.00     0.273 C 
BRANCH  41  42
HETATM   42  O1  UNL     1     -28.375  -0.644 -16.388  1.00  0.00    -0.371 OA
ATOM     43  H1  UNL     1     -28.650  -0.453 -15.500  1.00  0.00     0.212 HD
ENDBRANCH  41  42
BRANCH  41  44
HETATM   44  N6  UNL     1     -27.465  -2.630 -17.136  1.00  0.00    -0.330 N 
ATOM     45  H6  UNL     1     -27.570  -2.582 -18.150  1.00  0.00     0.165 HD
BRANCH  44  46
HETATM   46  C7  UNL     1     -27.567  -3.885 -16.469  1.00  0.00     0.190 C 
HETATM   47  N7  UNL     1     -28.608  -4.311 -15.866  1.00  0.00    -0.346 N 
HETATM   48  C8  UNL     1     -28.307  -5.611 -15.325  1.00  0.00     0.259 C 
ATOM     49  H7  UNL     1     -29.497  -3.818 -15.782  1.00  0.00     0.163 HD
HETATM   50  N8  UNL     1     -27.117  -6.026 -16.017  1.00  0.00    -0.119 NA
HETATM   51  N9  UNL     1     -26.491  -4.822 -16.403  1.00  0.00    -0.274 N 
ATOM     52  H9  UNL     1     -25.502  -4.659 -16.591  1.00  0.00     0.185 HD
ENDBRANCH  44  46
ENDBRANCH  41  44
ENDBRANCH   3  41
TORSDOF 15
ENDMDL
MODEL 3
REMARK VINA RESULT: -8.637222403      2.466      5.295
REMARK  15 active torsions:
REMARK  status: ('A' for Active; 'I' for Inactive)
REMARK    1  A    between atoms: N1_1  and  C1_4 
REMARK    2  A    between atoms: C3_12  and  N5_13 
REMARK    3  A    between atoms: C5_15  and  C6_16 
REMARK    4  A    between atoms: C6_16  and  O1_17 
REMARK    5  A    between atoms: C6_16  and  N6_19 
REMARK    6  A    between atoms: N6_19  and  C7_21 
REMARK    7  A    between atoms: C9_30  and  C10_31 
REMARK    8  A    between atoms: C11_33  and  C12_34 
REMARK    9  A    between atoms: C12_34  and  O3_35 
REMARK   10  A    between atoms: C12_34  and  C13_37 
REMARK   11  A    between atoms: C13_37  and  O4_38 
REMARK   12  A    between atoms: C14_40  and  O5_41 
REMARK   13  A    between atoms: C15_43  and  O6_44 
REMARK   14  A    between atoms: O6_44  and  C16_45 
REMARK   15  A    between atoms: C16_45  and  O7_46 
ROOT
HETATM    1  N5  UNL     1     -24.704   0.672 -17.266  1.00  0.00    -0.136 N 
HETATM    2  C4  UNL     1     -25.618   0.158 -16.387  1.00  0.00     0.146 A 
HETATM    3  C5  UNL     1     -26.311  -0.857 -16.997  1.00  0.00     0.076 A 
HETATM    4  N10 UNL     1     -25.802  -0.937 -18.234  1.00  0.00    -0.338 N 
ATOM      5  H10 UNL     1     -26.107  -1.601 -18.946  1.00  0.00     0.167 HD
HETATM    6  C9  UNL     1     -24.833  -0.023 -18.410  1.00  0.00     0.166 A 
ENDROOT
BRANCH   1   7
HETATM    7  C3  UNL     1     -23.792   1.734 -17.021  1.00  0.00     0.730 A 
HETATM    8  N4  UNL     1     -22.775   2.184 -17.786  1.00  0.00    -0.116 N 
HETATM    9  N3  UNL     1     -22.159   3.186 -17.214  1.00  0.00    -0.116 N 
ATOM     10  H4  UNL     1     -22.521   1.794 -18.693  1.00  0.00     0.206 HD
HETATM   11  C2  UNL     1     -22.771   3.423 -16.033  1.00  0.00     0.737 A 
ATOM     12  H3  UNL     1     -21.360   3.696 -17.591  1.00  0.00     0.206 HD
HETATM   13  N2  UNL     1     -22.561   4.317 -15.055  1.00  0.00    -0.020 N 
HETATM   14  N11 UNL     1     -23.775   2.522 -15.926  1.00  0.00     0.081 N 
HETATM   15  C1  UNL     1     -23.327   4.348 -13.953  1.00  0.00     0.694 A 
ATOM     16  H2  UNL     1     -21.800   4.990 -15.151  1.00  0.00     0.203 HD
HETATM   17  N12 UNL     1     -24.325   3.463 -13.832  1.00  0.00    -0.140 N 
HETATM   18  C17 UNL     1     -24.527   2.574 -14.813  1.00  0.00     0.376 A 
ATOM     19  H12 UNL     1     -24.922   3.466 -13.004  1.00  0.00     0.189 HD
HETATM   20  O8  UNL     1     -25.461   1.717 -14.739  1.00  0.00    -0.244 OA
BRANCH  15  21
HETATM   21  N1  UNL     1     -23.101   5.231 -13.011  1.00  0.00    -0.234 N 
ATOM     22  H12 UNL     1     -23.589   6.127 -13.014  1.00  0.00     0.174 HD
ATOM     23  H11 UNL     1     -22.436   5.033 -12.265  1.00  0.00     0.174 HD
ENDBRANCH  15  21
ENDBRANCH   1   7
BRANCH   6  24
HETATM   24  C10 UNL     1     -24.027   0.222 -19.608  1.00  0.00     0.157 A 
HETATM   25  O2  UNL     1     -22.736   0.206 -19.731  1.00  0.00    -0.302 OA
HETATM   26  C11 UNL     1     -22.349   0.466 -20.937  1.00  0.00     0.120 A 
HETATM   27  C14 UNL     1     -23.470   0.676 -21.696  1.00  0.00     0.135 A 
HETATM   28  C15 UNL     1     -24.548   0.521 -20.848  1.00  0.00     0.144 A 
BRANCH  26  29
HETATM   29  C12 UNL     1     -20.951   0.535 -21.456  1.00  0.00     0.201 C 
BRANCH  29  30
HETATM   30  O3  UNL     1     -20.803   1.526 -22.403  1.00  0.00    -0.387 OA
ATOM     31  H3  UNL     1     -20.355   1.210 -23.179  1.00  0.00     0.210 HD
ENDBRANCH  29  30
BRANCH  29  32
HETATM   32  C13 UNL     1     -19.970   0.756 -20.339  1.00  0.00     0.202 C 
BRANCH  32  33
HETATM   33  O4  UNL     1     -20.294   1.927 -19.649  1.00  0.00    -0.398 OA
ATOM     34  H4  UNL     1     -21.204   1.899 -19.377  1.00  0.00     0.209 HD
ENDBRANCH  32  33
ENDBRANCH  29  32
ENDBRANCH  26  29
BRANCH  27  35
HETATM   35  O5  UNL     1     -23.528   0.982 -23.040  1.00  0.00    -0.356 OA
ATOM     36  H5  UNL     1     -22.869   0.803 -23.701  1.00  0.00     0.218 HD
ENDBRANCH  27  35
BRANCH  28  37
HETATM   37  O6  UNL     1     -25.895   0.648 -21.203  1.00  0.00    -0.320 OA
BRANCH  37  38
HETATM   38  C16 UNL     1     -26.639  -0.322 -21.873  1.00  0.00     0.342 C 
BRANCH  38  39
HETATM   39  O7  UNL     1     -26.640  -1.570 -21.240  1.00  0.00    -0.377 OA
ATOM     40  H7  UNL     1     -27.328  -2.152 -21.540  1.00  0.00     0.212 HD
ENDBRANCH  38  39
ENDBRANCH  37  38
ENDBRANCH  28  37
ENDBRANCH   6  24
BRANCH   3  41
HETATM   41  C6  UNL     1     -27.389  -1.695 -16.427  1.00  0.00     0.273 C 
BRANCH  41  42
HETATM   42  O1  UNL     1     -28.605  -1.014 -16.485  1.00  0.00    -0.371 OA
ATOM     43  H1  UNL     1     -29.093  -1.283 -17.254  1.00  0.00     0.212 HD
ENDBRANCH  41  42
BRANCH  41  44
HETATM   44  N6  UNL     1     -27.539  -2.948 -17.160  1.00  0.00    -0.330 N 
ATOM     45  H6  UNL     1     -27.533  -2.944 -18.180  1.00  0.00     0.165 HD
BRANCH  44  46
HETATM   46  C7  UNL     1     -27.693  -4.177 -16.453  1.00  0.00     0.190 C 
HETATM   47  N7  UNL     1     -28.764  -4.558 -15.873  1.00  0.00    -0.346 N 
HETATM   48  C8  UNL     1     -28.512  -5.844 -15.278  1.00  0.00     0.259 C 
ATOM     49  H7  UNL     1     -29.643  -4.042 -15.837  1.00  0.00     0.163 HD
HETATM   50  N8  UNL     1     -27.309  -6.310 -15.913  1.00  0.00    -0.119 NA
HETATM   51  N9  UNL     1     -26.642  -5.134 -16.318  1.00  0.00    -0.274 N 
ATOM     52  H9  UNL     1     -25.644  -5.000 -16.477  1.00  0.00     0.185 HD
ENDBRANCH  44  46
ENDBRANCH  41  44
ENDBRANCH   3  41
TORSDOF 15
ENDMDL
MODEL 4
REMARK VINA RESULT: -8.559959231      3.319      7.486
REMARK  15 active torsions:
REMARK  status: ('A' for Active; 'I' for Inactive)
REMARK    1  A    between atoms: N1_1  and  C1_4 
REMARK    2  A    between atoms: C3_12  and  N5_13 
REMARK    3  A    between atoms: C5_15  and  C6_16 
REMARK    4  A    between atoms: C6_16  and  O1_17 
REMARK    5  A    between atoms: C6_16  and  N6_19 
REMARK    6  A    between atoms: N6_19  and  C7_21 
REMARK    7  A    between atoms: C9_30  and  C10_31 
REMARK    8  A    between atoms: C11_33  and  C12_34 
REMARK    9  A    between atoms: C12_34  and  O3_35 
REMARK   10  A    between atoms: C12_34  and  C13_37 
REMARK   11  A    between atoms: C13_37  and  O4_38 
REMARK   12  A    between atoms: C14_40  and  O5_41 
REMARK   13  A    between atoms: C15_43  and  O6_44 
REMARK   14  A    between atoms: O6_44  and  C16_45 
REMARK   15  A    between atoms: C16_45  and  O7_46 
ROOT
HETATM    1  N5  UNL     1     -22.498   2.966 -18.642  1.00  0.00    -0.136 N 
HETATM    2  C4  UNL     1     -21.497   3.898 -18.619  1.00  0.00     0.146 A 
HETATM    3  C5  UNL     1     -21.149   4.155 -17.317  1.00  0.00     0.076 A 
HETATM    4  N10 UNL     1     -21.946   3.371 -16.578  1.00  0.00    -0.338 N 
ATOM      5  H10 UNL     1     -21.935   3.328 -15.559  1.00  0.00     0.167 HD
HETATM    6  C9  UNL     1     -22.763   2.649 -17.363  1.00  0.00     0.166 A 
ENDROOT
BRANCH   1   7
HETATM    7  C3  UNL     1     -23.135   2.430 -19.795  1.00  0.00     0.730 A 
HETATM    8  N4  UNL     1     -24.445   2.416 -20.121  1.00  0.00    -0.116 N 
HETATM    9  N3  UNL     1     -24.641   1.826 -21.272  1.00  0.00    -0.116 N 
ATOM     10  H4  UNL     1     -25.186   2.814 -19.544  1.00  0.00     0.206 HD
HETATM   11  C2  UNL     1     -23.436   1.430 -21.739  1.00  0.00     0.737 A 
ATOM     12  H3  UNL     1     -25.540   1.689 -21.733  1.00  0.00     0.206 HD
HETATM   13  N2  UNL     1     -23.050   0.790 -22.854  1.00  0.00    -0.020 N 
HETATM   14  N11 UNL     1     -22.518   1.809 -20.820  1.00  0.00     0.081 N 
HETATM   15  C1  UNL     1     -21.761   0.507 -23.091  1.00  0.00     0.694 A 
ATOM     16  H2  UNL     1     -23.755   0.513 -23.537  1.00  0.00     0.203 HD
HETATM   17  N12 UNL     1     -20.838   0.874 -22.192  1.00  0.00    -0.140 N 
HETATM   18  C17 UNL     1     -21.232   1.512 -21.082  1.00  0.00     0.376 A 
ATOM     19  H12 UNL     1     -19.851   0.670 -22.350  1.00  0.00     0.189 HD
HETATM   20  O8  UNL     1     -20.393   1.879 -20.204  1.00  0.00    -0.244 OA
BRANCH  15  21
HETATM   21  N1  UNL     1     -21.409  -0.120 -24.188  1.00  0.00    -0.234 N 
ATOM     22  H12 UNL     1     -20.478   0.011 -24.584  1.00  0.00     0.174 HD
ATOM     23  H11 UNL     1     -22.062  -0.746 -24.658  1.00  0.00     0.174 HD
ENDBRANCH  15  21
ENDBRANCH   1   7
BRANCH   6  24
HETATM   24  C10 UNL     1     -23.781   1.677 -16.958  1.00  0.00     0.157 A 
HETATM   25  O2  UNL     1     -24.393   0.796 -17.686  1.00  0.00    -0.302 OA
HETATM   26  C11 UNL     1     -25.238   0.091 -17.008  1.00  0.00     0.120 A 
HETATM   27  C14 UNL     1     -25.197   0.530 -15.711  1.00  0.00     0.135 A 
HETATM   28  C15 UNL     1     -24.265   1.547 -15.674  1.00  0.00     0.144 A 
BRANCH  26  29
HETATM   29  C12 UNL     1     -26.118  -1.009 -17.502  1.00  0.00     0.201 C 
BRANCH  29  30
HETATM   30  O3  UNL     1     -27.425  -0.844 -17.093  1.00  0.00    -0.387 OA
ATOM     31  H3  UNL     1     -27.962  -0.453 -17.773  1.00  0.00     0.210 HD
ENDBRANCH  29  30
BRANCH  29  32
HETATM   32  C13 UNL     1     -26.069  -1.110 -19.000  1.00  0.00     0.202 C 
BRANCH  32  33
HETATM   33  O4  UNL     1     -26.323   0.141 -19.568  1.00  0.00    -0.398 OA
ATOM     34  H4  UNL     1     -25.716   0.783 -19.217  1.00  0.00     0.209 HD
ENDBRANCH  32  33
ENDBRANCH  29  32
ENDBRANCH  26  29
BRANCH  27  35
HETATM   35  O5  UNL     1     -25.934   0.061 -14.643  1.00  0.00    -0.356 OA
ATOM     36  H5  UNL     1     -25.630  -0.488 -13.930  1.00  0.00     0.218 HD
ENDBRANCH  27  35
BRANCH  28  37
HETATM   37  O6  UNL     1     -23.901   2.284 -14.543  1.00  0.00    -0.320 OA
BRANCH  37  38
HETATM   38  C16 UNL     1     -24.629   3.351 -14.018  1.00  0.00     0.342 C 
BRANCH  38  39
HETATM   39  O7  UNL     1     -25.745   2.961 -13.270  1.00  0.00    -0.377 OA
ATOM     40  H7  UNL     1     -26.575   3.160 -13.686  1.00  0.00     0.212 HD
ENDBRANCH  38  39
ENDBRANCH  37  38
ENDBRANCH  28  37
ENDBRANCH   6  24
BRANCH   3  41
HETATM   41  C6  UNL     1     -20.116   5.090 -16.817  1.00  0.00     0.273 C 
BRANCH  41  42
HETATM   42  O1  UNL     1     -19.203   4.407 -16.013  1.00  0.00    -0.371 OA
ATOM     43  H1  UNL     1     -18.940   4.955 -15.283  1.00  0.00     0.212 HD
ENDBRANCH  41  42
BRANCH  41  44
HETATM   44  N6  UNL     1     -19.378   5.710 -17.911  1.00  0.00    -0.330 N 
ATOM     45  H6  UNL     1     -18.963   5.128 -18.640  1.00  0.00     0.165 HD
BRANCH  44  46
HETATM   46  C7  UNL     1     -19.234   7.127 -17.966  1.00  0.00     0.190 C 
HETATM   47  N7  UNL     1     -19.010   7.799 -19.028  1.00  0.00    -0.346 N 
HETATM   48  C8  UNL     1     -18.931   9.190 -18.664  1.00  0.00     0.259 C 
ATOM     49  H7  UNL     1     -18.905   7.418 -19.968  1.00  0.00     0.163 HD
HETATM   50  N8  UNL     1     -19.515   9.256 -17.351  1.00  0.00    -0.119 NA
HETATM   51  N9  UNL     1     -19.330   7.965 -16.814  1.00  0.00    -0.274 N 
ATOM     52  H9  UNL     1     -19.277   7.693 -15.832  1.00  0.00     0.185 HD
ENDBRANCH  44  46
ENDBRANCH  41  44
ENDBRANCH   3  41
TORSDOF 15
ENDMDL
MODEL 5
REMARK VINA RESULT: -8.491773047      2.235      6.829
REMARK  15 active torsions:
REMARK  status: ('A' for Active; 'I' for Inactive)
REMARK    1  A    between atoms: N1_1  and  C1_4 
REMARK    2  A    between atoms: C3_12  and  N5_13 
REMARK    3  A    between atoms: C5_15  and  C6_16 
REMARK    4  A    between atoms: C6_16  and  O1_17 
REMARK    5  A    between atoms: C6_16  and  N6_19 
REMARK    6  A    between atoms: N6_19  and  C7_21 
REMARK    7  A    between atoms: C9_30  and  C10_31 
REMARK    8  A    between atoms: C11_33  and  C12_34 
REMARK    9  A    between atoms: C12_34  and  O3_35 
REMARK   10  A    between atoms: C12_34  and  C13_37 
REMARK   11  A    between atoms: C13_37  and  O4_38 
REMARK   12  A    between atoms: C14_40  and  O5_41 
REMARK   13  A    between atoms: C15_43  and  O6_44 
REMARK   14  A    between atoms: O6_44  and  C16_45 
REMARK   15  A    between atoms: C16_45  and  O7_46 
ROOT
HETATM    1  N5  UNL     1     -23.110   2.402 -18.324  1.00  0.00    -0.136 N 
HETATM    2  C4  UNL     1     -23.020   1.789 -19.544  1.00  0.00     0.146 A 
HETATM    3  C5  UNL     1     -21.817   2.104 -20.121  1.00  0.00     0.076 A 
HETATM    4  N10 UNL     1     -21.200   2.901 -19.238  1.00  0.00    -0.338 N 
ATOM      5  H10 UNL     1     -20.275   3.310 -19.372  1.00  0.00     0.167 HD
HETATM    6  C9  UNL     1     -21.967   3.089 -18.151  1.00  0.00     0.166 A 
ENDROOT
BRANCH   1   7
HETATM    7  C3  UNL     1     -24.198   2.328 -17.412  1.00  0.00     0.730 A 
HETATM    8  N4  UNL     1     -24.721   3.289 -16.623  1.00  0.00    -0.116 N 
HETATM    9  N3  UNL     1     -25.723   2.831 -15.918  1.00  0.00    -0.116 N 
ATOM     10  H4  UNL     1     -24.380   4.250 -16.583  1.00  0.00     0.206 HD
HETATM   11  C2  UNL     1     -25.884   1.527 -16.235  1.00  0.00     0.737 A 
ATOM     12  H3  UNL     1     -26.281   3.362 -15.249  1.00  0.00     0.206 HD
HETATM   13  N2  UNL     1     -26.744   0.584 -15.824  1.00  0.00    -0.020 N 
HETATM   14  N11 UNL     1     -24.938   1.230 -17.156  1.00  0.00     0.081 N 
HETATM   15  C1  UNL     1     -26.697  -0.669 -16.303  1.00  0.00     0.694 A 
ATOM     16  H2  UNL     1     -27.452   0.824 -15.129  1.00  0.00     0.203 HD
HETATM   17  N12 UNL     1     -25.767  -0.980 -17.216  1.00  0.00    -0.140 N 
HETATM   18  C17 UNL     1     -24.912  -0.032 -17.621  1.00  0.00     0.376 A 
ATOM     19  H12 UNL     1     -25.711  -1.925 -17.596  1.00  0.00     0.189 HD
HETATM   20  O8  UNL     1     -24.015  -0.282 -18.483  1.00  0.00    -0.244 OA
BRANCH  15  21
HETATM   21  N1  UNL     1     -27.548  -1.574 -15.885  1.00  0.00    -0.234 N 
ATOM     22  H12 UNL     1     -27.255  -2.543 -15.759  1.00  0.00     0.174 HD
ATOM     23  H11 UNL     1     -28.514  -1.319 -15.681  1.00  0.00     0.174 HD
ENDBRANCH  15  21
ENDBRANCH   1   7
BRANCH   6  24
HETATM   24  C10 UNL     1     -21.668   3.887 -16.960  1.00  0.00     0.157 A 
HETATM   25  O2  UNL     1     -22.311   3.933 -15.835  1.00  0.00    -0.302 OA
HETATM   26  C11 UNL     1     -21.774   4.748 -14.988  1.00  0.00     0.120 A 
HETATM   27  C14 UNL     1     -20.672   5.300 -15.587  1.00  0.00     0.135 A 
HETATM   28  C15 UNL     1     -20.601   4.752 -16.851  1.00  0.00     0.144 A 
BRANCH  26  29
HETATM   29  C12 UNL     1     -22.229   5.060 -13.601  1.00  0.00     0.201 C 
BRANCH  29  30
HETATM   30  O3  UNL     1     -22.077   6.397 -13.299  1.00  0.00    -0.387 OA
ATOM     31  H3  UNL     1     -22.798   6.727 -12.776  1.00  0.00     0.210 HD
ENDBRANCH  29  30
BRANCH  29  32
HETATM   32  C13 UNL     1     -23.664   4.661 -13.400  1.00  0.00     0.202 C 
BRANCH  32  33
HETATM   33  O4  UNL     1     -23.792   3.276 -13.526  1.00  0.00    -0.398 OA
ATOM     34  H4  UNL     1     -24.700   3.050 -13.690  1.00  0.00     0.209 HD
ENDBRANCH  32  33
ENDBRANCH  29  32
ENDBRANCH  26  29
BRANCH  27  35
HETATM   35  O5  UNL     1     -19.800   6.223 -15.048  1.00  0.00    -0.356 OA
ATOM     36  H5  UNL     1     -19.880   6.676 -14.217  1.00  0.00     0.218 HD
ENDBRANCH  27  35
BRANCH  28  37
HETATM   37  O6  UNL     1     -19.627   5.037 -17.814  1.00  0.00    -0.320 OA
BRANCH  37  38
HETATM   38  C16 UNL     1     -19.521   6.239 -18.511  1.00  0.00     0.342 C 
BRANCH  38  39
HETATM   39  O7  UNL     1     -19.238   6.080 -19.872  1.00  0.00    -0.377 OA
ATOM     40  H7  UNL     1     -18.594   6.694 -20.205  1.00  0.00     0.212 HD
ENDBRANCH  38  39
ENDBRANCH  37  38
ENDBRANCH  28  37
ENDBRANCH   6  24
BRANCH   3  41
HETATM   41  C6  UNL     1     -21.292   1.665 -21.434  1.00  0.00     0.273 C 
BRANCH  41  42
HETATM   42  O1  UNL     1     -20.108   0.948 -21.261  1.00  0.00    -0.371 OA
ATOM     43  H1  UNL     1     -19.486   1.464 -20.763  1.00  0.00     0.212 HD
ENDBRANCH  41  42
BRANCH  41  44
HETATM   44  N6  UNL     1     -22.242   0.805 -22.131  1.00  0.00    -0.330 N 
ATOM     45  H6  UNL     1     -23.062   0.449 -21.640  1.00  0.00     0.165 HD
BRANCH  44  46
HETATM   46  C7  UNL     1     -22.027   0.460 -23.498  1.00  0.00     0.190 C 
HETATM   47  N7  UNL     1     -20.887   0.412 -24.070  1.00  0.00    -0.346 N 
HETATM   48  C8  UNL     1     -21.094   0.028 -25.442  1.00  0.00     0.259 C 
ATOM     49  H7  UNL     1     -19.987   0.610 -23.632  1.00  0.00     0.163 HD
HETATM   50  N8  UNL     1     -22.430  -0.503 -25.473  1.00  0.00    -0.119 NA
HETATM   51  N9  UNL     1     -23.088   0.123 -24.392  1.00  0.00    -0.274 N 
ATOM     52  H9  UNL     1     -24.086   0.293 -24.277  1.00  0.00     0.185 HD
ENDBRANCH  44  46
ENDBRANCH  41  44
ENDBRANCH   3  41
TORSDOF 15
ENDMDL
