MODEL 1
REMARK VINA RESULT: -9.230155909      0.000      0.000
REMARK  16 active torsions:
REMARK  status: ('A' for Active; 'I' for Inactive)
REMARK    1  A    between atoms: N1_1  and  C1_4 
REMARK    2  A    between atoms: C2_7  and  N3_8 
REMARK    3  A    between atoms: N3_8  and  C3_10 
REMARK    4  A    between atoms: C4_13  and  N5_14 
REMARK    5  A    between atoms: C6_23  and  C7_24 
REMARK    6  A    between atoms: N11_29  and  C8_30 
REMARK    7  A    between atoms: C10_34  and  C11_35 
REMARK    8  A    between atoms: C11_35  and  N13_36 
REMARK    9  A    between atoms: N13_36  and  C12_38 
REMARK   10  A    between atoms: C12_38  and  C13_39 
REMARK   11  A    between atoms: C12_38  and  N14_46 
REMARK   12  A    between atoms: C13_39  and  C14_40 
REMARK   13  A    between atoms: C14_40  and  O1_41 
REMARK   14  A    between atoms: C14_40  and  C15_43 
REMARK   15  A    between atoms: C15_43  and  O2_44 
REMARK   16  A    between atoms: N14_46  and  N15_48 
ROOT
HETATM    1  C7  UNL     1     -19.558   5.830 -18.100  1.00  0.00     0.165 A 
HETATM    2  N9  UNL     1     -19.504   5.343 -16.848  1.00  0.00    -0.266 N 
ATOM      3  H9  UNL     1     -18.923   5.695 -16.088  1.00  0.00     0.190 HD
HETATM    4  N10 UNL     1     -20.339   4.330 -16.785  1.00  0.00    -0.219 N 
ATOM      5  H10 UNL     1     -20.504   3.769 -15.949  1.00  0.00     0.210 HD
HETATM    6  N11 UNL     1     -20.936   4.136 -17.946  1.00  0.00    -0.178 N 
HETATM    7  N17 UNL     1     -20.449   5.065 -18.749  1.00  0.00    -0.260 N 
ATOM      8  H17 UNL     1     -20.714   5.184 -19.727  1.00  0.00     0.191 HD
ENDROOT
BRANCH   1   9
HETATM    9  C6  UNL     1     -18.793   6.973 -18.642  1.00  0.00     0.099 A 
HETATM   10  C5  UNL     1     -17.570   6.775 -19.241  1.00  0.00     0.083 A 
HETATM   11  C2  UNL     1     -16.882   7.860 -19.736  1.00  0.00     0.139 A 
HETATM   12  N2  UNL     1     -17.424   9.071 -19.620  1.00  0.00    -0.176 N 
HETATM   13  C1  UNL     1     -18.618   9.305 -19.040  1.00  0.00     0.678 A 
ATOM     14  H2  UNL     1     -16.906   9.868 -19.991  1.00  0.00     0.186 HD
HETATM   15  N18 UNL     1     -19.270   8.222 -18.564  1.00  0.00    -0.188 N 
ATOM     16  H18 UNL     1     -20.176   8.363 -18.119  1.00  0.00     0.184 HD
BRANCH  11  17
HETATM   17  N3  UNL     1     -15.602   7.651 -20.363  1.00  0.00    -0.175 N 
ATOM     18  H3  UNL     1     -14.738   7.903 -19.883  1.00  0.00     0.186 HD
BRANCH  17  19
HETATM   19  C3  UNL     1     -15.574   7.084 -21.669  1.00  0.00     0.695 C 
HETATM   20  N4  UNL     1     -14.519   6.537 -22.164  1.00  0.00    -0.181 N 
HETATM   21  C4  UNL     1     -14.645   5.999 -23.517  1.00  0.00     0.409 C 
ATOM     22  H4  UNL     1     -13.644   6.481 -21.642  1.00  0.00     0.181 HD
HETATM   23  N6  UNL     1     -15.919   5.280 -23.604  1.00  0.00    -0.071 NA
HETATM   24  N7  UNL     1     -16.993   6.147 -23.449  1.00  0.00    -0.013 NA
HETATM   25  N8  UNL     1     -16.743   7.111 -22.478  1.00  0.00    -0.119 N 
ATOM     26  H8  UNL     1     -17.420   7.862 -22.342  1.00  0.00     0.202 HD
BRANCH  21  27
HETATM   27  N5  UNL     1     -14.702   7.132 -24.411  1.00  0.00    -0.042 N 
ATOM     28  H53 UNL     1     -15.647   7.491 -24.546  1.00  0.00     0.278 HD
ATOM     29  H52 UNL     1     -14.298   7.980 -24.012  1.00  0.00     0.278 HD
ATOM     30  H51 UNL     1     -14.253   6.843 -25.281  1.00  0.00     0.278 HD
ENDBRANCH  21  27
ENDBRANCH  17  19
ENDBRANCH  11  17
BRANCH  13  31
HETATM   31  N1  UNL     1     -19.090  10.491 -18.957  1.00  0.00    -0.234 N 
ATOM     32  H12 UNL     1     -18.841  11.134 -18.205  1.00  0.00     0.174 HD
ATOM     33  H11 UNL     1     -19.746  10.846 -19.652  1.00  0.00     0.174 HD
ENDBRANCH  13  31
ENDBRANCH   1   9
BRANCH   6  34
HETATM   34  C8  UNL     1     -21.900   3.123 -18.229  1.00  0.00     0.107 A 
HETATM   35  C9  UNL     1     -22.914   2.837 -17.337  1.00  0.00     0.124 A 
HETATM   36  N12 UNL     1     -23.806   1.862 -17.659  1.00  0.00    -0.352 N 
HETATM   37  C10 UNL     1     -23.729   1.176 -18.807  1.00  0.00     0.099 A 
ATOM     38  H12 UNL     1     -24.557   1.646 -17.004  1.00  0.00     0.166 HD
HETATM   39  N16 UNL     1     -22.751   1.436 -19.693  1.00  0.00    -0.352 N 
HETATM   40  C16 UNL     1     -21.858   2.395 -19.395  1.00  0.00     0.124 A 
ATOM     41  H16 UNL     1     -22.688   0.917 -20.569  1.00  0.00     0.166 HD
BRANCH  37  42
HETATM   42  C11 UNL     1     -24.709   0.130 -19.122  1.00  0.00     0.197 C 
BRANCH  42  43
HETATM   43  N13 UNL     1     -24.671  -0.165 -20.546  1.00  0.00    -0.372 N 
ATOM     44  H13 UNL     1     -23.874  -0.666 -20.939  1.00  0.00     0.161 HD
BRANCH  43  45
HETATM   45  C12 UNL     1     -25.735   0.238 -21.391  1.00  0.00     0.094 C 
BRANCH  45  46
HETATM   46  C13 UNL     1     -25.829  -0.343 -22.747  1.00  0.00     0.111 C 
BRANCH  46  47
HETATM   47  C14 UNL     1     -26.488  -1.700 -22.708  1.00  0.00     0.148 C 
BRANCH  47  48
HETATM   48  O1  UNL     1     -26.797  -1.972 -21.371  1.00  0.00    -0.393 OA
ATOM     49  H1  UNL     1     -27.020  -1.145 -20.959  1.00  0.00     0.210 HD
ENDBRANCH  47  48
BRANCH  47  50
HETATM   50  C15 UNL     1     -27.820  -1.585 -23.436  1.00  0.00     0.196 C 
BRANCH  50  51
HETATM   51  O2  UNL     1     -28.607  -0.644 -22.805  1.00  0.00    -0.398 OA
ATOM     52  H2  UNL     1     -29.339  -1.077 -22.384  1.00  0.00     0.209 HD
ENDBRANCH  50  51
ENDBRANCH  47  50
ENDBRANCH  46  47
ENDBRANCH  45  46
BRANCH  45  53
HETATM   53  N14 UNL     1     -26.590   1.095 -20.963  1.00  0.00    -0.296 N 
ATOM     54  H14 UNL     1     -26.695   1.210 -19.954  1.00  0.00     0.187 HD
BRANCH  53  55
HETATM   55  N15 UNL     1     -27.383   1.874 -21.802  1.00  0.00    -0.344 N 
ATOM     56 2H15 UNL     1     -27.212   2.880 -21.803  1.00  0.00     0.176 HD
ATOM     57 1H15 UNL     1     -28.113   1.490 -22.402  1.00  0.00     0.176 HD
ENDBRANCH  53  55
ENDBRANCH  45  53
ENDBRANCH  43  45
ENDBRANCH  42  43
ENDBRANCH  37  42
ENDBRANCH   6  34
TORSDOF 16
ENDMDL
MODEL 2
REMARK VINA RESULT: -9.181160186      4.279     10.533
REMARK  16 active torsions:
REMARK  status: ('A' for Active; 'I' for Inactive)
REMARK    1  A    between atoms: N1_1  and  C1_4 
REMARK    2  A    between atoms: C2_7  and  N3_8 
REMARK    3  A    between atoms: N3_8  and  C3_10 
REMARK    4  A    between atoms: C4_13  and  N5_14 
REMARK    5  A    between atoms: C6_23  and  C7_24 
REMARK    6  A    between atoms: N11_29  and  C8_30 
REMARK    7  A    between atoms: C10_34  and  C11_35 
REMARK    8  A    between atoms: C11_35  and  N13_36 
REMARK    9  A    between atoms: N13_36  and  C12_38 
REMARK   10  A    between atoms: C12_38  and  C13_39 
REMARK   11  A    between atoms: C12_38  and  N14_46 
REMARK   12  A    between atoms: C13_39  and  C14_40 
REMARK   13  A    between atoms: C14_40  and  O1_41 
REMARK   14  A    between atoms: C14_40  and  C15_43 
REMARK   15  A    between atoms: C15_43  and  O2_44 
REMARK   16  A    between atoms: N14_46  and  N15_48 
ROOT
HETATM    1  C7  UNL     1     -23.832   2.053 -16.011  1.00  0.00     0.165 A 
HETATM    2  N9  UNL     1     -23.527   2.422 -14.755  1.00  0.00    -0.266 N 
ATOM      3  H9  UNL     1     -23.908   2.021 -13.898  1.00  0.00     0.190 HD
HETATM    4  N10 UNL     1     -22.648   3.396 -14.834  1.00  0.00    -0.219 N 
ATOM      5  H10 UNL     1     -22.237   3.870 -14.031  1.00  0.00     0.210 HD
HETATM    6  N11 UNL     1     -22.367   3.678 -16.093  1.00  0.00    -0.178 N 
HETATM    7  N17 UNL     1     -23.101   2.845 -16.810  1.00  0.00    -0.260 N 
ATOM      8  H17 UNL     1     -23.110   2.809 -17.830  1.00  0.00     0.191 HD
ENDROOT
BRANCH   1   9
HETATM    9  C6  UNL     1     -24.777   0.993 -16.420  1.00  0.00     0.099 A 
HETATM   10  C5  UNL     1     -24.816   0.556 -17.724  1.00  0.00     0.083 A 
HETATM   11  C2  UNL     1     -25.707  -0.433 -18.075  1.00  0.00     0.139 A 
HETATM   12  N2  UNL     1     -26.508  -0.937 -17.137  1.00  0.00    -0.176 N 
HETATM   13  C1  UNL     1     -26.500  -0.534 -15.851  1.00  0.00     0.678 A 
ATOM     14  H2  UNL     1     -27.165  -1.670 -17.407  1.00  0.00     0.186 HD
HETATM   15  N18 UNL     1     -25.615   0.436 -15.537  1.00  0.00    -0.188 N 
ATOM     16  H18 UNL     1     -25.583   0.764 -14.572  1.00  0.00     0.184 HD
BRANCH  11  17
HETATM   17  N3  UNL     1     -25.746  -0.890 -19.440  1.00  0.00    -0.175 N 
ATOM     18  H3  UNL     1     -25.930  -1.869 -19.658  1.00  0.00     0.186 HD
BRANCH  17  19
HETATM   19  C3  UNL     1     -25.520   0.060 -20.477  1.00  0.00     0.695 C 
HETATM   20  N4  UNL     1     -24.454   0.057 -21.200  1.00  0.00    -0.181 N 
HETATM   21  C4  UNL     1     -24.367   1.095 -22.225  1.00  0.00     0.409 C 
ATOM     22  H4  UNL     1     -23.713  -0.631 -21.065  1.00  0.00     0.181 HD
HETATM   23  N6  UNL     1     -25.668   1.190 -22.889  1.00  0.00    -0.071 NA
HETATM   24  N7  UNL     1     -26.650   1.624 -22.007  1.00  0.00    -0.013 NA
HETATM   25  N8  UNL     1     -26.493   1.062 -20.744  1.00  0.00    -0.119 N 
ATOM     26  H8  UNL     1     -27.096   1.378 -19.984  1.00  0.00     0.202 HD
BRANCH  21  27
HETATM   27  N5  UNL     1     -24.117   2.339 -21.535  1.00  0.00    -0.042 N 
ATOM     28  H53 UNL     1     -23.188   2.390 -21.119  1.00  0.00     0.278 HD
ATOM     29  H52 UNL     1     -24.020   3.136 -22.165  1.00  0.00     0.278 HD
ATOM     30  H51 UNL     1     -24.869   2.453 -20.855  1.00  0.00     0.278 HD
ENDBRANCH  21  27
ENDBRANCH  17  19
ENDBRANCH  11  17
BRANCH  13  31
HETATM   31  N1  UNL     1     -27.293  -1.055 -14.992  1.00  0.00    -0.234 N 
ATOM     32  H12 UNL     1     -27.344  -2.060 -14.824  1.00  0.00     0.174 HD
ATOM     33  H11 UNL     1     -27.916  -0.474 -14.431  1.00  0.00     0.174 HD
ENDBRANCH  13  31
ENDBRANCH   1   9
BRANCH   6  34
HETATM   34  C8  UNL     1     -21.454   4.680 -16.540  1.00  0.00     0.107 A 
HETATM   35  C9  UNL     1     -21.054   5.700 -15.702  1.00  0.00     0.124 A 
HETATM   36  N12 UNL     1     -20.182   6.628 -16.181  1.00  0.00    -0.352 N 
HETATM   37  C10 UNL     1     -19.705   6.580 -17.432  1.00  0.00     0.099 A 
ATOM     38  H12 UNL     1     -19.881   7.385 -15.567  1.00  0.00     0.166 HD
HETATM   39  N16 UNL     1     -20.079   5.595 -18.268  1.00  0.00    -0.352 N 
HETATM   40  C16 UNL     1     -20.941   4.667 -17.816  1.00  0.00     0.124 A 
ATOM     41  H16 UNL     1     -19.718   5.553 -19.221  1.00  0.00     0.166 HD
BRANCH  37  42
HETATM   42  C11 UNL     1     -18.764   7.598 -17.915  1.00  0.00     0.197 C 
BRANCH  42  43
HETATM   43  N13 UNL     1     -18.792   7.641 -19.369  1.00  0.00    -0.372 N 
ATOM     44  H13 UNL     1     -19.008   6.796 -19.898  1.00  0.00     0.161 HD
BRANCH  43  45
HETATM   45  C12 UNL     1     -18.521   8.851 -20.056  1.00  0.00     0.094 C 
BRANCH  45  46
HETATM   46  C13 UNL     1     -17.731   8.800 -21.304  1.00  0.00     0.111 C 
BRANCH  46  47
HETATM   47  C14 UNL     1     -16.252   8.752 -21.005  1.00  0.00     0.148 C 
BRANCH  47  48
HETATM   48  O1  UNL     1     -16.095   9.048 -19.647  1.00  0.00    -0.393 OA
ATOM     49  H1  UNL     1     -16.428   8.306 -19.156  1.00  0.00     0.210 HD
ENDBRANCH  47  48
BRANCH  47  50
HETATM   50  C15 UNL     1     -15.793   7.311 -21.182  1.00  0.00     0.196 C 
BRANCH  50  51
HETATM   51  O2  UNL     1     -15.928   6.639 -19.984  1.00  0.00    -0.398 OA
ATOM     52  H2  UNL     1     -15.257   5.969 -19.923  1.00  0.00     0.209 HD
ENDBRANCH  50  51
ENDBRANCH  47  50
ENDBRANCH  46  47
ENDBRANCH  45  46
BRANCH  45  53
HETATM   53  N14 UNL     1     -18.965   9.958 -19.583  1.00  0.00    -0.296 N 
ATOM     54  H14 UNL     1     -19.647   9.920 -18.825  1.00  0.00     0.187 HD
BRANCH  53  55
HETATM   55  N15 UNL     1     -18.566  11.208 -20.050  1.00  0.00    -0.344 N 
ATOM     56 2H15 UNL     1     -18.513  11.333 -21.061  1.00  0.00     0.176 HD
ATOM     57 1H15 UNL     1     -18.329  11.988 -19.436  1.00  0.00     0.176 HD
ENDBRANCH  53  55
ENDBRANCH  45  53
ENDBRANCH  43  45
ENDBRANCH  42  43
ENDBRANCH  37  42
ENDBRANCH   6  34
TORSDOF 16
ENDMDL
MODEL 3
REMARK VINA RESULT: -9.162149323      4.114     10.598
REMARK  16 active torsions:
REMARK  status: ('A' for Active; 'I' for Inactive)
REMARK    1  A    between atoms: N1_1  and  C1_4 
REMARK    2  A    between atoms: C2_7  and  N3_8 
REMARK    3  A    between atoms: N3_8  and  C3_10 
REMARK    4  A    between atoms: C4_13  and  N5_14 
REMARK    5  A    between atoms: C6_23  and  C7_24 
REMARK    6  A    between atoms: N11_29  and  C8_30 
REMARK    7  A    between atoms: C10_34  and  C11_35 
REMARK    8  A    between atoms: C11_35  and  N13_36 
REMARK    9  A    between atoms: N13_36  and  C12_38 
REMARK   10  A    between atoms: C12_38  and  C13_39 
REMARK   11  A    between atoms: C12_38  and  N14_46 
REMARK   12  A    between atoms: C13_39  and  C14_40 
REMARK   13  A    between atoms: C14_40  and  O1_41 
REMARK   14  A    between atoms: C14_40  and  C15_43 
REMARK   15  A    between atoms: C15_43  and  O2_44 
REMARK   16  A    between atoms: N14_46  and  N15_48 
ROOT
HETATM    1  C7  UNL     1     -23.374   2.375 -16.323  1.00  0.00     0.165 A 
HETATM    2  N9  UNL     1     -23.002   2.875 -15.132  1.00  0.00    -0.266 N 
ATOM      3  H9  UNL     1     -23.349   2.582 -14.219  1.00  0.00     0.190 HD
HETATM    4  N10 UNL     1     -22.110   3.812 -15.361  1.00  0.00    -0.219 N 
ATOM      5  H10 UNL     1     -21.652   4.364 -14.636  1.00  0.00     0.210 HD
HETATM    6  N11 UNL     1     -21.884   3.944 -16.655  1.00  0.00    -0.178 N 
HETATM    7  N17 UNL     1     -22.667   3.054 -17.239  1.00  0.00    -0.260 N 
ATOM      8  H17 UNL     1     -22.726   2.905 -18.247  1.00  0.00     0.191 HD
ENDROOT
BRANCH   1   9
HETATM    9  C6  UNL     1     -24.357   1.299 -16.567  1.00  0.00     0.099 A 
HETATM   10  C5  UNL     1     -24.522   0.774 -17.828  1.00  0.00     0.083 A 
HETATM   11  C2  UNL     1     -25.446  -0.228 -18.023  1.00  0.00     0.139 A 
HETATM   12  N2  UNL     1     -26.155  -0.659 -16.980  1.00  0.00    -0.176 N 
HETATM   13  C1  UNL     1     -26.022  -0.171 -15.731  1.00  0.00     0.678 A 
ATOM     14  H2  UNL     1     -26.836  -1.402 -17.136  1.00  0.00     0.186 HD
HETATM   15  N18 UNL     1     -25.108   0.811 -15.571  1.00  0.00    -0.188 N 
ATOM     16  H18 UNL     1     -24.982   1.203 -14.638  1.00  0.00     0.184 HD
BRANCH  11  17
HETATM   17  N3  UNL     1     -25.617  -0.776 -19.343  1.00  0.00    -0.175 N 
ATOM     18  H3  UNL     1     -25.851  -1.760 -19.474  1.00  0.00     0.186 HD
BRANCH  17  19
HETATM   19  C3  UNL     1     -25.451   0.091 -20.462  1.00  0.00     0.695 C 
HETATM   20  N4  UNL     1     -24.428   0.027 -21.242  1.00  0.00    -0.181 N 
HETATM   21  C4  UNL     1     -24.400   0.983 -22.347  1.00  0.00     0.409 C 
ATOM     22  H4  UNL     1     -23.681  -0.652 -21.098  1.00  0.00     0.181 HD
HETATM   23  N6  UNL     1     -25.737   1.033 -22.941  1.00  0.00    -0.071 NA
HETATM   24  N7  UNL     1     -26.666   1.539 -22.039  1.00  0.00    -0.013 NA
HETATM   25  N8  UNL     1     -26.437   1.074 -20.748  1.00  0.00    -0.119 N 
ATOM     26  H8  UNL     1     -26.995   1.450 -19.982  1.00  0.00     0.202 HD
BRANCH  21  27
HETATM   27  N5  UNL     1     -24.110   2.275 -21.770  1.00  0.00    -0.042 N 
ATOM     28  H53 UNL     1     -24.850   2.960 -21.924  1.00  0.00     0.278 HD
ATOM     29  H52 UNL     1     -24.144   2.278 -20.750  1.00  0.00     0.278 HD
ATOM     30  H51 UNL     1     -23.207   2.568 -22.144  1.00  0.00     0.278 HD
ENDBRANCH  21  27
ENDBRANCH  17  19
ENDBRANCH  11  17
BRANCH  13  31
HETATM   31  N1  UNL     1     -26.730  -0.624 -14.767  1.00  0.00    -0.234 N 
ATOM     32  H12 UNL     1     -27.127  -1.564 -14.767  1.00  0.00     0.174 HD
ATOM     33  H11 UNL     1     -26.926  -0.053 -13.945  1.00  0.00     0.174 HD
ENDBRANCH  13  31
ENDBRANCH   1   9
BRANCH   6  34
HETATM   34  C8  UNL     1     -20.976   4.868 -17.253  1.00  0.00     0.107 A 
HETATM   35  C9  UNL     1     -20.380   5.864 -16.506  1.00  0.00     0.124 A 
HETATM   36  N12 UNL     1     -19.522   6.716 -17.129  1.00  0.00    -0.352 N 
HETATM   37  C10 UNL     1     -19.240   6.617 -18.435  1.00  0.00     0.099 A 
ATOM     38  H12 UNL     1     -19.078   7.454 -16.583  1.00  0.00     0.166 HD
HETATM   39  N16 UNL     1     -19.807   5.655 -19.184  1.00  0.00    -0.352 N 
HETATM   40  C16 UNL     1     -20.659   4.802 -18.590  1.00  0.00     0.124 A 
ATOM     41  H16 UNL     1     -19.596   5.575 -20.179  1.00  0.00     0.166 HD
BRANCH  37  42
HETATM   42  C11 UNL     1     -18.308   7.554 -19.074  1.00  0.00     0.197 C 
BRANCH  42  43
HETATM   43  N13 UNL     1     -17.954   7.068 -20.398  1.00  0.00    -0.372 N 
ATOM     44  H13 UNL     1     -18.397   6.225 -20.764  1.00  0.00     0.161 HD
BRANCH  43  45
HETATM   45  C12 UNL     1     -16.996   7.757 -21.183  1.00  0.00     0.094 C 
BRANCH  45  46
HETATM   46  C13 UNL     1     -16.027   8.645 -20.507  1.00  0.00     0.111 C 
BRANCH  46  47
HETATM   47  C14 UNL     1     -14.809   7.874 -20.061  1.00  0.00     0.148 C 
BRANCH  47  48
HETATM   48  O1  UNL     1     -15.069   6.519 -20.290  1.00  0.00    -0.393 OA
ATOM     49  H1  UNL     1     -15.385   6.440 -21.183  1.00  0.00     0.210 HD
ENDBRANCH  47  48
BRANCH  47  50
HETATM   50  C15 UNL     1     -13.662   8.249 -20.989  1.00  0.00     0.196 C 
BRANCH  50  51
HETATM   51  O2  UNL     1     -13.671   7.414 -22.088  1.00  0.00    -0.398 OA
ATOM     52  H2  UNL     1     -13.802   7.930 -22.874  1.00  0.00     0.209 HD
ENDBRANCH  50  51
ENDBRANCH  47  50
ENDBRANCH  46  47
ENDBRANCH  45  46
BRANCH  45  53
HETATM   53  N14 UNL     1     -16.991   7.597 -22.456  1.00  0.00    -0.296 N 
ATOM     54  H14 UNL     1     -17.577   8.210 -23.023  1.00  0.00     0.187 HD
BRANCH  53  55
HETATM   55  N15 UNL     1     -16.227   6.629 -23.105  1.00  0.00    -0.344 N 
ATOM     56 2H15 UNL     1     -15.322   6.397 -22.696  1.00  0.00     0.176 HD
ATOM     57 1H15 UNL     1     -16.528   6.153 -23.956  1.00  0.00     0.176 HD
ENDBRANCH  53  55
ENDBRANCH  45  53
ENDBRANCH  43  45
ENDBRANCH  42  43
ENDBRANCH  37  42
ENDBRANCH   6  34
TORSDOF 16
ENDMDL
MODEL 4
REMARK VINA RESULT: -9.151743222      3.838     10.254
REMARK  16 active torsions:
REMARK  status: ('A' for Active; 'I' for Inactive)
REMARK    1  A    between atoms: N1_1  and  C1_4 
REMARK    2  A    between atoms: C2_7  and  N3_8 
REMARK    3  A    between atoms: N3_8  and  C3_10 
REMARK    4  A    between atoms: C4_13  and  N5_14 
REMARK    5  A    between atoms: C6_23  and  C7_24 
REMARK    6  A    between atoms: N11_29  and  C8_30 
REMARK    7  A    between atoms: C10_34  and  C11_35 
REMARK    8  A    between atoms: C11_35  and  N13_36 
REMARK    9  A    between atoms: N13_36  and  C12_38 
REMARK   10  A    between atoms: C12_38  and  C13_39 
REMARK   11  A    between atoms: C12_38  and  N14_46 
REMARK   12  A    between atoms: C13_39  and  C14_40 
REMARK   13  A    between atoms: C14_40  and  O1_41 
REMARK   14  A    between atoms: C14_40  and  C15_43 
REMARK   15  A    between atoms: C15_43  and  O2_44 
REMARK   16  A    between atoms: N14_46  and  N15_48 
ROOT
HETATM    1  C7  UNL     1     -23.480   2.384 -16.167  1.00  0.00     0.165 A 
HETATM    2  N9  UNL     1     -23.180   2.894 -14.961  1.00  0.00    -0.266 N 
ATOM      3  H9  UNL     1     -23.568   2.597 -14.066  1.00  0.00     0.190 HD
HETATM    4  N10 UNL     1     -22.295   3.848 -15.146  1.00  0.00    -0.219 N 
ATOM      5  H10 UNL     1     -21.886   4.410 -14.400  1.00  0.00     0.210 HD
HETATM    6  N11 UNL     1     -22.005   3.981 -16.427  1.00  0.00    -0.178 N 
HETATM    7  N17 UNL     1     -22.739   3.075 -17.048  1.00  0.00    -0.260 N 
ATOM      8  H17 UNL     1     -22.742   2.921 -18.057  1.00  0.00     0.191 HD
ENDROOT
BRANCH   1   9
HETATM    9  C6  UNL     1     -24.429   1.289 -16.458  1.00  0.00     0.099 A 
HETATM   10  C5  UNL     1     -24.544   0.782 -17.732  1.00  0.00     0.083 A 
HETATM   11  C2  UNL     1     -25.437  -0.238 -17.971  1.00  0.00     0.139 A 
HETATM   12  N2  UNL     1     -26.164  -0.705 -16.957  1.00  0.00    -0.176 N 
HETATM   13  C1  UNL     1     -26.080  -0.235 -15.697  1.00  0.00     0.678 A 
ATOM     14  H2  UNL     1     -26.822  -1.462 -17.145  1.00  0.00     0.186 HD
HETATM   15  N18 UNL     1     -25.196   0.765 -15.493  1.00  0.00    -0.188 N 
ATOM     16  H18 UNL     1     -25.107   1.144 -14.551  1.00  0.00     0.184 HD
BRANCH  11  17
HETATM   17  N3  UNL     1     -25.556  -0.767 -19.305  1.00  0.00    -0.175 N 
ATOM     18  H3  UNL     1     -25.758  -1.755 -19.460  1.00  0.00     0.186 HD
BRANCH  17  19
HETATM   19  C3  UNL     1     -25.384   0.124 -20.403  1.00  0.00     0.695 C 
HETATM   20  N4  UNL     1     -24.341   0.100 -21.159  1.00  0.00    -0.181 N 
HETATM   21  C4  UNL     1     -24.309   1.077 -22.245  1.00  0.00     0.409 C 
ATOM     22  H4  UNL     1     -23.580  -0.563 -21.008  1.00  0.00     0.181 HD
HETATM   23  N6  UNL     1     -25.632   1.105 -22.872  1.00  0.00    -0.071 NA
HETATM   24  N7  UNL     1     -26.595   1.570 -21.985  1.00  0.00    -0.013 NA
HETATM   25  N8  UNL     1     -26.387   1.087 -20.697  1.00  0.00    -0.119 N 
ATOM     26  H8  UNL     1     -26.973   1.436 -19.938  1.00  0.00     0.202 HD
BRANCH  21  27
HETATM   27  N5  UNL     1     -24.067   2.365 -21.638  1.00  0.00    -0.042 N 
ATOM     28  H53 UNL     1     -23.245   2.378 -21.035  1.00  0.00     0.278 HD
ATOM     29  H52 UNL     1     -23.749   3.071 -22.303  1.00  0.00     0.278 HD
ATOM     30  H51 UNL     1     -24.926   2.627 -21.153  1.00  0.00     0.278 HD
ENDBRANCH  21  27
ENDBRANCH  17  19
ENDBRANCH  11  17
BRANCH  13  31
HETATM   31  N1  UNL     1     -26.804  -0.723 -14.761  1.00  0.00    -0.234 N 
ATOM     32  H12 UNL     1     -27.516  -1.434 -14.927  1.00  0.00     0.174 HD
ATOM     33  H11 UNL     1     -26.694  -0.413 -13.796  1.00  0.00     0.174 HD
ENDBRANCH  13  31
ENDBRANCH   1   9
BRANCH   6  34
HETATM   34  C8  UNL     1     -21.084   4.920 -16.981  1.00  0.00     0.107 A 
HETATM   35  C9  UNL     1     -20.550   5.931 -16.208  1.00  0.00     0.124 A 
HETATM   36  N12 UNL     1     -19.676   6.797 -16.788  1.00  0.00    -0.352 N 
HETATM   37  C10 UNL     1     -19.323   6.699 -18.077  1.00  0.00     0.099 A 
ATOM     38  H12 UNL     1     -19.277   7.547 -16.223  1.00  0.00     0.166 HD
HETATM   39  N16 UNL     1     -19.829   5.722 -18.851  1.00  0.00    -0.352 N 
HETATM   40  C16 UNL     1     -20.695   4.855 -18.298  1.00  0.00     0.124 A 
ATOM     41  H16 UNL     1     -19.563   5.642 -19.832  1.00  0.00     0.166 HD
BRANCH  37  42
HETATM   42  C11 UNL     1     -18.377   7.652 -18.670  1.00  0.00     0.197 C 
BRANCH  42  43
HETATM   43  N13 UNL     1     -18.266   7.408 -20.100  1.00  0.00    -0.372 N 
ATOM     44  H13 UNL     1     -18.328   6.455 -20.458  1.00  0.00     0.161 HD
BRANCH  43  45
HETATM   45  C12 UNL     1     -18.073   8.487 -20.998  1.00  0.00     0.094 C 
BRANCH  45  46
HETATM   46  C13 UNL     1     -17.024   8.373 -22.034  1.00  0.00     0.111 C 
BRANCH  46  47
HETATM   47  C14 UNL     1     -16.469   6.971 -22.087  1.00  0.00     0.148 C 
BRANCH  47  48
HETATM   48  O1  UNL     1     -17.333   6.212 -22.883  1.00  0.00    -0.393 OA
ATOM     49  H1  UNL     1     -16.988   6.229 -23.768  1.00  0.00     0.210 HD
ENDBRANCH  47  48
BRANCH  47  50
HETATM   50  C15 UNL     1     -15.144   7.029 -22.835  1.00  0.00     0.196 C 
BRANCH  50  51
HETATM   51  O2  UNL     1     -15.266   6.356 -24.033  1.00  0.00    -0.398 OA
ATOM     52  H2  UNL     1     -14.781   6.821 -24.706  1.00  0.00     0.209 HD
ENDBRANCH  50  51
ENDBRANCH  47  50
ENDBRANCH  46  47
ENDBRANCH  45  46
BRANCH  45  53
HETATM   53  N14 UNL     1     -18.809   9.533 -20.894  1.00  0.00    -0.296 N 
ATOM     54  H14 UNL     1     -19.725   9.527 -21.344  1.00  0.00     0.187 HD
BRANCH  53  55
HETATM   55  N15 UNL     1     -18.423  10.678 -20.201  1.00  0.00    -0.344 N 
ATOM     56 2H15 UNL     1     -17.756  11.299 -20.660  1.00  0.00     0.176 HD
ATOM     57 1H15 UNL     1     -18.771  10.917 -19.272  1.00  0.00     0.176 HD
ENDBRANCH  53  55
ENDBRANCH  45  53
ENDBRANCH  43  45
ENDBRANCH  42  43
ENDBRANCH  37  42
ENDBRANCH   6  34
TORSDOF 16
ENDMDL
MODEL 5
REMARK VINA RESULT: -9.134366379      3.753     10.365
REMARK  16 active torsions:
REMARK  status: ('A' for Active; 'I' for Inactive)
REMARK    1  A    between atoms: N1_1  and  C1_4 
REMARK    2  A    between atoms: C2_7  and  N3_8 
REMARK    3  A    between atoms: N3_8  and  C3_10 
REMARK    4  A    between atoms: C4_13  and  N5_14 
REMARK    5  A    between atoms: C6_23  and  C7_24 
REMARK    6  A    between atoms: N11_29  and  C8_30 
REMARK    7  A    between atoms: C10_34  and  C11_35 
REMARK    8  A    between atoms: C11_35  and  N13_36 
REMARK    9  A    between atoms: N13_36  and  C12_38 
REMARK   10  A    between atoms: C12_38  and  C13_39 
REMARK   11  A    between atoms: C12_38  and  N14_46 
REMARK   12  A    between atoms: C13_39  and  C14_40 
REMARK   13  A    between atoms: C14_40  and  O1_41 
REMARK   14  A    between atoms: C14_40  and  C15_43 
REMARK   15  A    between atoms: C15_43  and  O2_44 
REMARK   16  A    between atoms: N14_46  and  N15_48 
ROOT
HETATM    1  C7  UNL     1     -23.461   2.365 -16.241  1.00  0.00     0.165 A 
HETATM    2  N9  UNL     1     -23.122   2.857 -15.037  1.00  0.00    -0.266 N 
ATOM      3  H9  UNL     1     -23.484   2.550 -14.135  1.00  0.00     0.190 HD
HETATM    4  N10 UNL     1     -22.236   3.808 -15.238  1.00  0.00    -0.219 N 
ATOM      5  H10 UNL     1     -21.801   4.357 -14.497  1.00  0.00     0.210 HD
HETATM    6  N11 UNL     1     -21.984   3.956 -16.525  1.00  0.00    -0.178 N 
HETATM    7  N17 UNL     1     -22.743   3.062 -17.135  1.00  0.00    -0.260 N 
ATOM      8  H17 UNL     1     -22.778   2.923 -18.145  1.00  0.00     0.191 HD
ENDROOT
BRANCH   1   9
HETATM    9  C6  UNL     1     -24.425   1.279 -16.517  1.00  0.00     0.099 A 
HETATM   10  C5  UNL     1     -24.558   0.767 -17.787  1.00  0.00     0.083 A 
HETATM   11  C2  UNL     1     -25.465  -0.244 -18.011  1.00  0.00     0.139 A 
HETATM   12  N2  UNL     1     -26.189  -0.696 -16.988  1.00  0.00    -0.176 N 
HETATM   13  C1  UNL     1     -26.088  -0.220 -15.732  1.00  0.00     0.678 A 
ATOM     14  H2  UNL     1     -26.858  -1.446 -17.166  1.00  0.00     0.186 HD
HETATM   15  N18 UNL     1     -25.190   0.771 -15.542  1.00  0.00    -0.188 N 
ATOM     16  H18 UNL     1     -25.089   1.155 -14.603  1.00  0.00     0.184 HD
BRANCH  11  17
HETATM   17  N3  UNL     1     -25.602  -0.780 -19.341  1.00  0.00    -0.175 N 
ATOM     18  H3  UNL     1     -25.809  -1.768 -19.488  1.00  0.00     0.186 HD
BRANCH  17  19
HETATM   19  C3  UNL     1     -25.440   0.105 -20.446  1.00  0.00     0.695 C 
HETATM   20  N4  UNL     1     -24.411   0.066 -21.220  1.00  0.00    -0.181 N 
HETATM   21  C4  UNL     1     -24.388   1.038 -22.311  1.00  0.00     0.409 C 
ATOM     22  H4  UNL     1     -23.656  -0.606 -21.080  1.00  0.00     0.181 HD
HETATM   23  N6  UNL     1     -25.722   1.078 -22.914  1.00  0.00    -0.071 NA
HETATM   24  N7  UNL     1     -26.664   1.558 -22.011  1.00  0.00    -0.013 NA
HETATM   25  N8  UNL     1     -26.437   1.079 -20.725  1.00  0.00    -0.119 N 
ATOM     26  H8  UNL     1     -27.005   1.437 -19.957  1.00  0.00     0.202 HD
BRANCH  21  27
HETATM   27  N5  UNL     1     -24.120   2.325 -21.714  1.00  0.00    -0.042 N 
ATOM     28  H53 UNL     1     -23.796   2.262 -20.749  1.00  0.00     0.278 HD
ATOM     29  H52 UNL     1     -23.292   2.783 -22.098  1.00  0.00     0.278 HD
ATOM     30  H51 UNL     1     -24.970   2.880 -21.818  1.00  0.00     0.278 HD
ENDBRANCH  21  27
ENDBRANCH  17  19
ENDBRANCH  11  17
BRANCH  13  31
HETATM   31  N1  UNL     1     -26.810  -0.693 -14.787  1.00  0.00    -0.234 N 
ATOM     32  H12 UNL     1     -27.626  -1.281 -14.956  1.00  0.00     0.174 HD
ATOM     33  H11 UNL     1     -26.592  -0.496 -13.810  1.00  0.00     0.174 HD
ENDBRANCH  13  31
ENDBRANCH   1   9
BRANCH   6  34
HETATM   34  C8  UNL     1     -21.075   4.896 -17.094  1.00  0.00     0.107 A 
HETATM   35  C9  UNL     1     -20.712   4.819 -18.424  1.00  0.00     0.124 A 
HETATM   36  N12 UNL     1     -19.842   5.742 -18.914  1.00  0.00    -0.352 N 
HETATM   37  C10 UNL     1     -19.331   6.716 -18.149  1.00  0.00     0.099 A 
ATOM     38  H12 UNL     1     -19.570   5.691 -19.895  1.00  0.00     0.166 HD
HETATM   39  N16 UNL     1     -19.668   6.814 -16.851  1.00  0.00    -0.352 N 
HETATM   40  C16 UNL     1     -20.527   5.912 -16.346  1.00  0.00     0.124 A 
ATOM     41  H16 UNL     1     -19.282   7.554 -16.265  1.00  0.00     0.166 HD
BRANCH  37  42
HETATM   42  C11 UNL     1     -18.393   7.697 -18.711  1.00  0.00     0.197 C 
BRANCH  42  43
HETATM   43  N13 UNL     1     -17.889   7.217 -19.988  1.00  0.00    -0.372 N 
ATOM     44  H13 UNL     1     -18.119   6.274 -20.303  1.00  0.00     0.161 HD
BRANCH  43  45
HETATM   45  C12 UNL     1     -17.078   8.051 -20.799  1.00  0.00     0.094 C 
BRANCH  45  46
HETATM   46  C13 UNL     1     -16.919   7.717 -22.230  1.00  0.00     0.111 C 
BRANCH  46  47
HETATM   47  C14 UNL     1     -15.579   7.072 -22.487  1.00  0.00     0.148 C 
BRANCH  47  48
HETATM   48  O1  UNL     1     -15.214   6.394 -21.319  1.00  0.00    -0.393 OA
ATOM     49  H1  UNL     1     -14.288   6.194 -21.388  1.00  0.00     0.210 HD
ENDBRANCH  47  48
BRANCH  47  50
HETATM   50  C15 UNL     1     -15.781   6.003 -23.553  1.00  0.00     0.196 C 
BRANCH  50  51
HETATM   51  O2  UNL     1     -17.120   5.677 -23.626  1.00  0.00    -0.398 OA
ATOM     52  H2  UNL     1     -17.293   5.242 -24.452  1.00  0.00     0.209 HD
ENDBRANCH  50  51
ENDBRANCH  47  50
ENDBRANCH  46  47
ENDBRANCH  45  46
BRANCH  45  53
HETATM   53  N14 UNL     1     -16.504   9.073 -20.276  1.00  0.00    -0.296 N 
ATOM     54  H14 UNL     1     -17.022   9.951 -20.237  1.00  0.00     0.187 HD
BRANCH  53  55
HETATM   55  N15 UNL     1     -15.212   9.046 -19.758  1.00  0.00    -0.344 N 
ATOM     56 2H15 UNL     1     -14.509   8.527 -20.284  1.00  0.00     0.176 HD
ATOM     57 1H15 UNL     1     -14.943   9.513 -18.892  1.00  0.00     0.176 HD
ENDBRANCH  53  55
ENDBRANCH  45  53
ENDBRANCH  43  45
ENDBRANCH  42  43
ENDBRANCH  37  42
ENDBRANCH   6  34
TORSDOF 16
ENDMDL
