MODEL 1
REMARK VINA RESULT: -9.588542227      0.000      0.000
REMARK  12 active torsions:
REMARK  status: ('A' for Active; 'I' for Inactive)
REMARK    1  A    between atoms: N1_1  and  C1_4 
REMARK    2  A    between atoms: C3_9  and  N4_10 
REMARK    3  A    between atoms: C4_15  and  N6_16 
REMARK    4  A    between atoms: C6_18  and  C7_19 
REMARK    5  A    between atoms: C8_21  and  O2_22 
REMARK    6  A    between atoms: O2_22  and  C9_23 
REMARK    7  A    between atoms: C9_23  and  C10_24 
REMARK    8  A    between atoms: C10_24  and  C11_25 
REMARK    9  A    between atoms: C11_25  and  O3_26 
REMARK   10  A    between atoms: N9_30  and  N10_31 
REMARK   11  A    between atoms: C13_39  and  C14_40 
REMARK   12  A    between atoms: N15_47  and  O5_49 
ROOT
HETATM    1  C1  UNL     1     -26.520  -0.292 -15.732  1.00  0.00     0.705 A 
HETATM    2  N2  UNL     1     -25.552   0.476 -15.229  1.00  0.00    -0.019 N 
ATOM      3  H2  UNL     1     -25.346   0.410 -14.233  1.00  0.00     0.203 HD
HETATM    4  C2  UNL     1     -24.829   1.341 -15.985  1.00  0.00     0.737 A 
HETATM    5  N3  UNL     1     -25.117   1.410 -17.286  1.00  0.00     0.018 N 
HETATM    6  C3  UNL     1     -26.092   0.650 -17.838  1.00  0.00     0.709 A 
HETATM    7  N5  UNL     1     -26.770  -0.184 -17.044  1.00  0.00    -0.022 N 
ATOM      8  H5  UNL     1     -27.505  -0.762 -17.452  1.00  0.00     0.203 HD
HETATM    9  C4  UNL     1     -24.231   2.368 -17.896  1.00  0.00     0.305 A 
HETATM   10  C12 UNL     1     -23.412   2.890 -16.787  1.00  0.00     0.128 A 
HETATM   11  C13 UNL     1     -22.452   3.639 -16.093  1.00  0.00     0.111 A 
HETATM   12  N16 UNL     1     -22.882   2.947 -15.010  1.00  0.00    -0.275 N 
ATOM     13  H16 UNL     1     -22.608   2.958 -14.028  1.00  0.00     0.188 HD
HETATM   14  N17 UNL     1     -23.784   2.252 -15.680  1.00  0.00    -0.082 N 
ENDROOT
BRANCH   9  15
HETATM   15  N6  UNL     1     -23.390   1.580 -18.806  1.00  0.00    -0.256 N 
HETATM   16  C5  UNL     1     -22.886   1.994 -20.004  1.00  0.00     0.145 A 
HETATM   17  C6  UNL     1     -22.145   0.970 -20.561  1.00  0.00     0.090 A 
HETATM   18  N11 UNL     1     -22.227  -0.036 -19.673  1.00  0.00    -0.285 N 
HETATM   19  N12 UNL     1     -22.979   0.358 -18.632  1.00  0.00    -0.238 N 
ATOM     20  H11 UNL     1     -21.788  -0.952 -19.774  1.00  0.00     0.188 HD
ATOM     21  H12 UNL     1     -23.197  -0.219 -17.820  1.00  0.00     0.208 HD
BRANCH  17  22
HETATM   22  C7  UNL     1     -21.433   1.025 -21.865  1.00  0.00     0.292 C 
HETATM   23  O1  UNL     1     -22.341   0.705 -22.847  1.00  0.00    -0.317 OA
HETATM   24  C8  UNL     1     -21.764   0.220 -24.018  1.00  0.00     0.379 C 
HETATM   25  N7  UNL     1     -20.745  -0.745 -23.794  1.00  0.00    -0.070 NA
HETATM   26  N8  UNL     1     -19.720  -0.108 -23.047  1.00  0.00    -0.030 NA
HETATM   27  N9  UNL     1     -20.294   0.156 -21.797  1.00  0.00    -0.097 NA
BRANCH  24  28
HETATM   28  O2  UNL     1     -22.806  -0.365 -24.725  1.00  0.00    -0.346 OA
BRANCH  28  29
HETATM   29  C9  UNL     1     -24.041   0.168 -24.541  1.00  0.00     0.174 C 
BRANCH  29  30
HETATM   30  C10 UNL     1     -25.018  -0.825 -24.014  1.00  0.00     0.052 C 
BRANCH  30  31
HETATM   31  C11 UNL     1     -25.723  -0.272 -22.793  1.00  0.00     0.166 C 
BRANCH  31  32
HETATM   32  O3  UNL     1     -24.908  -0.483 -21.655  1.00  0.00    -0.401 OA
ATOM     33  H3  UNL     1     -25.223   0.062 -20.943  1.00  0.00     0.209 HD
ENDBRANCH  31  32
ENDBRANCH  30  31
ENDBRANCH  29  30
ENDBRANCH  28  29
ENDBRANCH  24  28
BRANCH  27  34
HETATM   34  N10 UNL     1     -19.293   0.802 -21.036  1.00  0.00    -0.345 NA
ATOM     35 2H10 UNL     1     -18.663   0.066 -20.716  1.00  0.00     0.172 HD
ATOM     36 1H10 UNL     1     -18.837   1.493 -21.633  1.00  0.00     0.172 HD
ENDBRANCH  27  34
ENDBRANCH  17  22
ENDBRANCH   9  15
BRANCH   6  37
HETATM   37  N4  UNL     1     -26.326   0.775 -19.090  1.00  0.00    -0.233 N 
ATOM     38  H42 UNL     1     -26.486   1.674 -19.544  1.00  0.00     0.174 HD
ATOM     39  H41 UNL     1     -26.345  -0.067 -19.666  1.00  0.00     0.174 HD
ENDBRANCH   6  37
BRANCH  11  40
HETATM   40  C14 UNL     1     -21.454   4.666 -16.349  1.00  0.00     0.134 A 
HETATM   41  N13 UNL     1     -20.989   5.507 -15.407  1.00  0.00    -0.236 N 
HETATM   42  O4  UNL     1     -20.121   6.304 -15.955  1.00  0.00    -0.155 OA
ATOM     43  H13 UNL     1     -21.271   5.517 -14.426  1.00  0.00     0.197 HD
HETATM   44  N14 UNL     1     -19.966   6.056 -17.216  1.00  0.00    -0.222 N 
HETATM   45  C15 UNL     1     -20.796   5.026 -17.491  1.00  0.00     0.178 A 
ATOM     46  H14 UNL     1     -19.346   6.539 -17.867  1.00  0.00     0.198 HD
HETATM   47  N15 UNL     1     -20.948   4.478 -18.643  1.00  0.00    -0.249 N 
ATOM     48  H15 UNL     1     -21.614   3.709 -18.715  1.00  0.00     0.196 HD
BRANCH  47  49
HETATM   49  O5  UNL     1     -20.289   4.846 -19.769  1.00  0.00    -0.288 OA
ATOM     50  H5  UNL     1     -20.541   4.600 -20.652  1.00  0.00     0.244 HD
ENDBRANCH  47  49
ENDBRANCH  11  40
BRANCH   1  51
HETATM   51  N1  UNL     1     -27.221  -1.122 -15.035  1.00  0.00    -0.234 N 
ATOM     52  H12 UNL     1     -28.086  -0.792 -14.608  1.00  0.00     0.174 HD
ATOM     53  H11 UNL     1     -26.966  -2.098 -14.881  1.00  0.00     0.174 HD
ENDBRANCH   1  51
TORSDOF 12
ENDMDL
MODEL 2
REMARK VINA RESULT: -9.515075103      1.115      1.846
REMARK  12 active torsions:
REMARK  status: ('A' for Active; 'I' for Inactive)
REMARK    1  A    between atoms: N1_1  and  C1_4 
REMARK    2  A    between atoms: C3_9  and  N4_10 
REMARK    3  A    between atoms: C4_15  and  N6_16 
REMARK    4  A    between atoms: C6_18  and  C7_19 
REMARK    5  A    between atoms: C8_21  and  O2_22 
REMARK    6  A    between atoms: O2_22  and  C9_23 
REMARK    7  A    between atoms: C9_23  and  C10_24 
REMARK    8  A    between atoms: C10_24  and  C11_25 
REMARK    9  A    between atoms: C11_25  and  O3_26 
REMARK   10  A    between atoms: N9_30  and  N10_31 
REMARK   11  A    between atoms: C13_39  and  C14_40 
REMARK   12  A    between atoms: N15_47  and  O5_49 
ROOT
HETATM    1  C1  UNL     1     -26.518  -0.264 -15.719  1.00  0.00     0.705 A 
HETATM    2  N2  UNL     1     -25.552   0.511 -15.222  1.00  0.00    -0.019 N 
ATOM      3  H2  UNL     1     -25.345   0.453 -14.226  1.00  0.00     0.203 HD
HETATM    4  C2  UNL     1     -24.832   1.373 -15.985  1.00  0.00     0.737 A 
HETATM    5  N3  UNL     1     -25.121   1.431 -17.286  1.00  0.00     0.018 N 
HETATM    6  C3  UNL     1     -26.094   0.664 -17.833  1.00  0.00     0.709 A 
HETATM    7  N5  UNL     1     -26.768  -0.167 -17.032  1.00  0.00    -0.022 N 
ATOM      8  H5  UNL     1     -27.502  -0.749 -17.435  1.00  0.00     0.203 HD
HETATM    9  C4  UNL     1     -24.237   2.386 -17.904  1.00  0.00     0.305 A 
HETATM   10  C12 UNL     1     -23.420   2.920 -16.799  1.00  0.00     0.128 A 
HETATM   11  C13 UNL     1     -22.462   3.676 -16.112  1.00  0.00     0.111 A 
HETATM   12  N16 UNL     1     -22.889   2.991 -15.023  1.00  0.00    -0.275 N 
ATOM     13  H16 UNL     1     -22.614   3.011 -14.041  1.00  0.00     0.188 HD
HETATM   14  N17 UNL     1     -23.789   2.289 -15.688  1.00  0.00    -0.082 N 
ENDROOT
BRANCH   9  15
HETATM   15  N6  UNL     1     -23.395   1.594 -18.809  1.00  0.00    -0.256 N 
HETATM   16  C5  UNL     1     -22.845   2.019 -19.982  1.00  0.00     0.145 A 
HETATM   17  C6  UNL     1     -22.120   0.986 -20.542  1.00  0.00     0.090 A 
HETATM   18  N11 UNL     1     -22.256  -0.036 -19.681  1.00  0.00    -0.285 N 
HETATM   19  N12 UNL     1     -23.025   0.357 -18.652  1.00  0.00    -0.238 N 
ATOM     20  H11 UNL     1     -21.841  -0.962 -19.791  1.00  0.00     0.188 HD
ATOM     21  H12 UNL     1     -23.282  -0.231 -17.859  1.00  0.00     0.208 HD
BRANCH  17  22
HETATM   22  C7  UNL     1     -21.370   1.049 -21.825  1.00  0.00     0.292 C 
HETATM   23  O1  UNL     1     -22.251   0.746 -22.836  1.00  0.00    -0.317 OA
HETATM   24  C8  UNL     1     -21.645   0.268 -23.995  1.00  0.00     0.379 C 
HETATM   25  N7  UNL     1     -20.640  -0.707 -23.751  1.00  0.00    -0.070 NA
HETATM   26  N8  UNL     1     -19.632  -0.085 -22.968  1.00  0.00    -0.030 NA
HETATM   27  N9  UNL     1     -20.239   0.170 -21.733  1.00  0.00    -0.097 NA
BRANCH  24  28
HETATM   28  O2  UNL     1     -22.670  -0.302 -24.738  1.00  0.00    -0.346 OA
BRANCH  28  29
HETATM   29  C9  UNL     1     -22.839   0.167 -26.001  1.00  0.00     0.174 C 
BRANCH  29  30
HETATM   30  C10 UNL     1     -21.554   0.574 -26.635  1.00  0.00     0.052 C 
BRANCH  30  31
HETATM   31  C11 UNL     1     -21.782   1.724 -27.594  1.00  0.00     0.166 C 
BRANCH  31  32
HETATM   32  O3  UNL     1     -20.847   2.750 -27.314  1.00  0.00    -0.401 OA
ATOM     33  H3  UNL     1     -21.126   3.549 -27.747  1.00  0.00     0.209 HD
ENDBRANCH  31  32
ENDBRANCH  30  31
ENDBRANCH  29  30
ENDBRANCH  28  29
ENDBRANCH  24  28
BRANCH  27  34
HETATM   34  N10 UNL     1     -19.256   0.801 -20.937  1.00  0.00    -0.345 NA
ATOM     35 2H10 UNL     1     -19.750   1.496 -20.378  1.00  0.00     0.172 HD
ATOM     36 1H10 UNL     1     -18.794   0.085 -20.377  1.00  0.00     0.172 HD
ENDBRANCH  27  34
ENDBRANCH  17  22
ENDBRANCH   9  15
BRANCH   6  37
HETATM   37  N4  UNL     1     -26.329   0.779 -19.085  1.00  0.00    -0.233 N 
ATOM     38  H42 UNL     1     -25.599   0.751 -19.798  1.00  0.00     0.174 HD
ATOM     39  H41 UNL     1     -27.295   0.894 -19.389  1.00  0.00     0.174 HD
ENDBRANCH   6  37
BRANCH  11  40
HETATM   40  C14 UNL     1     -21.466   4.704 -16.376  1.00  0.00     0.134 A 
HETATM   41  N13 UNL     1     -21.017   5.566 -15.445  1.00  0.00    -0.236 N 
HETATM   42  O4  UNL     1     -20.147   6.357 -15.998  1.00  0.00    -0.155 OA
ATOM     43  H13 UNL     1     -21.311   5.593 -14.468  1.00  0.00     0.197 HD
HETATM   44  N14 UNL     1     -19.976   6.087 -17.253  1.00  0.00    -0.222 N 
HETATM   45  C15 UNL     1     -20.797   5.046 -17.517  1.00  0.00     0.178 A 
ATOM     46  H14 UNL     1     -19.351   6.560 -17.906  1.00  0.00     0.198 HD
HETATM   47  N15 UNL     1     -20.932   4.476 -18.659  1.00  0.00    -0.249 N 
ATOM     48  H15 UNL     1     -21.593   3.701 -18.725  1.00  0.00     0.196 HD
BRANCH  47  49
HETATM   49  O5  UNL     1     -20.263   4.825 -19.785  1.00  0.00    -0.288 OA
ATOM     50  H5  UNL     1     -20.035   4.230 -20.490  1.00  0.00     0.244 HD
ENDBRANCH  47  49
ENDBRANCH  11  40
BRANCH   1  51
HETATM   51  N1  UNL     1     -27.216  -1.091 -15.016  1.00  0.00    -0.234 N 
ATOM     52  H12 UNL     1     -27.466  -0.831 -14.062  1.00  0.00     0.174 HD
ATOM     53  H11 UNL     1     -27.539  -1.998 -15.353  1.00  0.00     0.174 HD
ENDBRANCH   1  51
TORSDOF 12
ENDMDL
MODEL 3
REMARK VINA RESULT: -9.331126366      0.706      1.474
REMARK  12 active torsions:
REMARK  status: ('A' for Active; 'I' for Inactive)
REMARK    1  A    between atoms: N1_1  and  C1_4 
REMARK    2  A    between atoms: C3_9  and  N4_10 
REMARK    3  A    between atoms: C4_15  and  N6_16 
REMARK    4  A    between atoms: C6_18  and  C7_19 
REMARK    5  A    between atoms: C8_21  and  O2_22 
REMARK    6  A    between atoms: O2_22  and  C9_23 
REMARK    7  A    between atoms: C9_23  and  C10_24 
REMARK    8  A    between atoms: C10_24  and  C11_25 
REMARK    9  A    between atoms: C11_25  and  O3_26 
REMARK   10  A    between atoms: N9_30  and  N10_31 
REMARK   11  A    between atoms: C13_39  and  C14_40 
REMARK   12  A    between atoms: N15_47  and  O5_49 
ROOT
HETATM    1  C1  UNL     1     -26.664  -0.544 -15.850  1.00  0.00     0.705 A 
HETATM    2  N2  UNL     1     -25.733   0.242 -15.306  1.00  0.00    -0.019 N 
ATOM      3  H2  UNL     1     -25.554   0.163 -14.305  1.00  0.00     0.203 HD
HETATM    4  C2  UNL     1     -25.014   1.140 -16.025  1.00  0.00     0.737 A 
HETATM    5  N3  UNL     1     -25.266   1.226 -17.332  1.00  0.00     0.018 N 
HETATM    6  C3  UNL     1     -26.203   0.449 -17.927  1.00  0.00     0.709 A 
HETATM    7  N5  UNL     1     -26.879  -0.419 -17.167  1.00  0.00    -0.022 N 
ATOM      8  H5  UNL     1     -27.585  -1.008 -17.607  1.00  0.00     0.203 HD
HETATM    9  C4  UNL     1     -24.390   2.219 -17.899  1.00  0.00     0.305 A 
HETATM   10  C12 UNL     1     -23.619   2.743 -16.757  1.00  0.00     0.128 A 
HETATM   11  C13 UNL     1     -22.701   3.505 -16.022  1.00  0.00     0.111 A 
HETATM   12  N16 UNL     1     -23.142   2.781 -14.965  1.00  0.00    -0.275 N 
ATOM     13  H16 UNL     1     -22.896   2.782 -13.975  1.00  0.00     0.188 HD
HETATM   14  N17 UNL     1     -24.004   2.075 -15.673  1.00  0.00    -0.082 N 
ENDROOT
BRANCH   9  15
HETATM   15  N6  UNL     1     -23.502   1.472 -18.798  1.00  0.00    -0.256 N 
HETATM   16  C5  UNL     1     -22.991   1.915 -19.982  1.00  0.00     0.145 A 
HETATM   17  C6  UNL     1     -22.200   0.926 -20.532  1.00  0.00     0.090 A 
HETATM   18  N11 UNL     1     -22.260  -0.090 -19.654  1.00  0.00    -0.285 N 
HETATM   19  N12 UNL     1     -23.047   0.266 -18.625  1.00  0.00    -0.238 N 
ATOM     20  H11 UNL     1     -21.784  -0.988 -19.753  1.00  0.00     0.188 HD
ATOM     21  H12 UNL     1     -23.259  -0.327 -17.822  1.00  0.00     0.208 HD
BRANCH  17  22
HETATM   22  C7  UNL     1     -21.465   1.019 -21.822  1.00  0.00     0.292 C 
HETATM   23  O1  UNL     1     -22.345   0.693 -22.826  1.00  0.00    -0.317 OA
HETATM   24  C8  UNL     1     -21.735   0.241 -23.993  1.00  0.00     0.379 C 
HETATM   25  N7  UNL     1     -20.697  -0.702 -23.764  1.00  0.00    -0.070 NA
HETATM   26  N8  UNL     1     -19.702  -0.052 -22.988  1.00  0.00    -0.030 NA
HETATM   27  N9  UNL     1     -20.306   0.177 -21.745  1.00  0.00    -0.097 NA
BRANCH  24  28
HETATM   28  O2  UNL     1     -22.748  -0.358 -24.729  1.00  0.00    -0.346 OA
BRANCH  28  29
HETATM   29  C9  UNL     1     -23.999   0.145 -24.564  1.00  0.00     0.174 C 
BRANCH  29  30
HETATM   30  C10 UNL     1     -24.964  -0.876 -24.071  1.00  0.00     0.052 C 
BRANCH  30  31
HETATM   31  C11 UNL     1     -25.729  -0.343 -22.877  1.00  0.00     0.166 C 
BRANCH  31  32
HETATM   32  O3  UNL     1     -24.938  -0.503 -21.713  1.00  0.00    -0.401 OA
ATOM     33  H3  UNL     1     -25.497  -0.779 -20.996  1.00  0.00     0.209 HD
ENDBRANCH  31  32
ENDBRANCH  30  31
ENDBRANCH  29  30
ENDBRANCH  28  29
ENDBRANCH  24  28
BRANCH  27  34
HETATM   34  N10 UNL     1     -19.336   0.835 -20.955  1.00  0.00    -0.345 NA
ATOM     35 2H10 UNL     1     -18.541   1.007 -21.571  1.00  0.00     0.172 HD
ATOM     36 1H10 UNL     1     -19.754   1.689 -20.586  1.00  0.00     0.172 HD
ENDBRANCH  27  34
ENDBRANCH  17  22
ENDBRANCH   9  15
BRANCH   6  37
HETATM   37  N4  UNL     1     -26.404   0.591 -19.182  1.00  0.00    -0.233 N 
ATOM     38  H42 UNL     1     -27.216   1.072 -19.570  1.00  0.00     0.174 HD
ATOM     39  H41 UNL     1     -25.714   0.211 -19.830  1.00  0.00     0.174 HD
ENDBRANCH   6  37
BRANCH  11  40
HETATM   40  C14 UNL     1     -21.725   4.564 -16.230  1.00  0.00     0.134 A 
HETATM   41  N13 UNL     1     -20.944   4.656 -17.323  1.00  0.00    -0.236 N 
HETATM   42  O4  UNL     1     -20.180   5.700 -17.199  1.00  0.00    -0.155 OA
ATOM     43  H13 UNL     1     -20.951   4.013 -18.115  1.00  0.00     0.197 HD
HETATM   44  N14 UNL     1     -20.393   6.326 -16.086  1.00  0.00    -0.222 N 
HETATM   45  C15 UNL     1     -21.365   5.629 -15.455  1.00  0.00     0.178 A 
ATOM     46  H14 UNL     1     -19.926   7.170 -15.754  1.00  0.00     0.198 HD
HETATM   47  N15 UNL     1     -21.863   5.919 -14.308  1.00  0.00    -0.249 N 
ATOM     48  H15 UNL     1     -22.591   5.305 -13.941  1.00  0.00     0.196 HD
BRANCH  47  49
HETATM   49  O5  UNL     1     -21.496   6.980 -13.548  1.00  0.00    -0.288 OA
ATOM     50  H5  UNL     1     -20.882   6.945 -12.824  1.00  0.00     0.244 HD
ENDBRANCH  47  49
ENDBRANCH  11  40
BRANCH   1  51
HETATM   51  N1  UNL     1     -27.361  -1.406 -15.190  1.00  0.00    -0.234 N 
ATOM     52  H12 UNL     1     -27.502  -1.258 -14.191  1.00  0.00     0.174 HD
ATOM     53  H11 UNL     1     -27.786  -2.237 -15.603  1.00  0.00     0.174 HD
ENDBRANCH   1  51
TORSDOF 12
ENDMDL
MODEL 4
REMARK VINA RESULT: -9.322669872      1.323      2.353
REMARK  12 active torsions:
REMARK  status: ('A' for Active; 'I' for Inactive)
REMARK    1  A    between atoms: N1_1  and  C1_4 
REMARK    2  A    between atoms: C3_9  and  N4_10 
REMARK    3  A    between atoms: C4_15  and  N6_16 
REMARK    4  A    between atoms: C6_18  and  C7_19 
REMARK    5  A    between atoms: C8_21  and  O2_22 
REMARK    6  A    between atoms: O2_22  and  C9_23 
REMARK    7  A    between atoms: C9_23  and  C10_24 
REMARK    8  A    between atoms: C10_24  and  C11_25 
REMARK    9  A    between atoms: C11_25  and  O3_26 
REMARK   10  A    between atoms: N9_30  and  N10_31 
REMARK   11  A    between atoms: C13_39  and  C14_40 
REMARK   12  A    between atoms: N15_47  and  O5_49 
ROOT
HETATM    1  C1  UNL     1     -26.650  -0.528 -15.893  1.00  0.00     0.705 A 
HETATM    2  N2  UNL     1     -25.724   0.256 -15.338  1.00  0.00    -0.019 N 
ATOM      3  H2  UNL     1     -25.556   0.176 -14.335  1.00  0.00     0.203 HD
HETATM    4  C2  UNL     1     -24.997   1.155 -16.048  1.00  0.00     0.737 A 
HETATM    5  N3  UNL     1     -25.235   1.243 -17.358  1.00  0.00     0.018 N 
HETATM    6  C3  UNL     1     -26.166   0.467 -17.963  1.00  0.00     0.709 A 
HETATM    7  N5  UNL     1     -26.851  -0.401 -17.212  1.00  0.00    -0.022 N 
ATOM      8  H5  UNL     1     -27.553  -0.989 -17.660  1.00  0.00     0.203 HD
HETATM    9  C4  UNL     1     -24.352   2.236 -17.914  1.00  0.00     0.305 A 
HETATM   10  C12 UNL     1     -23.593   2.758 -16.763  1.00  0.00     0.128 A 
HETATM   11  C13 UNL     1     -22.682   3.518 -16.018  1.00  0.00     0.111 A 
HETATM   12  N16 UNL     1     -23.135   2.793 -14.966  1.00  0.00    -0.275 N 
ATOM     13  H16 UNL     1     -22.899   2.793 -13.974  1.00  0.00     0.188 HD
HETATM   14  N17 UNL     1     -23.990   2.088 -15.685  1.00  0.00    -0.082 N 
ENDROOT
BRANCH   9  15
HETATM   15  N6  UNL     1     -23.455   1.489 -18.804  1.00  0.00    -0.256 N 
HETATM   16  C5  UNL     1     -22.934   1.932 -19.985  1.00  0.00     0.145 A 
HETATM   17  C6  UNL     1     -22.137   0.943 -20.527  1.00  0.00     0.090 A 
HETATM   18  N11 UNL     1     -22.203  -0.072 -19.648  1.00  0.00    -0.285 N 
HETATM   19  N12 UNL     1     -23.000   0.284 -18.627  1.00  0.00    -0.238 N 
ATOM     20  H11 UNL     1     -21.725  -0.969 -19.742  1.00  0.00     0.188 HD
ATOM     21  H12 UNL     1     -23.217  -0.308 -17.825  1.00  0.00     0.208 HD
BRANCH  17  22
HETATM   22  C7  UNL     1     -21.391   1.036 -21.810  1.00  0.00     0.292 C 
HETATM   23  O1  UNL     1     -22.267   0.724 -22.823  1.00  0.00    -0.317 OA
HETATM   24  C8  UNL     1     -21.652   0.272 -23.988  1.00  0.00     0.379 C 
HETATM   25  N7  UNL     1     -20.625  -0.682 -23.755  1.00  0.00    -0.070 NA
HETATM   26  N8  UNL     1     -19.630  -0.045 -22.968  1.00  0.00    -0.030 NA
HETATM   27  N9  UNL     1     -20.241   0.183 -21.729  1.00  0.00    -0.097 NA
BRANCH  24  28
HETATM   28  O2  UNL     1     -22.665  -0.313 -24.735  1.00  0.00    -0.346 OA
BRANCH  28  29
HETATM   29  C9  UNL     1     -22.909   0.227 -25.957  1.00  0.00     0.174 C 
BRANCH  29  30
HETATM   30  C10 UNL     1     -21.658   0.593 -26.678  1.00  0.00     0.052 C 
BRANCH  30  31
HETATM   31  C11 UNL     1     -21.912   1.758 -27.611  1.00  0.00     0.166 C 
BRANCH  31  32
HETATM   32  O3  UNL     1     -20.940   2.760 -27.373  1.00  0.00    -0.401 OA
ATOM     33  H3  UNL     1     -20.125   2.345 -27.114  1.00  0.00     0.209 HD
ENDBRANCH  31  32
ENDBRANCH  30  31
ENDBRANCH  29  30
ENDBRANCH  28  29
ENDBRANCH  24  28
BRANCH  27  34
HETATM   34  N10 UNL     1     -19.271   0.827 -20.928  1.00  0.00    -0.345 NA
ATOM     35 2H10 UNL     1     -19.438   0.510 -19.973  1.00  0.00     0.172 HD
ATOM     36 1H10 UNL     1     -18.348   0.575 -21.282  1.00  0.00     0.172 HD
ENDBRANCH  27  34
ENDBRANCH  17  22
ENDBRANCH   9  15
BRANCH   6  37
HETATM   37  N4  UNL     1     -26.354   0.611 -19.220  1.00  0.00    -0.233 N 
ATOM     38  H42 UNL     1     -26.869  -0.060 -19.791  1.00  0.00     0.174 HD
ATOM     39  H41 UNL     1     -25.978   1.442 -19.675  1.00  0.00     0.174 HD
ENDBRANCH   6  37
BRANCH  11  40
HETATM   40  C14 UNL     1     -21.703   4.576 -16.214  1.00  0.00     0.134 A 
HETATM   41  N13 UNL     1     -20.889   4.652 -17.283  1.00  0.00    -0.236 N 
HETATM   42  O4  UNL     1     -20.132   5.700 -17.154  1.00  0.00    -0.155 OA
ATOM     43  H13 UNL     1     -20.869   3.995 -18.064  1.00  0.00     0.197 HD
HETATM   44  N14 UNL     1     -20.381   6.346 -16.060  1.00  0.00    -0.222 N 
HETATM   45  C15 UNL     1     -21.370   5.657 -15.448  1.00  0.00     0.178 A 
ATOM     46  H14 UNL     1     -19.927   7.197 -15.729  1.00  0.00     0.198 HD
HETATM   47  N15 UNL     1     -21.905   5.966 -14.322  1.00  0.00    -0.249 N 
ATOM     48  H15 UNL     1     -22.642   5.355 -13.967  1.00  0.00     0.196 HD
BRANCH  47  49
HETATM   49  O5  UNL     1     -21.565   7.041 -13.570  1.00  0.00    -0.288 OA
ATOM     50  H5  UNL     1     -21.069   7.789 -13.882  1.00  0.00     0.244 HD
ENDBRANCH  47  49
ENDBRANCH  11  40
BRANCH   1  51
HETATM   51  N1  UNL     1     -27.354  -1.390 -15.241  1.00  0.00    -0.234 N 
ATOM     52  H12 UNL     1     -27.545  -1.219 -14.254  1.00  0.00     0.174 HD
ATOM     53  H11 UNL     1     -27.738  -2.243 -15.650  1.00  0.00     0.174 HD
ENDBRANCH   1  51
TORSDOF 12
ENDMDL
MODEL 5
REMARK VINA RESULT: -9.143823582      3.397      6.133
REMARK  12 active torsions:
REMARK  status: ('A' for Active; 'I' for Inactive)
REMARK    1  A    between atoms: N1_1  and  C1_4 
REMARK    2  A    between atoms: C3_9  and  N4_10 
REMARK    3  A    between atoms: C4_15  and  N6_16 
REMARK    4  A    between atoms: C6_18  and  C7_19 
REMARK    5  A    between atoms: C8_21  and  O2_22 
REMARK    6  A    between atoms: O2_22  and  C9_23 
REMARK    7  A    between atoms: C9_23  and  C10_24 
REMARK    8  A    between atoms: C10_24  and  C11_25 
REMARK    9  A    between atoms: C11_25  and  O3_26 
REMARK   10  A    between atoms: N9_30  and  N10_31 
REMARK   11  A    between atoms: C13_39  and  C14_40 
REMARK   12  A    between atoms: N15_47  and  O5_49 
ROOT
HETATM    1  C1  UNL     1     -21.477   3.949 -17.000  1.00  0.00     0.705 A 
HETATM    2  N2  UNL     1     -22.482   3.411 -16.307  1.00  0.00    -0.019 N 
ATOM      3  H2  UNL     1     -22.735   3.828 -15.412  1.00  0.00     0.203 HD
HETATM    4  C2  UNL     1     -23.182   2.332 -16.741  1.00  0.00     0.737 A 
HETATM    5  N3  UNL     1     -22.833   1.803 -17.915  1.00  0.00     0.018 N 
HETATM    6  C3  UNL     1     -21.818   2.316 -18.651  1.00  0.00     0.709 A 
HETATM    7  N5  UNL     1     -21.165   3.380 -18.173  1.00  0.00    -0.022 N 
ATOM      8  H5  UNL     1     -20.401   3.774 -18.721  1.00  0.00     0.203 HD
HETATM    9  C4  UNL     1     -23.705   0.690 -18.188  1.00  0.00     0.305 A 
HETATM   10  C12 UNL     1     -24.586   0.598 -17.010  1.00  0.00     0.128 A 
HETATM   11  C13 UNL     1     -25.592   0.146 -16.145  1.00  0.00     0.111 A 
HETATM   12  N16 UNL     1     -25.203   1.180 -15.360  1.00  0.00    -0.275 N 
ATOM     13  H16 UNL     1     -25.525   1.520 -14.454  1.00  0.00     0.188 HD
HETATM   14  N17 UNL     1     -24.257   1.589 -16.186  1.00  0.00    -0.082 N 
ENDROOT
BRANCH   9  15
HETATM   15  N6  UNL     1     -24.487   1.100 -19.362  1.00  0.00    -0.256 N 
HETATM   16  C5  UNL     1     -24.982   0.279 -20.331  1.00  0.00     0.145 A 
HETATM   17  C6  UNL     1     -25.660   1.038 -21.264  1.00  0.00     0.090 A 
HETATM   18  N11 UNL     1     -25.550   2.303 -20.824  1.00  0.00    -0.285 N 
HETATM   19  N12 UNL     1     -24.842   2.309 -19.682  1.00  0.00    -0.238 N 
ATOM     20  H11 UNL     1     -25.942   3.126 -21.283  1.00  0.00     0.188 HD
ATOM     21  H12 UNL     1     -24.615   3.145 -19.143  1.00  0.00     0.208 HD
BRANCH  17  22
HETATM   22  C7  UNL     1     -26.344   0.514 -22.476  1.00  0.00     0.292 C 
HETATM   23  O1  UNL     1     -27.211  -0.473 -22.071  1.00  0.00    -0.317 OA
HETATM   24  C8  UNL     1     -27.537  -1.388 -23.067  1.00  0.00     0.379 C 
HETATM   25  N7  UNL     1     -26.417  -1.834 -23.820  1.00  0.00    -0.070 NA
HETATM   26  N8  UNL     1     -25.858  -0.694 -24.456  1.00  0.00    -0.030 NA
HETATM   27  N9  UNL     1     -25.345   0.086 -23.412  1.00  0.00    -0.097 NA
BRANCH  24  28
HETATM   28  O2  UNL     1     -28.106  -2.467 -22.404  1.00  0.00    -0.346 OA
BRANCH  28  29
HETATM   29  C9  UNL     1     -28.679  -3.424 -23.178  1.00  0.00     0.174 C 
BRANCH  29  30
HETATM   30  C10 UNL     1     -28.268  -4.800 -22.782  1.00  0.00     0.052 C 
BRANCH  30  31
HETATM   31  C11 UNL     1     -26.870  -5.096 -23.284  1.00  0.00     0.166 C 
BRANCH  31  32
HETATM   32  O3  UNL     1     -25.931  -4.483 -22.419  1.00  0.00    -0.401 OA
ATOM     33  H3  UNL     1     -25.215  -5.088 -22.261  1.00  0.00     0.209 HD
ENDBRANCH  31  32
ENDBRANCH  30  31
ENDBRANCH  29  30
ENDBRANCH  28  29
ENDBRANCH  24  28
BRANCH  27  34
HETATM   34  N10 UNL     1     -24.790   1.235 -24.020  1.00  0.00    -0.345 NA
ATOM     35 2H10 UNL     1     -25.235   1.312 -24.935  1.00  0.00     0.172 HD
ATOM     36 1H10 UNL     1     -24.972   2.034 -23.413  1.00  0.00     0.172 HD
ENDBRANCH  27  34
ENDBRANCH  17  22
ENDBRANCH   9  15
BRANCH   6  37
HETATM   37  N4  UNL     1     -21.526   1.752 -19.762  1.00  0.00    -0.233 N 
ATOM     38  H42 UNL     1     -21.963   0.890 -20.086  1.00  0.00     0.174 HD
ATOM     39  H41 UNL     1     -20.826   2.192 -20.360  1.00  0.00     0.174 HD
ENDBRANCH   6  37
BRANCH  11  40
HETATM   40  C14 UNL     1     -26.595  -0.905 -16.069  1.00  0.00     0.134 A 
HETATM   41  N13 UNL     1     -27.406  -1.088 -15.011  1.00  0.00    -0.236 N 
HETATM   42  O4  UNL     1     -28.175  -2.109 -15.250  1.00  0.00    -0.155 OA
ATOM     43  H13 UNL     1     -27.416  -0.521 -14.163  1.00  0.00     0.197 HD
HETATM   44  N14 UNL     1     -27.936  -2.634 -16.409  1.00  0.00    -0.222 N 
HETATM   45  C15 UNL     1     -26.942  -1.892 -16.948  1.00  0.00     0.178 A 
ATOM     46  H14 UNL     1     -28.401  -3.439 -16.829  1.00  0.00     0.198 HD
HETATM   47  N15 UNL     1     -26.406  -2.088 -18.098  1.00  0.00    -0.249 N 
ATOM     48  H15 UNL     1     -25.658  -1.456 -18.384  1.00  0.00     0.196 HD
BRANCH  47  49
HETATM   49  O5  UNL     1     -26.760  -3.072 -18.961  1.00  0.00    -0.288 OA
ATOM     50  H5  UNL     1     -26.412  -3.957 -18.950  1.00  0.00     0.244 HD
ENDBRANCH  47  49
ENDBRANCH  11  40
BRANCH   1  51
HETATM   51  N1  UNL     1     -20.795   4.974 -16.611  1.00  0.00    -0.234 N 
ATOM     52  H12 UNL     1     -21.239   5.645 -15.983  1.00  0.00     0.174 HD
ATOM     53  H11 UNL     1     -19.832   5.161 -16.891  1.00  0.00     0.174 HD
ENDBRANCH   1  51
TORSDOF 12
ENDMDL
