MODEL 1
REMARK VINA RESULT: -8.067272105      0.000      0.000
REMARK  9 active torsions:
REMARK  status: ('A' for Active; 'I' for Inactive)
REMARK    1  A    between atoms: N1_1  and  C1_4 
REMARK    2  A    between atoms: N3_9  and  C4_11 
REMARK    3  A    between atoms: C4_11  and  C5_12 
REMARK    4  A    between atoms: C5_12  and  O1_13 
REMARK    5  A    between atoms: N5_19  and  N6_21 
REMARK    6  A    between atoms: N7_24  and  C8_25 
REMARK    7  A    between atoms: C8_25  and  C9_26 
REMARK    8  A    between atoms: C9_26  and  N8_27 
REMARK    9  A    between atoms: C9_26  and  C10_31 
ROOT
HETATM    1  C1  UNL     1     -29.507 -12.636 -14.748  1.00  0.00     0.223 A 
HETATM    2  N2  UNL     1     -29.340 -13.968 -14.532  1.00  0.00    -0.317 N 
ATOM      3  H2  UNL     1     -29.259 -14.671 -15.266  1.00  0.00     0.169 HD
HETATM    4  C2  UNL     1     -29.296 -14.224 -13.214  1.00  0.00     0.116 A 
HETATM    5  C3  UNL     1     -29.150 -15.351 -12.458  1.00  0.00     0.136 A 
HETATM    6  N3  UNL     1     -29.007 -16.477 -12.902  1.00  0.00    -0.352 N 
ATOM      7  H3  UNL     1     -28.921 -17.116 -12.111  1.00  0.00     0.166 HD
HETATM    8  N4  UNL     1     -29.158 -15.194 -11.098  1.00  0.00    -0.336 N 
ATOM      9  H4  UNL     1     -29.051 -16.020 -10.508  1.00  0.00     0.168 HD
HETATM   10  C6  UNL     1     -29.302 -13.997 -10.511  1.00  0.00     0.110 A 
HETATM   11  C7  UNL     1     -29.304 -13.887  -9.092  1.00  0.00     0.152 A 
HETATM   12  N5  UNL     1     -29.165 -14.987  -8.516  1.00  0.00    -0.290 N 
ATOM     13  H5  UNL     1     -29.077 -15.767  -9.167  1.00  0.00     0.188 HD
HETATM   14  N7  UNL     1     -29.446 -12.711  -8.496  1.00  0.00    -0.324 N 
HETATM   15  C11 UNL     1     -29.592 -11.592  -9.284  1.00  0.00     0.185 A 
HETATM   16  N10 UNL     1     -29.590 -11.695 -10.616  1.00  0.00    -0.348 N 
ATOM     17  H10 UNL     1     -29.699 -10.846 -11.171  1.00  0.00     0.167 HD
HETATM   18  C12 UNL     1     -29.451 -12.857 -11.251  1.00  0.00     0.101 A 
HETATM   19  C13 UNL     1     -29.449 -12.961 -12.632  1.00  0.00     0.139 A 
HETATM   20  O3  UNL     1     -29.569 -12.068 -13.578  1.00  0.00    -0.275 OA
ENDROOT
BRANCH  14  21
HETATM   21  C8  UNL     1     -29.451 -12.527  -7.062  1.00  0.00     0.173 C 
BRANCH  21  22
HETATM   22  C9  UNL     1     -30.039 -11.191  -6.681  1.00  0.00     0.290 C 
BRANCH  22  23
HETATM   23  N8  UNL     1     -31.400 -11.388  -6.163  1.00  0.00    -0.065 N 
ATOM     24  H83 UNL     1     -31.490 -12.257  -5.635  1.00  0.00     0.275 HD
ATOM     25  H82 UNL     1     -31.625 -10.738  -5.410  1.00  0.00     0.275 HD
ATOM     26  H81 UNL     1     -32.065 -11.333  -6.933  1.00  0.00     0.275 HD
ENDBRANCH  22  23
BRANCH  22  27
HETATM   27  C10 UNL     1     -29.168 -10.588  -5.645  1.00  0.00     0.263 C 
HETATM   28  N9  UNL     1     -29.141 -11.015  -4.308  1.00  0.00    -0.060 NA
HETATM   29  O2  UNL     1     -28.414  -9.639  -5.993  1.00  0.00    -0.275 OA
ENDBRANCH  22  27
ENDBRANCH  21  22
ENDBRANCH  14  21
BRANCH  12  30
HETATM   30  N6  UNL     1     -29.108 -15.367  -7.241  1.00  0.00    -0.344 N 
ATOM     31  H62 UNL     1     -28.211 -15.800  -7.019  1.00  0.00     0.176 HD
ATOM     32  H61 UNL     1     -29.756 -15.317  -6.454  1.00  0.00     0.176 HD
ENDBRANCH  12  30
BRANCH   6  33
HETATM   33  C4  UNL     1     -28.916 -17.224 -14.058  1.00  0.00     0.088 C 
BRANCH  33  34
HETATM   34  C5  UNL     1     -30.210 -17.414 -14.829  1.00  0.00     0.208 C 
BRANCH  34  35
HETATM   35  O1  UNL     1     -30.392 -16.473 -15.821  1.00  0.00    -0.396 OA
ATOM     36  H1  UNL     1     -31.266 -16.488 -16.193  1.00  0.00     0.209 HD
ENDBRANCH  34  35
ENDBRANCH  33  34
ENDBRANCH   6  33
BRANCH   1  37
HETATM   37  N1  UNL     1     -29.590 -12.058 -15.917  1.00  0.00    -0.365 N 
ATOM     38  H12 UNL     1     -28.825 -11.838 -16.555  1.00  0.00     0.159 HD
ATOM     39  H11 UNL     1     -30.451 -11.738 -16.363  1.00  0.00     0.159 HD
ENDBRANCH   1  37
TORSDOF 9
ENDMDL
MODEL 2
REMARK VINA RESULT: -7.658799452      1.292      1.292
REMARK  9 active torsions:
REMARK  status: ('A' for Active; 'I' for Inactive)
REMARK    1  A    between atoms: N1_1  and  C1_4 
REMARK    2  A    between atoms: N3_9  and  C4_11 
REMARK    3  A    between atoms: C4_11  and  C5_12 
REMARK    4  A    between atoms: C5_12  and  O1_13 
REMARK    5  A    between atoms: N5_19  and  N6_21 
REMARK    6  A    between atoms: N7_24  and  C8_25 
REMARK    7  A    between atoms: C8_25  and  C9_26 
REMARK    8  A    between atoms: C9_26  and  N8_27 
REMARK    9  A    between atoms: C9_26  and  C10_31 
ROOT
HETATM    1  C1  UNL     1     -27.458 -12.999 -14.557  1.00  0.00     0.223 A 
HETATM    2  N2  UNL     1     -27.958 -14.250 -14.379  1.00  0.00    -0.317 N 
ATOM      3  H2  UNL     1     -27.882 -15.009 -15.056  1.00  0.00     0.169 HD
HETATM    4  C2  UNL     1     -28.567 -14.344 -13.185  1.00  0.00     0.116 A 
HETATM    5  C3  UNL     1     -29.220 -15.336 -12.513  1.00  0.00     0.136 A 
HETATM    6  N3  UNL     1     -29.386 -16.469 -12.930  1.00  0.00    -0.352 N 
ATOM      7  H3  UNL     1     -29.902 -16.990 -12.220  1.00  0.00     0.166 HD
HETATM    8  N4  UNL     1     -29.718 -15.028 -11.275  1.00  0.00    -0.336 N 
ATOM      9  H4  UNL     1     -30.211 -15.751 -10.751  1.00  0.00     0.168 HD
HETATM   10  C6  UNL     1     -29.582 -13.812 -10.726  1.00  0.00     0.110 A 
HETATM   11  C7  UNL     1     -30.117 -13.543  -9.435  1.00  0.00     0.152 A 
HETATM   12  N5  UNL     1     -30.692 -14.528  -8.929  1.00  0.00    -0.290 N 
ATOM     13  H5  UNL     1     -30.675 -15.350  -9.532  1.00  0.00     0.188 HD
HETATM   14  N7  UNL     1     -29.991 -12.346  -8.878  1.00  0.00    -0.324 N 
HETATM   15  C11 UNL     1     -29.328 -11.365  -9.579  1.00  0.00     0.185 A 
HETATM   16  N10 UNL     1     -28.824 -11.617 -10.790  1.00  0.00    -0.348 N 
ATOM     17  H10 UNL     1     -28.337 -10.869 -11.282  1.00  0.00     0.167 HD
HETATM   18  C12 UNL     1     -28.930 -12.805 -11.383  1.00  0.00     0.101 A 
HETATM   19  C13 UNL     1     -28.408 -13.065 -12.639  1.00  0.00     0.139 A 
HETATM   20  O3  UNL     1     -27.751 -12.319 -13.486  1.00  0.00    -0.275 OA
ENDROOT
BRANCH  14  21
HETATM   21  C8  UNL     1     -30.505 -12.005  -7.570  1.00  0.00     0.173 C 
BRANCH  21  22
HETATM   22  C9  UNL     1     -29.762 -10.836  -6.973  1.00  0.00     0.290 C 
BRANCH  22  23
HETATM   23  N8  UNL     1     -30.727  -9.894  -6.388  1.00  0.00    -0.065 N 
ATOM     24  H83 UNL     1     -31.593 -10.353  -6.108  1.00  0.00     0.275 HD
ATOM     25  H82 UNL     1     -30.434  -9.562  -5.469  1.00  0.00     0.275 HD
ATOM     26  H81 UNL     1     -30.889  -9.129  -7.042  1.00  0.00     0.275 HD
ENDBRANCH  22  23
BRANCH  22  27
HETATM   27  C10 UNL     1     -28.846 -11.360  -5.933  1.00  0.00     0.263 C 
HETATM   28  N9  UNL     1     -28.985 -11.080  -4.565  1.00  0.00    -0.060 NA
HETATM   29  O2  UNL     1     -27.894 -12.096  -6.307  1.00  0.00    -0.275 OA
ENDBRANCH  22  27
ENDBRANCH  21  22
ENDBRANCH  14  21
BRANCH  12  30
HETATM   30  N6  UNL     1     -31.323 -14.745  -7.775  1.00  0.00    -0.344 N 
ATOM     31  H62 UNL     1     -31.599 -13.870  -7.330  1.00  0.00     0.176 HD
ATOM     32  H61 UNL     1     -31.583 -15.582  -7.253  1.00  0.00     0.176 HD
ENDBRANCH  12  30
BRANCH   6  33
HETATM   33  C4  UNL     1     -29.148 -17.323 -13.987  1.00  0.00     0.088 C 
BRANCH  33  34
HETATM   34  C5  UNL     1     -30.166 -17.285 -15.113  1.00  0.00     0.208 C 
BRANCH  34  35
HETATM   35  O1  UNL     1     -30.301 -16.035 -15.680  1.00  0.00    -0.396 OA
ATOM     36  H1  UNL     1     -30.815 -16.041 -16.478  1.00  0.00     0.209 HD
ENDBRANCH  34  35
ENDBRANCH  33  34
ENDBRANCH   6  33
BRANCH   1  37
HETATM   37  N1  UNL     1     -26.810 -12.579 -15.612  1.00  0.00    -0.365 N 
ATOM     38  H12 UNL     1     -25.829 -12.304 -15.667  1.00  0.00     0.159 HD
ATOM     39  H11 UNL     1     -27.204 -12.465 -16.546  1.00  0.00     0.159 HD
ENDBRANCH   1  37
TORSDOF 9
ENDMDL
MODEL 3
REMARK VINA RESULT: -7.566027029      1.378      1.528
REMARK  9 active torsions:
REMARK  status: ('A' for Active; 'I' for Inactive)
REMARK    1  A    between atoms: N1_1  and  C1_4 
REMARK    2  A    between atoms: N3_9  and  C4_11 
REMARK    3  A    between atoms: C4_11  and  C5_12 
REMARK    4  A    between atoms: C5_12  and  O1_13 
REMARK    5  A    between atoms: N5_19  and  N6_21 
REMARK    6  A    between atoms: N7_24  and  C8_25 
REMARK    7  A    between atoms: C8_25  and  C9_26 
REMARK    8  A    between atoms: C9_26  and  N8_27 
REMARK    9  A    between atoms: C9_26  and  C10_31 
ROOT
HETATM    1  C1  UNL     1     -29.801 -11.676 -14.809  1.00  0.00     0.223 A 
HETATM    2  N2  UNL     1     -29.500 -12.945 -14.427  1.00  0.00    -0.317 N 
ATOM      3  H2  UNL     1     -29.241 -13.699 -15.063  1.00  0.00     0.169 HD
HETATM    4  C2  UNL     1     -29.591 -13.064 -13.092  1.00  0.00     0.116 A 
HETATM    5  C3  UNL     1     -29.404 -14.081 -12.201  1.00  0.00     0.136 A 
HETATM    6  N3  UNL     1     -29.069 -15.215 -12.497  1.00  0.00    -0.352 N 
ATOM      7  H3  UNL     1     -29.005 -15.756 -11.634  1.00  0.00     0.166 HD
HETATM    8  N4  UNL     1     -29.602 -13.795 -10.877  1.00  0.00    -0.336 N 
ATOM      9  H4  UNL     1     -29.470 -14.537 -10.190  1.00  0.00     0.168 HD
HETATM   10  C6  UNL     1     -29.966 -12.577 -10.450  1.00  0.00     0.110 A 
HETATM   11  C7  UNL     1     -30.160 -12.331  -9.061  1.00  0.00     0.152 A 
HETATM   12  N5  UNL     1     -29.961 -13.340  -8.353  1.00  0.00    -0.290 N 
ATOM     13  H5  UNL     1     -29.695 -14.161  -8.898  1.00  0.00     0.188 HD
HETATM   14  N7  UNL     1     -30.519 -11.132  -8.622  1.00  0.00    -0.324 N 
HETATM   15  C11 UNL     1     -30.701 -10.126  -9.542  1.00  0.00     0.185 A 
HETATM   16  N10 UNL     1     -30.518 -10.356 -10.846  1.00  0.00    -0.348 N 
ATOM     17  H10 UNL     1     -30.660  -9.588 -11.502  1.00  0.00     0.167 HD
HETATM   18  C12 UNL     1     -30.159 -11.545 -11.326  1.00  0.00     0.101 A 
HETATM   19  C13 UNL     1     -29.970 -11.782 -12.677  1.00  0.00     0.139 A 
HETATM   20  O3  UNL     1     -30.078 -11.010 -13.725  1.00  0.00    -0.275 OA
ENDROOT
BRANCH  14  21
HETATM   21  C8  UNL     1     -30.728 -10.812  -7.228  1.00  0.00     0.173 C 
BRANCH  21  22
HETATM   22  C9  UNL     1     -29.652  -9.891  -6.707  1.00  0.00     0.290 C 
BRANCH  22  23
HETATM   23  N8  UNL     1     -30.279  -8.738  -6.046  1.00  0.00    -0.065 N 
ATOM     24  H83 UNL     1     -30.646  -8.061  -6.714  1.00  0.00     0.275 HD
ATOM     25  H82 UNL     1     -31.159  -8.984  -5.591  1.00  0.00     0.275 HD
ATOM     26  H81 UNL     1     -29.613  -8.318  -5.397  1.00  0.00     0.275 HD
ENDBRANCH  22  23
BRANCH  22  27
HETATM   27  C10 UNL     1     -28.821 -10.655  -5.748  1.00  0.00     0.263 C 
HETATM   28  N9  UNL     1     -28.825 -10.426  -4.363  1.00  0.00    -0.060 NA
HETATM   29  O2  UNL     1     -28.071 -11.556  -6.211  1.00  0.00    -0.275 OA
ENDBRANCH  22  27
ENDBRANCH  21  22
ENDBRANCH  14  21
BRANCH  12  30
HETATM   30  N6  UNL     1     -30.018 -13.583  -7.044  1.00  0.00    -0.344 N 
ATOM     31  H62 UNL     1     -29.337 -13.025  -6.530  1.00  0.00     0.176 HD
ATOM     32  H61 UNL     1     -30.587 -14.196  -6.459  1.00  0.00     0.176 HD
ENDBRANCH  12  30
BRANCH   6  33
HETATM   33  C4  UNL     1     -28.741 -16.052 -13.543  1.00  0.00     0.088 C 
BRANCH  33  34
HETATM   34  C5  UNL     1     -29.907 -16.577 -14.363  1.00  0.00     0.208 C 
BRANCH  34  35
HETATM   35  O1  UNL     1     -30.277 -15.726 -15.384  1.00  0.00    -0.396 OA
ATOM     36  H1  UNL     1     -30.986 -16.068 -15.915  1.00  0.00     0.209 HD
ENDBRANCH  34  35
ENDBRANCH  33  34
ENDBRANCH   6  33
BRANCH   1  37
HETATM   37  N1  UNL     1     -29.807 -11.231 -16.038  1.00  0.00    -0.365 N 
ATOM     38  H12 UNL     1     -29.351 -10.391 -16.394  1.00  0.00     0.159 HD
ATOM     39  H11 UNL     1     -30.279 -11.671 -16.828  1.00  0.00     0.159 HD
ENDBRANCH   1  37
TORSDOF 9
ENDMDL
MODEL 4
REMARK VINA RESULT: -7.452804804      1.350      1.395
REMARK  9 active torsions:
REMARK  status: ('A' for Active; 'I' for Inactive)
REMARK    1  A    between atoms: N1_1  and  C1_4 
REMARK    2  A    between atoms: N3_9  and  C4_11 
REMARK    3  A    between atoms: C4_11  and  C5_12 
REMARK    4  A    between atoms: C5_12  and  O1_13 
REMARK    5  A    between atoms: N5_19  and  N6_21 
REMARK    6  A    between atoms: N7_24  and  C8_25 
REMARK    7  A    between atoms: C8_25  and  C9_26 
REMARK    8  A    between atoms: C9_26  and  N8_27 
REMARK    9  A    between atoms: C9_26  and  C10_31 
ROOT
HETATM    1  C1  UNL     1     -27.766 -13.007 -14.542  1.00  0.00     0.223 A 
HETATM    2  N2  UNL     1     -28.671 -14.021 -14.524  1.00  0.00    -0.317 N 
ATOM      3  H2  UNL     1     -28.891 -14.619 -15.321  1.00  0.00     0.169 HD
HETATM    4  C2  UNL     1     -29.235 -14.123 -13.309  1.00  0.00     0.116 A 
HETATM    5  C3  UNL     1     -30.175 -14.938 -12.750  1.00  0.00     0.136 A 
HETATM    6  N3  UNL     1     -30.745 -15.847 -13.329  1.00  0.00    -0.352 N 
ATOM      7  H3  UNL     1     -31.389 -16.282 -12.668  1.00  0.00     0.166 HD
HETATM    8  N4  UNL     1     -30.492 -14.716 -11.436  1.00  0.00    -0.336 N 
ATOM      9  H4  UNL     1     -31.192 -15.310 -10.993  1.00  0.00     0.168 HD
HETATM   10  C6  UNL     1     -29.916 -13.746 -10.711  1.00  0.00     0.110 A 
HETATM   11  C7  UNL     1     -30.280 -13.556  -9.347  1.00  0.00     0.152 A 
HETATM   12  N5  UNL     1     -31.151 -14.361  -8.957  1.00  0.00    -0.290 N 
ATOM     13  H5  UNL     1     -31.445 -15.011  -9.686  1.00  0.00     0.188 HD
HETATM   14  N7  UNL     1     -29.720 -12.602  -8.616  1.00  0.00    -0.324 N 
HETATM   15  C11 UNL     1     -28.775 -11.795  -9.207  1.00  0.00     0.185 A 
HETATM   16  N10 UNL     1     -28.433 -11.973 -10.486  1.00  0.00    -0.348 N 
ATOM     17  H10 UNL     1     -27.728 -11.358 -10.893  1.00  0.00     0.167 HD
HETATM   18  C12 UNL     1     -28.972 -12.919 -11.252  1.00  0.00     0.101 A 
HETATM   19  C13 UNL     1     -28.616 -13.102 -12.579  1.00  0.00     0.139 A 
HETATM   20  O3  UNL     1     -27.765 -12.481 -13.351  1.00  0.00    -0.275 OA
ENDROOT
BRANCH  14  21
HETATM   21  C8  UNL     1     -30.039 -12.357  -7.227  1.00  0.00     0.173 C 
BRANCH  21  22
HETATM   22  C9  UNL     1     -30.134 -10.880  -6.936  1.00  0.00     0.290 C 
BRANCH  22  23
HETATM   23  N8  UNL     1     -31.517 -10.545  -6.568  1.00  0.00    -0.065 N 
ATOM     24  H83 UNL     1     -32.158 -10.627  -7.357  1.00  0.00     0.275 HD
ATOM     25  H82 UNL     1     -31.938 -11.252  -5.965  1.00  0.00     0.275 HD
ATOM     26  H81 UNL     1     -31.538  -9.617  -6.147  1.00  0.00     0.275 HD
ENDBRANCH  22  23
BRANCH  22  27
HETATM   27  C10 UNL     1     -29.207 -10.573  -5.822  1.00  0.00     0.263 C 
HETATM   28  N9  UNL     1     -29.108 -11.352  -4.659  1.00  0.00    -0.060 NA
HETATM   29  O2  UNL     1     -28.473  -9.554  -5.934  1.00  0.00    -0.275 OA
ENDBRANCH  22  27
ENDBRANCH  21  22
ENDBRANCH  14  21
BRANCH  12  30
HETATM   30  N6  UNL     1     -31.780 -14.561  -7.800  1.00  0.00    -0.344 N 
ATOM     31  H62 UNL     1     -31.687 -13.756  -7.180  1.00  0.00     0.176 HD
ATOM     32  H61 UNL     1     -32.323 -15.331  -7.409  1.00  0.00     0.176 HD
ENDBRANCH  12  30
BRANCH   6  33
HETATM   33  C4  UNL     1     -30.859 -16.516 -14.529  1.00  0.00     0.088 C 
BRANCH  33  34
HETATM   34  C5  UNL     1     -29.891 -17.667 -14.741  1.00  0.00     0.208 C 
BRANCH  34  35
HETATM   35  O1  UNL     1     -28.573 -17.308 -14.551  1.00  0.00    -0.396 OA
ATOM     36  H1  UNL     1     -28.465 -16.612 -13.914  1.00  0.00     0.209 HD
ENDBRANCH  34  35
ENDBRANCH  33  34
ENDBRANCH   6  33
BRANCH   1  37
HETATM   37  N1  UNL     1     -27.046 -12.646 -15.570  1.00  0.00    -0.365 N 
ATOM     38  H12 UNL     1     -27.299 -11.981 -16.301  1.00  0.00     0.159 HD
ATOM     39  H11 UNL     1     -26.110 -12.987 -15.791  1.00  0.00     0.159 HD
ENDBRANCH   1  37
TORSDOF 9
ENDMDL
MODEL 5
REMARK VINA RESULT: -7.271565891      2.599      7.843
REMARK  9 active torsions:
REMARK  status: ('A' for Active; 'I' for Inactive)
REMARK    1  A    between atoms: N1_1  and  C1_4 
REMARK    2  A    between atoms: N3_9  and  C4_11 
REMARK    3  A    between atoms: C4_11  and  C5_12 
REMARK    4  A    between atoms: C5_12  and  O1_13 
REMARK    5  A    between atoms: N5_19  and  N6_21 
REMARK    6  A    between atoms: N7_24  and  C8_25 
REMARK    7  A    between atoms: C8_25  and  C9_26 
REMARK    8  A    between atoms: C9_26  and  N8_27 
REMARK    9  A    between atoms: C9_26  and  C10_31 
ROOT
HETATM    1  C1  UNL     1     -30.017 -11.102  -7.445  1.00  0.00     0.223 A 
HETATM    2  N2  UNL     1     -30.046 -10.016  -8.263  1.00  0.00    -0.317 N 
ATOM      3  H2  UNL     1     -30.114  -9.049  -7.945  1.00  0.00     0.169 HD
HETATM    4  C2  UNL     1     -29.974 -10.399  -9.549  1.00  0.00     0.116 A 
HETATM    5  C3  UNL     1     -29.963  -9.746 -10.747  1.00  0.00     0.136 A 
HETATM    6  N3  UNL     1     -30.019  -8.536 -10.885  1.00  0.00    -0.352 N 
ATOM      7  H3  UNL     1     -29.992  -8.335 -11.884  1.00  0.00     0.166 HD
HETATM    8  N4  UNL     1     -29.875 -10.517 -11.876  1.00  0.00    -0.336 N 
ATOM      9  H4  UNL     1     -29.866 -10.055 -12.785  1.00  0.00     0.168 HD
HETATM   10  C6  UNL     1     -29.802 -11.855 -11.831  1.00  0.00     0.110 A 
HETATM   11  C7  UNL     1     -29.712 -12.611 -13.034  1.00  0.00     0.152 A 
HETATM   12  N5  UNL     1     -29.715 -11.899 -14.059  1.00  0.00    -0.290 N 
ATOM     13  H5  UNL     1     -29.782 -10.903 -13.851  1.00  0.00     0.188 HD
HETATM   14  N7  UNL     1     -29.639 -13.935 -13.006  1.00  0.00    -0.324 N 
HETATM   15  C11 UNL     1     -29.652 -14.565 -11.784  1.00  0.00     0.185 A 
HETATM   16  N10 UNL     1     -29.735 -13.856 -10.654  1.00  0.00    -0.348 N 
ATOM     17  H10 UNL     1     -29.741 -14.355  -9.764  1.00  0.00     0.167 HD
HETATM   18  C12 UNL     1     -29.811 -12.527 -10.640  1.00  0.00     0.101 A 
HETATM   19  C13 UNL     1     -29.898 -11.794  -9.468  1.00  0.00     0.139 A 
HETATM   20  O3  UNL     1     -29.928 -12.150  -8.212  1.00  0.00    -0.275 OA
ENDROOT
BRANCH  14  21
HETATM   21  C8  UNL     1     -29.540 -14.763 -14.187  1.00  0.00     0.173 C 
BRANCH  21  22
HETATM   22  C9  UNL     1     -30.193 -16.106 -13.974  1.00  0.00     0.290 C 
BRANCH  22  23
HETATM   23  N8  UNL     1     -31.461 -16.153 -14.715  1.00  0.00    -0.065 N 
ATOM     24  H83 UNL     1     -31.879 -15.230 -14.825  1.00  0.00     0.275 HD
ATOM     25  H82 UNL     1     -31.324 -16.368 -15.703  1.00  0.00     0.275 HD
ATOM     26  H81 UNL     1     -32.093 -16.812 -14.261  1.00  0.00     0.275 HD
ENDBRANCH  22  23
BRANCH  22  27
HETATM   27  C10 UNL     1     -29.262 -17.149 -14.464  1.00  0.00     0.263 C 
HETATM   28  N9  UNL     1     -29.254 -17.623 -15.785  1.00  0.00    -0.060 NA
HETATM   29  O2  UNL     1     -28.437 -17.631 -13.642  1.00  0.00    -0.275 OA
ENDBRANCH  22  27
ENDBRANCH  21  22
ENDBRANCH  14  21
BRANCH  12  30
HETATM   30  N6  UNL     1     -29.650 -12.152 -15.366  1.00  0.00    -0.344 N 
ATOM     31  H62 UNL     1     -30.228 -12.953 -15.622  1.00  0.00     0.176 HD
ATOM     32  H61 UNL     1     -29.155 -11.725 -16.149  1.00  0.00     0.176 HD
ENDBRANCH  12  30
BRANCH   6  33
HETATM   33  C4  UNL     1     -30.106  -7.334 -10.215  1.00  0.00     0.088 C 
BRANCH  33  34
HETATM   34  C5  UNL     1     -31.407  -6.569 -10.388  1.00  0.00     0.208 C 
BRANCH  34  35
HETATM   35  O1  UNL     1     -32.122  -6.963 -11.500  1.00  0.00    -0.396 OA
ATOM     36  H1  UNL     1     -32.779  -6.329 -11.763  1.00  0.00     0.209 HD
ENDBRANCH  34  35
ENDBRANCH  33  34
ENDBRANCH   6  33
BRANCH   1  37
HETATM   37  N1  UNL     1     -30.071 -11.075  -6.140  1.00  0.00    -0.365 N 
ATOM     38  H12 UNL     1     -30.899 -11.168  -5.552  1.00  0.00     0.159 HD
ATOM     39  H11 UNL     1     -29.275 -10.953  -5.513  1.00  0.00     0.159 HD
ENDBRANCH   1  37
TORSDOF 9
ENDMDL
