MODEL 1
REMARK VINA RESULT: -6.239866865      0.000      0.000
REMARK  5 active torsions:
REMARK  status: ('A' for Active; 'I' for Inactive)
REMARK    1  A    between atoms: C3_4  and  C4_5 
REMARK    2  A    between atoms: C4_5  and  O1_6 
REMARK    3  A    between atoms: C4_5  and  N2_8 
REMARK    4  A    between atoms: N2_8  and  N3_10 
REMARK    5  A    between atoms: C5_14  and  N4_15 
ROOT
HETATM    1  N1  UNL     1       0.855 -31.976 -19.104  1.00  0.00    -0.191 NA
HETATM    2  C1  UNL     1       1.814 -31.725 -19.700  1.00  0.00     0.106 C 
HETATM    3  C2  UNL     1       3.001 -31.418 -20.496  1.00  0.00     0.134 A 
HETATM    4  C3  UNL     1       4.117 -30.997 -19.838  1.00  0.00     0.086 A 
HETATM    5  S1  UNL     1       5.426 -30.682 -20.958  1.00  0.00    -0.048 SA
HETATM    6  C5  UNL     1       5.048 -30.957 -22.576  1.00  0.00     0.145 A 
HETATM    7  N5  UNL     1       3.799 -31.379 -22.797  1.00  0.00    -0.303 N 
ATOM      8  H5  UNL     1       3.531 -31.557 -23.765  1.00  0.00     0.171 HD
HETATM    9  C6  UNL     1       2.877 -31.586 -21.860  1.00  0.00     0.269 A 
HETATM   10  O2  UNL     1       1.737 -31.993 -22.283  1.00  0.00    -0.266 OA
ENDROOT
BRANCH   4  11
HETATM   11  C4  UNL     1       4.308 -30.803 -18.422  1.00  0.00     0.173 C 
BRANCH  11  12
HETATM   12  O1  UNL     1       4.326 -29.515 -18.131  1.00  0.00    -0.344 OA
ATOM     13  H1  UNL     1       4.527 -29.385 -17.211  1.00  0.00     0.219 HD
ENDBRANCH  11  12
BRANCH  11  14
HETATM   14  N2  UNL     1       4.469 -31.643 -17.340  1.00  0.00    -0.286 N 
ATOM     15  H2  UNL     1       5.384 -32.004 -17.071  1.00  0.00     0.188 HD
BRANCH  14  16
HETATM   16  N3  UNL     1       3.275 -31.983 -16.610  1.00  0.00    -0.343 N 
ATOM     17  H32 UNL     1       2.451 -31.383 -16.646  1.00  0.00     0.176 HD
ATOM     18  H31 UNL     1       3.306 -32.845 -16.065  1.00  0.00     0.176 HD
ENDBRANCH  14  16
ENDBRANCH  11  14
ENDBRANCH   4  11
BRANCH   6  19
HETATM   19  N4  UNL     1       5.849 -30.793 -23.572  1.00  0.00    -0.380 N 
ATOM     20  H42 UNL     1       6.768 -30.378 -23.416  1.00  0.00     0.158 HD
ATOM     21  H41 UNL     1       5.652 -31.047 -24.541  1.00  0.00     0.158 HD
ENDBRANCH   6  19
TORSDOF 5
ENDMDL
MODEL 2
REMARK VINA RESULT: -6.081797452      1.787      3.385
REMARK  5 active torsions:
REMARK  status: ('A' for Active; 'I' for Inactive)
REMARK    1  A    between atoms: C3_4  and  C4_5 
REMARK    2  A    between atoms: C4_5  and  O1_6 
REMARK    3  A    between atoms: C4_5  and  N2_8 
REMARK    4  A    between atoms: N2_8  and  N3_10 
REMARK    5  A    between atoms: C5_14  and  N4_15 
ROOT
HETATM    1  N1  UNL     1       6.269 -31.135 -21.669  1.00  0.00    -0.191 NA
HETATM    2  C1  UNL     1       5.183 -31.171 -21.272  1.00  0.00     0.106 C 
HETATM    3  C2  UNL     1       3.796 -31.235 -20.816  1.00  0.00     0.134 A 
HETATM    4  C3  UNL     1       3.527 -30.837 -19.540  1.00  0.00     0.086 A 
HETATM    5  S1  UNL     1       1.820 -30.987 -19.182  1.00  0.00    -0.048 SA
HETATM    6  C5  UNL     1       0.883 -31.574 -20.454  1.00  0.00     0.145 A 
HETATM    7  N5  UNL     1       1.563 -31.851 -21.569  1.00  0.00    -0.303 N 
ATOM      8  H5  UNL     1       1.032 -32.210 -22.364  1.00  0.00     0.171 HD
HETATM    9  C6  UNL     1       2.876 -31.699 -21.732  1.00  0.00     0.269 A 
HETATM   10  O2  UNL     1       3.334 -32.023 -22.885  1.00  0.00    -0.266 OA
ENDROOT
BRANCH   4  11
HETATM   11  C4  UNL     1       4.441 -30.345 -18.539  1.00  0.00     0.173 C 
BRANCH  11  12
HETATM   12  O1  UNL     1       4.668 -29.057 -18.714  1.00  0.00    -0.344 OA
ATOM     13  H1  UNL     1       5.602 -28.880 -18.707  1.00  0.00     0.219 HD
ENDBRANCH  11  12
BRANCH  11  14
HETATM   14  N2  UNL     1       5.107 -30.910 -17.471  1.00  0.00    -0.286 N 
ATOM     15  H2  UNL     1       4.986 -30.566 -16.519  1.00  0.00     0.188 HD
BRANCH  14  16
HETATM   16  N3  UNL     1       5.982 -32.014 -17.774  1.00  0.00    -0.343 N 
ATOM     17  H32 UNL     1       5.642 -32.975 -17.742  1.00  0.00     0.176 HD
ATOM     18  H31 UNL     1       6.943 -31.775 -18.017  1.00  0.00     0.176 HD
ENDBRANCH  14  16
ENDBRANCH  11  14
ENDBRANCH   4  11
BRANCH   6  19
HETATM   19  N4  UNL     1      -0.390 -31.767 -20.421  1.00  0.00    -0.380 N 
ATOM     20  H42 UNL     1      -0.947 -31.597 -21.259  1.00  0.00     0.158 HD
ATOM     21  H41 UNL     1      -0.922 -32.084 -19.610  1.00  0.00     0.158 HD
ENDBRANCH   6  19
TORSDOF 5
ENDMDL
MODEL 3
REMARK VINA RESULT: -5.839551563      2.653      3.313
REMARK  5 active torsions:
REMARK  status: ('A' for Active; 'I' for Inactive)
REMARK    1  A    between atoms: C3_4  and  C4_5 
REMARK    2  A    between atoms: C4_5  and  O1_6 
REMARK    3  A    between atoms: C4_5  and  N2_8 
REMARK    4  A    between atoms: N2_8  and  N3_10 
REMARK    5  A    between atoms: C5_14  and  N4_15 
ROOT
HETATM    1  N1  UNL     1       2.922 -34.049 -23.238  1.00  0.00    -0.191 NA
HETATM    2  C1  UNL     1       3.093 -33.127 -22.559  1.00  0.00     0.106 C 
HETATM    3  C2  UNL     1       3.327 -31.938 -21.743  1.00  0.00     0.134 A 
HETATM    4  C3  UNL     1       2.980 -31.992 -20.426  1.00  0.00     0.086 A 
HETATM    5  S1  UNL     1       3.335 -30.479 -19.620  1.00  0.00    -0.048 SA
HETATM    6  C5  UNL     1       4.016 -29.298 -20.609  1.00  0.00     0.145 A 
HETATM    7  N5  UNL     1       4.196 -29.667 -21.880  1.00  0.00    -0.303 N 
ATOM      8  H5  UNL     1       4.607 -28.979 -22.513  1.00  0.00     0.171 HD
HETATM    9  C6  UNL     1       3.885 -30.856 -22.391  1.00  0.00     0.269 A 
HETATM   10  O2  UNL     1       4.139 -31.009 -23.639  1.00  0.00    -0.266 OA
ENDROOT
BRANCH   4  11
HETATM   11  C4  UNL     1       2.395 -33.088 -19.693  1.00  0.00     0.173 C 
BRANCH  11  12
HETATM   12  O1  UNL     1       1.222 -32.740 -19.199  1.00  0.00    -0.344 OA
ATOM     13  H1  UNL     1       0.920 -33.387 -18.572  1.00  0.00     0.219 HD
ENDBRANCH  11  12
BRANCH  11  14
HETATM   14  N2  UNL     1       2.783 -34.381 -19.407  1.00  0.00    -0.286 N 
ATOM     15  H2  UNL     1       3.692 -34.744 -19.691  1.00  0.00     0.188 HD
BRANCH  14  16
HETATM   16  N3  UNL     1       1.834 -35.189 -18.685  1.00  0.00    -0.343 N 
ATOM     17  H32 UNL     1       1.673 -35.043 -17.689  1.00  0.00     0.176 HD
ATOM     18  H31 UNL     1       1.343 -35.902 -19.225  1.00  0.00     0.176 HD
ENDBRANCH  14  16
ENDBRANCH  11  14
ENDBRANCH   4  11
BRANCH   6  19
HETATM   19  N4  UNL     1       4.359 -28.114 -20.236  1.00  0.00    -0.380 N 
ATOM     20  H42 UNL     1       5.310 -27.944 -19.908  1.00  0.00     0.158 HD
ATOM     21  H41 UNL     1       3.753 -27.292 -20.236  1.00  0.00     0.158 HD
ENDBRANCH   6  19
TORSDOF 5
ENDMDL
MODEL 4
REMARK VINA RESULT: -5.831554672      2.348      5.110
REMARK  5 active torsions:
REMARK  status: ('A' for Active; 'I' for Inactive)
REMARK    1  A    between atoms: C3_4  and  C4_5 
REMARK    2  A    between atoms: C4_5  and  O1_6 
REMARK    3  A    between atoms: C4_5  and  N2_8 
REMARK    4  A    between atoms: N2_8  and  N3_10 
REMARK    5  A    between atoms: C5_14  and  N4_15 
ROOT
HETATM    1  N1  UNL     1       5.570 -31.228 -23.701  1.00  0.00    -0.191 NA
HETATM    2  C1  UNL     1       4.854 -31.106 -22.800  1.00  0.00     0.106 C 
HETATM    3  C2  UNL     1       3.980 -30.916 -21.644  1.00  0.00     0.134 A 
HETATM    4  C3  UNL     1       2.860 -31.687 -21.559  1.00  0.00     0.086 A 
HETATM    5  S1  UNL     1       1.948 -31.313 -20.112  1.00  0.00    -0.048 SA
HETATM    6  C5  UNL     1       2.624 -30.110 -19.146  1.00  0.00     0.145 A 
HETATM    7  N5  UNL     1       3.767 -29.596 -19.608  1.00  0.00    -0.303 N 
ATOM      8  H5  UNL     1       4.209 -28.864 -19.051  1.00  0.00     0.171 HD
HETATM    9  C6  UNL     1       4.378 -29.959 -20.733  1.00  0.00     0.269 A 
HETATM   10  O2  UNL     1       5.469 -29.339 -20.998  1.00  0.00    -0.266 OA
ENDROOT
BRANCH   4  11
HETATM   11  C4  UNL     1       2.393 -32.699 -22.474  1.00  0.00     0.173 C 
BRANCH  11  12
HETATM   12  O1  UNL     1       2.960 -33.861 -22.206  1.00  0.00    -0.344 OA
ATOM     13  H1  UNL     1       2.839 -34.464 -22.930  1.00  0.00     0.219 HD
ENDBRANCH  11  12
BRANCH  11  14
HETATM   14  N2  UNL     1       1.509 -32.717 -23.533  1.00  0.00    -0.286 N 
ATOM     15  H2  UNL     1       0.943 -31.904 -23.775  1.00  0.00     0.188 HD
BRANCH  14  16
HETATM   16  N3  UNL     1       1.428 -33.947 -24.279  1.00  0.00    -0.343 N 
ATOM     17  H32 UNL     1       0.781 -34.685 -24.002  1.00  0.00     0.176 HD
ATOM     18  H31 UNL     1       2.048 -34.029 -25.085  1.00  0.00     0.176 HD
ENDBRANCH  14  16
ENDBRANCH  11  14
ENDBRANCH   4  11
BRANCH   6  19
HETATM   19  N4  UNL     1       2.131 -29.672 -18.039  1.00  0.00    -0.380 N 
ATOM     20  H42 UNL     1       2.744 -29.530 -17.236  1.00  0.00     0.158 HD
ATOM     21  H41 UNL     1       1.150 -29.441 -17.875  1.00  0.00     0.158 HD
ENDBRANCH   6  19
TORSDOF 5
ENDMDL
MODEL 5
REMARK VINA RESULT: -5.825494524      2.368      3.047
REMARK  5 active torsions:
REMARK  status: ('A' for Active; 'I' for Inactive)
REMARK    1  A    between atoms: C3_4  and  C4_5 
REMARK    2  A    between atoms: C4_5  and  O1_6 
REMARK    3  A    between atoms: C4_5  and  N2_8 
REMARK    4  A    between atoms: N2_8  and  N3_10 
REMARK    5  A    between atoms: C5_14  and  N4_15 
ROOT
HETATM    1  N1  UNL     1       5.898 -31.842 -18.594  1.00  0.00    -0.191 NA
HETATM    2  C1  UNL     1       5.016 -31.913 -19.340  1.00  0.00     0.106 C 
HETATM    3  C2  UNL     1       3.934 -32.024 -20.316  1.00  0.00     0.134 A 
HETATM    4  C3  UNL     1       2.693 -31.604 -19.942  1.00  0.00     0.086 A 
HETATM    5  S1  UNL     1       1.539 -31.817 -21.241  1.00  0.00    -0.048 SA
HETATM    6  C5  UNL     1       2.181 -32.478 -22.651  1.00  0.00     0.145 A 
HETATM    7  N5  UNL     1       3.486 -32.756 -22.596  1.00  0.00    -0.303 N 
ATOM      8  H5  UNL     1       3.914 -33.158 -23.431  1.00  0.00     0.171 HD
HETATM    9  C6  UNL     1       4.276 -32.552 -21.544  1.00  0.00     0.269 A 
HETATM   10  O2  UNL     1       5.504 -32.888 -21.698  1.00  0.00    -0.266 OA
ENDROOT
BRANCH   4  11
HETATM   11  C4  UNL     1       2.275 -31.047 -18.679  1.00  0.00     0.173 C 
BRANCH  11  12
HETATM   12  O1  UNL     1       0.996 -30.722 -18.719  1.00  0.00    -0.344 OA
ATOM     13  H1  UNL     1       0.472 -31.377 -18.272  1.00  0.00     0.219 HD
ENDBRANCH  11  12
BRANCH  11  14
HETATM   14  N2  UNL     1       2.900 -30.789 -17.477  1.00  0.00    -0.286 N 
ATOM     15  H2  UNL     1       3.170 -29.844 -17.203  1.00  0.00     0.188 HD
BRANCH  14  16
HETATM   16  N3  UNL     1       3.151 -31.926 -16.629  1.00  0.00    -0.343 N 
ATOM     17  H32 UNL     1       2.849 -31.930 -15.655  1.00  0.00     0.176 HD
ATOM     18  H31 UNL     1       3.641 -32.711 -17.058  1.00  0.00     0.176 HD
ENDBRANCH  14  16
ENDBRANCH  11  14
ENDBRANCH   4  11
BRANCH   6  19
HETATM   19  N4  UNL     1       1.524 -32.724 -23.731  1.00  0.00    -0.380 N 
ATOM     20  H42 UNL     1       0.603 -33.159 -23.672  1.00  0.00     0.158 HD
ATOM     21  H41 UNL     1       1.841 -32.519 -24.679  1.00  0.00     0.158 HD
ENDBRANCH   6  19
TORSDOF 5
ENDMDL
