MODEL 1
REMARK VINA RESULT: -7.078550648      0.000      0.000
REMARK  3 active torsions:
REMARK  status: ('A' for Active; 'I' for Inactive)
REMARK    1  A    between atoms: N1_1  and  N2_4 
REMARK    2  A    between atoms: N3_6  and  C1_8 
REMARK    3  A    between atoms: C3_13  and  N6_14 
REMARK       I    between atoms: N6_14  and  C4_16 
ROOT
HETATM    1  C1  UNL     1       2.678 -30.520 -20.224  1.00  0.00     0.160 A 
HETATM    2  C2  UNL     1       1.572 -31.328 -20.233  1.00  0.00     0.165 A 
HETATM    3  N4  UNL     1       0.705 -31.377 -19.109  1.00  0.00    -0.079 NA
HETATM    4  N5  UNL     1       1.301 -32.083 -21.315  1.00  0.00    -0.176 N 
ATOM      5  H5  UNL     1       0.475 -32.681 -21.309  1.00  0.00     0.185 HD
HETATM    6  C3  UNL     1       2.098 -32.071 -22.410  1.00  0.00     0.691 A 
HETATM    7  N7  UNL     1       3.169 -31.285 -22.396  1.00  0.00    -0.154 N 
ATOM      8  H7  UNL     1       3.776 -31.266 -23.215  1.00  0.00     0.187 HD
HETATM    9  C5  UNL     1       3.479 -30.515 -21.342  1.00  0.00     0.291 A 
HETATM   10  O3  UNL     1       4.516 -29.795 -21.408  1.00  0.00    -0.265 OA
ENDROOT
BRANCH   1  11
HETATM   11  N3  UNL     1       2.986 -29.719 -19.106  1.00  0.00    -0.279 N 
HETATM   12  N2  UNL     1       3.389 -30.127 -18.000  1.00  0.00    -0.249 N 
ATOM     13  H2  UNL     1       3.569 -29.419 -17.289  1.00  0.00     0.207 HD
ATOM     14  H3  UNL     1       2.868 -28.711 -19.211  1.00  0.00     0.189 HD
BRANCH  12  15
HETATM   15  N1  UNL     1       3.616 -31.440 -17.640  1.00  0.00    -0.331 N 
ATOM     16  H12 UNL     1       3.406 -32.135 -18.356  1.00  0.00     0.178 HD
ATOM     17  H11 UNL     1       3.967 -31.773 -16.742  1.00  0.00     0.178 HD
ENDBRANCH  12  15
ENDBRANCH   1  11
BRANCH   6  18
HETATM   18  N6  UNL     1       1.757 -32.830 -23.401  1.00  0.00    -0.133 N 
HETATM   19  C4  UNL     1       2.163 -32.596 -24.729  1.00  0.00     0.302 C 
HETATM   20  O1  UNL     1       1.323 -32.385 -25.654  1.00  0.00    -0.629 OA
HETATM   21  O2  UNL     1       3.523 -32.604 -25.005  1.00  0.00    -0.629 OA
ATOM     22  H6  UNL     1       1.165 -33.639 -23.211  1.00  0.00     0.190 HD
ENDBRANCH   6  18
TORSDOF 3
ENDMDL
MODEL 2
REMARK VINA RESULT: -6.986289053      1.403      2.164
REMARK  3 active torsions:
REMARK  status: ('A' for Active; 'I' for Inactive)
REMARK    1  A    between atoms: N1_1  and  N2_4 
REMARK    2  A    between atoms: N3_6  and  C1_8 
REMARK    3  A    between atoms: C3_13  and  N6_14 
REMARK       I    between atoms: N6_14  and  C4_16 
ROOT
HETATM    1  C1  UNL     1       3.005 -30.376 -20.039  1.00  0.00     0.160 A 
HETATM    2  C2  UNL     1       3.697 -30.470 -21.218  1.00  0.00     0.165 A 
HETATM    3  N4  UNL     1       4.903 -29.742 -21.407  1.00  0.00    -0.079 NA
HETATM    4  N5  UNL     1       3.235 -31.258 -22.207  1.00  0.00    -0.176 N 
ATOM      5  H5  UNL     1       3.760 -31.320 -23.080  1.00  0.00     0.185 HD
HETATM    6  C3  UNL     1       2.091 -31.972 -22.074  1.00  0.00     0.691 A 
HETATM    7  N7  UNL     1       1.424 -31.877 -20.929  1.00  0.00    -0.154 N 
ATOM      8  H7  UNL     1       0.562 -32.410 -20.817  1.00  0.00     0.187 HD
HETATM    9  C5  UNL     1       1.845 -31.105 -19.916  1.00  0.00     0.291 A 
HETATM   10  O3  UNL     1       1.153 -31.069 -18.859  1.00  0.00    -0.265 OA
ENDROOT
BRANCH   1  11
HETATM   11  N3  UNL     1       3.465 -29.558 -18.987  1.00  0.00    -0.279 N 
HETATM   12  N2  UNL     1       4.184 -29.922 -18.037  1.00  0.00    -0.249 N 
ATOM     13  H2  UNL     1       4.434 -29.208 -17.353  1.00  0.00     0.207 HD
ATOM     14  H3  UNL     1       3.183 -28.578 -19.005  1.00  0.00     0.189 HD
BRANCH  12  15
HETATM   15  N1  UNL     1       4.677 -31.192 -17.816  1.00  0.00    -0.331 N 
ATOM     16  H12 UNL     1       5.209 -31.597 -18.586  1.00  0.00     0.178 HD
ATOM     17  H11 UNL     1       4.562 -31.752 -16.971  1.00  0.00     0.178 HD
ENDBRANCH  12  15
ENDBRANCH   1  11
BRANCH   6  18
HETATM   18  N6  UNL     1       1.726 -32.701 -23.079  1.00  0.00    -0.133 N 
HETATM   19  C4  UNL     1       2.287 -32.581 -24.365  1.00  0.00     0.302 C 
HETATM   20  O1  UNL     1       1.582 -32.270 -25.371  1.00  0.00    -0.629 OA
HETATM   21  O2  UNL     1       3.648 -32.816 -24.506  1.00  0.00    -0.629 OA
ATOM     22  H6  UNL     1       0.995 -33.398 -22.932  1.00  0.00     0.190 HD
ENDBRANCH   6  18
TORSDOF 3
ENDMDL
MODEL 3
REMARK VINA RESULT: -6.950881135      1.900      2.454
REMARK  3 active torsions:
REMARK  status: ('A' for Active; 'I' for Inactive)
REMARK    1  A    between atoms: N1_1  and  N2_4 
REMARK    2  A    between atoms: N3_6  and  C1_8 
REMARK    3  A    between atoms: C3_13  and  N6_14 
REMARK       I    between atoms: N6_14  and  C4_16 
ROOT
HETATM    1  C1  UNL     1       2.937 -32.086 -19.443  1.00  0.00     0.160 A 
HETATM    2  C2  UNL     1       3.672 -32.659 -20.449  1.00  0.00     0.165 A 
HETATM    3  N4  UNL     1       4.985 -33.141 -20.199  1.00  0.00    -0.079 NA
HETATM    4  N5  UNL     1       3.148 -32.767 -21.684  1.00  0.00    -0.176 N 
ATOM      5  H5  UNL     1       3.704 -33.196 -22.424  1.00  0.00     0.185 HD
HETATM    6  C3  UNL     1       1.901 -32.322 -21.971  1.00  0.00     0.691 A 
HETATM    7  N7  UNL     1       1.194 -31.768 -20.993  1.00  0.00    -0.154 N 
ATOM      8  H7  UNL     1       0.253 -31.430 -21.197  1.00  0.00     0.187 HD
HETATM    9  C5  UNL     1       1.673 -31.638 -19.747  1.00  0.00     0.291 A 
HETATM   10  O3  UNL     1       0.937 -31.099 -18.873  1.00  0.00    -0.265 OA
ENDROOT
BRANCH   1  11
HETATM   11  N3  UNL     1       3.461 -31.959 -18.141  1.00  0.00    -0.279 N 
HETATM   12  N2  UNL     1       4.059 -30.966 -17.684  1.00  0.00    -0.249 N 
ATOM     13  H2  UNL     1       4.378 -31.029 -16.718  1.00  0.00     0.207 HD
ATOM     14  H3  UNL     1       3.338 -32.754 -17.513  1.00  0.00     0.189 HD
BRANCH  12  15
HETATM   15  N1  UNL     1       4.335 -29.791 -18.353  1.00  0.00    -0.331 N 
ATOM     16  H12 UNL     1       3.601 -29.460 -18.979  1.00  0.00     0.178 HD
ATOM     17  H11 UNL     1       5.187 -29.235 -18.281  1.00  0.00     0.178 HD
ENDBRANCH  12  15
ENDBRANCH   1  11
BRANCH   6  18
HETATM   18  N6  UNL     1       1.483 -32.470 -23.188  1.00  0.00    -0.133 N 
HETATM   19  C4  UNL     1       2.199 -33.180 -24.170  1.00  0.00     0.302 C 
HETATM   20  O1  UNL     1       2.603 -32.621 -25.233  1.00  0.00    -0.629 OA
HETATM   21  O2  UNL     1       2.455 -34.526 -23.943  1.00  0.00    -0.629 OA
ATOM     22  H6  UNL     1       0.591 -32.049 -23.448  1.00  0.00     0.190 HD
ENDBRANCH   6  18
TORSDOF 3
ENDMDL
MODEL 4
REMARK VINA RESULT: -6.934967359      1.593      1.785
REMARK  3 active torsions:
REMARK  status: ('A' for Active; 'I' for Inactive)
REMARK    1  A    between atoms: N1_1  and  N2_4 
REMARK    2  A    between atoms: N3_6  and  C1_8 
REMARK    3  A    between atoms: C3_13  and  N6_14 
REMARK       I    between atoms: N6_14  and  C4_16 
ROOT
HETATM    1  C1  UNL     1       3.063 -32.177 -19.567  1.00  0.00     0.160 A 
HETATM    2  C2  UNL     1       1.827 -31.693 -19.906  1.00  0.00     0.165 A 
HETATM    3  N4  UNL     1       1.024 -31.025 -18.942  1.00  0.00    -0.079 NA
HETATM    4  N5  UNL     1       1.366 -31.848 -21.162  1.00  0.00    -0.176 N 
ATOM      5  H5  UNL     1       0.444 -31.483 -21.401  1.00  0.00     0.185 HD
HETATM    6  C3  UNL     1       2.093 -32.477 -22.115  1.00  0.00     0.691 A 
HETATM    7  N7  UNL     1       3.291 -32.945 -21.781  1.00  0.00    -0.154 N 
ATOM      8  H7  UNL     1       3.849 -33.420 -22.491  1.00  0.00     0.187 HD
HETATM    9  C5  UNL     1       3.792 -32.814 -20.544  1.00  0.00     0.291 A 
HETATM   10  O3  UNL     1       4.940 -33.287 -20.307  1.00  0.00    -0.265 OA
ENDROOT
BRANCH   1  11
HETATM   11  N3  UNL     1       3.570 -32.029 -18.261  1.00  0.00    -0.279 N 
HETATM   12  N2  UNL     1       4.003 -30.974 -17.758  1.00  0.00    -0.249 N 
ATOM     13  H2  UNL     1       4.337 -31.029 -16.796  1.00  0.00     0.207 HD
ATOM     14  H3  UNL     1       3.585 -32.862 -17.672  1.00  0.00     0.189 HD
BRANCH  12  15
HETATM   15  N1  UNL     1       4.077 -29.739 -18.369  1.00  0.00    -0.331 N 
ATOM     16  H12 UNL     1       3.252 -29.149 -18.267  1.00  0.00     0.178 HD
ATOM     17  H11 UNL     1       4.863 -29.370 -18.904  1.00  0.00     0.178 HD
ENDBRANCH  12  15
ENDBRANCH   1  11
BRANCH   6  18
HETATM   18  N6  UNL     1       1.567 -32.579 -23.293  1.00  0.00    -0.133 N 
HETATM   19  C4  UNL     1       2.116 -33.373 -24.319  1.00  0.00     0.302 C 
HETATM   20  O1  UNL     1       2.499 -32.869 -25.417  1.00  0.00    -0.629 OA
HETATM   21  O2  UNL     1       2.230 -34.738 -24.095  1.00  0.00    -0.629 OA
ATOM     22  H6  UNL     1       0.712 -32.058 -23.489  1.00  0.00     0.190 HD
ENDBRANCH   6  18
TORSDOF 3
ENDMDL
MODEL 5
REMARK VINA RESULT: -6.782290737      1.665      2.317
REMARK  3 active torsions:
REMARK  status: ('A' for Active; 'I' for Inactive)
REMARK    1  A    between atoms: N1_1  and  N2_4 
REMARK    2  A    between atoms: N3_6  and  C1_8 
REMARK    3  A    between atoms: C3_13  and  N6_14 
REMARK       I    between atoms: N6_14  and  C4_16 
ROOT
HETATM    1  C1  UNL     1       2.329 -30.693 -20.034  1.00  0.00     0.160 A 
HETATM    2  C2  UNL     1       3.556 -30.767 -20.638  1.00  0.00     0.165 A 
HETATM    3  N4  UNL     1       4.668 -30.064 -20.102  1.00  0.00    -0.079 NA
HETATM    4  N5  UNL     1       3.714 -31.511 -21.750  1.00  0.00    -0.176 N 
ATOM      5  H5  UNL     1       4.632 -31.558 -22.190  1.00  0.00     0.185 HD
HETATM    6  C3  UNL     1       2.684 -32.199 -22.298  1.00  0.00     0.691 A 
HETATM    7  N7  UNL     1       1.496 -32.124 -21.708  1.00  0.00    -0.154 N 
ATOM      8  H7  UNL     1       0.713 -32.639 -22.111  1.00  0.00     0.187 HD
HETATM    9  C5  UNL     1       1.291 -31.396 -20.600  1.00  0.00     0.291 A 
HETATM   10  O3  UNL     1       0.131 -31.377 -20.099  1.00  0.00    -0.265 OA
ENDROOT
BRANCH   1  11
HETATM   11  N3  UNL     1       2.135 -29.922 -18.870  1.00  0.00    -0.279 N 
HETATM   12  N2  UNL     1       2.531 -30.211 -17.725  1.00  0.00    -0.249 N 
ATOM     13  H2  UNL     1       2.312 -29.546 -16.983  1.00  0.00     0.207 HD
ATOM     14  H3  UNL     1       1.623 -29.046 -18.975  1.00  0.00     0.189 HD
BRANCH  12  15
HETATM   15  N1  UNL     1       3.236 -31.339 -17.357  1.00  0.00    -0.331 N 
ATOM     16  H12 UNL     1       3.055 -32.172 -17.917  1.00  0.00     0.178 HD
ATOM     17  H11 UNL     1       3.908 -31.416 -16.593  1.00  0.00     0.178 HD
ENDBRANCH  12  15
ENDBRANCH   1  11
BRANCH   6  18
HETATM   18  N6  UNL     1       2.931 -32.887 -23.367  1.00  0.00    -0.133 N 
HETATM   19  C4  UNL     1       1.924 -33.401 -24.205  1.00  0.00     0.302 C 
HETATM   20  O1  UNL     1       1.799 -34.646 -24.408  1.00  0.00    -0.629 OA
HETATM   21  O2  UNL     1       1.059 -32.500 -24.812  1.00  0.00    -0.629 OA
ATOM     22  H6  UNL     1       3.905 -33.065 -23.614  1.00  0.00     0.190 HD
ENDBRANCH   6  18
TORSDOF 3
ENDMDL
