MODEL 1
REMARK VINA RESULT: -3.952828947      0.000      0.000
REMARK  2 active torsions:
REMARK  status: ('A' for Active; 'I' for Inactive)
REMARK    1  A    between atoms: C3_3  and  C4_4 
REMARK    2  A    between atoms: C4_4  and  N1_5 
ROOT
HETATM    1  C1  UNL     1     -95.810   8.918 -14.297  1.00  0.00     0.112 C 
HETATM    2  C2  UNL     1     -95.638   9.192 -15.730  1.00  0.00    -0.109 C 
HETATM    3  C3  UNL     1     -95.512   9.407 -16.910  1.00  0.00    -0.087 C 
ENDROOT
BRANCH   3   4
HETATM    4  C4  UNL     1     -95.361   9.647 -18.365  1.00  0.00     0.224 C 
BRANCH   4   5
HETATM    5  N1  UNL     1     -95.301   8.392 -19.076  1.00  0.00    -0.320 N 
HETATM    6  C5  UNL     1     -94.136   7.683 -19.041  1.00  0.00     0.096 A 
HETATM    7  C6  UNL     1     -93.989   6.494 -19.681  1.00  0.00     0.034 A 
HETATM    8  C7  UNL     1     -95.045   5.972 -20.394  1.00  0.00     0.092 A 
HETATM    9  N2  UNL     1     -96.180   6.677 -20.420  1.00  0.00    -0.340 N 
HETATM   10  C8  UNL     1     -96.312   7.867 -19.773  1.00  0.00     0.195 A 
ATOM     11  H2  UNL     1     -96.975   6.309 -20.942  1.00  0.00     0.167 HD
HETATM   12  N3  UNL     1     -97.538   8.580 -19.830  1.00  0.00    -0.063 NA
ENDBRANCH   4   5
ENDBRANCH   3   4
TORSDOF 2
ENDMDL
MODEL 2
REMARK VINA RESULT: -3.660308082      2.339      3.792
REMARK  2 active torsions:
REMARK  status: ('A' for Active; 'I' for Inactive)
REMARK    1  A    between atoms: C3_3  and  C4_4 
REMARK    2  A    between atoms: C4_4  and  N1_5 
ROOT
HETATM    1  C1  UNL     1     -93.696  11.843 -23.116  1.00  0.00     0.112 C 
HETATM    2  C2  UNL     1     -94.246  11.258 -21.886  1.00  0.00    -0.109 C 
HETATM    3  C3  UNL     1     -94.690  10.761 -20.881  1.00  0.00    -0.087 C 
ENDROOT
BRANCH   3   4
HETATM    4  C4  UNL     1     -95.244  10.131 -19.659  1.00  0.00     0.224 C 
BRANCH   4   5
HETATM    5  N1  UNL     1     -95.048   8.700 -19.700  1.00  0.00    -0.320 N 
HETATM    6  C5  UNL     1     -93.776   8.217 -19.600  1.00  0.00     0.096 A 
HETATM    7  C6  UNL     1     -93.499   6.888 -19.630  1.00  0.00     0.034 A 
HETATM    8  C7  UNL     1     -94.528   5.984 -19.767  1.00  0.00     0.092 A 
HETATM    9  N2  UNL     1     -95.768   6.470 -19.865  1.00  0.00    -0.340 N 
HETATM   10  C8  UNL     1     -96.031   7.805 -19.833  1.00  0.00     0.195 A 
ATOM     11  H2  UNL     1     -96.546   5.818 -19.968  1.00  0.00     0.167 HD
HETATM   12  N3  UNL     1     -97.365   8.275 -19.941  1.00  0.00    -0.063 NA
ENDBRANCH   4   5
ENDBRANCH   3   4
TORSDOF 2
ENDMDL
MODEL 3
REMARK VINA RESULT: -3.651591600      4.247      5.746
REMARK  2 active torsions:
REMARK  status: ('A' for Active; 'I' for Inactive)
REMARK    1  A    between atoms: C3_3  and  C4_4 
REMARK    2  A    between atoms: C4_4  and  N1_5 
ROOT
HETATM    1  C1  UNL     1     -95.043   5.878 -20.023  1.00  0.00     0.112 C 
HETATM    2  C2  UNL     1     -93.996   6.861 -19.716  1.00  0.00    -0.109 C 
HETATM    3  C3  UNL     1     -93.132   7.669 -19.481  1.00  0.00    -0.087 C 
ENDROOT
BRANCH   3   4
HETATM    4  C4  UNL     1     -92.054   8.649 -19.208  1.00  0.00     0.224 C 
BRANCH   4   5
HETATM    5  N1  UNL     1     -90.802   8.182 -19.755  1.00  0.00    -0.320 N 
HETATM    6  C5  UNL     1     -90.425   8.632 -20.986  1.00  0.00     0.096 A 
HETATM    7  C6  UNL     1     -89.265   8.245 -21.577  1.00  0.00     0.034 A 
HETATM    8  C7  UNL     1     -88.429   7.368 -20.922  1.00  0.00     0.092 A 
HETATM    9  N2  UNL     1     -88.811   6.936 -19.718  1.00  0.00    -0.340 N 
HETATM   10  C8  UNL     1     -89.976   7.332 -19.137  1.00  0.00     0.195 A 
ATOM     11  H2  UNL     1     -88.207   6.285 -19.214  1.00  0.00     0.167 HD
HETATM   12  N3  UNL     1     -90.340   6.845 -17.855  1.00  0.00    -0.063 NA
ENDBRANCH   4   5
ENDBRANCH   3   4
TORSDOF 2
ENDMDL
MODEL 4
REMARK VINA RESULT: -3.621490496      4.466      5.695
REMARK  2 active torsions:
REMARK  status: ('A' for Active; 'I' for Inactive)
REMARK    1  A    between atoms: C3_3  and  C4_4 
REMARK    2  A    between atoms: C4_4  and  N1_5 
ROOT
HETATM    1  C1  UNL     1     -94.554   5.837 -19.702  1.00  0.00     0.112 C 
HETATM    2  C2  UNL     1     -93.556   6.914 -19.699  1.00  0.00    -0.109 C 
HETATM    3  C3  UNL     1     -92.742   7.804 -19.712  1.00  0.00    -0.087 C 
ENDROOT
BRANCH   3   4
HETATM    4  C4  UNL     1     -91.737   8.893 -19.753  1.00  0.00     0.224 C 
BRANCH   4   5
HETATM    5  N1  UNL     1     -90.708   8.589 -20.719  1.00  0.00    -0.320 N 
HETATM    6  C5  UNL     1     -89.674   7.786 -20.332  1.00  0.00     0.096 A 
HETATM    7  C6  UNL     1     -88.663   7.449 -21.173  1.00  0.00     0.034 A 
HETATM    8  C7  UNL     1     -88.666   7.926 -22.465  1.00  0.00     0.092 A 
HETATM    9  N2  UNL     1     -89.684   8.711 -22.830  1.00  0.00    -0.340 N 
HETATM   10  C8  UNL     1     -90.691   9.040 -21.976  1.00  0.00     0.195 A 
ATOM     11  H2  UNL     1     -89.706   9.075 -23.782  1.00  0.00     0.167 HD
HETATM   12  N3  UNL     1     -91.751   9.878 -22.409  1.00  0.00    -0.063 NA
ENDBRANCH   4   5
ENDBRANCH   3   4
TORSDOF 2
ENDMDL
MODEL 5
REMARK VINA RESULT: -3.556489970      2.725      5.004
REMARK  2 active torsions:
REMARK  status: ('A' for Active; 'I' for Inactive)
REMARK    1  A    between atoms: C3_3  and  C4_4 
REMARK    2  A    between atoms: C4_4  and  N1_5 
ROOT
HETATM    1  C1  UNL     1     -94.616   6.242 -19.643  1.00  0.00     0.112 C 
HETATM    2  C2  UNL     1     -94.919   7.364 -18.745  1.00  0.00    -0.109 C 
HETATM    3  C3  UNL     1     -95.151   8.284 -18.001  1.00  0.00    -0.087 C 
ENDROOT
BRANCH   3   4
HETATM    4  C4  UNL     1     -95.423   9.404 -17.069  1.00  0.00     0.224 C 
BRANCH   4   5
HETATM    5  N1  UNL     1     -95.069   9.030 -15.720  1.00  0.00    -0.320 N 
HETATM    6  C5  UNL     1     -93.749   8.871 -15.416  1.00  0.00     0.096 A 
HETATM    7  C6  UNL     1     -93.326   8.519 -14.174  1.00  0.00     0.034 A 
HETATM    8  C7  UNL     1     -94.251   8.313 -13.175  1.00  0.00     0.092 A 
HETATM    9  N2  UNL     1     -95.540   8.471 -13.487  1.00  0.00    -0.340 N 
HETATM   10  C8  UNL     1     -95.949   8.824 -14.735  1.00  0.00     0.195 A 
ATOM     11  H2  UNL     1     -96.243   8.323 -12.762  1.00  0.00     0.167 HD
HETATM   12  N3  UNL     1     -97.331   8.981 -15.019  1.00  0.00    -0.063 NA
ENDBRANCH   4   5
ENDBRANCH   3   4
TORSDOF 2
ENDMDL
