MODEL 1
REMARK VINA RESULT: -4.224543862      0.000      0.000
REMARK  2 active torsions:
REMARK  status: ('A' for Active; 'I' for Inactive)
REMARK    1  A    between atoms: N1_1  and  C1_5 
REMARK    2  A    between atoms: C1_5  and  N2_6 
ROOT
HETATM    1  N2  UNL     1     -96.260   8.942 -19.939  1.00  0.00    -0.252 N 
HETATM    2  N3  UNL     1     -97.068   7.908 -20.062  1.00  0.00    -0.239 N 
ATOM      3  H3  UNL     1     -98.066   8.081 -20.185  1.00  0.00     0.208 HD
HETATM    4  N4  UNL     1     -96.640   6.655 -20.033  1.00  0.00    -0.296 N 
ATOM      5  H4  UNL     1     -97.311   5.894 -20.132  1.00  0.00     0.187 HD
HETATM    6  C2  UNL     1     -95.346   6.373 -19.876  1.00  0.00     0.122 A 
HETATM    7  C3  UNL     1     -94.449   7.409 -19.743  1.00  0.00     0.009 A 
HETATM    8  C4  UNL     1     -93.106   7.173 -19.583  1.00  0.00     0.015 A 
HETATM    9  C5  UNL     1     -92.250   8.241 -19.458  1.00  0.00     0.001 A 
HETATM   10  C6  UNL     1     -92.690   9.543 -19.488  1.00  0.00     0.002 A 
HETATM   11  C7  UNL     1     -94.044   9.762 -19.650  1.00  0.00     0.032 A 
HETATM   12  C8  UNL     1     -94.951   8.717 -19.780  1.00  0.00     0.065 A 
ENDROOT
BRANCH   1  13
HETATM   13  C1  UNL     1     -96.776  10.284 -19.965  1.00  0.00     0.379 C 
BRANCH  13  14
HETATM   14  N1  UNL     1     -98.233  10.239 -19.756  1.00  0.00    -0.062 N 
ATOM     15  H13 UNL     1     -98.673  11.148 -19.893  1.00  0.00     0.276 HD
ATOM     16  H12 UNL     1     -98.717   9.732 -20.497  1.00  0.00     0.276 HD
ATOM     17  H11 UNL     1     -98.421   9.849 -18.832  1.00  0.00     0.276 HD
ENDBRANCH  13  14
ENDBRANCH   1  13
TORSDOF 2
ENDMDL
MODEL 2
REMARK VINA RESULT: -4.116670132      1.486      2.864
REMARK  2 active torsions:
REMARK  status: ('A' for Active; 'I' for Inactive)
REMARK    1  A    between atoms: N1_1  and  C1_5 
REMARK    2  A    between atoms: C1_5  and  N2_6 
ROOT
HETATM    1  N2  UNL     1     -95.785   9.873 -19.761  1.00  0.00    -0.252 N 
HETATM    2  N3  UNL     1     -94.961  10.880 -19.549  1.00  0.00    -0.239 N 
ATOM      3  H3  UNL     1     -95.340  11.827 -19.539  1.00  0.00     0.208 HD
HETATM    4  N4  UNL     1     -93.663  10.713 -19.347  1.00  0.00    -0.296 N 
ATOM      5  H4  UNL     1     -93.071  11.529 -19.189  1.00  0.00     0.187 HD
HETATM    6  C2  UNL     1     -93.115   9.497 -19.347  1.00  0.00     0.122 A 
HETATM    7  C3  UNL     1     -93.923   8.403 -19.562  1.00  0.00     0.009 A 
HETATM    8  C4  UNL     1     -93.410   7.130 -19.569  1.00  0.00     0.015 A 
HETATM    9  C5  UNL     1     -94.258   6.069 -19.784  1.00  0.00     0.001 A 
HETATM   10  C6  UNL     1     -95.607   6.237 -19.993  1.00  0.00     0.002 A 
HETATM   11  C7  UNL     1     -96.105   7.525 -19.983  1.00  0.00     0.032 A 
HETATM   12  C8  UNL     1     -95.290   8.631 -19.771  1.00  0.00     0.065 A 
ENDROOT
BRANCH   1  13
HETATM   13  C1  UNL     1     -97.186  10.107 -19.986  1.00  0.00     0.379 C 
BRANCH  13  14
HETATM   14  N1  UNL     1     -97.341  10.961 -21.176  1.00  0.00    -0.062 N 
ATOM     15  H13 UNL     1     -98.006  10.576 -21.846  1.00  0.00     0.276 HD
ATOM     16  H12 UNL     1     -97.834  11.830 -20.969  1.00  0.00     0.276 HD
ATOM     17  H11 UNL     1     -96.422  11.123 -21.588  1.00  0.00     0.276 HD
ENDBRANCH  13  14
ENDBRANCH   1  13
TORSDOF 2
ENDMDL
MODEL 3
REMARK VINA RESULT: -4.049595302      1.632      2.744
REMARK  2 active torsions:
REMARK  status: ('A' for Active; 'I' for Inactive)
REMARK    1  A    between atoms: N1_1  and  C1_5 
REMARK    2  A    between atoms: C1_5  and  N2_6 
ROOT
HETATM    1  N2  UNL     1     -95.015  10.137 -19.826  1.00  0.00    -0.252 N 
HETATM    2  N3  UNL     1     -96.242  10.581 -20.013  1.00  0.00    -0.239 N 
ATOM      3  H3  UNL     1     -96.398  11.589 -20.037  1.00  0.00     0.208 HD
HETATM    4  N4  UNL     1     -97.280   9.774 -20.171  1.00  0.00    -0.296 N 
ATOM      5  H4  UNL     1     -98.208  10.173 -20.311  1.00  0.00     0.187 HD
HETATM    6  C2  UNL     1     -97.132   8.448 -20.149  1.00  0.00     0.122 A 
HETATM    7  C3  UNL     1     -95.875   7.921 -19.958  1.00  0.00     0.009 A 
HETATM    8  C4  UNL     1     -95.668   6.565 -19.932  1.00  0.00     0.015 A 
HETATM    9  C5  UNL     1     -94.393   6.086 -19.742  1.00  0.00     0.001 A 
HETATM   10  C6  UNL     1     -93.312   6.921 -19.578  1.00  0.00     0.002 A 
HETATM   11  C7  UNL     1     -93.539   8.282 -19.608  1.00  0.00     0.032 A 
HETATM   12  C8  UNL     1     -94.808   8.816 -19.796  1.00  0.00     0.065 A 
ENDROOT
BRANCH   1  13
HETATM   13  C1  UNL     1     -93.922  11.055 -19.647  1.00  0.00     0.379 C 
BRANCH  13  14
HETATM   14  N1  UNL     1     -93.666  11.745 -20.923  1.00  0.00    -0.062 N 
ATOM     15  H13 UNL     1     -94.498  12.205 -21.290  1.00  0.00     0.276 HD
ATOM     16  H12 UNL     1     -93.084  12.575 -20.806  1.00  0.00     0.276 HD
ATOM     17  H11 UNL     1     -93.265  11.079 -21.584  1.00  0.00     0.276 HD
ENDBRANCH  13  14
ENDBRANCH   1  13
TORSDOF 2
ENDMDL
MODEL 4
REMARK VINA RESULT: -4.008332676      2.382      3.713
REMARK  2 active torsions:
REMARK  status: ('A' for Active; 'I' for Inactive)
REMARK    1  A    between atoms: N1_1  and  C1_5 
REMARK    2  A    between atoms: C1_5  and  N2_6 
ROOT
HETATM    1  N2  UNL     1     -93.321   7.952 -19.142  1.00  0.00    -0.252 N 
HETATM    2  N3  UNL     1     -93.196   6.644 -19.236  1.00  0.00    -0.239 N 
ATOM      3  H3  UNL     1     -92.296   6.222 -19.005  1.00  0.00     0.208 HD
HETATM    4  N4  UNL     1     -94.188   5.854 -19.618  1.00  0.00    -0.296 N 
ATOM      5  H4  UNL     1     -94.034   4.847 -19.674  1.00  0.00     0.187 HD
HETATM    6  C2  UNL     1     -95.385   6.353 -19.931  1.00  0.00     0.122 A 
HETATM    7  C3  UNL     1     -95.581   7.714 -19.852  1.00  0.00     0.009 A 
HETATM    8  C4  UNL     1     -96.794   8.277 -20.159  1.00  0.00     0.015 A 
HETATM    9  C5  UNL     1     -96.942   9.640 -20.062  1.00  0.00     0.001 A 
HETATM   10  C6  UNL     1     -95.915  10.464 -19.665  1.00  0.00     0.002 A 
HETATM   11  C7  UNL     1     -94.702   9.880 -19.359  1.00  0.00     0.032 A 
HETATM   12  C8  UNL     1     -94.500   8.507 -19.443  1.00  0.00     0.065 A 
ENDROOT
BRANCH   1  13
HETATM   13  C1  UNL     1     -92.210   8.769 -18.733  1.00  0.00     0.379 C 
BRANCH  13  14
HETATM   14  N1  UNL     1     -91.585   8.163 -17.546  1.00  0.00    -0.062 N 
ATOM     15  H13 UNL     1     -92.044   7.297 -17.264  1.00  0.00     0.276 HD
ATOM     16  H12 UNL     1     -90.662   7.775 -17.747  1.00  0.00     0.276 HD
ATOM     17  H11 UNL     1     -91.561   8.854 -16.796  1.00  0.00     0.276 HD
ENDBRANCH  13  14
ENDBRANCH   1  13
TORSDOF 2
ENDMDL
MODEL 5
REMARK VINA RESULT: -3.875998717      2.337      4.666
REMARK  2 active torsions:
REMARK  status: ('A' for Active; 'I' for Inactive)
REMARK    1  A    between atoms: N1_1  and  C1_5 
REMARK    2  A    between atoms: C1_5  and  N2_6 
ROOT
HETATM    1  N2  UNL     1     -96.947   9.750 -20.428  1.00  0.00    -0.252 N 
HETATM    2  N3  UNL     1     -97.999   9.794 -19.636  1.00  0.00    -0.239 N 
ATOM      3  H3  UNL     1     -98.220   8.972 -19.072  1.00  0.00     0.208 HD
HETATM    4  N4  UNL     1     -98.780  10.859 -19.539  1.00  0.00    -0.296 N 
ATOM      5  H4  UNL     1     -99.583  10.837 -18.909  1.00  0.00     0.187 HD
HETATM    6  C2  UNL     1     -98.536  11.960 -20.252  1.00  0.00     0.122 A 
HETATM    7  C3  UNL     1     -97.451  11.978 -21.099  1.00  0.00     0.009 A 
HETATM    8  C4  UNL     1     -97.154  13.087 -21.851  1.00  0.00     0.015 A 
HETATM    9  C5  UNL     1     -96.057  13.058 -22.679  1.00  0.00     0.001 A 
HETATM   10  C6  UNL     1     -95.243  11.954 -22.782  1.00  0.00     0.002 A 
HETATM   11  C7  UNL     1     -95.557  10.849 -22.018  1.00  0.00     0.032 A 
HETATM   12  C8  UNL     1     -96.655  10.827 -21.165  1.00  0.00     0.065 A 
ENDROOT
BRANCH   1  13
HETATM   13  C1  UNL     1     -96.136   8.565 -20.507  1.00  0.00     0.379 C 
BRANCH  13  14
HETATM   14  N1  UNL     1     -96.949   7.404 -20.106  1.00  0.00    -0.062 N 
ATOM     15  H13 UNL     1     -96.512   6.862 -19.362  1.00  0.00     0.276 HD
ATOM     16  H12 UNL     1     -97.796   7.676 -19.606  1.00  0.00     0.276 HD
ATOM     17  H11 UNL     1     -97.149   6.840 -20.933  1.00  0.00     0.276 HD
ENDBRANCH  13  14
ENDBRANCH   1  13
TORSDOF 2
ENDMDL
