MODEL 1
REMARK VINA RESULT: -5.240673214      0.000      0.000
REMARK  1 active torsions:
REMARK  status: ('A' for Active; 'I' for Inactive)
REMARK    1  A    between atoms: C1_2  and  N1_3 
ROOT
HETATM    1  N1  UNL     1      20.165  25.117  28.610  1.00  0.00    -0.270 N 
HETATM    2  C2  UNL     1      20.488  26.386  28.022  1.00  0.00     0.166 C 
HETATM    3  C3  UNL     1      20.287  26.376  26.525  1.00  0.00     0.135 C 
HETATM    4  N2  UNL     1      18.933  26.574  26.118  1.00  0.00    -0.418 N 
ATOM      5  H2  UNL     1      18.381  25.832  25.686  1.00  0.00     0.153 HD
HETATM    6  C4  UNL     1      18.401  27.876  26.354  1.00  0.00     0.141 C 
HETATM    7  C5  UNL     1      17.210  27.806  27.278  1.00  0.00     0.251 C 
HETATM    8  N3  UNL     1      16.407  26.677  26.875  1.00  0.00    -0.072 N 
ATOM      9  H31 UNL     1      16.999  25.878  26.649  1.00  0.00     0.277 HD
ATOM     10  H32 UNL     1      15.987  26.845  25.960  1.00  0.00     0.277 HD
HETATM   11  C6  UNL     1      15.410  26.310  27.824  1.00  0.00     0.252 C 
HETATM   12  C7  UNL     1      15.733  25.064  28.616  1.00  0.00     0.150 C 
HETATM   13  N4  UNL     1      16.258  24.029  27.750  1.00  0.00    -0.358 N 
ATOM     14  H4  UNL     1      15.852  23.958  26.816  1.00  0.00     0.162 HD
HETATM   15  C8  UNL     1      17.274  23.111  28.075  1.00  0.00     0.234 C 
HETATM   16  O2  UNL     1      17.117  21.870  27.806  1.00  0.00    -0.272 OA
HETATM   17  C9  UNL     1      18.570  23.422  28.724  1.00  0.00     0.237 C 
HETATM   18  N5  UNL     1      18.842  24.799  28.929  1.00  0.00    -0.128 NA
ENDROOT
BRANCH   1  19
HETATM   19  C1  UNL     1      21.199  24.192  28.866  1.00  0.00     0.367 C 
HETATM   20  O1  UNL     1      22.266  24.163  28.210  1.00  0.00    -0.282 OA
ENDBRANCH   1  19
TORSDOF 1
ENDMDL
MODEL 2
REMARK VINA RESULT: -5.177656119      2.843      5.023
REMARK  1 active torsions:
REMARK  status: ('A' for Active; 'I' for Inactive)
REMARK    1  A    between atoms: C1_2  and  N1_3 
ROOT
HETATM    1  N1  UNL     1      15.576  24.970  29.605  1.00  0.00    -0.270 N 
HETATM    2  C2  UNL     1      16.485  23.877  29.803  1.00  0.00     0.166 C 
HETATM    3  C3  UNL     1      16.591  23.008  28.572  1.00  0.00     0.135 C 
HETATM    4  N2  UNL     1      17.478  23.517  27.575  1.00  0.00    -0.418 N 
ATOM      5  H2  UNL     1      17.142  23.867  26.677  1.00  0.00     0.153 HD
HETATM    6  C4  UNL     1      18.862  23.502  27.914  1.00  0.00     0.141 C 
HETATM    7  C5  UNL     1      19.428  24.902  27.904  1.00  0.00     0.251 C 
HETATM    8  N3  UNL     1      18.897  25.582  26.748  1.00  0.00    -0.072 N 
ATOM      9  H31 UNL     1      17.907  25.368  26.629  1.00  0.00     0.277 HD
ATOM     10  H32 UNL     1      19.266  25.171  25.890  1.00  0.00     0.277 HD
HETATM   11  C6  UNL     1      19.107  26.991  26.761  1.00  0.00     0.252 C 
HETATM   12  C7  UNL     1      17.876  27.802  27.088  1.00  0.00     0.150 C 
HETATM   13  N4  UNL     1      16.724  27.296  26.371  1.00  0.00    -0.358 N 
ATOM     14  H4  UNL     1      16.883  26.957  25.422  1.00  0.00     0.162 HD
HETATM   15  C8  UNL     1      15.406  27.227  26.860  1.00  0.00     0.234 C 
HETATM   16  O2  UNL     1      14.437  27.632  26.127  1.00  0.00    -0.272 OA
HETATM   17  C9  UNL     1      14.981  26.719  28.185  1.00  0.00     0.237 C 
HETATM   18  N5  UNL     1      16.004  26.145  28.983  1.00  0.00    -0.128 NA
ENDROOT
BRANCH   1  19
HETATM   19  C1  UNL     1      14.242  24.847  30.050  1.00  0.00     0.367 C 
HETATM   20  O1  UNL     1      13.556  23.815  29.870  1.00  0.00    -0.282 OA
ENDBRANCH   1  19
TORSDOF 1
ENDMDL
MODEL 3
REMARK VINA RESULT: -5.176305109      3.356      4.251
REMARK  1 active torsions:
REMARK  status: ('A' for Active; 'I' for Inactive)
REMARK    1  A    between atoms: C1_2  and  N1_3 
ROOT
HETATM    1  N1  UNL     1      18.454  26.920  28.149  1.00  0.00    -0.270 N 
HETATM    2  C2  UNL     1      19.071  27.146  29.425  1.00  0.00     0.166 C 
HETATM    3  C3  UNL     1      18.776  28.531  29.952  1.00  0.00     0.135 C 
HETATM    4  N2  UNL     1      17.503  28.654  30.587  1.00  0.00    -0.418 N 
ATOM      5  H2  UNL     1      16.743  29.199  30.180  1.00  0.00     0.153 HD
HETATM    6  C4  UNL     1      17.363  27.966  31.828  1.00  0.00     0.141 C 
HETATM    7  C5  UNL     1      16.262  26.937  31.746  1.00  0.00     0.251 C 
HETATM    8  N3  UNL     1      15.157  27.533  31.035  1.00  0.00    -0.072 N 
ATOM      9  H31 UNL     1      15.493  28.072  30.236  1.00  0.00     0.277 HD
ATOM     10  H32 UNL     1      14.739  28.283  31.585  1.00  0.00     0.277 HD
HETATM   11  C6  UNL     1      14.163  26.598  30.626  1.00  0.00     0.252 C 
HETATM   12  C7  UNL     1      14.186  26.268  29.152  1.00  0.00     0.150 C 
HETATM   13  N4  UNL     1      14.350  27.471  28.361  1.00  0.00    -0.358 N 
ATOM     14  H4  UNL     1      13.880  28.312  28.697  1.00  0.00     0.162 HD
HETATM   15  C8  UNL     1      15.097  27.588  27.174  1.00  0.00     0.234 C 
HETATM   16  O2  UNL     1      14.590  28.188  26.163  1.00  0.00    -0.272 OA
HETATM   17  C9  UNL     1      16.468  27.078  26.940  1.00  0.00     0.237 C 
HETATM   18  N5  UNL     1      17.119  26.516  28.069  1.00  0.00    -0.128 NA
ENDROOT
BRANCH   1  19
HETATM   19  C1  UNL     1      19.212  27.108  26.974  1.00  0.00     0.367 C 
HETATM   20  O1  UNL     1      20.462  27.047  26.952  1.00  0.00    -0.282 OA
ENDBRANCH   1  19
TORSDOF 1
ENDMDL
MODEL 4
REMARK VINA RESULT: -5.171993239      1.561      2.079
REMARK  1 active torsions:
REMARK  status: ('A' for Active; 'I' for Inactive)
REMARK    1  A    between atoms: C1_2  and  N1_3 
ROOT
HETATM    1  N1  UNL     1      19.088  26.954  27.705  1.00  0.00    -0.270 N 
HETATM    2  C2  UNL     1      18.568  28.138  27.084  1.00  0.00     0.166 C 
HETATM    3  C3  UNL     1      18.031  27.855  25.700  1.00  0.00     0.135 C 
HETATM    4  N2  UNL     1      16.710  27.313  25.687  1.00  0.00    -0.418 N 
ATOM      5  H2  UNL     1      16.521  26.351  25.405  1.00  0.00     0.153 HD
HETATM    6  C4  UNL     1      15.674  28.203  26.093  1.00  0.00     0.141 C 
HETATM    7  C5  UNL     1      14.956  27.667  27.308  1.00  0.00     0.251 C 
HETATM    8  N3  UNL     1      14.761  26.251  27.113  1.00  0.00    -0.072 N 
ATOM      9  H31 UNL     1      15.596  25.825  26.713  1.00  0.00     0.277 HD
ATOM     10  H32 UNL     1      14.100  26.081  26.354  1.00  0.00     0.277 HD
HETATM   11  C6  UNL     1      14.360  25.557  28.291  1.00  0.00     0.252 C 
HETATM   12  C7  UNL     1      15.453  24.733  28.932  1.00  0.00     0.150 C 
HETATM   13  N4  UNL     1      16.192  23.995  27.929  1.00  0.00    -0.358 N 
ATOM     14  H4  UNL     1      15.659  23.625  27.141  1.00  0.00     0.162 HD
HETATM   15  C8  UNL     1      17.576  23.741  27.937  1.00  0.00     0.234 C 
HETATM   16  O2  UNL     1      18.005  22.560  27.690  1.00  0.00    -0.272 OA
HETATM   17  C9  UNL     1      18.652  24.722  28.211  1.00  0.00     0.237 C 
HETATM   18  N5  UNL     1      18.235  26.068  28.368  1.00  0.00    -0.128 NA
ENDROOT
BRANCH   1  19
HETATM   19  C1  UNL     1      20.473  26.694  27.642  1.00  0.00     0.367 C 
HETATM   20  O1  UNL     1      21.116  26.679  26.568  1.00  0.00    -0.282 OA
ENDBRANCH   1  19
TORSDOF 1
ENDMDL
MODEL 5
REMARK VINA RESULT: -5.110649786      3.823      5.562
REMARK  1 active torsions:
REMARK  status: ('A' for Active; 'I' for Inactive)
REMARK    1  A    between atoms: C1_2  and  N1_3 
ROOT
HETATM    1  N1  UNL     1      14.768  25.532  29.287  1.00  0.00    -0.270 N 
HETATM    2  C2  UNL     1      15.115  25.658  27.900  1.00  0.00     0.166 C 
HETATM    3  C3  UNL     1      14.721  27.007  27.344  1.00  0.00     0.135 C 
HETATM    4  N2  UNL     1      15.651  28.051  27.634  1.00  0.00    -0.418 N 
ATOM      5  H2  UNL     1      15.428  28.816  28.272  1.00  0.00     0.153 HD
HETATM    6  C4  UNL     1      16.910  27.956  26.974  1.00  0.00     0.141 C 
HETATM    7  C5  UNL     1      18.032  27.850  27.978  1.00  0.00     0.251 C 
HETATM    8  N3  UNL     1      17.758  28.784  29.043  1.00  0.00    -0.072 N 
ATOM      9  H31 UNL     1      16.769  28.765  29.290  1.00  0.00     0.277 HD
ATOM     10  H32 UNL     1      17.832  29.744  28.705  1.00  0.00     0.277 HD
HETATM   11  C6  UNL     1      18.568  28.595  30.199  1.00  0.00     0.252 C 
HETATM   12  C7  UNL     1      17.854  27.945  31.361  1.00  0.00     0.150 C 
HETATM   13  N4  UNL     1      16.540  28.526  31.543  1.00  0.00    -0.358 N 
ATOM     14  H4  UNL     1      16.450  29.529  31.375  1.00  0.00     0.162 HD
HETATM   15  C8  UNL     1      15.374  27.838  31.929  1.00  0.00     0.234 C 
HETATM   16  O2  UNL     1      14.623  28.326  32.844  1.00  0.00    -0.272 OA
HETATM   17  C9  UNL     1      14.885  26.552  31.378  1.00  0.00     0.237 C 
HETATM   18  N5  UNL     1      15.615  26.034  30.278  1.00  0.00    -0.128 NA
ENDROOT
BRANCH   1  19
HETATM   19  C1  UNL     1      13.561  24.893  29.640  1.00  0.00     0.367 C 
HETATM   20  O1  UNL     1      13.481  23.663  29.863  1.00  0.00    -0.282 OA
ENDBRANCH   1  19
TORSDOF 1
ENDMDL
