MODEL 1
REMARK VINA RESULT: -5.641216118      0.000      0.000
REMARK  5 active torsions:
REMARK  status: ('A' for Active; 'I' for Inactive)
REMARK    1  A    between atoms: N1_1  and  N2_4 
REMARK       I    between atoms: N2_4  and  C1_6 
REMARK    2  A    between atoms: C1_6  and  C2_8 
REMARK    3  A    between atoms: N4_10  and  N5_12 
REMARK    4  A    between atoms: N5_12  and  C3_14 
REMARK    5  A    between atoms: C3_14  and  N6_16 
ROOT
HETATM    1  C2  UNL     1      15.871  26.803  27.116  1.00  0.00     0.200 C 
HETATM    2  N3  UNL     1      15.636  25.563  27.770  1.00  0.00    -0.075 NA
HETATM    3  N4  UNL     1      14.888  27.349  26.543  1.00  0.00    -0.281 N 
ATOM      4  H4  UNL     1      13.979  26.886  26.574  1.00  0.00     0.188 HD
ENDROOT
BRANCH   3   5
HETATM    5  N5  UNL     1      15.000  28.553  25.875  1.00  0.00    -0.274 N 
ATOM      6  H5  UNL     1      15.029  29.393  26.451  1.00  0.00     0.189 HD
BRANCH   5   7
HETATM    7  C3  UNL     1      15.079  28.737  24.504  1.00  0.00     0.195 C 
HETATM    8  S1  UNL     1      13.665  28.930  23.646  1.00  0.00    -0.039 SA
BRANCH   7   9
HETATM    9  N6  UNL     1      16.266  28.770  23.776  1.00  0.00    -0.293 N 
HETATM   10  C4  UNL     1      16.756  28.208  22.499  1.00  0.00     0.144 C 
HETATM   11  C5  UNL     1      17.452  29.576  22.403  1.00  0.00     0.123 C 
HETATM   12  C6  UNL     1      17.532  29.346  23.890  1.00  0.00     0.227 C 
HETATM   13  O2  UNL     1      18.347  29.568  24.790  1.00  0.00    -0.273 OA
ENDBRANCH   7   9
ENDBRANCH   5   7
ENDBRANCH   3   5
BRANCH   1  14
HETATM   14  C1  UNL     1      17.194  27.391  27.124  1.00  0.00     0.301 C 
HETATM   15  N2  UNL     1      18.271  26.802  26.387  1.00  0.00    -0.270 N 
ATOM     16  H2  UNL     1      18.103  25.953  25.847  1.00  0.00     0.189 HD
HETATM   17  O1  UNL     1      17.469  28.447  27.776  1.00  0.00    -0.263 OA
BRANCH  15  18
HETATM   18  N1  UNL     1      19.532  27.360  26.394  1.00  0.00    -0.342 N 
ATOM     19  H12 UNL     1      19.741  28.076  27.089  1.00  0.00     0.176 HD
ATOM     20  H11 UNL     1      20.243  27.068  25.723  1.00  0.00     0.176 HD
ENDBRANCH  15  18
ENDBRANCH   1  14
TORSDOF 5
ENDMDL
MODEL 2
REMARK VINA RESULT: -5.607287794      2.551      3.023
REMARK  5 active torsions:
REMARK  status: ('A' for Active; 'I' for Inactive)
REMARK    1  A    between atoms: N1_1  and  N2_4 
REMARK       I    between atoms: N2_4  and  C1_6 
REMARK    2  A    between atoms: C1_6  and  C2_8 
REMARK    3  A    between atoms: N4_10  and  N5_12 
REMARK    4  A    between atoms: N5_12  and  C3_14 
REMARK    5  A    between atoms: C3_14  and  N6_16 
ROOT
HETATM    1  C2  UNL     1      14.561  26.794  27.966  1.00  0.00     0.200 C 
HETATM    2  N3  UNL     1      13.179  26.482  28.082  1.00  0.00    -0.075 NA
HETATM    3  N4  UNL     1      14.860  27.955  27.574  1.00  0.00    -0.281 N 
ATOM      4  H4  UNL     1      14.110  28.613  27.362  1.00  0.00     0.188 HD
ENDROOT
BRANCH   3   5
HETATM    5  N5  UNL     1      16.170  28.367  27.423  1.00  0.00    -0.274 N 
ATOM      6  H5  UNL     1      16.670  28.620  28.275  1.00  0.00     0.189 HD
BRANCH   5   7
HETATM    7  C3  UNL     1      16.875  28.473  26.236  1.00  0.00     0.195 C 
HETATM    8  S1  UNL     1      18.356  27.720  26.122  1.00  0.00    -0.039 SA
BRANCH   7   9
HETATM    9  N6  UNL     1      16.438  29.173  25.114  1.00  0.00    -0.293 N 
HETATM   10  C4  UNL     1      17.059  29.997  24.055  1.00  0.00     0.144 C 
HETATM   11  C5  UNL     1      16.017  29.283  23.177  1.00  0.00     0.123 C 
HETATM   12  C6  UNL     1      15.231  29.418  24.455  1.00  0.00     0.227 C 
HETATM   13  O2  UNL     1      14.059  29.643  24.769  1.00  0.00    -0.273 OA
ENDBRANCH   7   9
ENDBRANCH   5   7
ENDBRANCH   3   5
BRANCH   1  14
HETATM   14  C1  UNL     1      15.561  25.799  28.293  1.00  0.00     0.301 C 
HETATM   15  N2  UNL     1      15.769  24.655  27.457  1.00  0.00    -0.270 N 
ATOM     16  H2  UNL     1      15.201  24.539  26.617  1.00  0.00     0.189 HD
HETATM   17  O1  UNL     1      16.300  25.885  29.324  1.00  0.00    -0.263 OA
BRANCH  15  18
HETATM   18  N1  UNL     1      16.721  23.706  27.766  1.00  0.00    -0.342 N 
ATOM     19  H12 UNL     1      17.239  23.272  27.002  1.00  0.00     0.176 HD
ATOM     20  H11 UNL     1      16.907  23.440  28.733  1.00  0.00     0.176 HD
ENDBRANCH  15  18
ENDBRANCH   1  14
TORSDOF 5
ENDMDL
MODEL 3
REMARK VINA RESULT: -5.490611801      2.272      4.651
REMARK  5 active torsions:
REMARK  status: ('A' for Active; 'I' for Inactive)
REMARK    1  A    between atoms: N1_1  and  N2_4 
REMARK       I    between atoms: N2_4  and  C1_6 
REMARK    2  A    between atoms: C1_6  and  C2_8 
REMARK    3  A    between atoms: N4_10  and  N5_12 
REMARK    4  A    between atoms: N5_12  and  C3_14 
REMARK    5  A    between atoms: C3_14  and  N6_16 
ROOT
HETATM    1  C2  UNL     1      14.602  28.711  24.190  1.00  0.00     0.200 C 
HETATM    2  N3  UNL     1      13.268  29.041  23.824  1.00  0.00    -0.075 NA
HETATM    3  N4  UNL     1      14.756  27.964  25.196  1.00  0.00    -0.281 N 
ATOM      4  H4  UNL     1      13.931  27.631  25.695  1.00  0.00     0.188 HD
ENDROOT
BRANCH   3   5
HETATM    5  N5  UNL     1      16.006  27.581  25.643  1.00  0.00    -0.274 N 
ATOM      6  H5  UNL     1      16.755  27.574  24.952  1.00  0.00     0.189 HD
BRANCH   5   7
HETATM    7  C3  UNL     1      16.347  27.204  26.931  1.00  0.00     0.195 C 
HETATM    8  S1  UNL     1      15.243  26.336  27.824  1.00  0.00    -0.039 SA
BRANCH   7   9
HETATM    9  N6  UNL     1      17.560  27.503  27.549  1.00  0.00    -0.293 N 
HETATM   10  C4  UNL     1      17.991  28.144  28.810  1.00  0.00     0.144 C 
HETATM   11  C5  UNL     1      19.064  27.043  28.760  1.00  0.00     0.123 C 
HETATM   12  C6  UNL     1      18.921  27.334  27.289  1.00  0.00     0.227 C 
HETATM   13  O2  UNL     1      19.668  27.394  26.308  1.00  0.00    -0.273 OA
ENDBRANCH   7   9
ENDBRANCH   5   7
ENDBRANCH   3   5
BRANCH   1  14
HETATM   14  C1  UNL     1      15.715  29.224  23.421  1.00  0.00     0.301 C 
HETATM   15  N2  UNL     1      15.918  28.830  22.059  1.00  0.00    -0.270 N 
ATOM     16  H2  UNL     1      15.267  28.176  21.625  1.00  0.00     0.189 HD
HETATM   17  O1  UNL     1      16.562  30.041  23.903  1.00  0.00    -0.263 OA
BRANCH  15  18
HETATM   18  N1  UNL     1      16.979  29.318  21.324  1.00  0.00    -0.342 N 
ATOM     19  H12 UNL     1      16.879  30.228  20.875  1.00  0.00     0.176 HD
ATOM     20  H11 UNL     1      17.844  28.786  21.228  1.00  0.00     0.176 HD
ENDBRANCH  15  18
ENDBRANCH   1  14
TORSDOF 5
ENDMDL
MODEL 4
REMARK VINA RESULT: -5.484561737      1.620      2.209
REMARK  5 active torsions:
REMARK  status: ('A' for Active; 'I' for Inactive)
REMARK    1  A    between atoms: N1_1  and  N2_4 
REMARK       I    between atoms: N2_4  and  C1_6 
REMARK    2  A    between atoms: C1_6  and  C2_8 
REMARK    3  A    between atoms: N4_10  and  N5_12 
REMARK    4  A    between atoms: N5_12  and  C3_14 
REMARK    5  A    between atoms: C3_14  and  N6_16 
ROOT
HETATM    1  C2  UNL     1      16.492  30.144  26.500  1.00  0.00     0.200 C 
HETATM    2  N3  UNL     1      17.197  31.232  27.082  1.00  0.00    -0.075 NA
HETATM    3  N4  UNL     1      15.446  30.417  25.847  1.00  0.00    -0.281 N 
ATOM      4  H4  UNL     1      15.156  31.392  25.765  1.00  0.00     0.188 HD
ENDROOT
BRANCH   3   5
HETATM    5  N5  UNL     1      14.681  29.440  25.241  1.00  0.00    -0.274 N 
ATOM      6  H5  UNL     1      14.035  28.928  25.841  1.00  0.00     0.189 HD
BRANCH   5   7
HETATM    7  C3  UNL     1      14.700  29.083  23.903  1.00  0.00     0.195 C 
HETATM    8  S1  UNL     1      13.249  28.917  23.104  1.00  0.00    -0.039 SA
BRANCH   7   9
HETATM    9  N6  UNL     1      15.856  28.845  23.162  1.00  0.00    -0.293 N 
HETATM   10  C4  UNL     1      16.381  27.752  22.317  1.00  0.00     0.144 C 
HETATM   11  C5  UNL     1      16.899  28.931  21.475  1.00  0.00     0.123 C 
HETATM   12  C6  UNL     1      17.043  29.513  22.857  1.00  0.00     0.227 C 
HETATM   13  O2  UNL     1      17.845  30.245  23.444  1.00  0.00    -0.273 OA
ENDBRANCH   7   9
ENDBRANCH   5   7
ENDBRANCH   3   5
BRANCH   1  14
HETATM   14  C1  UNL     1      16.978  28.791  26.663  1.00  0.00     0.301 C 
HETATM   15  N2  UNL     1      18.139  28.331  25.960  1.00  0.00    -0.270 N 
ATOM     16  H2  UNL     1      18.630  28.969  25.334  1.00  0.00     0.189 HD
HETATM   17  O1  UNL     1      16.412  27.947  27.427  1.00  0.00    -0.263 OA
BRANCH  15  18
HETATM   18  N1  UNL     1      18.604  27.042  26.114  1.00  0.00    -0.342 N 
ATOM     19  H12 UNL     1      19.587  26.854  25.914  1.00  0.00     0.176 HD
ATOM     20  H11 UNL     1      17.987  26.290  26.420  1.00  0.00     0.176 HD
ENDBRANCH  15  18
ENDBRANCH   1  14
TORSDOF 5
ENDMDL
MODEL 5
REMARK VINA RESULT: -5.471481712      3.538      4.716
REMARK  5 active torsions:
REMARK  status: ('A' for Active; 'I' for Inactive)
REMARK    1  A    between atoms: N1_1  and  N2_4 
REMARK       I    between atoms: N2_4  and  C1_6 
REMARK    2  A    between atoms: C1_6  and  C2_8 
REMARK    3  A    between atoms: N4_10  and  N5_12 
REMARK    4  A    between atoms: N5_12  and  C3_14 
REMARK    5  A    between atoms: C3_14  and  N6_16 
ROOT
HETATM    1  C2  UNL     1      13.385  25.280  28.785  1.00  0.00     0.200 C 
HETATM    2  N3  UNL     1      13.521  24.157  29.646  1.00  0.00    -0.075 NA
HETATM    3  N4  UNL     1      14.253  25.423  27.881  1.00  0.00    -0.281 N 
ATOM      4  H4  UNL     1      15.005  24.737  27.805  1.00  0.00     0.188 HD
ENDROOT
BRANCH   3   5
HETATM    5  N5  UNL     1      14.221  26.477  26.989  1.00  0.00    -0.274 N 
ATOM      6  H5  UNL     1      13.376  26.572  26.425  1.00  0.00     0.189 HD
BRANCH   5   7
HETATM    7  C3  UNL     1      15.215  27.418  26.780  1.00  0.00     0.195 C 
HETATM    8  S1  UNL     1      16.640  27.271  27.627  1.00  0.00    -0.039 SA
BRANCH   7   9
HETATM    9  N6  UNL     1      15.112  28.498  25.905  1.00  0.00    -0.293 N 
HETATM   10  C4  UNL     1      15.502  29.924  25.912  1.00  0.00     0.144 C 
HETATM   11  C5  UNL     1      15.821  29.631  24.436  1.00  0.00     0.123 C 
HETATM   12  C6  UNL     1      14.616  28.746  24.624  1.00  0.00     0.227 C 
HETATM   13  O2  UNL     1      13.640  28.402  23.950  1.00  0.00    -0.273 OA
ENDBRANCH   7   9
ENDBRANCH   5   7
ENDBRANCH   3   5
BRANCH   1  14
HETATM   14  C1  UNL     1      12.283  26.202  28.961  1.00  0.00     0.301 C 
HETATM   15  N2  UNL     1      12.352  27.264  29.919  1.00  0.00    -0.270 N 
ATOM     16  H2  UNL     1      13.193  27.372  30.488  1.00  0.00     0.189 HD
HETATM   17  O1  UNL     1      11.209  26.122  28.286  1.00  0.00    -0.263 OA
BRANCH  15  18
HETATM   18  N1  UNL     1      11.304  28.144  30.089  1.00  0.00    -0.342 N 
ATOM     19  H12 UNL     1      11.465  29.132  29.896  1.00  0.00     0.176 HD
ATOM     20  H11 UNL     1      10.388  27.820  30.400  1.00  0.00     0.176 HD
ENDBRANCH  15  18
ENDBRANCH   1  14
TORSDOF 5
ENDMDL
