MODEL 1
REMARK VINA RESULT: -6.029615238      0.000      0.000
REMARK  5 active torsions:
REMARK  status: ('A' for Active; 'I' for Inactive)
REMARK    1  A    between atoms: N1_1  and  N2_4 
REMARK    2  A    between atoms: C1_6  and  C2_7 
REMARK       I    between atoms: C2_7  and  N3_9 
REMARK    3  A    between atoms: N3_9  and  C3_11 
REMARK    4  A    between atoms: C4_16  and  S1_17 
REMARK    5  A    between atoms: S1_17  and  N6_18 
ROOT
HETATM    1  C3  UNL     1      18.155  27.158  27.116  1.00  0.00     0.702 A 
HETATM    2  N4  UNL     1      17.067  26.378  27.260  1.00  0.00    -0.130 N 
ATOM      3  H4  UNL     1      17.019  25.527  27.819  1.00  0.00     0.205 HD
HETATM    4  N5  UNL     1      16.065  26.895  26.554  1.00  0.00    -0.260 N 
ATOM      5  H5  UNL     1      15.127  26.502  26.488  1.00  0.00     0.190 HD
HETATM    6  C4  UNL     1      16.481  28.018  25.940  1.00  0.00     0.253 A 
HETATM    7  N7  UNL     1      17.770  28.157  26.302  1.00  0.00    -0.162 N 
ATOM      8  H7  UNL     1      18.375  28.920  25.998  1.00  0.00     0.186 HD
ENDROOT
BRANCH   1   9
HETATM    9  N3  UNL     1      19.307  26.941  27.671  1.00  0.00    -0.153 N 
HETATM   10  C2  UNL     1      20.157  25.885  27.339  1.00  0.00     0.276 C 
HETATM   11  O1  UNL     1      19.672  24.739  27.181  1.00  0.00    -0.266 OA
ATOM     12  H3  UNL     1      19.612  27.586  28.399  1.00  0.00     0.187 HD
BRANCH  10  13
HETATM   13  C1  UNL     1      21.590  26.044  27.165  1.00  0.00     0.181 C 
HETATM   14  N2  UNL     1      22.033  26.607  26.102  1.00  0.00    -0.313 N 
ATOM     15  H2  UNL     1      21.366  26.930  25.400  1.00  0.00     0.185 HD
BRANCH  14  16
HETATM   16  N1  UNL     1      23.401  26.792  25.871  1.00  0.00    -0.345 N 
ATOM     17  H12 UNL     1      24.001  25.967  25.867  1.00  0.00     0.176 HD
ATOM     18  H11 UNL     1      23.805  27.715  25.708  1.00  0.00     0.176 HD
ENDBRANCH  14  16
ENDBRANCH  10  13
ENDBRANCH   1   9
BRANCH   6  19
HETATM   19  S1  UNL     1      15.540  29.079  24.886  1.00  0.00     0.290 S 
HETATM   20  O2  UNL     1      16.412  30.082  24.215  1.00  0.00    -0.198 OA
HETATM   21  O3  UNL     1      14.455  29.745  25.647  1.00  0.00    -0.198 OA
BRANCH  19  22
HETATM   22  N6  UNL     1      14.787  28.081  23.677  1.00  0.00    -0.322 N 
ATOM     23  H62 UNL     1      14.537  27.098  23.791  1.00  0.00     0.169 HD
ATOM     24  H61 UNL     1      14.646  28.658  22.847  1.00  0.00     0.169 HD
ENDBRANCH  19  22
ENDBRANCH   6  19
TORSDOF 5
ENDMDL
MODEL 2
REMARK VINA RESULT: -6.007772040      2.811      6.466
REMARK  5 active torsions:
REMARK  status: ('A' for Active; 'I' for Inactive)
REMARK    1  A    between atoms: N1_1  and  N2_4 
REMARK    2  A    between atoms: C1_6  and  C2_7 
REMARK       I    between atoms: C2_7  and  N3_9 
REMARK    3  A    between atoms: N3_9  and  C3_11 
REMARK    4  A    between atoms: C4_16  and  S1_17 
REMARK    5  A    between atoms: S1_17  and  N6_18 
ROOT
HETATM    1  C3  UNL     1      16.325  27.900  26.319  1.00  0.00     0.702 A 
HETATM    2  N4  UNL     1      16.363  28.786  27.333  1.00  0.00    -0.130 N 
ATOM      3  H4  UNL     1      15.673  29.516  27.508  1.00  0.00     0.205 HD
HETATM    4  N5  UNL     1      17.446  28.555  28.071  1.00  0.00    -0.260 N 
ATOM      5  H5  UNL     1      17.717  29.082  28.901  1.00  0.00     0.190 HD
HETATM    6  C4  UNL     1      18.131  27.520  27.552  1.00  0.00     0.253 A 
HETATM    7  N7  UNL     1      17.421  27.136  26.475  1.00  0.00    -0.162 N 
ATOM      8  H7  UNL     1      17.679  26.365  25.859  1.00  0.00     0.186 HD
ENDROOT
BRANCH   1   9
HETATM    9  N3  UNL     1      15.401  27.846  25.412  1.00  0.00    -0.153 N 
HETATM   10  C2  UNL     1      14.778  28.961  24.850  1.00  0.00     0.276 C 
HETATM   11  O1  UNL     1      14.415  29.898  25.602  1.00  0.00    -0.266 OA
ATOM     12  H3  UNL     1      15.110  26.924  25.086  1.00  0.00     0.187 HD
BRANCH  10  13
HETATM   13  C1  UNL     1      14.524  29.097  23.427  1.00  0.00     0.181 C 
HETATM   14  N2  UNL     1      13.329  28.949  22.987  1.00  0.00    -0.313 N 
ATOM     15  H2  UNL     1      12.582  28.739  23.650  1.00  0.00     0.185 HD
BRANCH  14  16
HETATM   16  N1  UNL     1      13.015  29.067  21.628  1.00  0.00    -0.345 N 
ATOM     17  H12 UNL     1      13.051  28.224  21.055  1.00  0.00     0.176 HD
ATOM     18  H11 UNL     1      12.755  29.959  21.206  1.00  0.00     0.176 HD
ENDBRANCH  14  16
ENDBRANCH  10  13
ENDBRANCH   1   9
BRANCH   6  19
HETATM   19  S1  UNL     1      19.637  26.818  28.153  1.00  0.00     0.290 S 
HETATM   20  O2  UNL     1      20.743  26.996  27.171  1.00  0.00    -0.198 OA
HETATM   21  O3  UNL     1      19.451  25.384  28.485  1.00  0.00    -0.198 OA
BRANCH  19  22
HETATM   22  N6  UNL     1      20.048  27.643  29.628  1.00  0.00    -0.322 N 
ATOM     23  H62 UNL     1      20.848  27.429  30.223  1.00  0.00     0.169 HD
ATOM     24  H61 UNL     1      19.346  28.368  29.779  1.00  0.00     0.169 HD
ENDBRANCH  19  22
ENDBRANCH   6  19
TORSDOF 5
ENDMDL
MODEL 3
REMARK VINA RESULT: -6.000179648      2.774      6.440
REMARK  5 active torsions:
REMARK  status: ('A' for Active; 'I' for Inactive)
REMARK    1  A    between atoms: N1_1  and  N2_4 
REMARK    2  A    between atoms: C1_6  and  C2_7 
REMARK       I    between atoms: C2_7  and  N3_9 
REMARK    3  A    between atoms: N3_9  and  C3_11 
REMARK    4  A    between atoms: C4_16  and  S1_17 
REMARK    5  A    between atoms: S1_17  and  N6_18 
ROOT
HETATM    1  C3  UNL     1      16.341  27.873  26.295  1.00  0.00     0.702 A 
HETATM    2  N4  UNL     1      16.362  28.712  27.348  1.00  0.00    -0.130 N 
ATOM      3  H4  UNL     1      15.649  29.408  27.564  1.00  0.00     0.205 HD
HETATM    4  N5  UNL     1      17.462  28.486  28.061  1.00  0.00    -0.260 N 
ATOM      5  H5  UNL     1      17.725  28.984  28.912  1.00  0.00     0.190 HD
HETATM    6  C4  UNL     1      18.175  27.500  27.488  1.00  0.00     0.253 A 
HETATM    7  N7  UNL     1      17.464  27.140  26.403  1.00  0.00    -0.162 N 
ATOM      8  H7  UNL     1      17.740  26.408  25.749  1.00  0.00     0.186 HD
ENDROOT
BRANCH   1   9
HETATM    9  N3  UNL     1      15.407  27.827  25.397  1.00  0.00    -0.153 N 
HETATM   10  C2  UNL     1      14.786  28.948  24.845  1.00  0.00     0.276 C 
HETATM   11  O1  UNL     1      14.438  29.886  25.602  1.00  0.00    -0.266 OA
ATOM     12  H3  UNL     1      15.106  26.908  25.072  1.00  0.00     0.187 HD
BRANCH  10  13
HETATM   13  C1  UNL     1      14.518  29.089  23.425  1.00  0.00     0.181 C 
HETATM   14  N2  UNL     1      13.320  28.936  22.995  1.00  0.00    -0.313 N 
ATOM     15  H2  UNL     1      12.581  28.716  23.663  1.00  0.00     0.185 HD
BRANCH  14  16
HETATM   16  N1  UNL     1      12.993  29.058  21.639  1.00  0.00    -0.345 N 
ATOM     17  H12 UNL     1      13.420  28.403  20.984  1.00  0.00     0.176 HD
ATOM     18  H11 UNL     1      12.350  29.772  21.298  1.00  0.00     0.176 HD
ENDBRANCH  14  16
ENDBRANCH  10  13
ENDBRANCH   1   9
BRANCH   6  19
HETATM   19  S1  UNL     1      19.712  26.824  28.038  1.00  0.00     0.290 S 
HETATM   20  O2  UNL     1      20.185  27.502  29.277  1.00  0.00    -0.198 OA
HETATM   21  O3  UNL     1      20.734  26.907  26.966  1.00  0.00    -0.198 OA
BRANCH  19  22
HETATM   22  N6  UNL     1      19.451  25.138  28.376  1.00  0.00    -0.322 N 
ATOM     23  H62 UNL     1      19.899  24.608  29.124  1.00  0.00     0.169 HD
ATOM     24  H61 UNL     1      18.777  24.789  27.694  1.00  0.00     0.169 HD
ENDBRANCH  19  22
ENDBRANCH   6  19
TORSDOF 5
ENDMDL
MODEL 4
REMARK VINA RESULT: -5.997918632      2.451      6.457
REMARK  5 active torsions:
REMARK  status: ('A' for Active; 'I' for Inactive)
REMARK    1  A    between atoms: N1_1  and  N2_4 
REMARK    2  A    between atoms: C1_6  and  C2_7 
REMARK       I    between atoms: C2_7  and  N3_9 
REMARK    3  A    between atoms: N3_9  and  C3_11 
REMARK    4  A    between atoms: C4_16  and  S1_17 
REMARK    5  A    between atoms: S1_17  and  N6_18 
ROOT
HETATM    1  C3  UNL     1      16.336  27.952  26.343  1.00  0.00     0.702 A 
HETATM    2  N4  UNL     1      16.419  28.895  27.301  1.00  0.00    -0.130 N 
ATOM      3  H4  UNL     1      15.761  29.663  27.434  1.00  0.00     0.205 HD
HETATM    4  N5  UNL     1      17.498  28.665  28.045  1.00  0.00    -0.260 N 
ATOM      5  H5  UNL     1      17.797  29.230  28.840  1.00  0.00     0.190 HD
HETATM    6  C4  UNL     1      18.134  27.573  27.587  1.00  0.00     0.253 A 
HETATM    7  N7  UNL     1      17.400  27.153  26.540  1.00  0.00    -0.162 N 
ATOM      8  H7  UNL     1      17.621  26.336  25.970  1.00  0.00     0.186 HD
ENDROOT
BRANCH   1   9
HETATM    9  N3  UNL     1      15.403  27.881  25.446  1.00  0.00    -0.153 N 
HETATM   10  C2  UNL     1      14.790  28.986  24.854  1.00  0.00     0.276 C 
HETATM   11  O1  UNL     1      14.448  29.953  25.577  1.00  0.00    -0.266 OA
ATOM     12  H3  UNL     1      15.095  26.954  25.154  1.00  0.00     0.187 HD
BRANCH  10  13
HETATM   13  C1  UNL     1      14.525  29.078  23.429  1.00  0.00     0.181 C 
HETATM   14  N2  UNL     1      13.318  28.975  23.009  1.00  0.00    -0.313 N 
ATOM     15  H2  UNL     1      12.570  28.829  23.687  1.00  0.00     0.185 HD
BRANCH  14  16
HETATM   16  N1  UNL     1      12.993  29.055  21.649  1.00  0.00    -0.345 N 
ATOM     17  H12 UNL     1      13.572  28.535  20.988  1.00  0.00     0.176 HD
ATOM     18  H11 UNL     1      12.207  29.609  21.310  1.00  0.00     0.176 HD
ENDBRANCH  14  16
ENDBRANCH  10  13
ENDBRANCH   1   9
BRANCH   6  19
HETATM   19  S1  UNL     1      19.615  26.846  28.221  1.00  0.00     0.290 S 
HETATM   20  O2  UNL     1      19.389  25.429  28.624  1.00  0.00    -0.198 OA
HETATM   21  O3  UNL     1      20.146  27.641  29.354  1.00  0.00    -0.198 OA
BRANCH  19  22
HETATM   22  N6  UNL     1      20.805  26.892  26.953  1.00  0.00    -0.322 N 
ATOM     23  H62 UNL     1      20.722  27.416  26.082  1.00  0.00     0.169 HD
ATOM     24  H61 UNL     1      21.587  26.305  27.244  1.00  0.00     0.169 HD
ENDBRANCH  19  22
ENDBRANCH   6  19
TORSDOF 5
ENDMDL
MODEL 5
REMARK VINA RESULT: -5.962384280      4.464      5.654
REMARK  5 active torsions:
REMARK  status: ('A' for Active; 'I' for Inactive)
REMARK    1  A    between atoms: N1_1  and  N2_4 
REMARK    2  A    between atoms: C1_6  and  C2_7 
REMARK       I    between atoms: C2_7  and  N3_9 
REMARK    3  A    between atoms: N3_9  and  C3_11 
REMARK    4  A    between atoms: C4_16  and  S1_17 
REMARK    5  A    between atoms: S1_17  and  N6_18 
ROOT
HETATM    1  C3  UNL     1      15.270  28.760  25.400  1.00  0.00     0.702 A 
HETATM    2  N4  UNL     1      15.471  29.429  26.551  1.00  0.00    -0.130 N 
ATOM      3  H4  UNL     1      15.734  30.412  26.626  1.00  0.00     0.205 HD
HETATM    4  N5  UNL     1      15.272  28.603  27.575  1.00  0.00    -0.260 N 
ATOM      5  H5  UNL     1      15.359  28.853  28.559  1.00  0.00     0.190 HD
HETATM    6  C4  UNL     1      14.940  27.385  27.110  1.00  0.00     0.253 A 
HETATM    7  N7  UNL     1      14.946  27.508  25.770  1.00  0.00    -0.162 N 
ATOM      8  H7  UNL     1      14.733  26.751  25.120  1.00  0.00     0.186 HD
ENDROOT
BRANCH   1   9
HETATM    9  N3  UNL     1      15.382  29.269  24.213  1.00  0.00    -0.153 N 
HETATM   10  C2  UNL     1      16.569  29.769  23.675  1.00  0.00     0.276 C 
HETATM   11  O1  UNL     1      17.303  30.493  24.390  1.00  0.00    -0.266 OA
ATOM     12  H3  UNL     1      14.544  29.306  23.632  1.00  0.00     0.187 HD
BRANCH  10  13
HETATM   13  C1  UNL     1      17.004  29.492  22.319  1.00  0.00     0.181 C 
HETATM   14  N2  UNL     1      16.277  28.752  21.566  1.00  0.00    -0.313 N 
ATOM     15  H2  UNL     1      15.406  28.373  21.939  1.00  0.00     0.185 HD
BRANCH  14  16
HETATM   16  N1  UNL     1      16.637  28.445  20.248  1.00  0.00    -0.345 N 
ATOM     17  H12 UNL     1      16.746  27.462  19.999  1.00  0.00     0.176 HD
ATOM     18  H11 UNL     1      16.790  29.168  19.545  1.00  0.00     0.176 HD
ENDBRANCH  14  16
ENDBRANCH  10  13
ENDBRANCH   1   9
BRANCH   6  19
HETATM   19  S1  UNL     1      14.576  25.936  28.055  1.00  0.00     0.290 S 
HETATM   20  O2  UNL     1      13.177  25.480  27.823  1.00  0.00    -0.198 OA
HETATM   21  O3  UNL     1      14.822  26.175  29.498  1.00  0.00    -0.198 OA
BRANCH  19  22
HETATM   22  N6  UNL     1      15.673  24.688  27.542  1.00  0.00    -0.322 N 
ATOM     23  H62 UNL     1      16.686  24.702  27.664  1.00  0.00     0.169 HD
ATOM     24  H61 UNL     1      15.118  23.953  27.103  1.00  0.00     0.169 HD
ENDBRANCH  19  22
ENDBRANCH   6  19
TORSDOF 5
ENDMDL
