MODEL 1
REMARK VINA RESULT: -8.054162954      0.000      0.000
REMARK  7 active torsions:
REMARK  status: ('A' for Active; 'I' for Inactive)
REMARK    1  A    between atoms: C2_3  and  N2_4 
REMARK    2  A    between atoms: C2_3  and  C10_24 
REMARK    3  A    between atoms: N2_4  and  C3_6 
REMARK    4  A    between atoms: C6_15  and  C7_16 
REMARK    5  A    between atoms: C7_16  and  C8_17 
REMARK    6  A    between atoms: C8_17  and  N6_18 
REMARK    7  A    between atoms: C13_30  and  N8_31 
ROOT
HETATM    1  N1  UNL     1      13.898  26.910  27.893  1.00  0.00    -0.195 NA
HETATM    2  C1  UNL     1      14.887  27.088  27.333  1.00  0.00     0.091 C 
HETATM    3  C2  UNL     1      16.144  27.337  26.621  1.00  0.00     0.242 C 
ENDROOT
BRANCH   3   4
HETATM    4  N2  UNL     1      16.993  28.239  27.288  1.00  0.00    -0.353 N 
ATOM      5  H2  UNL     1      17.114  29.131  26.809  1.00  0.00     0.162 HD
BRANCH   4   6
HETATM    6  C3  UNL     1      17.629  28.141  28.365  1.00  0.00     0.124 A 
HETATM    7  N3  UNL     1      17.303  28.698  29.546  1.00  0.00    -0.338 N 
HETATM    8  C4  UNL     1      18.142  28.451  30.567  1.00  0.00     0.183 A 
ATOM      9  H3  UNL     1      16.468  29.273  29.661  1.00  0.00     0.168 HD
HETATM   10  N4  UNL     1      19.239  27.726  30.522  1.00  0.00    -0.337 N 
HETATM   11  C5  UNL     1      19.628  27.130  29.344  1.00  0.00     0.128 A 
ATOM     12  H4  UNL     1      19.805  27.606  31.363  1.00  0.00     0.168 HD
HETATM   13  N5  UNL     1      20.688  26.384  29.143  1.00  0.00    -0.339 N 
HETATM   14  C9  UNL     1      18.803  27.357  28.285  1.00  0.00     0.094 A 
HETATM   15  C6  UNL     1      20.924  25.885  27.951  1.00  0.00     0.054 A 
ATOM     16  H5  UNL     1      21.329  26.192  29.913  1.00  0.00     0.168 HD
HETATM   17  S1  UNL     1      19.606  26.474  27.039  1.00  0.00    -0.069 SA
BRANCH  15  18
HETATM   18  C7  UNL     1      22.048  25.020  27.482  1.00  0.00     0.092 C 
BRANCH  18  19
HETATM   19  C8  UNL     1      23.278  25.913  27.336  1.00  0.00     0.236 C 
BRANCH  19  20
HETATM   20  N6  UNL     1      23.208  26.558  26.060  1.00  0.00    -0.079 N 
ATOM     21  H63 UNL     1      23.228  25.898  25.283  1.00  0.00     0.274 HD
ATOM     22  H62 UNL     1      22.292  26.963  25.872  1.00  0.00     0.274 HD
ATOM     23  H61 UNL     1      23.961  27.245  26.011  1.00  0.00     0.274 HD
ENDBRANCH  19  20
ENDBRANCH  18  19
ENDBRANCH  15  18
ENDBRANCH   4   6
ENDBRANCH   3   4
BRANCH   3  24
HETATM   24  C10 UNL     1      15.846  27.841  25.247  1.00  0.00     0.068 A 
HETATM   25  C11 UNL     1      16.808  28.189  24.349  1.00  0.00     0.103 A 
HETATM   26  C12 UNL     1      16.455  28.647  23.097  1.00  0.00     0.261 A 
HETATM   27  O1  UNL     1      17.353  28.973  22.260  1.00  0.00    -0.268 OA
HETATM   28  N7  UNL     1      15.168  28.756  22.742  1.00  0.00    -0.156 N 
HETATM   29  C13 UNL     1      14.228  28.415  23.617  1.00  0.00     0.679 A 
ATOM     30  H7  UNL     1      14.914  29.095  21.815  1.00  0.00     0.187 HD
HETATM   31  N9  UNL     1      14.555  27.968  24.840  1.00  0.00    -0.193 N 
ATOM     32  H9  UNL     1      13.808  27.714  25.487  1.00  0.00     0.184 HD
BRANCH  29  33
HETATM   33  N8  UNL     1      12.987  28.513  23.291  1.00  0.00    -0.234 N 
ATOM     34  H82 UNL     1      12.575  27.818  22.670  1.00  0.00     0.174 HD
ATOM     35  H81 UNL     1      12.427  29.285  23.656  1.00  0.00     0.174 HD
ENDBRANCH  29  33
ENDBRANCH   3  24
TORSDOF 7
ENDMDL
MODEL 2
REMARK VINA RESULT: -7.794160804      1.889      2.367
REMARK  7 active torsions:
REMARK  status: ('A' for Active; 'I' for Inactive)
REMARK    1  A    between atoms: C2_3  and  N2_4 
REMARK    2  A    between atoms: C2_3  and  C10_24 
REMARK    3  A    between atoms: N2_4  and  C3_6 
REMARK    4  A    between atoms: C6_15  and  C7_16 
REMARK    5  A    between atoms: C7_16  and  C8_17 
REMARK    6  A    between atoms: C8_17  and  N6_18 
REMARK    7  A    between atoms: C13_30  and  N8_31 
ROOT
HETATM    1  N1  UNL     1      16.985  31.191  27.085  1.00  0.00    -0.195 NA
HETATM    2  C1  UNL     1      16.691  30.119  26.787  1.00  0.00     0.091 C 
HETATM    3  C2  UNL     1      16.336  28.751  26.395  1.00  0.00     0.242 C 
ENDROOT
BRANCH   3   4
HETATM    4  N2  UNL     1      17.370  27.823  26.610  1.00  0.00    -0.353 N 
ATOM      5  H2  UNL     1      18.302  28.180  26.402  1.00  0.00     0.162 HD
BRANCH   4   6
HETATM    6  C3  UNL     1      17.351  26.635  27.012  1.00  0.00     0.124 A 
HETATM    7  N3  UNL     1      16.261  25.882  27.249  1.00  0.00    -0.338 N 
HETATM    8  C4  UNL     1      16.490  24.628  27.677  1.00  0.00     0.183 A 
ATOM      9  H3  UNL     1      15.316  26.241  27.113  1.00  0.00     0.168 HD
HETATM   10  N4  UNL     1      17.666  24.073  27.883  1.00  0.00    -0.337 N 
HETATM   11  C5  UNL     1      18.819  24.790  27.659  1.00  0.00     0.128 A 
ATOM     12  H4  UNL     1      17.722  23.108  28.212  1.00  0.00     0.168 HD
HETATM   13  N5  UNL     1      20.054  24.378  27.819  1.00  0.00    -0.339 N 
HETATM   14  C9  UNL     1      18.628  26.066  27.225  1.00  0.00     0.094 A 
HETATM   15  C6  UNL     1      21.055  25.188  27.562  1.00  0.00     0.054 A 
ATOM     16  H5  UNL     1      20.237  23.427  28.142  1.00  0.00     0.168 HD
HETATM   17  S1  UNL     1      20.257  26.613  27.067  1.00  0.00    -0.069 SA
BRANCH  15  18
HETATM   18  C7  UNL     1      22.527  24.952  27.665  1.00  0.00     0.092 C 
BRANCH  18  19
HETATM   19  C8  UNL     1      23.192  26.312  27.870  1.00  0.00     0.236 C 
BRANCH  19  20
HETATM   20  N6  UNL     1      23.772  26.714  26.624  1.00  0.00    -0.079 N 
ATOM     21  H63 UNL     1      24.630  26.207  26.407  1.00  0.00     0.274 HD
ATOM     22  H62 UNL     1      23.226  26.410  25.819  1.00  0.00     0.274 HD
ATOM     23  H61 UNL     1      23.907  27.725  26.650  1.00  0.00     0.274 HD
ENDBRANCH  19  20
ENDBRANCH  18  19
ENDBRANCH  15  18
ENDBRANCH   4   6
ENDBRANCH   3   4
BRANCH   3  24
HETATM   24  C10 UNL     1      15.929  28.735  24.959  1.00  0.00     0.068 A 
HETATM   25  C11 UNL     1      16.811  28.830  23.927  1.00  0.00     0.103 A 
HETATM   26  C12 UNL     1      16.360  28.809  22.624  1.00  0.00     0.261 A 
HETATM   27  O1  UNL     1      17.183  28.898  21.661  1.00  0.00    -0.268 OA
HETATM   28  N7  UNL     1      15.054  28.693  22.350  1.00  0.00    -0.156 N 
HETATM   29  C13 UNL     1      14.191  28.599  23.356  1.00  0.00     0.679 A 
ATOM     30  H7  UNL     1      14.727  28.677  21.384  1.00  0.00     0.187 HD
HETATM   31  N9  UNL     1      14.614  28.619  24.630  1.00  0.00    -0.193 N 
ATOM     32  H9  UNL     1      13.926  28.543  25.379  1.00  0.00     0.184 HD
BRANCH  29  33
HETATM   33  N8  UNL     1      12.933  28.486  23.110  1.00  0.00    -0.234 N 
ATOM     34  H82 UNL     1      12.316  29.279  23.284  1.00  0.00     0.174 HD
ATOM     35  H81 UNL     1      12.565  27.607  22.744  1.00  0.00     0.174 HD
ENDBRANCH  29  33
ENDBRANCH   3  24
TORSDOF 7
ENDMDL
MODEL 3
REMARK VINA RESULT: -7.792136109      2.221      2.865
REMARK  7 active torsions:
REMARK  status: ('A' for Active; 'I' for Inactive)
REMARK    1  A    between atoms: C2_3  and  N2_4 
REMARK    2  A    between atoms: C2_3  and  C10_24 
REMARK    3  A    between atoms: N2_4  and  C3_6 
REMARK    4  A    between atoms: C6_15  and  C7_16 
REMARK    5  A    between atoms: C7_16  and  C8_17 
REMARK    6  A    between atoms: C8_17  and  N6_18 
REMARK    7  A    between atoms: C13_30  and  N8_31 
ROOT
HETATM    1  N1  UNL     1      16.992  31.179  27.041  1.00  0.00    -0.195 NA
HETATM    2  C1  UNL     1      16.648  30.109  26.795  1.00  0.00     0.091 C 
HETATM    3  C2  UNL     1      16.228  28.743  26.467  1.00  0.00     0.242 C 
ENDROOT
BRANCH   3   4
HETATM    4  N2  UNL     1      17.259  27.796  26.597  1.00  0.00    -0.353 N 
ATOM      5  H2  UNL     1      18.176  28.132  26.303  1.00  0.00     0.162 HD
BRANCH   4   6
HETATM    6  C3  UNL     1      17.253  26.611  27.010  1.00  0.00     0.124 A 
HETATM    7  N3  UNL     1      16.171  25.850  27.259  1.00  0.00    -0.338 N 
HETATM    8  C4  UNL     1      16.414  24.602  27.696  1.00  0.00     0.183 A 
ATOM      9  H3  UNL     1      15.222  26.200  27.125  1.00  0.00     0.168 HD
HETATM   10  N4  UNL     1      17.595  24.060  27.902  1.00  0.00    -0.337 N 
HETATM   11  C5  UNL     1      18.741  24.785  27.665  1.00  0.00     0.128 A 
ATOM     12  H4  UNL     1      17.662  23.099  28.238  1.00  0.00     0.168 HD
HETATM   13  N5  UNL     1      19.980  24.385  27.821  1.00  0.00    -0.339 N 
HETATM   14  C9  UNL     1      18.536  26.056  27.221  1.00  0.00     0.094 A 
HETATM   15  C6  UNL     1      20.973  25.202  27.552  1.00  0.00     0.054 A 
ATOM     16  H5  UNL     1      20.173  23.439  28.152  1.00  0.00     0.168 HD
HETATM   17  S1  UNL     1      20.159  26.616  27.049  1.00  0.00    -0.069 SA
BRANCH  15  18
HETATM   18  C7  UNL     1      22.447  24.980  27.649  1.00  0.00     0.092 C 
BRANCH  18  19
HETATM   19  C8  UNL     1      23.096  26.341  27.897  1.00  0.00     0.236 C 
BRANCH  19  20
HETATM   20  N6  UNL     1      23.740  26.752  26.686  1.00  0.00    -0.079 N 
ATOM     21  H63 UNL     1      23.267  26.405  25.851  1.00  0.00     0.274 HD
ATOM     22  H62 UNL     1      23.632  27.749  26.500  1.00  0.00     0.274 HD
ATOM     23  H61 UNL     1      24.717  26.463  26.734  1.00  0.00     0.274 HD
ENDBRANCH  19  20
ENDBRANCH  18  19
ENDBRANCH  15  18
ENDBRANCH   4   6
ENDBRANCH   3   4
BRANCH   3  24
HETATM   24  C10 UNL     1      15.681  28.711  25.078  1.00  0.00     0.068 A 
HETATM   25  C11 UNL     1      14.356  28.583  24.794  1.00  0.00     0.103 A 
HETATM   26  C12 UNL     1      13.926  28.561  23.484  1.00  0.00     0.261 A 
HETATM   27  O1  UNL     1      12.690  28.440  23.220  1.00  0.00    -0.268 OA
HETATM   28  N7  UNL     1      14.797  28.666  22.472  1.00  0.00    -0.156 N 
HETATM   29  C13 UNL     1      16.091  28.793  22.747  1.00  0.00     0.679 A 
ATOM     30  H7  UNL     1      14.472  28.650  21.506  1.00  0.00     0.187 HD
HETATM   31  N9  UNL     1      16.526  28.815  24.017  1.00  0.00    -0.193 N 
ATOM     32  H9  UNL     1      17.526  28.915  24.193  1.00  0.00     0.184 HD
BRANCH  29  33
HETATM   33  N8  UNL     1      16.940  28.896  21.786  1.00  0.00    -0.234 N 
ATOM     34  H82 UNL     1      17.004  29.770  21.265  1.00  0.00     0.174 HD
ATOM     35  H81 UNL     1      17.541  28.104  21.554  1.00  0.00     0.174 HD
ENDBRANCH  29  33
ENDBRANCH   3  24
TORSDOF 7
ENDMDL
MODEL 4
REMARK VINA RESULT: -7.780098075      1.168      1.550
REMARK  7 active torsions:
REMARK  status: ('A' for Active; 'I' for Inactive)
REMARK    1  A    between atoms: C2_3  and  N2_4 
REMARK    2  A    between atoms: C2_3  and  C10_24 
REMARK    3  A    between atoms: N2_4  and  C3_6 
REMARK    4  A    between atoms: C6_15  and  C7_16 
REMARK    5  A    between atoms: C7_16  and  C8_17 
REMARK    6  A    between atoms: C8_17  and  N6_18 
REMARK    7  A    between atoms: C13_30  and  N8_31 
ROOT
HETATM    1  N1  UNL     1      17.026  31.248  27.069  1.00  0.00    -0.195 NA
HETATM    2  C1  UNL     1      16.496  30.254  26.832  1.00  0.00     0.091 C 
HETATM    3  C2  UNL     1      15.842  28.980  26.521  1.00  0.00     0.242 C 
ENDROOT
BRANCH   3   4
HETATM    4  N2  UNL     1      16.560  27.859  26.975  1.00  0.00    -0.353 N 
ATOM      5  H2  UNL     1      16.660  27.117  26.282  1.00  0.00     0.162 HD
BRANCH   4   6
HETATM    6  C3  UNL     1      17.099  27.608  28.080  1.00  0.00     0.124 A 
HETATM    7  N3  UNL     1      16.559  27.788  29.299  1.00  0.00    -0.338 N 
HETATM    8  C4  UNL     1      17.332  27.444  30.344  1.00  0.00     0.183 A 
ATOM      9  H3  UNL     1      15.619  28.164  29.424  1.00  0.00     0.168 HD
HETATM   10  N4  UNL     1      18.552  26.954  30.289  1.00  0.00    -0.337 N 
HETATM   11  C5  UNL     1      19.161  26.746  29.072  1.00  0.00     0.128 A 
ATOM     12  H4  UNL     1      19.049  26.729  31.151  1.00  0.00     0.168 HD
HETATM   13  N5  UNL     1      20.363  26.268  28.857  1.00  0.00    -0.339 N 
HETATM   14  C9  UNL     1      18.409  27.083  27.988  1.00  0.00     0.094 A 
HETATM   15  C6  UNL     1      20.804  26.129  27.627  1.00  0.00     0.054 A 
ATOM     16  H5  UNL     1      20.955  26.004  29.644  1.00  0.00     0.168 HD
HETATM   17  S1  UNL     1      19.486  26.689  26.699  1.00  0.00    -0.069 SA
BRANCH  15  18
HETATM   18  C7  UNL     1      22.118  25.614  27.135  1.00  0.00     0.092 C 
BRANCH  18  19
HETATM   19  C8  UNL     1      23.211  26.349  27.908  1.00  0.00     0.236 C 
BRANCH  19  20
HETATM   20  N6  UNL     1      23.957  27.141  26.977  1.00  0.00    -0.079 N 
ATOM     21  H63 UNL     1      24.032  26.703  26.059  1.00  0.00     0.274 HD
ATOM     22  H62 UNL     1      23.459  27.982  26.687  1.00  0.00     0.274 HD
ATOM     23  H61 UNL     1      24.866  27.343  27.391  1.00  0.00     0.274 HD
ENDBRANCH  19  20
ENDBRANCH  18  19
ENDBRANCH  15  18
ENDBRANCH   4   6
ENDBRANCH   3   4
BRANCH   3  24
HETATM   24  C10 UNL     1      15.622  28.880  25.048  1.00  0.00     0.068 A 
HETATM   25  C11 UNL     1      16.625  28.957  24.131  1.00  0.00     0.103 A 
HETATM   26  C12 UNL     1      16.343  28.857  22.785  1.00  0.00     0.261 A 
HETATM   27  O1  UNL     1      17.280  28.929  21.930  1.00  0.00    -0.268 OA
HETATM   28  N7  UNL     1      15.087  28.681  22.356  1.00  0.00    -0.156 N 
HETATM   29  C13 UNL     1      14.106  28.605  23.249  1.00  0.00     0.679 A 
ATOM     30  H7  UNL     1      14.886  28.607  21.359  1.00  0.00     0.187 HD
HETATM   31  N9  UNL     1      14.363  28.701  24.564  1.00  0.00    -0.193 N 
ATOM     32  H9  UNL     1      13.588  28.637  25.223  1.00  0.00     0.184 HD
BRANCH  29  33
HETATM   33  N8  UNL     1      12.893  28.436  22.853  1.00  0.00    -0.234 N 
ATOM     34  H82 UNL     1      12.297  29.249  22.706  1.00  0.00     0.174 HD
ATOM     35  H81 UNL     1      12.541  27.492  22.691  1.00  0.00     0.174 HD
ENDBRANCH  29  33
ENDBRANCH   3  24
TORSDOF 7
ENDMDL
MODEL 5
REMARK VINA RESULT: -7.601698408      1.187      1.618
REMARK  7 active torsions:
REMARK  status: ('A' for Active; 'I' for Inactive)
REMARK    1  A    between atoms: C2_3  and  N2_4 
REMARK    2  A    between atoms: C2_3  and  C10_24 
REMARK    3  A    between atoms: N2_4  and  C3_6 
REMARK    4  A    between atoms: C6_15  and  C7_16 
REMARK    5  A    between atoms: C7_16  and  C8_17 
REMARK    6  A    between atoms: C8_17  and  N6_18 
REMARK    7  A    between atoms: C13_30  and  N8_31 
ROOT
HETATM    1  N1  UNL     1      13.899  26.862  28.191  1.00  0.00    -0.195 NA
HETATM    2  C1  UNL     1      14.826  27.058  27.537  1.00  0.00     0.091 C 
HETATM    3  C2  UNL     1      16.003  27.329  26.707  1.00  0.00     0.242 C 
ENDROOT
BRANCH   3   4
HETATM    4  N2  UNL     1      16.896  28.246  27.290  1.00  0.00    -0.353 N 
ATOM      5  H2  UNL     1      17.011  29.111  26.763  1.00  0.00     0.162 HD
BRANCH   4   6
HETATM    6  C3  UNL     1      17.577  28.190  28.343  1.00  0.00     0.124 A 
HETATM    7  N3  UNL     1      17.295  28.784  29.517  1.00  0.00    -0.338 N 
HETATM    8  C4  UNL     1      18.178  28.578  30.510  1.00  0.00     0.183 A 
ATOM      9  H3  UNL     1      16.461  29.356  29.647  1.00  0.00     0.168 HD
HETATM   10  N4  UNL     1      19.279  27.861  30.443  1.00  0.00    -0.337 N 
HETATM   11  C5  UNL     1      19.624  27.227  29.270  1.00  0.00     0.128 A 
ATOM     12  H4  UNL     1      19.880  27.773  31.264  1.00  0.00     0.168 HD
HETATM   13  N5  UNL     1      20.681  26.483  29.051  1.00  0.00    -0.339 N 
HETATM   14  C9  UNL     1      18.753  27.412  28.240  1.00  0.00     0.094 A 
HETATM   15  C6  UNL     1      20.871  25.946  27.867  1.00  0.00     0.054 A 
ATOM     16  H5  UNL     1      21.355  26.321  29.799  1.00  0.00     0.168 HD
HETATM   17  S1  UNL     1      19.512  26.493  26.992  1.00  0.00    -0.069 SA
BRANCH  15  18
HETATM   18  C7  UNL     1      21.983  25.073  27.381  1.00  0.00     0.092 C 
BRANCH  18  19
HETATM   19  C8  UNL     1      23.189  25.975  27.124  1.00  0.00     0.236 C 
BRANCH  19  20
HETATM   20  N6  UNL     1      23.065  26.515  25.805  1.00  0.00    -0.079 N 
ATOM     21  H63 UNL     1      22.255  26.150  25.303  1.00  0.00     0.274 HD
ATOM     22  H62 UNL     1      22.793  27.498  25.805  1.00  0.00     0.274 HD
ATOM     23  H61 UNL     1      23.942  26.349  25.311  1.00  0.00     0.274 HD
ENDBRANCH  19  20
ENDBRANCH  18  19
ENDBRANCH  15  18
ENDBRANCH   4   6
ENDBRANCH   3   4
BRANCH   3  24
HETATM   24  C10 UNL     1      15.564  27.827  25.370  1.00  0.00     0.068 A 
HETATM   25  C11 UNL     1      14.271  28.122  25.064  1.00  0.00     0.103 A 
HETATM   26  C12 UNL     1      13.942  28.578  23.805  1.00  0.00     0.261 A 
HETATM   27  O1  UNL     1      12.735  28.852  23.520  1.00  0.00    -0.268 OA
HETATM   28  N7  UNL     1      14.882  28.739  22.864  1.00  0.00    -0.156 N 
HETATM   29  C13 UNL     1      16.146  28.453  23.161  1.00  0.00     0.679 A 
ATOM     30  H7  UNL     1      14.632  29.077  21.935  1.00  0.00     0.187 HD
HETATM   31  N9  UNL     1      16.482  28.008  24.383  1.00  0.00    -0.193 N 
ATOM     32  H9  UNL     1      17.461  27.798  24.577  1.00  0.00     0.184 HD
BRANCH  29  33
HETATM   33  N8  UNL     1      17.061  28.603  22.268  1.00  0.00    -0.234 N 
ATOM     34  H82 UNL     1      17.012  29.396  21.630  1.00  0.00     0.174 HD
ATOM     35  H81 UNL     1      17.824  27.929  22.208  1.00  0.00     0.174 HD
ENDBRANCH  29  33
ENDBRANCH   3  24
TORSDOF 7
ENDMDL
