MODEL 1
REMARK VINA RESULT: -7.510913105      0.000      0.000
REMARK  5 active torsions:
REMARK  status: ('A' for Active; 'I' for Inactive)
REMARK    1  A    between atoms: S1_2  and  C2_3 
REMARK    2  A    between atoms: N2_6  and  C3_7 
REMARK    3  A    between atoms: C8_19  and  N6_20 
REMARK    4  A    between atoms: N8_26  and  C10_28 
REMARK    5  A    between atoms: C10_28  and  C11_29 
ROOT
HETATM    1  C3  UNL     1      18.610  27.176  26.529  1.00  0.00     0.722 A 
HETATM    2  N3  UNL     1      18.020  27.027  25.329  1.00  0.00    -0.173 N 
ATOM      3  H3  UNL     1      18.339  26.278  24.714  1.00  0.00     0.186 HD
HETATM    4  C4  UNL     1      17.021  27.829  24.909  1.00  0.00     0.141 A 
HETATM    5  N4  UNL     1      16.413  27.709  23.726  1.00  0.00    -0.337 N 
ATOM      6  H4  UNL     1      16.700  26.975  23.078  1.00  0.00     0.168 HD
HETATM    7  C5  UNL     1      15.429  28.549  23.389  1.00  0.00     0.184 A 
HETATM    8  N5  UNL     1      15.007  29.542  24.209  1.00  0.00    -0.319 N 
ATOM      9  H5  UNL     1      14.253  30.163  23.916  1.00  0.00     0.169 HD
HETATM   10  C6  UNL     1      15.586  29.703  25.410  1.00  0.00     0.264 A 
HETATM   11  O1  UNL     1      15.221  30.609  26.193  1.00  0.00    -0.267 OA
HETATM   12  C7  UNL     1      16.601  28.838  25.759  1.00  0.00     0.120 A 
HETATM   13  C8  UNL     1      17.189  29.006  26.983  1.00  0.00     0.134 A 
HETATM   14  N7  UNL     1      18.181  28.162  27.329  1.00  0.00    -0.173 N 
ATOM     15  H7  UNL     1      18.625  28.279  28.240  1.00  0.00     0.186 HD
ENDROOT
BRANCH   1  16
HETATM   16  N2  UNL     1      19.675  26.299  26.943  1.00  0.00     0.092 N 
HETATM   17  N1  UNL     1      20.949  26.630  27.076  1.00  0.00    -0.243 N 
HETATM   18  C2  UNL     1      21.646  25.551  27.479  1.00  0.00     0.175 A 
ATOM     19  H1  UNL     1      21.342  27.554  26.900  1.00  0.00     0.191 HD
HETATM   20  N9  UNL     1      20.743  24.557  27.586  1.00  0.00    -0.167 N 
HETATM   21  C9  UNL     1      19.522  25.016  27.254  1.00  0.00     0.716 A 
ATOM     22  H9  UNL     1      20.952  23.600  27.874  1.00  0.00     0.186 HD
HETATM   23  N8  UNL     1      18.388  24.386  27.226  1.00  0.00    -0.223 N 
ATOM     24  H8  UNL     1      17.527  24.859  26.953  1.00  0.00     0.177 HD
BRANCH  18  25
HETATM   25  S1  UNL     1      23.400  25.431  27.812  1.00  0.00    -0.097 SA
HETATM   26  C1  UNL     1      24.342  26.198  26.457  1.00  0.00     0.099 C 
ENDBRANCH  18  25
BRANCH  23  27
HETATM   27  C10 UNL     1      18.391  22.997  27.592  1.00  0.00     0.142 C 
BRANCH  27  28
HETATM   28  C11 UNL     1      18.056  22.782  29.052  1.00  0.00    -0.004 C 
HETATM   29  C12 UNL     1      19.150  22.024  29.771  1.00  0.00     0.011 C 
HETATM   30  C13 UNL     1      16.795  21.944  29.104  1.00  0.00     0.011 C 
ENDBRANCH  27  28
ENDBRANCH  23  27
ENDBRANCH   1  16
BRANCH  13  31
HETATM   31  N6  UNL     1      16.786  29.956  27.770  1.00  0.00    -0.384 N 
ATOM     32  H62 UNL     1      15.818  30.025  28.084  1.00  0.00     0.157 HD
ATOM     33  H61 UNL     1      17.445  30.663  28.093  1.00  0.00     0.157 HD
ENDBRANCH  13  31
TORSDOF 5
ENDMDL
MODEL 2
REMARK VINA RESULT: -7.337003054      3.017      3.852
REMARK  5 active torsions:
REMARK  status: ('A' for Active; 'I' for Inactive)
REMARK    1  A    between atoms: S1_2  and  C2_3 
REMARK    2  A    between atoms: N2_6  and  C3_7 
REMARK    3  A    between atoms: C8_19  and  N6_20 
REMARK    4  A    between atoms: N8_26  and  C10_28 
REMARK    5  A    between atoms: C10_28  and  C11_29 
ROOT
HETATM    1  C3  UNL     1      16.144  28.093  25.718  1.00  0.00     0.722 A 
HETATM    2  N3  UNL     1      16.971  28.184  24.660  1.00  0.00    -0.173 N 
ATOM      3  H3  UNL     1      17.975  28.081  24.812  1.00  0.00     0.186 HD
HETATM    4  C4  UNL     1      16.524  28.405  23.408  1.00  0.00     0.141 A 
HETATM    5  N4  UNL     1      17.316  28.500  22.337  1.00  0.00    -0.337 N 
ATOM      6  H4  UNL     1      18.326  28.405  22.440  1.00  0.00     0.168 HD
HETATM    7  C5  UNL     1      16.786  28.720  21.129  1.00  0.00     0.184 A 
HETATM    8  N5  UNL     1      15.453  28.855  20.932  1.00  0.00    -0.319 N 
ATOM      9  H5  UNL     1      15.087  29.023  19.995  1.00  0.00     0.169 HD
HETATM   10  C6  UNL     1      14.615  28.766  21.977  1.00  0.00     0.264 A 
HETATM   11  O1  UNL     1      13.377  28.886  21.832  1.00  0.00    -0.267 OA
HETATM   12  C7  UNL     1      15.158  28.539  23.224  1.00  0.00     0.120 A 
HETATM   13  C8  UNL     1      14.301  28.450  24.286  1.00  0.00     0.134 A 
HETATM   14  N7  UNL     1      14.827  28.228  25.506  1.00  0.00    -0.173 N 
ATOM     15  H7  UNL     1      14.196  28.159  26.305  1.00  0.00     0.186 HD
ENDROOT
BRANCH   1  16
HETATM   16  N2  UNL     1      16.659  27.857  27.042  1.00  0.00     0.092 N 
HETATM   17  N1  UNL     1      17.065  28.781  27.896  1.00  0.00    -0.243 N 
HETATM   18  C2  UNL     1      17.480  28.184  29.030  1.00  0.00     0.175 A 
ATOM     19  H1  UNL     1      17.064  29.786  27.725  1.00  0.00     0.191 HD
HETATM   20  N9  UNL     1      17.309  26.863  28.826  1.00  0.00    -0.167 N 
HETATM   21  C9  UNL     1      16.802  26.657  27.596  1.00  0.00     0.716 A 
ATOM     22  H9  UNL     1      17.530  26.130  29.500  1.00  0.00     0.186 HD
HETATM   23  N8  UNL     1      16.493  25.539  27.013  1.00  0.00    -0.223 N 
ATOM     24  H8  UNL     1      16.112  25.524  26.068  1.00  0.00     0.177 HD
BRANCH  18  25
HETATM   25  S1  UNL     1      18.126  28.954  30.509  1.00  0.00    -0.097 SA
HETATM   26  C1  UNL     1      19.574  28.028  31.109  1.00  0.00     0.099 C 
ENDBRANCH  18  25
BRANCH  23  27
HETATM   27  C10 UNL     1      16.706  24.325  27.749  1.00  0.00     0.142 C 
BRANCH  27  28
HETATM   28  C11 UNL     1      17.995  23.631  27.363  1.00  0.00    -0.004 C 
HETATM   29  C12 UNL     1      17.744  22.232  26.845  1.00  0.00     0.011 C 
HETATM   30  C13 UNL     1      18.839  23.522  28.616  1.00  0.00     0.011 C 
ENDBRANCH  27  28
ENDBRANCH  23  27
ENDBRANCH   1  16
BRANCH  13  31
HETATM   31  N6  UNL     1      13.023  28.578  24.100  1.00  0.00    -0.384 N 
ATOM     32  H62 UNL     1      12.554  29.481  24.168  1.00  0.00     0.157 HD
ATOM     33  H61 UNL     1      12.457  27.760  23.878  1.00  0.00     0.157 HD
ENDBRANCH  13  31
TORSDOF 5
ENDMDL
MODEL 3
REMARK VINA RESULT: -7.281766874      2.991      3.976
REMARK  5 active torsions:
REMARK  status: ('A' for Active; 'I' for Inactive)
REMARK    1  A    between atoms: S1_2  and  C2_3 
REMARK    2  A    between atoms: N2_6  and  C3_7 
REMARK    3  A    between atoms: C8_19  and  N6_20 
REMARK    4  A    between atoms: N8_26  and  C10_28 
REMARK    5  A    between atoms: C10_28  and  C11_29 
ROOT
HETATM    1  C3  UNL     1      16.361  27.989  25.922  1.00  0.00     0.722 A 
HETATM    2  N3  UNL     1      15.038  28.041  25.687  1.00  0.00    -0.173 N 
ATOM      3  H3  UNL     1      14.394  27.878  26.461  1.00  0.00     0.186 HD
HETATM    4  C4  UNL     1      14.530  28.300  24.465  1.00  0.00     0.141 A 
HETATM    5  N4  UNL     1      13.223  28.359  24.197  1.00  0.00    -0.337 N 
ATOM      6  H4  UNL     1      12.542  28.203  24.940  1.00  0.00     0.168 HD
HETATM    7  C5  UNL     1      12.805  28.624  22.954  1.00  0.00     0.184 A 
HETATM    8  N5  UNL     1      13.662  28.841  21.928  1.00  0.00    -0.319 N 
ATOM      9  H5  UNL     1      13.304  29.039  20.994  1.00  0.00     0.169 HD
HETATM   10  C6  UNL     1      14.986  28.793  22.148  1.00  0.00     0.264 A 
HETATM   11  O1  UNL     1      15.807  28.988  21.223  1.00  0.00    -0.267 OA
HETATM   12  C7  UNL     1      15.420  28.520  23.428  1.00  0.00     0.120 A 
HETATM   13  C8  UNL     1      16.769  28.472  23.647  1.00  0.00     0.134 A 
HETATM   14  N7  UNL     1      17.197  28.206  24.896  1.00  0.00    -0.173 N 
ATOM     15  H7  UNL     1      18.202  28.168  25.070  1.00  0.00     0.186 HD
ENDROOT
BRANCH   1  16
HETATM   16  N2  UNL     1      16.868  27.708  27.241  1.00  0.00     0.092 N 
HETATM   17  N1  UNL     1      17.241  28.604  28.139  1.00  0.00    -0.243 N 
HETATM   18  C2  UNL     1      17.658  27.969  29.251  1.00  0.00     0.175 A 
ATOM     19  H1  UNL     1      17.218  29.616  28.010  1.00  0.00     0.191 HD
HETATM   20  N9  UNL     1      17.521  26.655  28.988  1.00  0.00    -0.167 N 
HETATM   21  C9  UNL     1      17.032  26.489  27.745  1.00  0.00     0.716 A 
ATOM     22  H9  UNL     1      17.752  25.899  29.634  1.00  0.00     0.186 HD
HETATM   23  N8  UNL     1      16.757  25.391  27.112  1.00  0.00    -0.223 N 
ATOM     24  H8  UNL     1      16.387  25.407  26.162  1.00  0.00     0.177 HD
BRANCH  18  25
HETATM   25  S1  UNL     1      18.269  28.690  30.769  1.00  0.00    -0.097 SA
HETATM   26  C1  UNL     1      17.441  27.922  32.197  1.00  0.00     0.099 C 
ENDBRANCH  18  25
BRANCH  23  27
HETATM   27  C10 UNL     1      16.991  24.151  27.798  1.00  0.00     0.142 C 
BRANCH  27  28
HETATM   28  C11 UNL     1      18.168  23.387  27.230  1.00  0.00    -0.004 C 
HETATM   29  C12 UNL     1      17.739  22.072  26.619  1.00  0.00     0.011 C 
HETATM   30  C13 UNL     1      19.104  23.084  28.382  1.00  0.00     0.011 C 
ENDBRANCH  27  28
ENDBRANCH  23  27
ENDBRANCH   1  16
BRANCH  13  31
HETATM   31  N6  UNL     1      17.592  28.679  22.666  1.00  0.00    -0.384 N 
ATOM     32  H62 UNL     1      17.276  28.743  21.698  1.00  0.00     0.157 HD
ATOM     33  H61 UNL     1      18.589  28.783  22.852  1.00  0.00     0.157 HD
ENDBRANCH  13  31
TORSDOF 5
ENDMDL
MODEL 4
REMARK VINA RESULT: -7.251943472      2.410      4.204
REMARK  5 active torsions:
REMARK  status: ('A' for Active; 'I' for Inactive)
REMARK    1  A    between atoms: S1_2  and  C2_3 
REMARK    2  A    between atoms: N2_6  and  C3_7 
REMARK    3  A    between atoms: C8_19  and  N6_20 
REMARK    4  A    between atoms: N8_26  and  C10_28 
REMARK    5  A    between atoms: C10_28  and  C11_29 
ROOT
HETATM    1  C3  UNL     1      17.272  26.059  27.801  1.00  0.00     0.722 A 
HETATM    2  N3  UNL     1      16.948  26.292  26.516  1.00  0.00    -0.173 N 
ATOM      3  H3  UNL     1      16.834  25.498  25.886  1.00  0.00     0.186 HD
HETATM    4  C4  UNL     1      16.769  27.536  26.029  1.00  0.00     0.141 A 
HETATM    5  N4  UNL     1      16.447  27.804  24.761  1.00  0.00    -0.337 N 
ATOM      6  H4  UNL     1      16.323  27.041  24.095  1.00  0.00     0.168 HD
HETATM    7  C5  UNL     1      16.287  29.070  24.362  1.00  0.00     0.184 A 
HETATM    8  N5  UNL     1      16.439  30.122  25.201  1.00  0.00    -0.319 N 
ATOM      9  H5  UNL     1      16.309  31.074  24.859  1.00  0.00     0.169 HD
HETATM   10  C6  UNL     1      16.762  29.906  26.486  1.00  0.00     0.264 A 
HETATM   11  O1  UNL     1      16.910  30.854  27.290  1.00  0.00    -0.267 OA
HETATM   12  C7  UNL     1      16.927  28.601  26.900  1.00  0.00     0.120 A 
HETATM   13  C8  UNL     1      17.257  28.384  28.210  1.00  0.00     0.134 A 
HETATM   14  N7  UNL     1      17.419  27.111  28.619  1.00  0.00    -0.173 N 
ATOM     15  H7  UNL     1      17.664  26.940  29.594  1.00  0.00     0.186 HD
ENDROOT
BRANCH   1  16
HETATM   16  N2  UNL     1      17.457  24.715  28.285  1.00  0.00     0.092 N 
HETATM   17  N1  UNL     1      16.502  23.899  28.698  1.00  0.00    -0.243 N 
HETATM   18  C2  UNL     1      17.052  22.729  29.077  1.00  0.00     0.175 A 
ATOM     19  H1  UNL     1      15.506  24.119  28.726  1.00  0.00     0.191 HD
HETATM   20  N9  UNL     1      18.377  22.873  28.875  1.00  0.00    -0.167 N 
HETATM   21  C9  UNL     1      18.631  24.101  28.386  1.00  0.00     0.716 A 
ATOM     22  H9  UNL     1      19.081  22.159  29.065  1.00  0.00     0.186 HD
HETATM   23  N8  UNL     1      19.768  24.635  28.060  1.00  0.00    -0.223 N 
ATOM     24  H8  UNL     1      19.820  25.586  27.696  1.00  0.00     0.177 HD
BRANCH  18  25
HETATM   25  S1  UNL     1      16.227  21.276  29.714  1.00  0.00    -0.097 SA
HETATM   26  C1  UNL     1      14.592  21.731  30.372  1.00  0.00     0.099 C 
ENDBRANCH  18  25
BRANCH  23  27
HETATM   27  C10 UNL     1      20.949  23.837  28.228  1.00  0.00     0.142 C 
BRANCH  27  28
HETATM   28  C11 UNL     1      22.176  24.672  28.528  1.00  0.00    -0.004 C 
HETATM   29  C12 UNL     1      22.603  25.489  27.329  1.00  0.00     0.011 C 
HETATM   30  C13 UNL     1      23.299  23.713  28.865  1.00  0.00     0.011 C 
ENDBRANCH  27  28
ENDBRANCH  23  27
ENDBRANCH   1  16
BRANCH  13  31
HETATM   31  N6  UNL     1      17.402  29.391  29.016  1.00  0.00    -0.384 N 
ATOM     32  H62 UNL     1      18.112  30.107  28.865  1.00  0.00     0.157 HD
ATOM     33  H61 UNL     1      16.796  29.482  29.830  1.00  0.00     0.157 HD
ENDBRANCH  13  31
TORSDOF 5
ENDMDL
MODEL 5
REMARK VINA RESULT: -7.250791791      1.733      3.596
REMARK  5 active torsions:
REMARK  status: ('A' for Active; 'I' for Inactive)
REMARK    1  A    between atoms: S1_2  and  C2_3 
REMARK    2  A    between atoms: N2_6  and  C3_7 
REMARK    3  A    between atoms: C8_19  and  N6_20 
REMARK    4  A    between atoms: N8_26  and  C10_28 
REMARK    5  A    between atoms: C10_28  and  C11_29 
ROOT
HETATM    1  C3  UNL     1      18.315  26.751  27.393  1.00  0.00     0.722 A 
HETATM    2  N3  UNL     1      18.035  26.658  26.080  1.00  0.00    -0.173 N 
ATOM      3  H3  UNL     1      18.309  25.814  25.577  1.00  0.00     0.186 HD
HETATM    4  C4  UNL     1      17.405  27.640  25.403  1.00  0.00     0.141 A 
HETATM    5  N4  UNL     1      17.112  27.581  24.102  1.00  0.00    -0.337 N 
ATOM      6  H4  UNL     1      17.368  26.757  23.558  1.00  0.00     0.168 HD
HETATM    7  C5  UNL     1      16.483  28.602  23.509  1.00  0.00     0.184 A 
HETATM    8  N5  UNL     1      16.120  29.721  24.179  1.00  0.00    -0.319 N 
ATOM      9  H5  UNL     1      15.642  30.479  23.692  1.00  0.00     0.169 HD
HETATM   10  C6  UNL     1      16.392  29.828  25.490  1.00  0.00     0.264 A 
HETATM   11  O1  UNL     1      16.070  30.848  26.141  1.00  0.00    -0.267 OA
HETATM   12  C7  UNL     1      17.040  28.776  26.104  1.00  0.00     0.120 A 
HETATM   13  C8  UNL     1      17.315  28.890  27.439  1.00  0.00     0.134 A 
HETATM   14  N7  UNL     1      17.948  27.865  28.042  1.00  0.00    -0.173 N 
ATOM     15  H7  UNL     1      18.157  27.939  29.038  1.00  0.00     0.186 HD
ENDROOT
BRANCH   1  16
HETATM   16  N2  UNL     1      18.990  25.682  28.082  1.00  0.00     0.092 N 
HETATM   17  N1  UNL     1      18.428  24.577  28.546  1.00  0.00    -0.243 N 
HETATM   18  C2  UNL     1      19.371  23.814  29.130  1.00  0.00     0.175 A 
ATOM     19  H1  UNL     1      17.439  24.342  28.473  1.00  0.00     0.191 HD
HETATM   20  N9  UNL     1      20.523  24.500  29.000  1.00  0.00    -0.167 N 
HETATM   21  C9  UNL     1      20.291  25.658  28.352  1.00  0.00     0.716 A 
ATOM     22  H9  UNL     1      21.434  24.191  29.341  1.00  0.00     0.186 HD
HETATM   23  N8  UNL     1      21.125  26.597  28.028  1.00  0.00    -0.223 N 
ATOM     24  H8  UNL     1      20.813  27.432  27.532  1.00  0.00     0.177 HD
BRANCH  18  25
HETATM   25  S1  UNL     1      19.168  22.221  29.918  1.00  0.00    -0.097 SA
HETATM   26  C1  UNL     1      20.678  21.227  29.706  1.00  0.00     0.099 C 
ENDBRANCH  18  25
BRANCH  23  27
HETATM   27  C10 UNL     1      22.502  26.419  28.392  1.00  0.00     0.142 C 
BRANCH  27  28
HETATM   28  C11 UNL     1      23.228  25.465  27.469  1.00  0.00    -0.004 C 
HETATM   29  C12 UNL     1      24.152  24.542  28.231  1.00  0.00     0.011 C 
HETATM   30  C13 UNL     1      24.073  26.303  26.532  1.00  0.00     0.011 C 
ENDBRANCH  27  28
ENDBRANCH  23  27
ENDBRANCH   1  16
BRANCH  13  31
HETATM   31  N6  UNL     1      16.968  29.961  28.083  1.00  0.00    -0.384 N 
ATOM     32  H62 UNL     1      16.628  30.795  27.604  1.00  0.00     0.157 HD
ATOM     33  H61 UNL     1      17.031  29.985  29.101  1.00  0.00     0.157 HD
ENDBRANCH  13  31
TORSDOF 5
ENDMDL
