MODEL 1
REMARK VINA RESULT: -7.535548413      0.000      0.000
REMARK  7 active torsions:
REMARK  status: ('A' for Active; 'I' for Inactive)
REMARK    1  A    between atoms: N1_2  and  C2_5 
REMARK    2  A    between atoms: N2_7  and  C4_8 
REMARK    3  A    between atoms: C5_11  and  N4_12 
REMARK    4  A    between atoms: N4_12  and  C6_14 
REMARK    5  A    between atoms: C12_22  and  N6_23 
REMARK    6  A    between atoms: N6_23  and  N7_25 
REMARK    7  A    between atoms: C13_30  and  N9_31 
ROOT
HETATM    1  C4  UNL     1      19.122  24.845  28.067  1.00  0.00     0.149 A 
HETATM    2  N3  UNL     1      18.470  25.845  27.334  1.00  0.00    -0.174 N 
ATOM      3  H3  UNL     1      17.452  25.887  27.370  1.00  0.00     0.186 HD
HETATM    4  C5  UNL     1      19.116  26.742  26.591  1.00  0.00     0.680 A 
HETATM    5  N5  UNL     1      20.448  26.723  26.515  1.00  0.00    -0.186 N 
ATOM      6  H5  UNL     1      20.950  27.407  25.949  1.00  0.00     0.184 HD
HETATM    7  C11 UNL     1      21.116  25.773  27.210  1.00  0.00     0.126 A 
HETATM    8  C12 UNL     1      22.485  25.782  27.118  1.00  0.00     0.165 A 
HETATM    9  N8  UNL     1      23.170  24.858  27.797  1.00  0.00    -0.173 N 
ATOM     10  H8  UNL     1      24.189  24.841  27.749  1.00  0.00     0.186 HD
HETATM   11  C13 UNL     1      22.524  23.960  28.537  1.00  0.00     0.680 A 
HETATM   12  N10 UNL     1      21.163  23.896  28.671  1.00  0.00    -0.182 N 
HETATM   13  C14 UNL     1      20.548  22.904  29.459  1.00  0.00     0.176 C 
HETATM   14  C15 UNL     1      20.462  24.822  27.993  1.00  0.00     0.126 A 
ENDROOT
BRANCH   1  15
HETATM   15  N2  UNL     1      18.228  24.066  28.774  1.00  0.00    -0.361 N 
HETATM   16  C3  UNL     1      17.239  23.029  28.376  1.00  0.00     0.159 C 
HETATM   17  C2  UNL     1      16.262  23.648  29.379  1.00  0.00     0.221 C 
HETATM   18  C16 UNL     1      17.615  23.925  30.064  1.00  0.00     0.159 C 
BRANCH  17  19
HETATM   19  N1  UNL     1      15.482  22.745  30.156  1.00  0.00    -0.072 N 
HETATM   20  C1  UNL     1      14.303  23.375  30.710  1.00  0.00     0.267 C 
ATOM     21  H12 UNL     1      16.043  22.306  30.885  1.00  0.00     0.277 HD
ATOM     22  H11 UNL     1      15.237  21.913  29.618  1.00  0.00     0.277 HD
ENDBRANCH  17  19
ENDBRANCH   1  15
BRANCH   4  23
HETATM   23  N4  UNL     1      18.397  27.607  25.957  1.00  0.00    -0.221 N 
ATOM     24  H4  UNL     1      18.853  28.101  25.190  1.00  0.00     0.178 HD
BRANCH  23  25
HETATM   25  C6  UNL     1      17.042  27.944  26.210  1.00  0.00     0.099 C 
HETATM   26  C7  UNL     1      16.290  28.153  24.917  1.00  0.00     0.026 C 
HETATM   27  C8  UNL     1      16.526  29.617  24.571  1.00  0.00     0.002 C 
HETATM   28  C9  UNL     1      16.383  30.274  25.919  1.00  0.00     0.002 C 
HETATM   29  C10 UNL     1      17.015  29.309  26.865  1.00  0.00     0.026 C 
ENDBRANCH  23  25
ENDBRANCH   4  23
BRANCH   8  30
HETATM   30  N6  UNL     1      23.119  26.674  26.408  1.00  0.00    -0.290 N 
ATOM     31  H6  UNL     1      22.764  26.852  25.468  1.00  0.00     0.188 HD
BRANCH  30  32
HETATM   32  N7  UNL     1      24.221  27.397  26.800  1.00  0.00    -0.344 N 
ATOM     33  H72 UNL     1      25.002  26.851  27.165  1.00  0.00     0.176 HD
ATOM     34  H71 UNL     1      24.326  28.411  26.760  1.00  0.00     0.176 HD
ENDBRANCH  30  32
ENDBRANCH   8  30
BRANCH  11  35
HETATM   35  N9  UNL     1      23.197  23.070  29.197  1.00  0.00    -0.234 N 
ATOM     36  H92 UNL     1      24.032  23.410  29.673  1.00  0.00     0.174 HD
ATOM     37  H91 UNL     1      22.876  22.102  29.208  1.00  0.00     0.174 HD
ENDBRANCH  11  35
TORSDOF 7
ENDMDL
MODEL 2
REMARK VINA RESULT: -7.397795345      0.710      1.039
REMARK  7 active torsions:
REMARK  status: ('A' for Active; 'I' for Inactive)
REMARK    1  A    between atoms: N1_2  and  C2_5 
REMARK    2  A    between atoms: N2_7  and  C4_8 
REMARK    3  A    between atoms: C5_11  and  N4_12 
REMARK    4  A    between atoms: N4_12  and  C6_14 
REMARK    5  A    between atoms: C12_22  and  N6_23 
REMARK    6  A    between atoms: N6_23  and  N7_25 
REMARK    7  A    between atoms: C13_30  and  N9_31 
ROOT
HETATM    1  C4  UNL     1      18.695  24.663  28.283  1.00  0.00     0.149 A 
HETATM    2  N3  UNL     1      17.947  25.571  27.524  1.00  0.00    -0.174 N 
ATOM      3  H3  UNL     1      16.935  25.586  27.644  1.00  0.00     0.186 HD
HETATM    4  C5  UNL     1      18.495  26.417  26.653  1.00  0.00     0.680 A 
HETATM    5  N5  UNL     1      19.815  26.433  26.464  1.00  0.00    -0.186 N 
ATOM      6  H5  UNL     1      20.242  27.077  25.800  1.00  0.00     0.184 HD
HETATM    7  C11 UNL     1      20.574  25.570  27.179  1.00  0.00     0.126 A 
HETATM    8  C12 UNL     1      21.929  25.612  26.969  1.00  0.00     0.165 A 
HETATM    9  N8  UNL     1      22.704  24.774  27.664  1.00  0.00    -0.173 N 
ATOM     10  H8  UNL     1      23.714  24.784  27.530  1.00  0.00     0.186 HD
HETATM   11  C13 UNL     1      22.156  23.927  28.532  1.00  0.00     0.680 A 
HETATM   12  N10 UNL     1      20.814  23.834  28.788  1.00  0.00    -0.182 N 
HETATM   13  C14 UNL     1      20.305  22.898  29.710  1.00  0.00     0.176 C 
HETATM   14  C15 UNL     1      20.024  24.674  28.096  1.00  0.00     0.126 A 
ENDROOT
BRANCH   1  15
HETATM   15  N2  UNL     1      17.893  23.923  29.130  1.00  0.00    -0.361 N 
HETATM   16  C3  UNL     1      16.973  22.774  28.920  1.00  0.00     0.159 C 
HETATM   17  C2  UNL     1      15.992  23.451  29.881  1.00  0.00     0.221 C 
HETATM   18  C16 UNL     1      17.345  23.914  30.455  1.00  0.00     0.159 C 
BRANCH  17  19
HETATM   19  N1  UNL     1      15.315  22.606  30.807  1.00  0.00    -0.072 N 
HETATM   20  C1  UNL     1      14.056  23.169  31.243  1.00  0.00     0.267 C 
ATOM     21  H12 UNL     1      15.912  22.378  31.602  1.00  0.00     0.277 HD
ATOM     22  H11 UNL     1      15.188  21.669  30.426  1.00  0.00     0.277 HD
ENDBRANCH  17  19
ENDBRANCH   1  15
BRANCH   4  23
HETATM   23  N4  UNL     1      17.693  27.199  26.010  1.00  0.00    -0.221 N 
ATOM     24  H4  UNL     1      16.734  26.872  25.894  1.00  0.00     0.178 HD
BRANCH  23  25
HETATM   25  C6  UNL     1      18.001  28.465  25.447  1.00  0.00     0.099 C 
HETATM   26  C7  UNL     1      17.337  29.576  26.225  1.00  0.00     0.026 C 
HETATM   27  C8  UNL     1      15.953  29.703  25.602  1.00  0.00     0.002 C 
HETATM   28  C9  UNL     1      16.268  29.571  24.135  1.00  0.00     0.002 C 
HETATM   29  C10 UNL     1      17.346  28.541  24.083  1.00  0.00     0.026 C 
ENDBRANCH  23  25
ENDBRANCH   4  23
BRANCH   8  30
HETATM   30  N6  UNL     1      22.468  26.455  26.131  1.00  0.00    -0.290 N 
ATOM     31  H6  UNL     1      21.832  26.968  25.521  1.00  0.00     0.188 HD
BRANCH  30  32
HETATM   32  N7  UNL     1      23.810  26.721  25.991  1.00  0.00    -0.344 N 
ATOM     33  H72 UNL     1      24.433  25.917  26.082  1.00  0.00     0.176 HD
ATOM     34  H71 UNL     1      24.231  27.632  25.807  1.00  0.00     0.176 HD
ENDBRANCH  30  32
ENDBRANCH   8  30
BRANCH  11  35
HETATM   35  N9  UNL     1      22.914  23.121  29.207  1.00  0.00    -0.234 N 
ATOM     36  H92 UNL     1      23.143  23.419  30.155  1.00  0.00     0.174 HD
ATOM     37  H91 UNL     1      23.241  22.257  28.775  1.00  0.00     0.174 HD
ENDBRANCH  11  35
TORSDOF 7
ENDMDL
MODEL 3
REMARK VINA RESULT: -7.226572452      2.620      2.875
REMARK  7 active torsions:
REMARK  status: ('A' for Active; 'I' for Inactive)
REMARK    1  A    between atoms: N1_2  and  C2_5 
REMARK    2  A    between atoms: N2_7  and  C4_8 
REMARK    3  A    between atoms: C5_11  and  N4_12 
REMARK    4  A    between atoms: N4_12  and  C6_14 
REMARK    5  A    between atoms: C12_22  and  N6_23 
REMARK    6  A    between atoms: N6_23  and  N7_25 
REMARK    7  A    between atoms: C13_30  and  N9_31 
ROOT
HETATM    1  C4  UNL     1      18.613  27.014  29.239  1.00  0.00     0.149 A 
HETATM    2  N3  UNL     1      17.847  27.297  28.101  1.00  0.00    -0.174 N 
ATOM      3  H3  UNL     1      16.872  27.569  28.227  1.00  0.00     0.186 HD
HETATM    4  C5  UNL     1      18.330  27.227  26.862  1.00  0.00     0.680 A 
HETATM    5  N5  UNL     1      19.600  26.877  26.651  1.00  0.00    -0.186 N 
ATOM      6  H5  UNL     1      19.978  26.822  25.705  1.00  0.00     0.184 HD
HETATM    7  C11 UNL     1      20.374  26.596  27.725  1.00  0.00     0.126 A 
HETATM    8  C12 UNL     1      21.677  26.243  27.477  1.00  0.00     0.165 A 
HETATM    9  N8  UNL     1      22.465  25.965  28.520  1.00  0.00    -0.173 N 
ATOM     10  H8  UNL     1      23.438  25.701  28.367  1.00  0.00     0.186 HD
HETATM   11  C13 UNL     1      21.981  26.031  29.757  1.00  0.00     0.680 A 
HETATM   12  N10 UNL     1      20.693  26.375  30.072  1.00  0.00    -0.182 N 
HETATM   13  C14 UNL     1      20.246  26.406  31.407  1.00  0.00     0.176 C 
HETATM   14  C15 UNL     1      19.890  26.660  29.031  1.00  0.00     0.126 A 
ENDROOT
BRANCH   1  15
HETATM   15  N2  UNL     1      17.885  27.189  30.400  1.00  0.00    -0.361 N 
HETATM   16  C3  UNL     1      17.014  26.292  31.205  1.00  0.00     0.159 C 
HETATM   17  C2  UNL     1      16.043  27.465  31.367  1.00  0.00     0.221 C 
HETATM   18  C16 UNL     1      17.395  28.200  31.292  1.00  0.00     0.159 C 
BRANCH  17  19
HETATM   19  N1  UNL     1      15.450  27.633  32.651  1.00  0.00    -0.072 N 
HETATM   20  C1  UNL     1      14.026  27.876  32.569  1.00  0.00     0.267 C 
ATOM     21  H12 UNL     1      15.919  28.367  33.181  1.00  0.00     0.277 HD
ATOM     22  H11 UNL     1      15.654  26.839  33.258  1.00  0.00     0.277 HD
ENDBRANCH  17  19
ENDBRANCH   1  15
BRANCH   4  23
HETATM   23  N4  UNL     1      17.518  27.506  25.897  1.00  0.00    -0.221 N 
ATOM     24  H4  UNL     1      16.738  26.864  25.762  1.00  0.00     0.178 HD
BRANCH  23  25
HETATM   25  C6  UNL     1      17.594  28.607  25.006  1.00  0.00     0.099 C 
HETATM   26  C7  UNL     1      16.713  29.741  25.476  1.00  0.00     0.026 C 
HETATM   27  C8  UNL     1      15.345  29.432  24.882  1.00  0.00     0.002 C 
HETATM   28  C9  UNL     1      15.714  28.971  23.496  1.00  0.00     0.002 C 
HETATM   29  C10 UNL     1      16.968  28.188  23.692  1.00  0.00     0.026 C 
ENDBRANCH  23  25
ENDBRANCH   4  23
BRANCH   8  30
HETATM   30  N6  UNL     1      22.157  26.196  26.265  1.00  0.00    -0.290 N 
ATOM     31  H6  UNL     1      21.537  25.840  25.538  1.00  0.00     0.188 HD
BRANCH  30  32
HETATM   32  N7  UNL     1      23.418  26.579  25.871  1.00  0.00    -0.344 N 
ATOM     33  H72 UNL     1      23.471  27.450  25.342  1.00  0.00     0.176 HD
ATOM     34  H71 UNL     1      24.288  26.080  26.058  1.00  0.00     0.176 HD
ENDBRANCH  30  32
ENDBRANCH   8  30
BRANCH  11  35
HETATM   35  N9  UNL     1      22.753  25.764  30.764  1.00  0.00    -0.234 N 
ATOM     36  H92 UNL     1      23.359  24.952  30.653  1.00  0.00     0.174 HD
ATOM     37  H91 UNL     1      22.720  26.355  31.595  1.00  0.00     0.174 HD
ENDBRANCH  11  35
TORSDOF 7
ENDMDL
MODEL 4
REMARK VINA RESULT: -7.084797185      1.655      2.000
REMARK  7 active torsions:
REMARK  status: ('A' for Active; 'I' for Inactive)
REMARK    1  A    between atoms: N1_2  and  C2_5 
REMARK    2  A    between atoms: N2_7  and  C4_8 
REMARK    3  A    between atoms: C5_11  and  N4_12 
REMARK    4  A    between atoms: N4_12  and  C6_14 
REMARK    5  A    between atoms: C12_22  and  N6_23 
REMARK    6  A    between atoms: N6_23  and  N7_25 
REMARK    7  A    between atoms: C13_30  and  N9_31 
ROOT
HETATM    1  C4  UNL     1      20.493  24.128  28.452  1.00  0.00     0.149 A 
HETATM    2  N3  UNL     1      19.515  24.810  27.717  1.00  0.00    -0.174 N 
ATOM      3  H3  UNL     1      18.535  24.583  27.885  1.00  0.00     0.186 HD
HETATM    4  C5  UNL     1      19.803  25.742  26.810  1.00  0.00     0.680 A 
HETATM    5  N5  UNL     1      21.072  26.071  26.560  1.00  0.00    -0.186 N 
ATOM      6  H5  UNL     1      21.301  26.784  25.867  1.00  0.00     0.184 HD
HETATM    7  C11 UNL     1      22.047  25.434  27.249  1.00  0.00     0.126 A 
HETATM    8  C12 UNL     1      23.341  25.798  26.974  1.00  0.00     0.165 A 
HETATM    9  N8  UNL     1      24.324  25.188  27.644  1.00  0.00    -0.173 N 
ATOM     10  H8  UNL     1      25.296  25.438  27.462  1.00  0.00     0.186 HD
HETATM   11  C13 UNL     1      24.035  24.256  28.547  1.00  0.00     0.680 A 
HETATM   12  N10 UNL     1      22.769  23.847  28.868  1.00  0.00    -0.182 N 
HETATM   13  C14 UNL     1      22.541  22.839  29.825  1.00  0.00     0.176 C 
HETATM   14  C15 UNL     1      21.770  24.455  28.202  1.00  0.00     0.126 A 
ENDROOT
BRANCH   1  15
HETATM   15  N2  UNL     1      19.930  23.237  29.345  1.00  0.00    -0.361 N 
HETATM   16  C3  UNL     1      19.582  21.793  29.266  1.00  0.00     0.159 C 
HETATM   17  C2  UNL     1      18.281  22.119  30.003  1.00  0.00     0.221 C 
HETATM   18  C16 UNL     1      19.237  23.171  30.599  1.00  0.00     0.159 C 
BRANCH  17  19
HETATM   19  N1  UNL     1      17.862  21.196  31.004  1.00  0.00    -0.072 N 
HETATM   20  C1  UNL     1      16.542  20.665  30.741  1.00  0.00     0.267 C 
ATOM     21  H12 UNL     1      17.914  21.612  31.934  1.00  0.00     0.277 HD
ATOM     22  H11 UNL     1      18.544  20.447  31.123  1.00  0.00     0.277 HD
ENDBRANCH  17  19
ENDBRANCH   1  15
BRANCH   4  23
HETATM   23  N4  UNL     1      18.810  26.292  26.196  1.00  0.00    -0.221 N 
ATOM     24  H4  UNL     1      18.281  25.693  25.562  1.00  0.00     0.178 HD
BRANCH  23  25
HETATM   25  C6  UNL     1      18.374  27.638  26.306  1.00  0.00     0.099 C 
HETATM   26  C7  UNL     1      17.349  27.782  27.407  1.00  0.00     0.026 C 
HETATM   27  C8  UNL     1      16.020  27.470  26.733  1.00  0.00     0.002 C 
HETATM   28  C9  UNL     1      16.171  28.190  25.418  1.00  0.00     0.002 C 
HETATM   29  C10 UNL     1      17.602  27.983  25.050  1.00  0.00     0.026 C 
ENDBRANCH  23  25
ENDBRANCH   4  23
BRANCH   8  30
HETATM   30  N6  UNL     1      23.624  26.725  26.102  1.00  0.00    -0.290 N 
ATOM     31  H6  UNL     1      23.467  27.691  26.390  1.00  0.00     0.188 HD
BRANCH  30  32
HETATM   32  N7  UNL     1      24.113  26.530  24.831  1.00  0.00    -0.344 N 
ATOM     33  H72 UNL     1      24.966  27.040  24.602  1.00  0.00     0.176 HD
ATOM     34  H71 UNL     1      23.707  25.932  24.111  1.00  0.00     0.176 HD
ENDBRANCH  30  32
ENDBRANCH   8  30
BRANCH  11  35
HETATM   35  N9  UNL     1      24.995  23.673  29.196  1.00  0.00    -0.234 N 
ATOM     36  H92 UNL     1      25.899  24.143  29.166  1.00  0.00     0.174 HD
ATOM     37  H91 UNL     1      24.812  22.798  29.688  1.00  0.00     0.174 HD
ENDBRANCH  11  35
TORSDOF 7
ENDMDL
MODEL 5
REMARK VINA RESULT: -6.965276386      2.448      5.803
REMARK  7 active torsions:
REMARK  status: ('A' for Active; 'I' for Inactive)
REMARK    1  A    between atoms: N1_2  and  C2_5 
REMARK    2  A    between atoms: N2_7  and  C4_8 
REMARK    3  A    between atoms: C5_11  and  N4_12 
REMARK    4  A    between atoms: N4_12  and  C6_14 
REMARK    5  A    between atoms: C12_22  and  N6_23 
REMARK    6  A    between atoms: N6_23  and  N7_25 
REMARK    7  A    between atoms: C13_30  and  N9_31 
ROOT
HETATM    1  C4  UNL     1      18.374  26.198  28.143  1.00  0.00     0.149 A 
HETATM    2  N3  UNL     1      17.950  26.621  26.877  1.00  0.00    -0.174 N 
ATOM      3  H3  UNL     1      18.634  26.647  26.121  1.00  0.00     0.186 HD
HETATM    4  C5  UNL     1      16.698  26.990  26.614  1.00  0.00     0.680 A 
HETATM    5  N5  UNL     1      15.772  26.970  27.574  1.00  0.00    -0.186 N 
ATOM      6  H5  UNL     1      14.811  27.251  27.380  1.00  0.00     0.184 HD
HETATM    7  C11 UNL     1      16.141  26.567  28.811  1.00  0.00     0.126 A 
HETATM    8  C12 UNL     1      15.166  26.551  29.777  1.00  0.00     0.165 A 
HETATM    9  N8  UNL     1      15.501  26.153  31.008  1.00  0.00    -0.173 N 
ATOM     10  H8  UNL     1      14.797  26.130  31.745  1.00  0.00     0.186 HD
HETATM   11  C13 UNL     1      16.753  25.787  31.271  1.00  0.00     0.680 A 
HETATM   12  N10 UNL     1      17.771  25.781  30.356  1.00  0.00    -0.182 N 
HETATM   13  C14 UNL     1      19.079  25.397  30.713  1.00  0.00     0.176 C 
HETATM   14  C15 UNL     1      17.446  26.177  29.112  1.00  0.00     0.126 A 
ENDROOT
BRANCH   1  15
HETATM   15  N2  UNL     1      19.709  25.844  28.143  1.00  0.00    -0.361 N 
HETATM   16  C3  UNL     1      20.962  26.580  28.457  1.00  0.00     0.159 C 
HETATM   17  C2  UNL     1      21.605  25.901  27.245  1.00  0.00     0.221 C 
HETATM   18  C16 UNL     1      20.612  24.817  27.708  1.00  0.00     0.159 C 
BRANCH  17  19
HETATM   19  N1  UNL     1      22.947  25.451  27.399  1.00  0.00    -0.072 N 
HETATM   20  C1  UNL     1      23.862  26.145  26.519  1.00  0.00     0.267 C 
ATOM     21  H12 UNL     1      23.014  24.441  27.278  1.00  0.00     0.277 HD
ATOM     22  H11 UNL     1      23.249  25.518  28.372  1.00  0.00     0.277 HD
ENDBRANCH  17  19
ENDBRANCH   1  15
BRANCH   4  23
HETATM   23  N4  UNL     1      16.438  27.367  25.407  1.00  0.00    -0.221 N 
ATOM     24  H4  UNL     1      16.003  26.673  24.798  1.00  0.00     0.178 HD
BRANCH  23  25
HETATM   25  C6  UNL     1      16.691  28.640  24.834  1.00  0.00     0.099 C 
HETATM   26  C7  UNL     1      15.401  29.387  24.591  1.00  0.00     0.026 C 
HETATM   27  C8  UNL     1      14.947  28.925  23.213  1.00  0.00     0.002 C 
HETATM   28  C9  UNL     1      16.247  28.918  22.452  1.00  0.00     0.002 C 
HETATM   29  C10 UNL     1      17.248  28.424  23.442  1.00  0.00     0.026 C 
ENDBRANCH  23  25
ENDBRANCH   4  23
BRANCH   8  30
HETATM   30  N6  UNL     1      13.934  26.892  29.514  1.00  0.00    -0.290 N 
ATOM     31  H6  UNL     1      13.602  26.722  28.565  1.00  0.00     0.188 HD
BRANCH  30  32
HETATM   32  N7  UNL     1      13.038  27.457  30.392  1.00  0.00    -0.344 N 
ATOM     33  H72 UNL     1      13.095  28.471  30.490  1.00  0.00     0.176 HD
ATOM     34  H71 UNL     1      12.336  26.962  30.942  1.00  0.00     0.176 HD
ENDBRANCH  30  32
ENDBRANCH   8  30
BRANCH  11  35
HETATM   35  N9  UNL     1      17.069  25.397  32.466  1.00  0.00    -0.234 N 
ATOM     36  H92 UNL     1      17.152  26.136  33.165  1.00  0.00     0.174 HD
ATOM     37  H91 UNL     1      17.220  24.405  32.649  1.00  0.00     0.174 HD
ENDBRANCH  11  35
TORSDOF 7
ENDMDL
