MODEL 1
REMARK VINA RESULT: -8.741949719      0.000      0.000
REMARK  6 active torsions:
REMARK  status: ('A' for Active; 'I' for Inactive)
REMARK    1  A    between atoms: C2_2  and  N1_3 
REMARK    2  A    between atoms: C4_5  and  C5_6 
REMARK    3  A    between atoms: C5_6  and  C6_7 
REMARK    4  A    between atoms: C6_7  and  C7_8 
REMARK    5  A    between atoms: C11_20  and  C12_21 
REMARK    6  A    between atoms: C13_28  and  O3_29 
ROOT
HETATM    1  N1  UNL     1      17.711  24.491  28.619  1.00  0.00    -0.341 N 
HETATM    2  C3  UNL     1      17.435  25.480  27.772  1.00  0.00     0.105 A 
HETATM    3  C4  UNL     1      18.631  26.002  27.270  1.00  0.00    -0.004 A 
HETATM    4  C10 UNL     1      19.669  25.300  27.836  1.00  0.00     0.052 A 
HETATM    5  C11 UNL     1      21.048  25.136  27.922  1.00  0.00     0.095 A 
HETATM    6  N8  UNL     1      21.188  24.099  28.815  1.00  0.00    -0.296 N 
ATOM      7  H8  UNL     1      22.085  23.715  29.111  1.00  0.00     0.187 HD
HETATM    8  N9  UNL     1      20.032  23.669  29.236  1.00  0.00    -0.284 N 
ATOM      9  H9  UNL     1      19.901  22.907  29.901  1.00  0.00     0.188 HD
HETATM   10  C14 UNL     1      19.046  24.365  28.673  1.00  0.00     0.135 A 
ENDROOT
BRANCH   3  11
HETATM   11  C5  UNL     1      18.738  27.093  26.319  1.00  0.00     0.017 C 
BRANCH  11  12
HETATM   12  C6  UNL     1      17.756  27.990  26.231  1.00  0.00     0.050 C 
BRANCH  12  13
HETATM   13  C7  UNL     1      16.931  28.179  25.047  1.00  0.00     0.112 A 
HETATM   14  N2  UNL     1      15.576  28.066  25.123  1.00  0.00    -0.294 N 
HETATM   15  C8  UNL     1      14.758  28.225  24.085  1.00  0.00     0.329 A 
ATOM     16  H2  UNL     1      15.164  27.845  26.029  1.00  0.00     0.172 HD
HETATM   17  O1  UNL     1      13.519  28.122  24.152  1.00  0.00    -0.246 OA
HETATM   18  N3  UNL     1      15.282  28.519  22.870  1.00  0.00    -0.260 N 
HETATM   19  C9  UNL     1      16.615  28.637  22.771  1.00  0.00     0.329 A 
ATOM     20  H3  UNL     1      14.681  28.647  22.056  1.00  0.00     0.175 HD
HETATM   21  O2  UNL     1      17.120  28.907  21.661  1.00  0.00    -0.246 OA
HETATM   22  N4  UNL     1      17.427  28.468  23.847  1.00  0.00    -0.294 N 
ATOM     23  H4  UNL     1      18.436  28.564  23.733  1.00  0.00     0.172 HD
ENDBRANCH  12  13
ENDBRANCH  11  12
ENDBRANCH   3  11
BRANCH   1  24
HETATM   24  C2  UNL     1      16.768  23.684  29.358  1.00  0.00     0.125 C 
HETATM   25  C1  UNL     1      16.872  22.229  28.976  1.00  0.00     0.027 C 
ENDBRANCH   1  24
BRANCH   5  26
HETATM   26  C12 UNL     1      22.110  25.843  27.265  1.00  0.00     0.130 A 
HETATM   27  N5  UNL     1      22.294  26.128  25.996  1.00  0.00    -0.280 N 
HETATM   28  N6  UNL     1      23.431  26.813  25.806  1.00  0.00    -0.240 N 
ATOM     29  H5  UNL     1      21.652  25.863  25.249  1.00  0.00     0.188 HD
HETATM   30  N7  UNL     1      24.022  26.993  26.956  1.00  0.00    -0.264 N 
ATOM     31  H6  UNL     1      23.779  27.141  24.905  1.00  0.00     0.208 HD
HETATM   32  C13 UNL     1      23.216  26.395  27.890  1.00  0.00     0.187 A 
ATOM     33  H7  UNL     1      24.903  27.479  27.126  1.00  0.00     0.190 HD
BRANCH  32  34
HETATM   34  O3  UNL     1      23.511  26.375  29.235  1.00  0.00    -0.343 OA
ATOM     35  H3  UNL     1      23.840  27.093  29.764  1.00  0.00     0.219 HD
ENDBRANCH  32  34
ENDBRANCH   5  26
TORSDOF 6
ENDMDL
MODEL 2
REMARK VINA RESULT: -8.738342533      0.037      1.528
REMARK  6 active torsions:
REMARK  status: ('A' for Active; 'I' for Inactive)
REMARK    1  A    between atoms: C2_2  and  N1_3 
REMARK    2  A    between atoms: C4_5  and  C5_6 
REMARK    3  A    between atoms: C5_6  and  C6_7 
REMARK    4  A    between atoms: C6_7  and  C7_8 
REMARK    5  A    between atoms: C11_20  and  C12_21 
REMARK    6  A    between atoms: C13_28  and  O3_29 
ROOT
HETATM    1  N1  UNL     1      17.700  24.478  28.583  1.00  0.00    -0.341 N 
HETATM    2  C3  UNL     1      17.430  25.477  27.746  1.00  0.00     0.105 A 
HETATM    3  C4  UNL     1      18.630  26.003  27.257  1.00  0.00    -0.004 A 
HETATM    4  C10 UNL     1      19.664  25.293  27.821  1.00  0.00     0.052 A 
HETATM    5  C11 UNL     1      21.043  25.125  27.914  1.00  0.00     0.095 A 
HETATM    6  N8  UNL     1      21.175  24.078  28.795  1.00  0.00    -0.296 N 
ATOM      7  H8  UNL     1      22.070  23.689  29.091  1.00  0.00     0.187 HD
HETATM    8  N9  UNL     1      20.016  23.644  29.203  1.00  0.00    -0.284 N 
ATOM      9  H9  UNL     1      19.880  22.875  29.858  1.00  0.00     0.188 HD
HETATM   10  C14 UNL     1      19.034  24.349  28.644  1.00  0.00     0.135 A 
ENDROOT
BRANCH   3  11
HETATM   11  C5  UNL     1      18.745  27.106  26.321  1.00  0.00     0.017 C 
BRANCH  11  12
HETATM   12  C6  UNL     1      17.773  28.015  26.250  1.00  0.00     0.050 C 
BRANCH  12  13
HETATM   13  C7  UNL     1      16.891  28.176  25.104  1.00  0.00     0.112 A 
HETATM   14  N2  UNL     1      17.400  28.468  23.876  1.00  0.00    -0.294 N 
HETATM   15  C8  UNL     1      16.656  28.630  22.783  1.00  0.00     0.329 A 
ATOM     16  H2  UNL     1      18.410  28.570  23.787  1.00  0.00     0.172 HD
HETATM   17  O1  UNL     1      17.118  28.897  21.658  1.00  0.00    -0.246 OA
HETATM   18  N3  UNL     1      15.310  28.501  22.875  1.00  0.00    -0.260 N 
HETATM   19  C9  UNL     1      14.786  28.213  24.077  1.00  0.00     0.329 A 
ATOM     20  H3  UNL     1      14.713  28.619  22.057  1.00  0.00     0.175 HD
HETATM   21  O2  UNL     1      13.547  28.089  24.185  1.00  0.00    -0.246 OA
HETATM   22  N4  UNL     1      15.569  28.053  25.176  1.00  0.00    -0.294 N 
ATOM     23  H4  UNL     1      15.134  27.835  26.072  1.00  0.00     0.172 HD
ENDBRANCH  12  13
ENDBRANCH  11  12
ENDBRANCH   3  11
BRANCH   1  24
HETATM   24  C2  UNL     1      16.751  23.664  29.306  1.00  0.00     0.125 C 
HETATM   25  C1  UNL     1      16.864  22.211  28.917  1.00  0.00     0.027 C 
ENDBRANCH   1  24
BRANCH   5  26
HETATM   26  C12 UNL     1      22.110  25.839  27.271  1.00  0.00     0.130 A 
HETATM   27  N5  UNL     1      22.305  26.132  26.006  1.00  0.00    -0.280 N 
HETATM   28  N6  UNL     1      23.443  26.820  25.831  1.00  0.00    -0.240 N 
ATOM     29  H5  UNL     1      21.671  25.870  25.251  1.00  0.00     0.188 HD
HETATM   30  N7  UNL     1      24.022  26.994  26.989  1.00  0.00    -0.264 N 
ATOM     31  H6  UNL     1      23.799  27.154  24.936  1.00  0.00     0.208 HD
HETATM   32  C13 UNL     1      23.208  26.388  27.910  1.00  0.00     0.187 A 
ATOM     33  H7  UNL     1      24.900  27.480  27.170  1.00  0.00     0.190 HD
BRANCH  32  34
HETATM   34  O3  UNL     1      23.490  26.361  29.259  1.00  0.00    -0.343 OA
ATOM     35  H3  UNL     1      24.309  26.589  29.681  1.00  0.00     0.219 HD
ENDBRANCH  32  34
ENDBRANCH   5  26
TORSDOF 6
ENDMDL
MODEL 3
REMARK VINA RESULT: -8.659189365      2.844      5.508
REMARK  6 active torsions:
REMARK  status: ('A' for Active; 'I' for Inactive)
REMARK    1  A    between atoms: C2_2  and  N1_3 
REMARK    2  A    between atoms: C4_5  and  C5_6 
REMARK    3  A    between atoms: C5_6  and  C6_7 
REMARK    4  A    between atoms: C6_7  and  C7_8 
REMARK    5  A    between atoms: C11_20  and  C12_21 
REMARK    6  A    between atoms: C13_28  and  O3_29 
ROOT
HETATM    1  N1  UNL     1      19.273  26.205  26.773  1.00  0.00    -0.341 N 
HETATM    2  C3  UNL     1      18.949  27.495  26.739  1.00  0.00     0.105 A 
HETATM    3  C4  UNL     1      17.657  27.657  27.251  1.00  0.00    -0.004 A 
HETATM    4  C10 UNL     1      17.185  26.416  27.606  1.00  0.00     0.052 A 
HETATM    5  C11 UNL     1      16.126  25.685  28.138  1.00  0.00     0.095 A 
HETATM    6  N8  UNL     1      16.592  24.391  28.114  1.00  0.00    -0.296 N 
ATOM      7  H8  UNL     1      16.058  23.585  28.439  1.00  0.00     0.187 HD
HETATM    8  N9  UNL     1      17.798  24.324  27.626  1.00  0.00    -0.284 N 
ATOM      9  H9  UNL     1      18.335  23.464  27.517  1.00  0.00     0.188 HD
HETATM   10  C14 UNL     1      18.230  25.537  27.290  1.00  0.00     0.135 A 
ENDROOT
BRANCH   3  11
HETATM   11  C5  UNL     1      16.955  28.921  27.376  1.00  0.00     0.017 C 
BRANCH  11  12
HETATM   12  C6  UNL     1      16.831  29.715  26.312  1.00  0.00     0.050 C 
BRANCH  12  13
HETATM   13  C7  UNL     1      16.157  29.327  25.082  1.00  0.00     0.112 A 
HETATM   14  N2  UNL     1      16.850  29.235  23.914  1.00  0.00    -0.294 N 
HETATM   15  C8  UNL     1      16.303  28.888  22.751  1.00  0.00     0.329 A 
ATOM     16  H2  UNL     1      17.848  29.445  23.930  1.00  0.00     0.172 HD
HETATM   17  O1  UNL     1      16.934  28.802  21.681  1.00  0.00    -0.246 OA
HETATM   18  N3  UNL     1      14.978  28.604  22.703  1.00  0.00    -0.260 N 
HETATM   19  C9  UNL     1      14.275  28.688  23.842  1.00  0.00     0.329 A 
ATOM     20  H3  UNL     1      14.530  28.335  21.827  1.00  0.00     0.175 HD
HETATM   21  O2  UNL     1      13.052  28.431  23.821  1.00  0.00    -0.246 OA
HETATM   22  N4  UNL     1      14.859  29.046  25.016  1.00  0.00    -0.294 N 
ATOM     23  H4  UNL     1      14.292  29.099  25.861  1.00  0.00     0.172 HD
ENDBRANCH  12  13
ENDBRANCH  11  12
ENDBRANCH   3  11
BRANCH   1  24
HETATM   24  C2  UNL     1      20.513  25.604  26.339  1.00  0.00     0.125 C 
HETATM   25  C1  UNL     1      21.390  25.246  27.513  1.00  0.00     0.027 C 
ENDBRANCH   1  24
BRANCH   5  26
HETATM   26  C12 UNL     1      14.842  26.120  28.611  1.00  0.00     0.130 A 
HETATM   27  N5  UNL     1      14.298  27.315  28.636  1.00  0.00    -0.280 N 
HETATM   28  N6  UNL     1      13.068  27.284  29.168  1.00  0.00    -0.240 N 
ATOM     29  H5  UNL     1      14.754  28.161  28.293  1.00  0.00     0.188 HD
HETATM   30  N7  UNL     1      12.776  26.056  29.505  1.00  0.00    -0.264 N 
ATOM     31  H6  UNL     1      12.457  28.091  29.290  1.00  0.00     0.208 HD
HETATM   32  C13 UNL     1      13.872  25.304  29.166  1.00  0.00     0.187 A 
ATOM     33  H7  UNL     1      11.911  25.724  29.932  1.00  0.00     0.190 HD
BRANCH  32  34
HETATM   34  O3  UNL     1      13.942  23.944  29.373  1.00  0.00    -0.343 OA
ATOM     35  H3  UNL     1      13.419  23.424  29.971  1.00  0.00     0.219 HD
ENDBRANCH  32  34
ENDBRANCH   5  26
TORSDOF 6
ENDMDL
MODEL 4
REMARK VINA RESULT: -8.561410549      2.555      4.982
REMARK  6 active torsions:
REMARK  status: ('A' for Active; 'I' for Inactive)
REMARK    1  A    between atoms: C2_2  and  N1_3 
REMARK    2  A    between atoms: C4_5  and  C5_6 
REMARK    3  A    between atoms: C5_6  and  C6_7 
REMARK    4  A    between atoms: C6_7  and  C7_8 
REMARK    5  A    between atoms: C11_20  and  C12_21 
REMARK    6  A    between atoms: C13_28  and  O3_29 
ROOT
HETATM    1  N1  UNL     1      20.013  25.226  27.725  1.00  0.00    -0.341 N 
HETATM    2  C3  UNL     1      19.695  26.308  27.019  1.00  0.00     0.105 A 
HETATM    3  C4  UNL     1      18.357  26.637  27.261  1.00  0.00    -0.004 A 
HETATM    4  C10 UNL     1      17.850  25.717  28.148  1.00  0.00     0.052 A 
HETATM    5  C11 UNL     1      16.741  25.295  28.877  1.00  0.00     0.095 A 
HETATM    6  N8  UNL     1      17.207  24.189  29.549  1.00  0.00    -0.296 N 
ATOM      7  H8  UNL     1      16.642  23.627  30.185  1.00  0.00     0.187 HD
HETATM    8  N9  UNL     1      18.457  23.949  29.271  1.00  0.00    -0.284 N 
ATOM      9  H9  UNL     1      19.002  23.179  29.658  1.00  0.00     0.188 HD
HETATM   10  C14 UNL     1      18.922  24.853  28.411  1.00  0.00     0.135 A 
ENDROOT
BRANCH   3  11
HETATM   11  C5  UNL     1      17.646  27.755  26.671  1.00  0.00     0.017 C 
BRANCH  11  12
HETATM   12  C6  UNL     1      17.956  28.157  25.438  1.00  0.00     0.050 C 
BRANCH  12  13
HETATM   13  C7  UNL     1      16.983  28.335  24.371  1.00  0.00     0.112 A 
HETATM   14  N2  UNL     1      15.652  28.185  24.617  1.00  0.00    -0.294 N 
HETATM   15  C8  UNL     1      14.705  28.332  23.693  1.00  0.00     0.329 A 
ATOM     16  H2  UNL     1      15.364  27.945  25.565  1.00  0.00     0.172 HD
HETATM   17  O1  UNL     1      13.487  28.195  23.914  1.00  0.00    -0.246 OA
HETATM   18  N3  UNL     1      15.063  28.650  22.425  1.00  0.00    -0.260 N 
HETATM   19  C9  UNL     1      16.369  28.804  22.159  1.00  0.00     0.329 A 
ATOM     20  H3  UNL     1      14.361  28.769  21.695  1.00  0.00     0.175 HD
HETATM   21  O2  UNL     1      16.722  29.097  20.997  1.00  0.00    -0.246 OA
HETATM   22  N4  UNL     1      17.316  28.648  23.122  1.00  0.00    -0.294 N 
ATOM     23  H4  UNL     1      18.299  28.772  22.882  1.00  0.00     0.172 HD
ENDBRANCH  12  13
ENDBRANCH  11  12
ENDBRANCH   3  11
BRANCH   1  24
HETATM   24  C2  UNL     1      21.292  24.554  27.766  1.00  0.00     0.125 C 
HETATM   25  C1  UNL     1      22.413  25.480  27.363  1.00  0.00     0.027 C 
ENDBRANCH   1  24
BRANCH   5  26
HETATM   26  C12 UNL     1      15.416  25.841  28.949  1.00  0.00     0.130 A 
HETATM   27  N5  UNL     1      14.984  27.070  28.780  1.00  0.00    -0.280 N 
HETATM   28  N6  UNL     1      13.656  27.151  28.939  1.00  0.00    -0.240 N 
ATOM     29  H5  UNL     1      15.585  27.863  28.555  1.00  0.00     0.188 HD
HETATM   30  N7  UNL     1      13.183  25.965  29.218  1.00  0.00    -0.264 N 
ATOM     31  H6  UNL     1      13.102  28.003  28.855  1.00  0.00     0.208 HD
HETATM   32  C13 UNL     1      14.266  25.124  29.231  1.00  0.00     0.187 A 
ATOM     33  H7  UNL     1      12.209  25.716  29.390  1.00  0.00     0.190 HD
BRANCH  32  34
HETATM   34  O3  UNL     1      14.166  23.775  29.492  1.00  0.00    -0.343 OA
ATOM     35  H3  UNL     1      13.967  23.363  30.325  1.00  0.00     0.219 HD
ENDBRANCH  32  34
ENDBRANCH   5  26
TORSDOF 6
ENDMDL
MODEL 5
REMARK VINA RESULT: -8.538098565      1.636      1.827
REMARK  6 active torsions:
REMARK  status: ('A' for Active; 'I' for Inactive)
REMARK    1  A    between atoms: C2_2  and  N1_3 
REMARK    2  A    between atoms: C4_5  and  C5_6 
REMARK    3  A    between atoms: C5_6  and  C6_7 
REMARK    4  A    between atoms: C6_7  and  C7_8 
REMARK    5  A    between atoms: C11_20  and  C12_21 
REMARK    6  A    between atoms: C13_28  and  O3_29 
ROOT
HETATM    1  N1  UNL     1      17.316  26.809  29.492  1.00  0.00    -0.341 N 
HETATM    2  C3  UNL     1      17.124  27.207  28.237  1.00  0.00     0.105 A 
HETATM    3  C4  UNL     1      18.338  27.147  27.545  1.00  0.00    -0.004 A 
HETATM    4  C10 UNL     1      19.299  26.694  28.417  1.00  0.00     0.052 A 
HETATM    5  C11 UNL     1      20.638  26.358  28.598  1.00  0.00     0.095 A 
HETATM    6  N8  UNL     1      20.692  25.970  29.916  1.00  0.00    -0.296 N 
ATOM      7  H8  UNL     1      21.540  25.655  30.386  1.00  0.00     0.187 HD
HETATM    8  N9  UNL     1      19.524  26.054  30.489  1.00  0.00    -0.284 N 
ATOM      9  H9  UNL     1      19.335  25.816  31.463  1.00  0.00     0.188 HD
HETATM   10  C14 UNL     1      18.614  26.495  29.624  1.00  0.00     0.135 A 
ENDROOT
BRANCH   3  11
HETATM   11  C5  UNL     1      18.531  27.504  26.152  1.00  0.00     0.017 C 
BRANCH  11  12
HETATM   12  C6  UNL     1      17.956  28.605  25.668  1.00  0.00     0.050 C 
BRANCH  12  13
HETATM   13  C7  UNL     1      17.008  28.611  24.564  1.00  0.00     0.112 A 
HETATM   14  N2  UNL     1      15.681  28.407  24.791  1.00  0.00    -0.294 N 
HETATM   15  C8  UNL     1      14.757  28.398  23.833  1.00  0.00     0.329 A 
ATOM     16  H2  UNL     1      15.378  28.250  25.752  1.00  0.00     0.172 HD
HETATM   17  O1  UNL     1      13.542  28.212  24.038  1.00  0.00    -0.246 OA
HETATM   18  N3  UNL     1      15.135  28.603  22.548  1.00  0.00    -0.260 N 
HETATM   19  C9  UNL     1      16.438  28.808  22.300  1.00  0.00     0.329 A 
ATOM     20  H3  UNL     1      14.450  28.602  21.792  1.00  0.00     0.175 HD
HETATM   21  O2  UNL     1      16.809  28.999  21.123  1.00  0.00    -0.246 OA
HETATM   22  N4  UNL     1      17.361  28.811  23.297  1.00  0.00    -0.294 N 
ATOM     23  H4  UNL     1      18.342  28.969  23.070  1.00  0.00     0.172 HD
ENDBRANCH  12  13
ENDBRANCH  11  12
ENDBRANCH   3  11
BRANCH   1  24
HETATM   24  C2  UNL     1      16.328  26.720  30.541  1.00  0.00     0.125 C 
HETATM   25  C1  UNL     1      16.583  27.736  31.626  1.00  0.00     0.027 C 
ENDBRANCH   1  24
BRANCH   5  26
HETATM   26  C12 UNL     1      21.735  26.388  27.673  1.00  0.00     0.130 A 
HETATM   27  N5  UNL     1      21.750  26.376  26.359  1.00  0.00    -0.280 N 
HETATM   28  N6  UNL     1      23.002  26.416  25.882  1.00  0.00    -0.240 N 
ATOM     29  H5  UNL     1      20.915  26.341  25.776  1.00  0.00     0.188 HD
HETATM   30  N7  UNL     1      23.843  26.457  26.881  1.00  0.00    -0.264 N 
ATOM     31  H6  UNL     1      23.258  26.415  24.895  1.00  0.00     0.208 HD
HETATM   32  C13 UNL     1      23.075  26.441  28.017  1.00  0.00     0.187 A 
ATOM     33  H7  UNL     1      24.861  26.494  26.828  1.00  0.00     0.190 HD
BRANCH  32  34
HETATM   34  O3  UNL     1      23.611  26.472  29.286  1.00  0.00    -0.343 OA
ATOM     35  H3  UNL     1      24.287  25.907  29.640  1.00  0.00     0.219 HD
ENDBRANCH  32  34
ENDBRANCH   5  26
TORSDOF 6
ENDMDL
