MODEL 1
REMARK VINA RESULT: -7.484829917      0.000      0.000
REMARK  8 active torsions:
REMARK  status: ('A' for Active; 'I' for Inactive)
REMARK    1  A    between atoms: C3_5  and  N2_6 
REMARK    2  A    between atoms: N3_9  and  C4_10 
REMARK    3  A    between atoms: C6_14  and  N5_15 
REMARK    4  A    between atoms: N5_15  and  C7_17 
REMARK    5  A    between atoms: C10_22  and  N7_23 
REMARK    6  A    between atoms: N7_23  and  C11_25 
REMARK    7  A    between atoms: C11_25  and  C12_26 
REMARK    8  A    between atoms: C12_26  and  O1_27 
ROOT
HETATM    1  C4  UNL     1      35.741  12.701 -23.816  1.00  0.00     0.191 A 
HETATM    2  N4  UNL     1      36.114  13.387 -22.773  1.00  0.00    -0.329 N 
ATOM      3  H4  UNL     1      35.925  13.017 -21.841  1.00  0.00     0.168 HD
HETATM    4  C5  UNL     1      36.723  14.531 -22.887  1.00  0.00     0.114 A 
HETATM    5  C6  UNL     1      37.175  15.364 -21.849  1.00  0.00     0.147 A 
HETATM    6  N6  UNL     1      37.786  16.514 -22.141  1.00  0.00    -0.175 N 
ATOM      7  H6  UNL     1      38.102  17.096 -21.365  1.00  0.00     0.186 HD
HETATM    8  C10 UNL     1      38.015  16.963 -23.402  1.00  0.00     0.680 A 
HETATM    9  N8  UNL     1      37.581  16.164 -24.391  1.00  0.00    -0.183 N 
ATOM     10  H8  UNL     1      37.729  16.456 -25.357  1.00  0.00     0.185 HD
HETATM   11  C13 UNL     1      36.959  14.993 -24.160  1.00  0.00     0.124 A 
HETATM   12  S1  UNL     1      36.279  13.729 -25.103  1.00  0.00    -0.031 SA
ENDROOT
BRANCH   1  13
HETATM   13  N3  UNL     1      35.068  11.441 -23.938  1.00  0.00    -0.062 N 
HETATM   14  C3  UNL     1      35.600  10.256 -23.596  1.00  0.00     0.700 A 
HETATM   15  N1  UNL     1      34.671   9.316 -23.854  1.00  0.00    -0.178 N 
HETATM   16  C2  UNL     1      33.583   9.891 -24.348  1.00  0.00     0.109 A 
ATOM     17  H1  UNL     1      34.788   8.314 -23.695  1.00  0.00     0.185 HD
HETATM   18  C1  UNL     1      32.333   9.227 -24.764  1.00  0.00     0.091 C 
HETATM   19  N9  UNL     1      33.849  11.219 -24.393  1.00  0.00    -0.266 N 
ATOM     20  H9  UNL     1      33.206  11.937 -24.726  1.00  0.00     0.189 HD
BRANCH  14  21
HETATM   21  N2  UNL     1      36.757   9.979 -23.109  1.00  0.00    -0.233 N 
ATOM     22  H22 UNL     1      37.631   9.752 -23.583  1.00  0.00     0.174 HD
ATOM     23  H21 UNL     1      36.944   9.954 -22.107  1.00  0.00     0.174 HD
ENDBRANCH  14  21
ENDBRANCH   1  13
BRANCH   5  24
HETATM   24  N5  UNL     1      36.998  15.013 -20.600  1.00  0.00    -0.369 N 
ATOM     25  H5  UNL     1      37.621  14.333 -20.165  1.00  0.00     0.161 HD
BRANCH  24  26
HETATM   26  C7  UNL     1      35.929  15.590 -19.852  1.00  0.00     0.083 A 
HETATM   27  C8  UNL     1      36.110  16.772 -18.984  1.00  0.00     0.027 A 
HETATM   28  C9  UNL     1      35.986  15.451 -18.316  1.00  0.00     0.027 A 
ENDBRANCH  24  26
ENDBRANCH   5  24
BRANCH   8  29
HETATM   29  N7  UNL     1      38.604  18.072 -23.589  1.00  0.00    -0.224 N 
ATOM     30  H7  UNL     1      38.111  18.932 -23.346  1.00  0.00     0.177 HD
BRANCH  29  31
HETATM   31  C11 UNL     1      39.933  18.171 -24.129  1.00  0.00     0.164 C 
BRANCH  31  32
HETATM   32  C12 UNL     1      40.005  19.477 -24.904  1.00  0.00     0.184 C 
BRANCH  32  33
HETATM   33  O1  UNL     1      40.350  20.537 -24.077  1.00  0.00    -0.399 OA
ATOM     34  H1  UNL     1      40.663  21.280 -24.579  1.00  0.00     0.209 HD
ENDBRANCH  32  33
ENDBRANCH  31  32
ENDBRANCH  29  31
ENDBRANCH   8  29
TORSDOF 8
ENDMDL
MODEL 2
REMARK VINA RESULT: -7.198789783      1.175      1.776
REMARK  8 active torsions:
REMARK  status: ('A' for Active; 'I' for Inactive)
REMARK    1  A    between atoms: C3_5  and  N2_6 
REMARK    2  A    between atoms: N3_9  and  C4_10 
REMARK    3  A    between atoms: C6_14  and  N5_15 
REMARK    4  A    between atoms: N5_15  and  C7_17 
REMARK    5  A    between atoms: C10_22  and  N7_23 
REMARK    6  A    between atoms: N7_23  and  C11_25 
REMARK    7  A    between atoms: C11_25  and  C12_26 
REMARK    8  A    between atoms: C12_26  and  O1_27 
ROOT
HETATM    1  C4  UNL     1      35.206  13.517 -24.011  1.00  0.00     0.191 A 
HETATM    2  N4  UNL     1      35.728  13.955 -22.900  1.00  0.00    -0.329 N 
ATOM      3  H4  UNL     1      35.437  13.536 -22.016  1.00  0.00     0.168 HD
HETATM    4  C5  UNL     1      36.608  14.911 -22.887  1.00  0.00     0.114 A 
HETATM    5  C6  UNL     1      37.243  15.472 -21.765  1.00  0.00     0.147 A 
HETATM    6  N6  UNL     1      38.131  16.455 -21.928  1.00  0.00    -0.175 N 
ATOM      7  H6  UNL     1      38.573  16.839 -21.093  1.00  0.00     0.186 HD
HETATM    8  C10 UNL     1      38.484  16.979 -23.130  1.00  0.00     0.680 A 
HETATM    9  N8  UNL     1      37.875  16.441 -24.200  1.00  0.00    -0.183 N 
ATOM     10  H8  UNL     1      38.107  16.799 -25.126  1.00  0.00     0.185 HD
HETATM   11  C13 UNL     1      36.972  15.447 -24.100  1.00  0.00     0.124 A 
HETATM   12  S1  UNL     1      36.006  14.520 -25.175  1.00  0.00    -0.031 SA
ENDROOT
BRANCH   1  13
HETATM   13  N3  UNL     1      34.237  12.492 -24.271  1.00  0.00    -0.062 N 
HETATM   14  C3  UNL     1      33.040  12.702 -24.842  1.00  0.00     0.700 A 
HETATM   15  N1  UNL     1      32.422  11.508 -24.916  1.00  0.00    -0.178 N 
HETATM   16  C2  UNL     1      33.207  10.570 -24.404  1.00  0.00     0.109 A 
ATOM     17  H1  UNL     1      31.492  11.350 -25.306  1.00  0.00     0.185 HD
HETATM   18  C1  UNL     1      32.916   9.128 -24.289  1.00  0.00     0.091 C 
HETATM   19  N9  UNL     1      34.337  11.203 -24.006  1.00  0.00    -0.266 N 
ATOM     20  H9  UNL     1      35.141  10.752 -23.570  1.00  0.00     0.189 HD
BRANCH  14  21
HETATM   21  N2  UNL     1      32.506  13.791 -25.268  1.00  0.00    -0.233 N 
ATOM     22  H22 UNL     1      32.737  14.762 -25.054  1.00  0.00     0.174 HD
ATOM     23  H21 UNL     1      31.725  13.806 -25.924  1.00  0.00     0.174 HD
ENDBRANCH  14  21
ENDBRANCH   1  13
BRANCH   5  24
HETATM   24  N5  UNL     1      36.965  15.030 -20.564  1.00  0.00    -0.369 N 
ATOM     25  H5  UNL     1      37.498  14.257 -20.165  1.00  0.00     0.161 HD
BRANCH  24  26
HETATM   26  C7  UNL     1      35.912  15.638 -19.817  1.00  0.00     0.083 A 
HETATM   27  C8  UNL     1      36.119  16.836 -18.977  1.00  0.00     0.027 A 
HETATM   28  C9  UNL     1      35.984  15.531 -18.279  1.00  0.00     0.027 A 
ENDBRANCH  24  26
ENDBRANCH   5  24
BRANCH   8  29
HETATM   29  N7  UNL     1      39.338  17.915 -23.193  1.00  0.00    -0.224 N 
ATOM     30  H7  UNL     1      39.432  18.543 -22.394  1.00  0.00     0.177 HD
BRANCH  29  31
HETATM   31  C11 UNL     1      40.179  18.132 -24.339  1.00  0.00     0.164 C 
BRANCH  31  32
HETATM   32  C12 UNL     1      39.795  19.480 -24.929  1.00  0.00     0.184 C 
BRANCH  32  33
HETATM   33  O1  UNL     1      38.425  19.572 -25.126  1.00  0.00    -0.399 OA
ATOM     34  H1  UNL     1      38.121  20.466 -25.027  1.00  0.00     0.209 HD
ENDBRANCH  32  33
ENDBRANCH  31  32
ENDBRANCH  29  31
ENDBRANCH   8  29
TORSDOF 8
ENDMDL
MODEL 3
REMARK VINA RESULT: -7.147394689      1.204      1.831
REMARK  8 active torsions:
REMARK  status: ('A' for Active; 'I' for Inactive)
REMARK    1  A    between atoms: C3_5  and  N2_6 
REMARK    2  A    between atoms: N3_9  and  C4_10 
REMARK    3  A    between atoms: C6_14  and  N5_15 
REMARK    4  A    between atoms: N5_15  and  C7_17 
REMARK    5  A    between atoms: C10_22  and  N7_23 
REMARK    6  A    between atoms: N7_23  and  C11_25 
REMARK    7  A    between atoms: C11_25  and  C12_26 
REMARK    8  A    between atoms: C12_26  and  O1_27 
ROOT
HETATM    1  C4  UNL     1      37.108  12.465 -23.772  1.00  0.00     0.191 A 
HETATM    2  N4  UNL     1      37.190  13.364 -22.831  1.00  0.00    -0.329 N 
ATOM      3  H4  UNL     1      37.003  13.091 -21.866  1.00  0.00     0.168 HD
HETATM    4  C5  UNL     1      37.503  14.599 -23.090  1.00  0.00     0.114 A 
HETATM    5  C6  UNL     1      37.625  15.658 -22.174  1.00  0.00     0.147 A 
HETATM    6  N6  UNL     1      37.957  16.876 -22.609  1.00  0.00    -0.175 N 
ATOM      7  H6  UNL     1      38.038  17.622 -21.918  1.00  0.00     0.186 HD
HETATM    8  C10 UNL     1      38.196  17.188 -23.908  1.00  0.00     0.680 A 
HETATM    9  N8  UNL     1      38.079  16.173 -24.781  1.00  0.00    -0.183 N 
ATOM     10  H8  UNL     1      38.248  16.356 -25.770  1.00  0.00     0.185 HD
HETATM   11  C13 UNL     1      37.747  14.924 -24.403  1.00  0.00     0.124 A 
HETATM   12  S1  UNL     1      37.503  13.407 -25.171  1.00  0.00    -0.031 SA
ENDROOT
BRANCH   1  13
HETATM   13  N3  UNL     1      36.786  11.069 -23.730  1.00  0.00    -0.062 N 
HETATM   14  C3  UNL     1      35.556  10.575 -23.519  1.00  0.00     0.700 A 
HETATM   15  N1  UNL     1      35.656   9.232 -23.551  1.00  0.00    -0.178 N 
HETATM   16  C2  UNL     1      36.917   8.888 -23.776  1.00  0.00     0.109 A 
ATOM     17  H1  UNL     1      34.881   8.581 -23.423  1.00  0.00     0.185 HD
HETATM   18  C1  UNL     1      37.463   7.521 -23.886  1.00  0.00     0.091 C 
HETATM   19  N9  UNL     1      37.609  10.048 -23.885  1.00  0.00    -0.266 N 
ATOM     20  H9  UNL     1      38.611  10.121 -24.060  1.00  0.00     0.189 HD
BRANCH  14  21
HETATM   21  N2  UNL     1      34.443  11.186 -23.318  1.00  0.00    -0.233 N 
ATOM     22  H22 UNL     1      33.959  11.874 -23.895  1.00  0.00     0.174 HD
ATOM     23  H21 UNL     1      33.872  11.036 -22.486  1.00  0.00     0.174 HD
ENDBRANCH  14  21
ENDBRANCH   1  13
BRANCH   5  24
HETATM   24  N5  UNL     1      37.413  15.452 -20.898  1.00  0.00    -0.369 N 
ATOM     25  H5  UNL     1      38.147  15.049 -20.315  1.00  0.00     0.161 HD
BRANCH  24  26
HETATM   26  C7  UNL     1      36.150  15.795 -20.330  1.00  0.00     0.083 A 
HETATM   27  C8  UNL     1      35.970  16.952 -19.429  1.00  0.00     0.027 A 
HETATM   28  C9  UNL     1      35.985  15.602 -18.808  1.00  0.00     0.027 A 
ENDBRANCH  24  26
ENDBRANCH   5  24
BRANCH   8  29
HETATM   29  N7  UNL     1      38.507  18.374 -24.234  1.00  0.00    -0.224 N 
ATOM     30  H7  UNL     1      37.783  19.093 -24.205  1.00  0.00     0.177 HD
BRANCH  29  31
HETATM   31  C11 UNL     1      39.833  18.753 -24.643  1.00  0.00     0.164 C 
BRANCH  31  32
HETATM   32  C12 UNL     1      39.734  20.139 -25.260  1.00  0.00     0.184 C 
BRANCH  32  33
HETATM   33  O1  UNL     1      40.016  21.127 -24.327  1.00  0.00    -0.399 OA
ATOM     34  H1  UNL     1      39.661  21.966 -24.595  1.00  0.00     0.209 HD
ENDBRANCH  32  33
ENDBRANCH  31  32
ENDBRANCH  29  31
ENDBRANCH   8  29
TORSDOF 8
ENDMDL
MODEL 4
REMARK VINA RESULT: -7.066401012      3.621      8.096
REMARK  8 active torsions:
REMARK  status: ('A' for Active; 'I' for Inactive)
REMARK    1  A    between atoms: C3_5  and  N2_6 
REMARK    2  A    between atoms: N3_9  and  C4_10 
REMARK    3  A    between atoms: C6_14  and  N5_15 
REMARK    4  A    between atoms: N5_15  and  C7_17 
REMARK    5  A    between atoms: C10_22  and  N7_23 
REMARK    6  A    between atoms: N7_23  and  C11_25 
REMARK    7  A    between atoms: C11_25  and  C12_26 
REMARK    8  A    between atoms: C12_26  and  O1_27 
ROOT
HETATM    1  C4  UNL     1      36.792  14.413 -23.550  1.00  0.00     0.191 A 
HETATM    2  N4  UNL     1      37.209  13.178 -23.555  1.00  0.00    -0.329 N 
ATOM      3  H4  UNL     1      38.209  12.992 -23.480  1.00  0.00     0.168 HD
HETATM    4  C5  UNL     1      36.385  12.177 -23.651  1.00  0.00     0.114 A 
HETATM    5  C6  UNL     1      36.703  10.808 -23.668  1.00  0.00     0.147 A 
HETATM    6  N6  UNL     1      35.729   9.902 -23.773  1.00  0.00    -0.175 N 
ATOM      7  H6  UNL     1      35.994   8.917 -23.782  1.00  0.00     0.186 HD
HETATM    8  C10 UNL     1      34.408  10.202 -23.870  1.00  0.00     0.680 A 
HETATM    9  N8  UNL     1      34.108  11.512 -23.854  1.00  0.00    -0.183 N 
ATOM     10  H8  UNL     1      33.129  11.790 -23.924  1.00  0.00     0.185 HD
HETATM   11  C13 UNL     1      35.046  12.472 -23.749  1.00  0.00     0.124 A 
HETATM   12  S1  UNL     1      35.080  14.188 -23.694  1.00  0.00    -0.031 SA
ENDROOT
BRANCH   1  13
HETATM   13  N3  UNL     1      37.497  15.657 -23.456  1.00  0.00    -0.062 N 
HETATM   14  C3  UNL     1      37.734  16.315 -22.309  1.00  0.00     0.700 A 
HETATM   15  N1  UNL     1      38.416  17.432 -22.626  1.00  0.00    -0.178 N 
HETATM   16  C2  UNL     1      38.604  17.479 -23.939  1.00  0.00     0.109 A 
ATOM     17  H1  UNL     1      38.739  18.134 -21.960  1.00  0.00     0.185 HD
HETATM   18  C1  UNL     1      39.302  18.530 -24.703  1.00  0.00     0.091 C 
HETATM   19  N9  UNL     1      38.023  16.362 -24.440  1.00  0.00    -0.266 N 
ATOM     20  H9  UNL     1      37.997  16.105 -25.427  1.00  0.00     0.189 HD
BRANCH  14  21
HETATM   21  N2  UNL     1      37.413  16.013 -21.101  1.00  0.00    -0.233 N 
ATOM     22  H22 UNL     1      37.761  16.385 -20.218  1.00  0.00     0.174 HD
ATOM     23  H21 UNL     1      36.712  15.307 -20.875  1.00  0.00     0.174 HD
ENDBRANCH  14  21
ENDBRANCH   1  13
BRANCH   5  24
HETATM   24  N5  UNL     1      37.952  10.422 -23.580  1.00  0.00    -0.369 N 
ATOM     25  H5  UNL     1      38.407  10.361 -22.669  1.00  0.00     0.161 HD
BRANCH  24  26
HETATM   26  C7  UNL     1      38.670  10.089 -24.766  1.00  0.00     0.083 A 
HETATM   27  C8  UNL     1      39.494   8.867 -24.882  1.00  0.00     0.027 A 
HETATM   28  C9  UNL     1      40.211  10.156 -24.701  1.00  0.00     0.027 A 
ENDBRANCH  24  26
ENDBRANCH   5  24
BRANCH   8  29
HETATM   29  N7  UNL     1      33.547   9.276 -23.968  1.00  0.00    -0.224 N 
ATOM     30  H7  UNL     1      33.565   8.520 -23.282  1.00  0.00     0.177 HD
BRANCH  29  31
HETATM   31  C11 UNL     1      32.546   9.242 -25.000  1.00  0.00     0.164 C 
BRANCH  31  32
HETATM   32  C12 UNL     1      33.205   8.668 -26.244  1.00  0.00     0.184 C 
BRANCH  32  33
HETATM   33  O1  UNL     1      32.593   7.487 -26.640  1.00  0.00    -0.399 OA
ATOM     34  H1  UNL     1      33.230   6.857 -26.957  1.00  0.00     0.209 HD
ENDBRANCH  32  33
ENDBRANCH  31  32
ENDBRANCH  29  31
ENDBRANCH   8  29
TORSDOF 8
ENDMDL
MODEL 5
REMARK VINA RESULT: -7.058044448      2.882      5.188
REMARK  8 active torsions:
REMARK  status: ('A' for Active; 'I' for Inactive)
REMARK    1  A    between atoms: C3_5  and  N2_6 
REMARK    2  A    between atoms: N3_9  and  C4_10 
REMARK    3  A    between atoms: C6_14  and  N5_15 
REMARK    4  A    between atoms: N5_15  and  C7_17 
REMARK    5  A    between atoms: C10_22  and  N7_23 
REMARK    6  A    between atoms: N7_23  and  C11_25 
REMARK    7  A    between atoms: C11_25  and  C12_26 
REMARK    8  A    between atoms: C12_26  and  O1_27 
ROOT
HETATM    1  C4  UNL     1      37.568  10.790 -24.304  1.00  0.00     0.191 A 
HETATM    2  N4  UNL     1      36.428  11.289 -24.692  1.00  0.00    -0.329 N 
ATOM      3  H4  UNL     1      35.847  10.755 -25.337  1.00  0.00     0.168 HD
HETATM    4  C5  UNL     1      36.012  12.449 -24.278  1.00  0.00     0.114 A 
HETATM    5  C6  UNL     1      34.811  13.096 -24.617  1.00  0.00     0.147 A 
HETATM    6  N6  UNL     1      34.534  14.294 -24.099  1.00  0.00    -0.175 N 
ATOM      7  H6  UNL     1      33.654  14.736 -24.366  1.00  0.00     0.186 HD
HETATM    8  C10 UNL     1      35.344  14.966 -23.241  1.00  0.00     0.680 A 
HETATM    9  N8  UNL     1      36.491  14.344 -22.919  1.00  0.00    -0.183 N 
ATOM     10  H8  UNL     1      37.135  14.807 -22.277  1.00  0.00     0.185 HD
HETATM   11  C13 UNL     1      36.826  13.135 -23.408  1.00  0.00     0.124 A 
HETATM   12  S1  UNL     1      38.142  12.043 -23.254  1.00  0.00    -0.031 SA
ENDROOT
BRANCH   1  13
HETATM   13  N3  UNL     1      38.225   9.555 -24.619  1.00  0.00    -0.062 N 
HETATM   14  C3  UNL     1      37.799   8.343 -24.229  1.00  0.00     0.700 A 
HETATM   15  N1  UNL     1      38.672   7.440 -24.715  1.00  0.00    -0.178 N 
HETATM   16  C2  UNL     1      39.626   8.066 -25.392  1.00  0.00     0.109 A 
ATOM     17  H1  UNL     1      38.610   6.431 -24.582  1.00  0.00     0.185 HD
HETATM   18  C1  UNL     1      40.776   7.455 -26.084  1.00  0.00     0.091 C 
HETATM   19  N9  UNL     1      39.330   9.387 -25.321  1.00  0.00    -0.266 N 
ATOM     20  H9  UNL     1      39.877  10.136 -25.746  1.00  0.00     0.189 HD
BRANCH  14  21
HETATM   21  N2  UNL     1      36.771   8.013 -23.531  1.00  0.00    -0.233 N 
ATOM     22  H22 UNL     1      36.252   8.548 -22.834  1.00  0.00     0.174 HD
ATOM     23  H21 UNL     1      36.322   7.101 -23.604  1.00  0.00     0.174 HD
ENDBRANCH  14  21
ENDBRANCH   1  13
BRANCH   5  24
HETATM   24  N5  UNL     1      33.966  12.525 -25.439  1.00  0.00    -0.369 N 
ATOM     25  H5  UNL     1      34.119  12.569 -26.446  1.00  0.00     0.161 HD
BRANCH  24  26
HETATM   26  C7  UNL     1      32.830  11.840 -24.915  1.00  0.00     0.083 A 
HETATM   27  C8  UNL     1      32.945  10.727 -23.948  1.00  0.00     0.027 A 
HETATM   28  C9  UNL     1      32.622  10.375 -25.355  1.00  0.00     0.027 A 
ENDBRANCH  24  26
ENDBRANCH   5  24
BRANCH   8  29
HETATM   29  N7  UNL     1      35.002  16.104 -22.797  1.00  0.00    -0.224 N 
ATOM     30  H7  UNL     1      34.586  16.774 -23.443  1.00  0.00     0.177 HD
BRANCH  29  31
HETATM   31  C11 UNL     1      35.175  16.492 -21.423  1.00  0.00     0.164 C 
BRANCH  31  32
HETATM   32  C12 UNL     1      35.750  17.900 -21.424  1.00  0.00     0.184 C 
BRANCH  32  33
HETATM   33  O1  UNL     1      35.806  18.421 -22.708  1.00  0.00    -0.399 OA
ATOM     34  H1  UNL     1      36.698  18.445 -23.033  1.00  0.00     0.209 HD
ENDBRANCH  32  33
ENDBRANCH  31  32
ENDBRANCH  29  31
ENDBRANCH   8  29
TORSDOF 8
ENDMDL
