MODEL 1
REMARK VINA RESULT: -7.604257720      0.000      0.000
REMARK  6 active torsions:
REMARK  status: ('A' for Active; 'I' for Inactive)
REMARK    1  A    between atoms: C2_2  and  N1_4 
REMARK    2  A    between atoms: N1_4  and  C4_6 
REMARK    3  A    between atoms: C6_13  and  N4_14 
REMARK    4  A    between atoms: N5_17  and  C9_18 
REMARK    5  A    between atoms: C9_18  and  C10_19 
REMARK    6  A    between atoms: C10_19  and  O1_20 
ROOT
HETATM    1  C4  UNL     1      38.108  16.544 -23.803  1.00  0.00     0.134 C 
HETATM    2  N2  UNL     1      37.734  15.673 -24.740  1.00  0.00    -0.324 N 
ATOM      3  H2  UNL     1      38.387  15.581 -25.518  1.00  0.00     0.169 HD
HETATM    4  C5  UNL     1      36.616  14.876 -24.834  1.00  0.00     0.145 C 
HETATM    5  N3  UNL     1      36.434  14.288 -25.940  1.00  0.00    -0.382 N 
ATOM      6  H31 UNL     1      35.605  13.698 -26.009  1.00  0.00     0.157 HD
ATOM      7  H32 UNL     1      37.145  14.460 -26.651  1.00  0.00     0.157 HD
HETATM    8  C6  UNL     1      35.663  14.646 -23.882  1.00  0.00     0.149 C 
HETATM    9  N6  UNL     1      35.313  15.510 -22.890  1.00  0.00    -0.324 N 
ATOM     10  H6  UNL     1      34.346  15.448 -22.571  1.00  0.00     0.169 HD
HETATM   11  C13 UNL     1      36.082  16.446 -22.268  1.00  0.00     0.140 A 
HETATM   12  N7  UNL     1      35.731  17.087 -21.127  1.00  0.00    -0.318 N 
ATOM     13  H7  UNL     1      34.870  16.958 -20.595  1.00  0.00     0.169 HD
HETATM   14  C14 UNL     1      36.734  17.922 -20.834  1.00  0.00     0.190 A 
HETATM   15  C15 UNL     1      36.861  18.840 -19.719  1.00  0.00     0.137 C 
HETATM   16  N8  UNL     1      36.951  19.597 -18.830  1.00  0.00    -0.188 NA
HETATM   17  N9  UNL     1      37.688  17.806 -21.769  1.00  0.00    -0.327 N 
ATOM     18  H9  UNL     1      38.563  18.331 -21.785  1.00  0.00     0.168 HD
HETATM   19  C16 UNL     1      37.311  16.884 -22.690  1.00  0.00     0.123 A 
ENDROOT
BRANCH   1  20
HETATM   20  N1  UNL     1      39.183  17.153 -23.810  1.00  0.00    -0.370 N 
ATOM     21  H1  UNL     1      39.645  16.943 -22.926  1.00  0.00     0.161 HD
BRANCH  20  22
HETATM   22  C2  UNL     1      40.013  17.989 -24.500  1.00  0.00     0.075 C 
HETATM   23  C1  UNL     1      40.932  17.313 -25.514  1.00  0.00     0.031 C 
HETATM   24  C3  UNL     1      39.454  19.219 -25.163  1.00  0.00     0.031 C 
ENDBRANCH  20  22
ENDBRANCH   1  20
BRANCH   8  25
HETATM   25  N4  UNL     1      34.982  13.409 -23.904  1.00  0.00    -0.361 N 
HETATM   26  C7  UNL     1      35.522  12.281 -23.139  1.00  0.00     0.154 C 
HETATM   27  C8  UNL     1      35.379  10.962 -23.745  1.00  0.00     0.292 C 
HETATM   28  N5  UNL     1      34.332  10.722 -24.686  1.00  0.00     0.093 N 
HETATM   29  C11 UNL     1      33.918  11.875 -25.417  1.00  0.00     0.292 C 
HETATM   30  C12 UNL     1      33.773  13.100 -24.592  1.00  0.00     0.154 C 
BRANCH  28  31
HETATM   31  C9  UNL     1      33.276   9.902 -24.150  1.00  0.00     0.298 C 
BRANCH  31  32
HETATM   32  C10 UNL     1      32.574   9.166 -25.252  1.00  0.00     0.194 C 
BRANCH  32  33
HETATM   33  O1  UNL     1      31.210   9.002 -24.939  1.00  0.00    -0.399 OA
ATOM     34  H1  UNL     1      30.674   9.539 -25.512  1.00  0.00     0.209 HD
ENDBRANCH  32  33
ENDBRANCH  31  32
ENDBRANCH  28  31
ENDBRANCH   8  25
TORSDOF 6
ENDMDL
MODEL 2
REMARK VINA RESULT: -7.512880213      3.622      7.822
REMARK  6 active torsions:
REMARK  status: ('A' for Active; 'I' for Inactive)
REMARK    1  A    between atoms: C2_2  and  N1_4 
REMARK    2  A    between atoms: N1_4  and  C4_6 
REMARK    3  A    between atoms: C6_13  and  N4_14 
REMARK    4  A    between atoms: N5_17  and  C9_18 
REMARK    5  A    between atoms: C9_18  and  C10_19 
REMARK    6  A    between atoms: C10_19  and  O1_20 
ROOT
HETATM    1  C4  UNL     1      37.258  11.094 -24.794  1.00  0.00     0.134 C 
HETATM    2  N2  UNL     1      38.073  11.960 -24.193  1.00  0.00    -0.324 N 
ATOM      3  H2  UNL     1      39.052  11.878 -24.464  1.00  0.00     0.169 HD
HETATM    4  C5  UNL     1      37.816  12.945 -23.267  1.00  0.00     0.145 C 
HETATM    5  N3  UNL     1      38.824  13.487 -22.725  1.00  0.00    -0.382 N 
ATOM      6  H31 UNL     1      38.633  14.217 -22.039  1.00  0.00     0.157 HD
ATOM      7  H32 UNL     1      39.730  13.141 -23.040  1.00  0.00     0.157 HD
HETATM    8  C6  UNL     1      36.602  13.410 -22.846  1.00  0.00     0.149 C 
HETATM    9  N6  UNL     1      35.446  12.690 -22.822  1.00  0.00    -0.324 N 
ATOM     10  H6  UNL     1      34.777  12.953 -22.099  1.00  0.00     0.169 HD
HETATM   11  C13 UNL     1      35.066  11.667 -23.636  1.00  0.00     0.140 A 
HETATM   12  N7  UNL     1      33.805  11.176 -23.707  1.00  0.00    -0.318 N 
ATOM     13  H7  UNL     1      32.995  11.498 -23.178  1.00  0.00     0.169 HD
HETATM   14  C14 UNL     1      33.831  10.188 -24.607  1.00  0.00     0.190 A 
HETATM   15  C15 UNL     1      32.748   9.333 -25.055  1.00  0.00     0.137 C 
HETATM   16  N8  UNL     1      31.876   8.630 -25.398  1.00  0.00    -0.188 NA
HETATM   17  N9  UNL     1      35.076  10.063 -25.087  1.00  0.00    -0.327 N 
ATOM     18  H9  UNL     1      35.371   9.383 -25.788  1.00  0.00     0.168 HD
HETATM   19  C16 UNL     1      35.883  10.980 -24.496  1.00  0.00     0.123 A 
ENDROOT
BRANCH   1  20
HETATM   20  N1  UNL     1      37.614  10.294 -25.665  1.00  0.00    -0.370 N 
ATOM     21  H1  UNL     1      37.204  10.614 -26.543  1.00  0.00     0.161 HD
BRANCH  20  22
HETATM   22  C2  UNL     1      38.323   9.164 -25.951  1.00  0.00     0.075 C 
HETATM   23  C1  UNL     1      39.023   8.508 -24.764  1.00  0.00     0.031 C 
HETATM   24  C3  UNL     1      37.680   8.060 -26.748  1.00  0.00     0.031 C 
ENDBRANCH  20  22
ENDBRANCH   1  20
BRANCH   8  25
HETATM   25  N4  UNL     1      36.515  14.749 -22.405  1.00  0.00    -0.361 N 
HETATM   26  C7  UNL     1      36.747  15.053 -20.989  1.00  0.00     0.154 C 
HETATM   27  C8  UNL     1      35.926  16.112 -20.414  1.00  0.00     0.292 C 
HETATM   28  N5  UNL     1      35.377  17.124 -21.258  1.00  0.00     0.093 N 
HETATM   29  C11 UNL     1      35.139  16.708 -22.602  1.00  0.00     0.292 C 
HETATM   30  C12 UNL     1      36.235  15.902 -23.194  1.00  0.00     0.154 C 
BRANCH  28  31
HETATM   31  C9  UNL     1      36.028  18.399 -21.098  1.00  0.00     0.298 C 
BRANCH  31  32
HETATM   32  C10 UNL     1      36.586  18.531 -19.711  1.00  0.00     0.194 C 
BRANCH  32  33
HETATM   33  O1  UNL     1      36.984  19.860 -19.469  1.00  0.00    -0.399 OA
ATOM     34  H1  UNL     1      36.225  20.408 -19.306  1.00  0.00     0.209 HD
ENDBRANCH  32  33
ENDBRANCH  31  32
ENDBRANCH  28  31
ENDBRANCH   8  25
TORSDOF 6
ENDMDL
MODEL 3
REMARK VINA RESULT: -7.354627633      2.945      4.944
REMARK  6 active torsions:
REMARK  status: ('A' for Active; 'I' for Inactive)
REMARK    1  A    between atoms: C2_2  and  N1_4 
REMARK    2  A    between atoms: N1_4  and  C4_6 
REMARK    3  A    between atoms: C6_13  and  N4_14 
REMARK    4  A    between atoms: N5_17  and  C9_18 
REMARK    5  A    between atoms: C9_18  and  C10_19 
REMARK    6  A    between atoms: C10_19  and  O1_20 
ROOT
HETATM    1  C4  UNL     1      37.154  13.855 -22.567  1.00  0.00     0.134 C 
HETATM    2  N2  UNL     1      36.047  13.115 -22.599  1.00  0.00    -0.324 N 
ATOM      3  H2  UNL     1      35.287  13.463 -22.016  1.00  0.00     0.169 HD
HETATM    4  C5  UNL     1      35.757  11.959 -23.288  1.00  0.00     0.145 C 
HETATM    5  N3  UNL     1      34.683  11.368 -22.972  1.00  0.00    -0.382 N 
ATOM      6  H31 UNL     1      34.468  10.512 -23.483  1.00  0.00     0.157 HD
ATOM      7  H32 UNL     1      34.134  11.819 -22.239  1.00  0.00     0.157 HD
HETATM    8  C6  UNL     1      36.492  11.356 -24.270  1.00  0.00     0.149 C 
HETATM    9  N6  UNL     1      37.844  11.434 -24.405  1.00  0.00    -0.324 N 
ATOM     10  H6  UNL     1      38.293  10.626 -24.835  1.00  0.00     0.169 HD
HETATM   11  C13 UNL     1      38.677  12.448 -24.042  1.00  0.00     0.140 A 
HETATM   12  N7  UNL     1      39.968  12.555 -24.437  1.00  0.00    -0.318 N 
ATOM     13  H7  UNL     1      40.476  11.910 -25.042  1.00  0.00     0.169 HD
HETATM   14  C14 UNL     1      40.448  13.671 -23.878  1.00  0.00     0.190 A 
HETATM   15  C15 UNL     1      41.777  14.243 -23.977  1.00  0.00     0.137 C 
HETATM   16  N8  UNL     1      42.857  14.691 -24.041  1.00  0.00    -0.188 NA
HETATM   17  N9  UNL     1      39.480  14.248 -23.151  1.00  0.00    -0.327 N 
ATOM     18  H9  UNL     1      39.580  15.114 -22.620  1.00  0.00     0.168 HD
HETATM   19  C16 UNL     1      38.348  13.505 -23.231  1.00  0.00     0.123 A 
ENDROOT
BRANCH   1  20
HETATM   20  N1  UNL     1      37.260  14.919 -21.948  1.00  0.00    -0.370 N 
ATOM     21  H1  UNL     1      38.123  15.360 -22.267  1.00  0.00     0.161 HD
BRANCH  20  22
HETATM   22  C2  UNL     1      36.713  15.754 -21.017  1.00  0.00     0.075 C 
HETATM   23  C1  UNL     1      35.365  16.364 -21.392  1.00  0.00     0.031 C 
HETATM   24  C3  UNL     1      36.613  15.311 -19.582  1.00  0.00     0.031 C 
ENDBRANCH  20  22
ENDBRANCH   1  20
BRANCH   8  25
HETATM   25  N4  UNL     1      35.808  10.594 -25.243  1.00  0.00    -0.361 N 
HETATM   26  C7  UNL     1      35.759   9.134 -25.103  1.00  0.00     0.154 C 
HETATM   27  C8  UNL     1      35.828   8.366 -26.341  1.00  0.00     0.292 C 
HETATM   28  N5  UNL     1      35.409   8.958 -27.571  1.00  0.00     0.093 N 
HETATM   29  C11 UNL     1      35.549  10.377 -27.622  1.00  0.00     0.292 C 
HETATM   30  C12 UNL     1      35.113  11.077 -26.388  1.00  0.00     0.154 C 
BRANCH  28  31
HETATM   31  C9  UNL     1      34.156   8.430 -28.046  1.00  0.00     0.298 C 
BRANCH  31  32
HETATM   32  C10 UNL     1      33.730   7.259 -27.209  1.00  0.00     0.194 C 
BRANCH  32  33
HETATM   33  O1  UNL     1      32.521   7.547 -26.545  1.00  0.00    -0.399 OA
ATOM     34  H1  UNL     1      31.848   6.929 -26.805  1.00  0.00     0.209 HD
ENDBRANCH  32  33
ENDBRANCH  31  32
ENDBRANCH  28  31
ENDBRANCH   8  25
TORSDOF 6
ENDMDL
MODEL 4
REMARK VINA RESULT: -7.305015594      3.564      7.906
REMARK  6 active torsions:
REMARK  status: ('A' for Active; 'I' for Inactive)
REMARK    1  A    between atoms: C2_2  and  N1_4 
REMARK    2  A    between atoms: N1_4  and  C4_6 
REMARK    3  A    between atoms: C6_13  and  N4_14 
REMARK    4  A    between atoms: N5_17  and  C9_18 
REMARK    5  A    between atoms: C9_18  and  C10_19 
REMARK    6  A    between atoms: C10_19  and  O1_20 
ROOT
HETATM    1  C4  UNL     1      37.341  11.330 -24.899  1.00  0.00     0.134 C 
HETATM    2  N2  UNL     1      38.114  12.198 -24.248  1.00  0.00    -0.324 N 
ATOM      3  H2  UNL     1      39.093  12.194 -24.536  1.00  0.00     0.169 HD
HETATM    4  C5  UNL     1      37.815  13.100 -23.252  1.00  0.00     0.145 C 
HETATM    5  N3  UNL     1      38.798  13.662 -22.685  1.00  0.00    -0.382 N 
ATOM      6  H31 UNL     1      38.576  14.330 -21.948  1.00  0.00     0.157 HD
ATOM      7  H32 UNL     1      39.718  13.392 -23.034  1.00  0.00     0.157 HD
HETATM    8  C6  UNL     1      36.582  13.462 -22.786  1.00  0.00     0.149 C 
HETATM    9  N6  UNL     1      35.471  12.676 -22.800  1.00  0.00    -0.324 N 
ATOM     10  H6  UNL     1      34.799  12.848 -22.052  1.00  0.00     0.169 HD
HETATM   11  C13 UNL     1      35.138  11.691 -23.679  1.00  0.00     0.140 A 
HETATM   12  N7  UNL     1      33.907  11.133 -23.770  1.00  0.00    -0.318 N 
ATOM     13  H7  UNL     1      33.087  11.369 -23.210  1.00  0.00     0.169 HD
HETATM   14  C14 UNL     1      33.976  10.213 -24.737  1.00  0.00     0.190 A 
HETATM   15  C15 UNL     1      32.937   9.329 -25.232  1.00  0.00     0.137 C 
HETATM   16  N8  UNL     1      32.103   8.601 -25.614  1.00  0.00    -0.188 NA
HETATM   17  N9  UNL     1      35.219  10.195 -25.239  1.00  0.00    -0.327 N 
ATOM     18  H9  UNL     1      35.542   9.584 -25.989  1.00  0.00     0.168 HD
HETATM   19  C16 UNL     1      35.981  11.115 -24.595  1.00  0.00     0.123 A 
ENDROOT
BRANCH   1  20
HETATM   20  N1  UNL     1      37.730  10.614 -25.828  1.00  0.00    -0.370 N 
ATOM     21  H1  UNL     1      37.256  10.944 -26.670  1.00  0.00     0.161 HD
BRANCH  20  22
HETATM   22  C2  UNL     1      38.524   9.571 -26.206  1.00  0.00     0.075 C 
HETATM   23  C1  UNL     1      39.224   8.831 -25.069  1.00  0.00     0.031 C 
HETATM   24  C3  UNL     1      37.986   8.525 -27.146  1.00  0.00     0.031 C 
ENDBRANCH  20  22
ENDBRANCH   1  20
BRANCH   8  25
HETATM   25  N4  UNL     1      36.425  14.760 -22.252  1.00  0.00    -0.361 N 
HETATM   26  C7  UNL     1      36.621  15.922 -23.127  1.00  0.00     0.154 C 
HETATM   27  C8  UNL     1      37.247  17.089 -22.517  1.00  0.00     0.292 C 
HETATM   28  N5  UNL     1      37.153  17.293 -21.107  1.00  0.00     0.093 N 
HETATM   29  C11 UNL     1      37.021  16.094 -20.344  1.00  0.00     0.292 C 
HETATM   30  C12 UNL     1      36.070  15.109 -20.918  1.00  0.00     0.154 C 
BRANCH  28  31
HETATM   31  C9  UNL     1      36.259  18.366 -20.756  1.00  0.00     0.298 C 
BRANCH  31  32
HETATM   32  C10 UNL     1      36.670  18.985 -19.453  1.00  0.00     0.194 C 
BRANCH  32  33
HETATM   33  O1  UNL     1      37.366  20.188 -19.680  1.00  0.00    -0.399 OA
ATOM     34  H1  UNL     1      37.324  20.744 -18.911  1.00  0.00     0.209 HD
ENDBRANCH  32  33
ENDBRANCH  31  32
ENDBRANCH  28  31
ENDBRANCH   8  25
TORSDOF 6
ENDMDL
MODEL 5
REMARK VINA RESULT: -7.237761117      1.934      4.252
REMARK  6 active torsions:
REMARK  status: ('A' for Active; 'I' for Inactive)
REMARK    1  A    between atoms: C2_2  and  N1_4 
REMARK    2  A    between atoms: N1_4  and  C4_6 
REMARK    3  A    between atoms: C6_13  and  N4_14 
REMARK    4  A    between atoms: N5_17  and  C9_18 
REMARK    5  A    between atoms: C9_18  and  C10_19 
REMARK    6  A    between atoms: C10_19  and  O1_20 
ROOT
HETATM    1  C4  UNL     1      36.576  14.878 -22.328  1.00  0.00     0.134 C 
HETATM    2  N2  UNL     1      35.866  13.754 -22.257  1.00  0.00    -0.324 N 
ATOM      3  H2  UNL     1      35.201  13.720 -21.485  1.00  0.00     0.169 HD
HETATM    4  C5  UNL     1      35.879  12.629 -23.050  1.00  0.00     0.145 C 
HETATM    5  N3  UNL     1      35.227  11.631 -22.625  1.00  0.00    -0.382 N 
ATOM      6  H31 UNL     1      35.236  10.798 -23.213  1.00  0.00     0.157 HD
ATOM      7  H32 UNL     1      34.747  11.767 -21.734  1.00  0.00     0.157 HD
HETATM    8  C6  UNL     1      36.521  12.446 -24.243  1.00  0.00     0.149 C 
HETATM    9  N6  UNL     1      37.661  13.080 -24.631  1.00  0.00    -0.324 N 
ATOM     10  H6  UNL     1      38.264  12.556 -25.266  1.00  0.00     0.169 HD
HETATM   11  C13 UNL     1      38.105  14.319 -24.284  1.00  0.00     0.140 A 
HETATM   12  N7  UNL     1      39.116  14.971 -24.906  1.00  0.00    -0.318 N 
ATOM     13  H7  UNL     1      39.665  14.632 -25.697  1.00  0.00     0.169 HD
HETATM   14  C14 UNL     1      39.255  16.146 -24.283  1.00  0.00     0.190 A 
HETATM   15  C15 UNL     1      40.195  17.217 -24.553  1.00  0.00     0.137 C 
HETATM   16  N8  UNL     1      40.969  18.071 -24.759  1.00  0.00    -0.188 NA
HETATM   17  N9  UNL     1      38.353  16.227 -23.295  1.00  0.00    -0.327 N 
ATOM     18  H9  UNL     1      38.242  17.021 -22.663  1.00  0.00     0.168 HD
HETATM   19  C16 UNL     1      37.609  15.092 -23.265  1.00  0.00     0.123 A 
ENDROOT
BRANCH   1  20
HETATM   20  N1  UNL     1      36.417  15.849 -21.580  1.00  0.00    -0.370 N 
ATOM     21  H1  UNL     1      36.765  16.666 -22.082  1.00  0.00     0.161 HD
BRANCH  20  22
HETATM   22  C2  UNL     1      35.974  16.291 -20.368  1.00  0.00     0.075 C 
HETATM   23  C1  UNL     1      36.350  15.420 -19.172  1.00  0.00     0.031 C 
HETATM   24  C3  UNL     1      36.210  17.721 -19.962  1.00  0.00     0.031 C 
ENDBRANCH  20  22
ENDBRANCH   1  20
BRANCH   8  25
HETATM   25  N4  UNL     1      35.963  11.537 -25.169  1.00  0.00    -0.361 N 
HETATM   26  C7  UNL     1      34.664  11.844 -25.779  1.00  0.00     0.154 C 
HETATM   27  C8  UNL     1      33.778  10.709 -26.013  1.00  0.00     0.292 C 
HETATM   28  N5  UNL     1      34.326   9.400 -26.172  1.00  0.00     0.093 N 
HETATM   29  C11 UNL     1      35.563   9.190 -25.493  1.00  0.00     0.292 C 
HETATM   30  C12 UNL     1      36.527  10.311 -25.624  1.00  0.00     0.154 C 
BRANCH  28  31
HETATM   31  C9  UNL     1      34.264   8.930 -27.532  1.00  0.00     0.298 C 
BRANCH  31  32
HETATM   32  C10 UNL     1      33.647   7.563 -27.586  1.00  0.00     0.194 C 
BRANCH  32  33
HETATM   33  O1  UNL     1      32.519   7.502 -26.745  1.00  0.00    -0.399 OA
ATOM     34  H1  UNL     1      32.319   6.600 -26.525  1.00  0.00     0.209 HD
ENDBRANCH  32  33
ENDBRANCH  31  32
ENDBRANCH  28  31
ENDBRANCH   8  25
TORSDOF 6
ENDMDL
