MODEL 1
REMARK VINA RESULT: -7.478973860      0.000      0.000
REMARK  7 active torsions:
REMARK  status: ('A' for Active; 'I' for Inactive)
REMARK    1  A    between atoms: C2_3  and  C3_4 
REMARK    2  A    between atoms: C5_8  and  N3_9 
REMARK    3  A    between atoms: C7_17  and  N6_18 
REMARK    4  A    between atoms: N6_18  and  C8_20 
REMARK    5  A    between atoms: C8_20  and  C9_21 
REMARK    6  A    between atoms: C9_21  and  N7_22 
REMARK    7  A    between atoms: C11_29  and  N9_30 
ROOT
HETATM    1  C1  UNL     1      36.222  13.444 -26.108  1.00  0.00     0.159 C 
HETATM    2  N1  UNL     1      36.325  13.778 -24.710  1.00  0.00    -0.321 N 
HETATM    3  C2  UNL     1      35.791  13.077 -23.731  1.00  0.00     0.123 A 
HETATM    4  N5  UNL     1      36.034  13.470 -22.417  1.00  0.00    -0.326 N 
ATOM      5  H5  UNL     1      35.620  12.927 -21.660  1.00  0.00     0.169 HD
HETATM    6  C7  UNL     1      36.776  14.519 -22.110  1.00  0.00     0.134 A 
HETATM    7  C10 UNL     1      37.324  15.242 -23.156  1.00  0.00     0.137 A 
HETATM    8  N8  UNL     1      38.110  16.339 -23.165  1.00  0.00    -0.184 N 
ATOM      9  H8  UNL     1      38.446  16.844 -22.346  1.00  0.00     0.184 HD
HETATM   10  C11 UNL     1      38.368  16.645 -24.439  1.00  0.00     0.682 A 
HETATM   11  N10 UNL     1      37.758  15.759 -25.264  1.00  0.00    -0.174 N 
ATOM     12  H10 UNL     1      37.783  15.752 -26.284  1.00  0.00     0.186 HD
HETATM   13  C16 UNL     1      37.116  14.895 -24.467  1.00  0.00     0.155 A 
ENDROOT
BRANCH   3  14
HETATM   14  C3  UNL     1      34.989  11.877 -23.910  1.00  0.00     0.040 A 
HETATM   15  C4  UNL     1      35.340  10.580 -23.780  1.00  0.00     0.122 A 
HETATM   16  N2  UNL     1      34.509   9.533 -23.896  1.00  0.00    -0.201 N 
HETATM   17  C5  UNL     1      33.221   9.761 -24.165  1.00  0.00     0.675 A 
ATOM     18  H2  UNL     1      34.854   8.580 -23.781  1.00  0.00     0.183 HD
HETATM   19  N4  UNL     1      32.795  11.046 -24.313  1.00  0.00    -0.201 N 
HETATM   20  C6  UNL     1      33.611  12.082 -24.197  1.00  0.00     0.122 A 
ATOM     21  H4  UNL     1      31.810  11.216 -24.521  1.00  0.00     0.183 HD
BRANCH  17  22
HETATM   22  N3  UNL     1      32.413   8.755 -24.279  1.00  0.00    -0.234 N 
ATOM     23  H32 UNL     1      31.698   8.556 -23.580  1.00  0.00     0.174 HD
ATOM     24  H31 UNL     1      32.494   8.144 -25.093  1.00  0.00     0.174 HD
ENDBRANCH  17  22
ENDBRANCH   3  14
BRANCH   6  25
HETATM   25  N6  UNL     1      37.030  14.931 -20.929  1.00  0.00    -0.373 N 
ATOM     26  H6  UNL     1      38.019  14.999 -20.687  1.00  0.00     0.161 HD
BRANCH  25  27
HETATM   27  C8  UNL     1      36.118  15.310 -19.904  1.00  0.00     0.148 C 
BRANCH  27  28
HETATM   28  C9  UNL     1      36.093  16.847 -19.902  1.00  0.00     0.249 C 
BRANCH  28  29
HETATM   29  N7  UNL     1      37.443  17.382 -19.847  1.00  0.00    -0.078 N 
ATOM     30  H73 UNL     1      38.075  16.765 -19.337  1.00  0.00     0.274 HD
ATOM     31  H72 UNL     1      37.901  17.350 -20.758  1.00  0.00     0.274 HD
ATOM     32  H71 UNL     1      37.441  18.325 -19.459  1.00  0.00     0.274 HD
ENDBRANCH  28  29
ENDBRANCH  27  28
ENDBRANCH  25  27
ENDBRANCH   6  25
BRANCH  10  33
HETATM   33  N9  UNL     1      39.154  17.717 -24.888  1.00  0.00    -0.218 N 
HETATM   34  C12 UNL     1      39.365  18.136 -26.251  1.00  0.00     0.141 C 
HETATM   35  C13 UNL     1      39.286  19.658 -26.077  1.00  0.00     0.022 C 
HETATM   36  C14 UNL     1      40.076  19.886 -24.820  1.00  0.00     0.022 C 
HETATM   37  C15 UNL     1      39.907  18.616 -24.026  1.00  0.00     0.141 C 
ENDBRANCH  10  33
TORSDOF 7
ENDMDL
MODEL 2
REMARK VINA RESULT: -7.425578423      0.616      1.168
REMARK  7 active torsions:
REMARK  status: ('A' for Active; 'I' for Inactive)
REMARK    1  A    between atoms: C2_3  and  C3_4 
REMARK    2  A    between atoms: C5_8  and  N3_9 
REMARK    3  A    between atoms: C7_17  and  N6_18 
REMARK    4  A    between atoms: N6_18  and  C8_20 
REMARK    5  A    between atoms: C8_20  and  C9_21 
REMARK    6  A    between atoms: C9_21  and  N7_22 
REMARK    7  A    between atoms: C11_29  and  N9_30 
ROOT
HETATM    1  C1  UNL     1      35.955  13.778 -26.201  1.00  0.00     0.159 C 
HETATM    2  N1  UNL     1      36.153  14.047 -24.799  1.00  0.00    -0.321 N 
HETATM    3  C2  UNL     1      35.586  13.372 -23.820  1.00  0.00     0.123 A 
HETATM    4  N5  UNL     1      35.926  13.688 -22.506  1.00  0.00    -0.326 N 
ATOM      5  H5  UNL     1      35.486  13.165 -21.749  1.00  0.00     0.169 HD
HETATM    6  C7  UNL     1      36.793  14.636 -22.200  1.00  0.00     0.134 A 
HETATM    7  C10 UNL     1      37.374  15.332 -23.246  1.00  0.00     0.137 A 
HETATM    8  N8  UNL     1      38.276  16.335 -23.256  1.00  0.00    -0.184 N 
ATOM      9  H8  UNL     1      38.701  16.769 -22.437  1.00  0.00     0.184 HD
HETATM   10  C11 UNL     1      38.513  16.659 -24.529  1.00  0.00     0.682 A 
HETATM   11  N10 UNL     1      37.773  15.876 -25.354  1.00  0.00    -0.174 N 
ATOM     12  H10 UNL     1      37.754  15.905 -26.373  1.00  0.00     0.186 HD
HETATM   13  C16 UNL     1      37.073  15.060 -24.557  1.00  0.00     0.155 A 
ENDROOT
BRANCH   3  14
HETATM   14  C3  UNL     1      34.647  12.276 -24.001  1.00  0.00     0.040 A 
HETATM   15  C4  UNL     1      33.423  12.277 -24.568  1.00  0.00     0.122 A 
HETATM   16  N2  UNL     1      32.652  11.194 -24.757  1.00  0.00    -0.201 N 
HETATM   17  C5  UNL     1      33.106  10.004 -24.359  1.00  0.00     0.675 A 
ATOM     18  H2  UNL     1      31.735  11.280 -25.197  1.00  0.00     0.183 HD
HETATM   19  N4  UNL     1      34.334   9.926 -23.775  1.00  0.00    -0.201 N 
HETATM   20  C6  UNL     1      35.099  10.991 -23.588  1.00  0.00     0.122 A 
ATOM     21  H4  UNL     1      34.676   9.015 -23.469  1.00  0.00     0.183 HD
BRANCH  17  22
HETATM   22  N3  UNL     1      32.366   8.955 -24.537  1.00  0.00    -0.234 N 
ATOM     23  H32 UNL     1      31.792   8.837 -25.371  1.00  0.00     0.174 HD
ATOM     24  H31 UNL     1      32.360   8.226 -23.824  1.00  0.00     0.174 HD
ENDBRANCH  17  22
ENDBRANCH   3  14
BRANCH   6  25
HETATM   25  N6  UNL     1      37.141  14.974 -21.019  1.00  0.00    -0.373 N 
ATOM     26  H6  UNL     1      38.146  14.991 -20.842  1.00  0.00     0.161 HD
BRANCH  25  27
HETATM   27  C8  UNL     1      36.314  15.328 -19.916  1.00  0.00     0.148 C 
BRANCH  27  28
HETATM   28  C9  UNL     1      36.160  16.857 -19.973  1.00  0.00     0.249 C 
BRANCH  28  29
HETATM   29  N7  UNL     1      37.458  17.506 -19.904  1.00  0.00    -0.078 N 
ATOM     30  H73 UNL     1      38.079  17.043 -19.241  1.00  0.00     0.274 HD
ATOM     31  H72 UNL     1      38.003  17.356 -20.754  1.00  0.00     0.274 HD
ATOM     32  H71 UNL     1      37.353  18.498 -19.694  1.00  0.00     0.274 HD
ENDBRANCH  28  29
ENDBRANCH  27  28
ENDBRANCH  25  27
ENDBRANCH   6  25
BRANCH  10  33
HETATM   33  N9  UNL     1      39.395  17.653 -24.980  1.00  0.00    -0.218 N 
HETATM   34  C12 UNL     1      40.796  17.508 -25.281  1.00  0.00     0.141 C 
HETATM   35  C13 UNL     1      40.883  18.353 -26.560  1.00  0.00     0.022 C 
HETATM   36  C14 UNL     1      40.045  19.551 -26.219  1.00  0.00     0.022 C 
HETATM   37  C15 UNL     1      39.027  19.039 -25.232  1.00  0.00     0.141 C 
ENDBRANCH  10  33
TORSDOF 7
ENDMDL
MODEL 3
REMARK VINA RESULT: -7.222166070      3.413      5.742
REMARK  7 active torsions:
REMARK  status: ('A' for Active; 'I' for Inactive)
REMARK    1  A    between atoms: C2_3  and  C3_4 
REMARK    2  A    between atoms: C5_8  and  N3_9 
REMARK    3  A    between atoms: C7_17  and  N6_18 
REMARK    4  A    between atoms: N6_18  and  C8_20 
REMARK    5  A    between atoms: C8_20  and  C9_21 
REMARK    6  A    between atoms: C9_21  and  N7_22 
REMARK    7  A    between atoms: C11_29  and  N9_30 
ROOT
HETATM    1  C1  UNL     1      40.157  12.283 -23.911  1.00  0.00     0.159 C 
HETATM    2  N1  UNL     1      38.773  11.890 -23.817  1.00  0.00    -0.321 N 
HETATM    3  C2  UNL     1      38.296  10.728 -24.212  1.00  0.00     0.123 A 
HETATM    4  N5  UNL     1      36.949  10.449 -23.990  1.00  0.00    -0.326 N 
ATOM      5  H5  UNL     1      36.580   9.548 -24.296  1.00  0.00     0.169 HD
HETATM    6  C7  UNL     1      36.129  11.301 -23.401  1.00  0.00     0.134 A 
HETATM    7  C10 UNL     1      36.654  12.517 -22.997  1.00  0.00     0.137 A 
HETATM    8  N8  UNL     1      36.083  13.573 -22.383  1.00  0.00    -0.184 N 
ATOM      9  H8  UNL     1      35.106  13.648 -22.100  1.00  0.00     0.184 HD
HETATM   10  C11 UNL     1      37.024  14.504 -22.211  1.00  0.00     0.682 A 
HETATM   11  N10 UNL     1      38.208  14.067 -22.709  1.00  0.00    -0.174 N 
ATOM     12  H10 UNL     1      39.095  14.570 -22.714  1.00  0.00     0.186 HD
HETATM   13  C16 UNL     1      37.973  12.840 -23.192  1.00  0.00     0.155 A 
ENDROOT
BRANCH   3  14
HETATM   14  C3  UNL     1      39.083   9.674 -24.833  1.00  0.00     0.040 A 
HETATM   15  C4  UNL     1      40.392   9.658 -25.160  1.00  0.00     0.122 A 
HETATM   16  N2  UNL     1      41.054   8.607 -25.670  1.00  0.00    -0.201 N 
HETATM   17  C5  UNL     1      40.388   7.471 -25.884  1.00  0.00     0.675 A 
ATOM     18  H2  UNL     1      42.048   8.677 -25.889  1.00  0.00     0.183 HD
HETATM   19  N4  UNL     1      39.062   7.414 -25.580  1.00  0.00    -0.201 N 
HETATM   20  C6  UNL     1      38.405   8.447 -25.075  1.00  0.00     0.122 A 
ATOM     21  H4  UNL     1      38.556   6.544 -25.747  1.00  0.00     0.183 HD
BRANCH  17  22
HETATM   22  N3  UNL     1      41.021   6.453 -26.376  1.00  0.00    -0.234 N 
ATOM     23  H32 UNL     1      40.982   6.224 -27.369  1.00  0.00     0.174 HD
ATOM     24  H31 UNL     1      41.576   5.865 -25.754  1.00  0.00     0.174 HD
ENDBRANCH  17  22
ENDBRANCH   3  14
BRANCH   6  25
HETATM   25  N6  UNL     1      34.888  11.105 -23.175  1.00  0.00    -0.373 N 
ATOM     26  H6  UNL     1      34.654  10.800 -22.230  1.00  0.00     0.161 HD
BRANCH  25  27
HETATM   27  C8  UNL     1      33.788  11.254 -24.066  1.00  0.00     0.148 C 
BRANCH  27  28
HETATM   28  C9  UNL     1      33.528   9.859 -24.659  1.00  0.00     0.249 C 
BRANCH  28  29
HETATM   29  N7  UNL     1      32.913   8.988 -23.670  1.00  0.00    -0.078 N 
ATOM     30  H73 UNL     1      32.731   9.478 -22.794  1.00  0.00     0.274 HD
ATOM     31  H72 UNL     1      31.951   8.755 -23.917  1.00  0.00     0.274 HD
ATOM     32  H71 UNL     1      33.479   8.153 -23.525  1.00  0.00     0.274 HD
ENDBRANCH  28  29
ENDBRANCH  27  28
ENDBRANCH  25  27
ENDBRANCH   6  25
BRANCH  10  33
HETATM   33  N9  UNL     1      36.848  15.757 -21.605  1.00  0.00    -0.218 N 
HETATM   34  C12 UNL     1      36.744  17.037 -22.258  1.00  0.00     0.141 C 
HETATM   35  C13 UNL     1      35.617  17.669 -21.431  1.00  0.00     0.022 C 
HETATM   36  C14 UNL     1      35.984  17.281 -20.027  1.00  0.00     0.022 C 
HETATM   37  C15 UNL     1      36.729  15.979 -20.171  1.00  0.00     0.141 C 
ENDBRANCH  10  33
TORSDOF 7
ENDMDL
MODEL 4
REMARK VINA RESULT: -7.035539232      1.634      2.212
REMARK  7 active torsions:
REMARK  status: ('A' for Active; 'I' for Inactive)
REMARK    1  A    between atoms: C2_3  and  C3_4 
REMARK    2  A    between atoms: C5_8  and  N3_9 
REMARK    3  A    between atoms: C7_17  and  N6_18 
REMARK    4  A    between atoms: N6_18  and  C8_20 
REMARK    5  A    between atoms: C8_20  and  C9_21 
REMARK    6  A    between atoms: C9_21  and  N7_22 
REMARK    7  A    between atoms: C11_29  and  N9_30 
ROOT
HETATM    1  C1  UNL     1      37.947  13.758 -25.595  1.00  0.00     0.159 C 
HETATM    2  N1  UNL     1      37.694  14.362 -24.311  1.00  0.00    -0.321 N 
HETATM    3  C2  UNL     1      37.225  13.720 -23.261  1.00  0.00     0.123 A 
HETATM    4  N5  UNL     1      37.101  14.409 -22.057  1.00  0.00    -0.326 N 
ATOM      5  H5  UNL     1      36.738  13.911 -21.244  1.00  0.00     0.169 HD
HETATM    6  C7  UNL     1      37.433  15.680 -21.923  1.00  0.00     0.134 A 
HETATM    7  C10 UNL     1      37.921  16.334 -23.041  1.00  0.00     0.137 A 
HETATM    8  N8  UNL     1      38.336  17.605 -23.219  1.00  0.00    -0.184 N 
ATOM      9  H8  UNL     1      38.356  18.336 -22.508  1.00  0.00     0.184 HD
HETATM   10  C11 UNL     1      38.716  17.737 -24.492  1.00  0.00     0.682 A 
HETATM   11  N10 UNL     1      38.553  16.562 -25.150  1.00  0.00    -0.174 N 
ATOM     12  H10 UNL     1      38.761  16.374 -26.131  1.00  0.00     0.186 HD
HETATM   13  C16 UNL     1      38.063  15.701 -24.250  1.00  0.00     0.155 A 
ENDROOT
BRANCH   3  14
HETATM   14  C3  UNL     1      36.859  12.312 -23.243  1.00  0.00     0.040 A 
HETATM   15  C4  UNL     1      35.640  11.739 -23.338  1.00  0.00     0.122 A 
HETATM   16  N2  UNL     1      35.402  10.419 -23.384  1.00  0.00    -0.201 N 
HETATM   17  C5  UNL     1      36.437   9.578 -23.332  1.00  0.00     0.675 A 
ATOM     18  H2  UNL     1      34.448  10.066 -23.458  1.00  0.00     0.183 HD
HETATM   19  N4  UNL     1      37.697  10.084 -23.233  1.00  0.00    -0.201 N 
HETATM   20  C6  UNL     1      37.937  11.385 -23.189  1.00  0.00     0.122 A 
ATOM     21  H4  UNL     1      38.484   9.437 -23.190  1.00  0.00     0.183 HD
BRANCH  17  22
HETATM   22  N3  UNL     1      36.214   8.302 -23.375  1.00  0.00    -0.234 N 
ATOM     23  H32 UNL     1      36.538   7.725 -24.151  1.00  0.00     0.174 HD
ATOM     24  H31 UNL     1      35.701   7.861 -22.610  1.00  0.00     0.174 HD
ENDBRANCH  17  22
ENDBRANCH   3  14
BRANCH   6  25
HETATM   25  N6  UNL     1      37.338  16.365 -20.850  1.00  0.00    -0.373 N 
ATOM     26  H6  UNL     1      38.149  16.938 -20.618  1.00  0.00     0.161 HD
BRANCH  25  27
HETATM   27  C8  UNL     1      36.250  16.437 -19.934  1.00  0.00     0.148 C 
BRANCH  27  28
HETATM   28  C9  UNL     1      36.564  15.425 -18.820  1.00  0.00     0.249 C 
BRANCH  28  29
HETATM   29  N7  UNL     1      35.509  15.419 -17.820  1.00  0.00    -0.078 N 
ATOM     30  H73 UNL     1      35.842  15.072 -16.920  1.00  0.00     0.274 HD
ATOM     31  H72 UNL     1      35.253  16.364 -17.534  1.00  0.00     0.274 HD
ATOM     32  H71 UNL     1      34.702  14.893 -18.153  1.00  0.00     0.274 HD
ENDBRANCH  28  29
ENDBRANCH  27  28
ENDBRANCH  25  27
ENDBRANCH   6  25
BRANCH  10  33
HETATM   33  N9  UNL     1      39.218  18.903 -25.089  1.00  0.00    -0.218 N 
HETATM   34  C12 UNL     1      39.094  19.302 -26.468  1.00  0.00     0.141 C 
HETATM   35  C13 UNL     1      38.804  20.798 -26.287  1.00  0.00     0.022 C 
HETATM   36  C14 UNL     1      39.772  21.192 -25.209  1.00  0.00     0.022 C 
HETATM   37  C15 UNL     1      39.966  19.940 -24.392  1.00  0.00     0.141 C 
ENDBRANCH  10  33
TORSDOF 7
ENDMDL
MODEL 5
REMARK VINA RESULT: -7.027882654      3.176      5.784
REMARK  7 active torsions:
REMARK  status: ('A' for Active; 'I' for Inactive)
REMARK    1  A    between atoms: C2_3  and  C3_4 
REMARK    2  A    between atoms: C5_8  and  N3_9 
REMARK    3  A    between atoms: C7_17  and  N6_18 
REMARK    4  A    between atoms: N6_18  and  C8_20 
REMARK    5  A    between atoms: C8_20  and  C9_21 
REMARK    6  A    between atoms: C9_21  and  N7_22 
REMARK    7  A    between atoms: C11_29  and  N9_30 
ROOT
HETATM    1  C1  UNL     1      39.085  11.906 -23.005  1.00  0.00     0.159 C 
HETATM    2  N1  UNL     1      37.843  11.853 -23.736  1.00  0.00    -0.321 N 
HETATM    3  C2  UNL     1      37.513  10.900 -24.582  1.00  0.00     0.123 A 
HETATM    4  N5  UNL     1      36.247  10.930 -25.163  1.00  0.00    -0.326 N 
ATOM      5  H5  UNL     1      35.992  10.192 -25.818  1.00  0.00     0.169 HD
HETATM    6  C7  UNL     1      35.363  11.876 -24.900  1.00  0.00     0.134 A 
HETATM    7  C10 UNL     1      35.735  12.868 -24.009  1.00  0.00     0.137 A 
HETATM    8  N8  UNL     1      35.068  13.947 -23.549  1.00  0.00    -0.184 N 
ATOM      9  H8  UNL     1      34.119  14.221 -23.803  1.00  0.00     0.184 HD
HETATM   10  C11 UNL     1      35.872  14.593 -22.700  1.00  0.00     0.682 A 
HETATM   11  N10 UNL     1      37.060  13.947 -22.602  1.00  0.00    -0.174 N 
ATOM     12  H10 UNL     1      37.859  14.216 -22.029  1.00  0.00     0.186 HD
HETATM   13  C16 UNL     1      36.969  12.883 -23.410  1.00  0.00     0.155 A 
ENDROOT
BRANCH   3  14
HETATM   14  C3  UNL     1      38.361   9.772 -24.937  1.00  0.00     0.040 A 
HETATM   15  C4  UNL     1      38.338   8.502 -24.480  1.00  0.00     0.122 A 
HETATM   16  N2  UNL     1      39.119   7.503 -24.919  1.00  0.00    -0.201 N 
HETATM   17  C5  UNL     1      40.003   7.756 -25.887  1.00  0.00     0.675 A 
ATOM     18  H2  UNL     1      39.039   6.567 -24.521  1.00  0.00     0.183 HD
HETATM   19  N4  UNL     1      40.085   9.016 -26.395  1.00  0.00    -0.201 N 
HETATM   20  C6  UNL     1      39.315  10.005 -25.966  1.00  0.00     0.122 A 
ATOM     21  H4  UNL     1      40.763   9.206 -27.132  1.00  0.00     0.183 HD
BRANCH  17  22
HETATM   22  N3  UNL     1      40.761   6.796 -26.315  1.00  0.00    -0.234 N 
ATOM     23  H32 UNL     1      40.747   6.493 -27.288  1.00  0.00     0.174 HD
ATOM     24  H31 UNL     1      41.390   6.331 -25.659  1.00  0.00     0.174 HD
ENDBRANCH  17  22
ENDBRANCH   3  14
BRANCH   6  25
HETATM   25  N6  UNL     1      34.192  11.961 -25.402  1.00  0.00    -0.373 N 
ATOM     26  H6  UNL     1      33.926  12.882 -25.750  1.00  0.00     0.161 HD
BRANCH  25  27
HETATM   27  C8  UNL     1      33.208  10.942 -25.541  1.00  0.00     0.148 C 
BRANCH  27  28
HETATM   28  C9  UNL     1      32.887  10.462 -24.116  1.00  0.00     0.249 C 
BRANCH  28  29
HETATM   29  N7  UNL     1      32.574   9.042 -24.111  1.00  0.00    -0.078 N 
ATOM     30  H73 UNL     1      31.857   8.815 -23.423  1.00  0.00     0.274 HD
ATOM     31  H72 UNL     1      32.071   8.763 -24.954  1.00  0.00     0.274 HD
ATOM     32  H71 UNL     1      33.419   8.489 -23.974  1.00  0.00     0.274 HD
ENDBRANCH  28  29
ENDBRANCH  27  28
ENDBRANCH  25  27
ENDBRANCH   6  25
BRANCH  10  33
HETATM   33  N9  UNL     1      35.561  15.766 -21.997  1.00  0.00    -0.218 N 
HETATM   34  C12 UNL     1      35.530  15.947 -20.568  1.00  0.00     0.141 C 
HETATM   35  C13 UNL     1      36.190  17.328 -20.459  1.00  0.00     0.022 C 
HETATM   36  C14 UNL     1      35.548  18.088 -21.584  1.00  0.00     0.022 C 
HETATM   37  C15 UNL     1      35.212  17.038 -22.613  1.00  0.00     0.141 C 
ENDBRANCH  10  33
TORSDOF 7
ENDMDL
