MODEL 1
REMARK VINA RESULT: -7.881557484      0.000      0.000
REMARK  6 active torsions:
REMARK  status: ('A' for Active; 'I' for Inactive)
REMARK    1  A    between atoms: O1_2  and  C2_3 
REMARK    2  A    between atoms: C7_12  and  C8_13 
REMARK    3  A    between atoms: C8_13  and  N3_14 
REMARK    4  A    between atoms: N3_14  and  C9_16 
REMARK    5  A    between atoms: C10_19  and  C11_20 
REMARK    6  A    between atoms: C14_25  and  N6_26 
ROOT
HETATM    1  N3  UNL     1      35.137  13.047 -23.352  1.00  0.00    -0.221 N 
ATOM      2  H3  UNL     1      34.929  13.378 -22.411  1.00  0.00     0.178 HD
ENDROOT
BRANCH   1   3
HETATM    3  C8  UNL     1      35.425  14.044 -24.345  1.00  0.00     0.180 C 
BRANCH   3   4
HETATM    4  C7  UNL     1      36.830  14.532 -24.123  1.00  0.00     0.005 A 
HETATM    5  C6  UNL     1      37.931  13.920 -24.645  1.00  0.00     0.104 A 
HETATM    6  N2  UNL     1      39.168  14.420 -24.401  1.00  0.00    -0.326 N 
HETATM    7  C4  UNL     1      39.358  15.518 -23.651  1.00  0.00     0.276 A 
HETATM    8  C5  UNL     1      40.320  13.732 -24.979  1.00  0.00     0.159 C 
HETATM    9  C3  UNL     1      38.274  16.169 -23.103  1.00  0.00     0.132 A 
HETATM   10  O2  UNL     1      40.541  15.925 -23.467  1.00  0.00    -0.265 OA
HETATM   11  N1  UNL     1      38.190  17.281 -22.319  1.00  0.00    -0.316 N 
HETATM   12  C15 UNL     1      37.015  15.669 -23.344  1.00  0.00     0.077 A 
HETATM   13  C2  UNL     1      36.878  17.469 -22.075  1.00  0.00     0.224 A 
ATOM     14  H1  UNL     1      38.963  17.856 -21.984  1.00  0.00     0.169 HD
HETATM   15  N8  UNL     1      36.166  16.495 -22.694  1.00  0.00    -0.319 N 
ATOM     16  H8  UNL     1      35.150  16.400 -22.673  1.00  0.00     0.169 HD
BRANCH  13  17
HETATM   17  O1  UNL     1      36.272  18.481 -21.317  1.00  0.00    -0.327 OA
HETATM   18  C1  UNL     1      36.675  18.607 -19.955  1.00  0.00     0.213 C 
ENDBRANCH  13  17
ENDBRANCH   3   4
ENDBRANCH   1   3
BRANCH   1  19
HETATM   19  C9  UNL     1      35.119  11.786 -23.541  1.00  0.00     0.694 A 
HETATM   20  N4  UNL     1      36.286  11.083 -23.506  1.00  0.00    -0.179 N 
HETATM   21  C10 UNL     1      36.265   9.761 -23.701  1.00  0.00     0.117 A 
ATOM     22  H4  UNL     1      37.169  11.562 -23.331  1.00  0.00     0.185 HD
HETATM   23  N5  UNL     1      35.089   9.156 -23.929  1.00  0.00    -0.179 N 
HETATM   24  C14 UNL     1      33.938   9.846 -23.964  1.00  0.00     0.691 A 
ATOM     25  H5  UNL     1      35.070   8.147 -24.079  1.00  0.00     0.185 HD
HETATM   26  N7  UNL     1      33.943  11.183 -23.768  1.00  0.00    -0.023 N 
ATOM     27  H7  UNL     1      33.076  11.719 -23.792  1.00  0.00     0.203 HD
BRANCH  21  28
HETATM   28  C11 UNL     1      37.492   8.927 -23.678  1.00  0.00     0.046 C 
HETATM   29  C12 UNL     1      37.401   7.780 -24.665  1.00  0.00     0.017 C 
HETATM   30  C13 UNL     1      38.644   9.853 -24.072  1.00  0.00     0.017 C 
ENDBRANCH  21  28
BRANCH  24  31
HETATM   31  N6  UNL     1      32.808   9.271 -24.182  1.00  0.00    -0.234 N 
ATOM     32  H62 UNL     1      32.814   8.286 -24.445  1.00  0.00     0.174 HD
ATOM     33  H61 UNL     1      31.923   9.772 -24.096  1.00  0.00     0.174 HD
ENDBRANCH  24  31
ENDBRANCH   1  19
TORSDOF 6
ENDMDL
MODEL 2
REMARK VINA RESULT: -7.878103736      3.085      6.679
REMARK  6 active torsions:
REMARK  status: ('A' for Active; 'I' for Inactive)
REMARK    1  A    between atoms: O1_2  and  C2_3 
REMARK    2  A    between atoms: C7_12  and  C8_13 
REMARK    3  A    between atoms: C8_13  and  N3_14 
REMARK    4  A    between atoms: N3_14  and  C9_16 
REMARK    5  A    between atoms: C10_19  and  C11_20 
REMARK    6  A    between atoms: C14_25  and  N6_26 
ROOT
HETATM    1  N3  UNL     1      37.415  13.755 -23.199  1.00  0.00    -0.221 N 
ATOM      2  H3  UNL     1      38.073  13.361 -22.527  1.00  0.00     0.178 HD
ENDROOT
BRANCH   1   3
HETATM    3  C8  UNL     1      37.512  13.293 -24.555  1.00  0.00     0.180 C 
BRANCH   3   4
HETATM    4  C7  UNL     1      37.515  11.789 -24.535  1.00  0.00     0.005 A 
HETATM    5  C6  UNL     1      38.637  11.035 -24.710  1.00  0.00     0.104 A 
HETATM    6  N2  UNL     1      38.560   9.682 -24.677  1.00  0.00    -0.326 N 
HETATM    7  C4  UNL     1      37.399   9.038 -24.473  1.00  0.00     0.276 A 
HETATM    8  C5  UNL     1      39.788   8.913 -24.870  1.00  0.00     0.159 C 
HETATM    9  C3  UNL     1      36.239   9.760 -24.292  1.00  0.00     0.132 A 
HETATM   10  O2  UNL     1      37.407   7.774 -24.456  1.00  0.00    -0.265 OA
HETATM   11  N1  UNL     1      34.953   9.362 -24.072  1.00  0.00    -0.316 N 
HETATM   12  C15 UNL     1      36.307  11.133 -24.324  1.00  0.00     0.077 A 
HETATM   13  C2  UNL     1      34.226  10.491 -23.967  1.00  0.00     0.224 A 
ATOM     14  H1  UNL     1      34.611   8.404 -24.000  1.00  0.00     0.169 HD
HETATM   15  N8  UNL     1      35.042  11.563 -24.120  1.00  0.00    -0.319 N 
ATOM     16  H8  UNL     1      34.749  12.540 -24.086  1.00  0.00     0.169 HD
BRANCH  13  17
HETATM   17  O1  UNL     1      32.848  10.619 -23.739  1.00  0.00    -0.327 OA
HETATM   18  C1  UNL     1      32.027  10.933 -24.863  1.00  0.00     0.213 C 
ENDBRANCH  13  17
ENDBRANCH   3   4
ENDBRANCH   1   3
BRANCH   1  19
HETATM   19  C9  UNL     1      36.581  14.614 -22.759  1.00  0.00     0.694 A 
HETATM   20  N4  UNL     1      36.625  14.984 -21.448  1.00  0.00    -0.179 N 
HETATM   21  C10 UNL     1      35.753  15.887 -20.989  1.00  0.00     0.117 A 
ATOM     22  H4  UNL     1      37.318  14.576 -20.822  1.00  0.00     0.185 HD
HETATM   23  N5  UNL     1      34.851  16.409 -21.834  1.00  0.00    -0.179 N 
HETATM   24  C14 UNL     1      34.807  16.046 -23.126  1.00  0.00     0.691 A 
ATOM     25  H5  UNL     1      34.183  17.097 -21.487  1.00  0.00     0.185 HD
HETATM   26  N7  UNL     1      35.682  15.135 -23.605  1.00  0.00    -0.023 N 
ATOM     27  H7  UNL     1      35.659  14.851 -24.585  1.00  0.00     0.203 HD
BRANCH  21  28
HETATM   28  C11 UNL     1      35.735  16.340 -19.576  1.00  0.00     0.046 C 
HETATM   29  C12 UNL     1      36.478  15.374 -18.674  1.00  0.00     0.017 C 
HETATM   30  C13 UNL     1      36.435  17.701 -19.557  1.00  0.00     0.017 C 
ENDBRANCH  21  28
BRANCH  24  31
HETATM   31  N6  UNL     1      33.944  16.543 -23.942  1.00  0.00    -0.234 N 
ATOM     32  H62 UNL     1      33.274  17.219 -23.577  1.00  0.00     0.174 HD
ATOM     33  H61 UNL     1      33.920  16.280 -24.927  1.00  0.00     0.174 HD
ENDBRANCH  24  31
ENDBRANCH   1  19
TORSDOF 6
ENDMDL
MODEL 3
REMARK VINA RESULT: -7.785080848      1.678      1.745
REMARK  6 active torsions:
REMARK  status: ('A' for Active; 'I' for Inactive)
REMARK    1  A    between atoms: O1_2  and  C2_3 
REMARK    2  A    between atoms: C7_12  and  C8_13 
REMARK    3  A    between atoms: C8_13  and  N3_14 
REMARK    4  A    between atoms: N3_14  and  C9_16 
REMARK    5  A    between atoms: C10_19  and  C11_20 
REMARK    6  A    between atoms: C14_25  and  N6_26 
ROOT
HETATM    1  N3  UNL     1      34.725  12.846 -25.346  1.00  0.00    -0.221 N 
ATOM      2  H3  UNL     1      34.887  12.927 -26.349  1.00  0.00     0.178 HD
ENDROOT
BRANCH   1   3
HETATM    3  C8  UNL     1      34.485  14.063 -24.623  1.00  0.00     0.180 C 
BRANCH   3   4
HETATM    4  C7  UNL     1      35.816  14.685 -24.303  1.00  0.00     0.005 A 
HETATM    5  C6  UNL     1      36.737  15.026 -25.250  1.00  0.00     0.104 A 
HETATM    6  N2  UNL     1      37.916  15.585 -24.883  1.00  0.00    -0.326 N 
HETATM    7  C4  UNL     1      38.224  15.823 -23.597  1.00  0.00     0.276 A 
HETATM    8  C5  UNL     1      38.873  15.934 -25.931  1.00  0.00     0.159 C 
HETATM    9  C3  UNL     1      37.324  15.494 -22.607  1.00  0.00     0.132 A 
HETATM   10  O2  UNL     1      39.344  16.347 -23.333  1.00  0.00    -0.265 OA
HETATM   11  N1  UNL     1      37.386  15.626 -21.250  1.00  0.00    -0.316 N 
HETATM   12  C15 UNL     1      36.125  14.927 -22.968  1.00  0.00     0.077 A 
HETATM   13  C2  UNL     1      36.223  15.140 -20.774  1.00  0.00     0.224 A 
ATOM     14  H1  UNL     1      38.156  16.015 -20.706  1.00  0.00     0.169 HD
HETATM   15  N8  UNL     1      35.459  14.716 -21.811  1.00  0.00    -0.319 N 
ATOM     16  H8  UNL     1      34.529  14.303 -21.731  1.00  0.00     0.169 HD
BRANCH  13  17
HETATM   17  O1  UNL     1      35.800  15.053 -19.440  1.00  0.00    -0.327 OA
HETATM   18  C1  UNL     1      36.730  15.446 -18.433  1.00  0.00     0.213 C 
ENDBRANCH  13  17
ENDBRANCH   3   4
ENDBRANCH   1   3
BRANCH   1  19
HETATM   19  C9  UNL     1      34.755  11.673 -24.846  1.00  0.00     0.694 A 
HETATM   20  N4  UNL     1      35.939  11.156 -24.412  1.00  0.00    -0.179 N 
HETATM   21  C10 UNL     1      35.968   9.928 -23.886  1.00  0.00     0.117 A 
ATOM     22  H4  UNL     1      36.796  11.702 -24.488  1.00  0.00     0.185 HD
HETATM   23  N5  UNL     1      34.825   9.230 -23.798  1.00  0.00    -0.179 N 
HETATM   24  C14 UNL     1      33.657   9.738 -24.225  1.00  0.00     0.691 A 
ATOM     25  H5  UNL     1      34.843   8.292 -23.398  1.00  0.00     0.185 HD
HETATM   26  N7  UNL     1      33.612  10.978 -24.759  1.00  0.00    -0.023 N 
ATOM     27  H7  UNL     1      32.731  11.376 -25.086  1.00  0.00     0.203 HD
BRANCH  21  28
HETATM   28  C11 UNL     1      37.216   9.295 -23.392  1.00  0.00     0.046 C 
HETATM   29  C12 UNL     1      37.448   7.945 -24.042  1.00  0.00     0.017 C 
HETATM   30  C13 UNL     1      38.353  10.248 -23.767  1.00  0.00     0.017 C 
ENDBRANCH  21  28
BRANCH  24  31
HETATM   31  N6  UNL     1      32.558   9.074 -24.143  1.00  0.00    -0.234 N 
ATOM     32  H62 UNL     1      32.568   8.094 -24.424  1.00  0.00     0.174 HD
ATOM     33  H61 UNL     1      31.694   9.501 -23.809  1.00  0.00     0.174 HD
ENDBRANCH  24  31
ENDBRANCH   1  19
TORSDOF 6
ENDMDL
MODEL 4
REMARK VINA RESULT: -7.763404507      2.846      6.892
REMARK  6 active torsions:
REMARK  status: ('A' for Active; 'I' for Inactive)
REMARK    1  A    between atoms: O1_2  and  C2_3 
REMARK    2  A    between atoms: C7_12  and  C8_13 
REMARK    3  A    between atoms: C8_13  and  N3_14 
REMARK    4  A    between atoms: N3_14  and  C9_16 
REMARK    5  A    between atoms: C10_19  and  C11_20 
REMARK    6  A    between atoms: C14_25  and  N6_26 
ROOT
HETATM    1  N3  UNL     1      34.810  15.283 -24.361  1.00  0.00    -0.221 N 
ATOM      2  H3  UNL     1      33.924  15.785 -24.311  1.00  0.00     0.178 HD
ENDROOT
BRANCH   1   3
HETATM    3  C8  UNL     1      34.981  14.369 -25.455  1.00  0.00     0.180 C 
BRANCH   3   4
HETATM    4  C7  UNL     1      34.489  13.018 -25.013  1.00  0.00     0.005 A 
HETATM    5  C6  UNL     1      33.199  12.599 -25.163  1.00  0.00     0.104 A 
HETATM    6  N2  UNL     1      32.830  11.365 -24.741  1.00  0.00    -0.326 N 
HETATM    7  C4  UNL     1      33.701  10.517 -24.169  1.00  0.00     0.276 A 
HETATM    8  C5  UNL     1      31.438  10.958 -24.921  1.00  0.00     0.159 C 
HETATM    9  C3  UNL     1      35.015  10.897 -23.998  1.00  0.00     0.132 A 
HETATM   10  O2  UNL     1      33.283   9.382 -23.801  1.00  0.00    -0.265 OA
HETATM   11  N1  UNL     1      36.081  10.242 -23.457  1.00  0.00    -0.316 N 
HETATM   12  C15 UNL     1      35.399  12.148 -24.422  1.00  0.00     0.077 A 
HETATM   13  C2  UNL     1      37.125  11.088 -23.547  1.00  0.00     0.224 A 
ATOM     14  H1  UNL     1      36.088   9.301 -23.063  1.00  0.00     0.169 HD
HETATM   15  N8  UNL     1      36.715  12.242 -24.131  1.00  0.00    -0.319 N 
ATOM     16  H8  UNL     1      37.305  13.052 -24.319  1.00  0.00     0.169 HD
BRANCH  13  17
HETATM   17  O1  UNL     1      38.448  10.884 -23.130  1.00  0.00    -0.327 OA
HETATM   18  C1  UNL     1      39.293  12.031 -23.050  1.00  0.00     0.213 C 
ENDBRANCH  13  17
ENDBRANCH   3   4
ENDBRANCH   1   3
BRANCH   1  19
HETATM   19  C9  UNL     1      35.666  15.524 -23.446  1.00  0.00     0.694 A 
HETATM   20  N4  UNL     1      35.239  15.796 -22.180  1.00  0.00    -0.179 N 
HETATM   21  C10 UNL     1      36.137  16.045 -21.222  1.00  0.00     0.117 A 
ATOM     22  H4  UNL     1      34.243  15.808 -21.966  1.00  0.00     0.185 HD
HETATM   23  N5  UNL     1      37.443  16.022 -21.532  1.00  0.00    -0.179 N 
HETATM   24  C14 UNL     1      37.865  15.755 -22.778  1.00  0.00     0.691 A 
ATOM     25  H5  UNL     1      38.130  16.213 -20.804  1.00  0.00     0.185 HD
HETATM   26  N7  UNL     1      36.969  15.500 -23.758  1.00  0.00    -0.023 N 
ATOM     27  H7  UNL     1      37.277  15.295 -24.709  1.00  0.00     0.203 HD
BRANCH  21  28
HETATM   28  C11 UNL     1      35.752  16.350 -19.822  1.00  0.00     0.046 C 
HETATM   29  C12 UNL     1      36.304  15.317 -18.859  1.00  0.00     0.017 C 
HETATM   30  C13 UNL     1      36.353  17.721 -19.504  1.00  0.00     0.017 C 
ENDBRANCH  21  28
BRANCH  24  31
HETATM   31  N6  UNL     1      39.115  15.731 -23.082  1.00  0.00    -0.234 N 
ATOM     32  H62 UNL     1      39.423  16.276 -23.886  1.00  0.00     0.174 HD
ATOM     33  H61 UNL     1      39.791  15.190 -22.542  1.00  0.00     0.174 HD
ENDBRANCH  24  31
ENDBRANCH   1  19
TORSDOF 6
ENDMDL
MODEL 5
REMARK VINA RESULT: -7.752387751      3.181      7.172
REMARK  6 active torsions:
REMARK  status: ('A' for Active; 'I' for Inactive)
REMARK    1  A    between atoms: O1_2  and  C2_3 
REMARK    2  A    between atoms: C7_12  and  C8_13 
REMARK    3  A    between atoms: C8_13  and  N3_14 
REMARK    4  A    between atoms: N3_14  and  C9_16 
REMARK    5  A    between atoms: C10_19  and  C11_20 
REMARK    6  A    between atoms: C14_25  and  N6_26 
ROOT
HETATM    1  N3  UNL     1      38.292  12.780 -23.547  1.00  0.00    -0.221 N 
ATOM      2  H3  UNL     1      38.349  12.737 -24.564  1.00  0.00     0.178 HD
ENDROOT
BRANCH   1   3
HETATM    3  C8  UNL     1      38.418  11.541 -22.833  1.00  0.00     0.180 C 
BRANCH   3   4
HETATM    4  C7  UNL     1      38.051  10.424 -23.772  1.00  0.00     0.005 A 
HETATM    5  C6  UNL     1      38.969   9.651 -24.420  1.00  0.00     0.104 A 
HETATM    6  N2  UNL     1      38.561   8.661 -25.250  1.00  0.00    -0.326 N 
HETATM    7  C4  UNL     1      37.261   8.401 -25.466  1.00  0.00     0.276 A 
HETATM    8  C5  UNL     1      39.580   7.858 -25.925  1.00  0.00     0.159 C 
HETATM    9  C3  UNL     1      36.298   9.156 -24.832  1.00  0.00     0.132 A 
HETATM   10  O2  UNL     1      36.958   7.460 -26.255  1.00  0.00    -0.265 OA
HETATM   11  N1  UNL     1      34.936   9.103 -24.875  1.00  0.00    -0.316 N 
HETATM   12  C15 UNL     1      36.702  10.164 -23.988  1.00  0.00     0.077 A 
HETATM   13  C2  UNL     1      34.498  10.079 -24.056  1.00  0.00     0.224 A 
ATOM     14  H1  UNL     1      34.364   8.456 -25.417  1.00  0.00     0.169 HD
HETATM   15  N8  UNL     1      35.564  10.722 -23.519  1.00  0.00    -0.319 N 
ATOM     16  H8  UNL     1      35.516  11.504 -22.865  1.00  0.00     0.169 HD
BRANCH  13  17
HETATM   17  O1  UNL     1      33.175  10.434 -23.758  1.00  0.00    -0.327 OA
HETATM   18  C1  UNL     1      32.418  11.062 -24.790  1.00  0.00     0.213 C 
ENDBRANCH  13  17
ENDBRANCH   3   4
ENDBRANCH   1   3
BRANCH   1  19
HETATM   19  C9  UNL     1      38.115  13.930 -23.024  1.00  0.00     0.694 A 
HETATM   20  N4  UNL     1      37.164  14.093 -22.061  1.00  0.00    -0.179 N 
HETATM   21  C10 UNL     1      36.982  15.297 -21.512  1.00  0.00     0.117 A 
ATOM     22  H4  UNL     1      36.596  13.301 -21.762  1.00  0.00     0.185 HD
HETATM   23  N5  UNL     1      37.744  16.322 -21.925  1.00  0.00    -0.179 N 
HETATM   24  C14 UNL     1      38.681  16.164 -22.872  1.00  0.00     0.691 A 
ATOM     25  H5  UNL     1      37.607  17.243 -21.508  1.00  0.00     0.185 HD
HETATM   26  N7  UNL     1      38.878  14.952 -23.437  1.00  0.00    -0.023 N 
ATOM     27  H7  UNL     1      39.587  14.819 -24.158  1.00  0.00     0.203 HD
BRANCH  21  28
HETATM   28  C11 UNL     1      35.967  15.555 -20.460  1.00  0.00     0.046 C 
HETATM   29  C12 UNL     1      36.547  15.363 -19.073  1.00  0.00     0.017 C 
HETATM   30  C13 UNL     1      35.530  17.010 -20.638  1.00  0.00     0.017 C 
ENDBRANCH  21  28
BRANCH  24  31
HETATM   31  N6  UNL     1      39.415  17.143 -23.272  1.00  0.00    -0.234 N 
ATOM     32  H62 UNL     1      39.051  18.090 -23.163  1.00  0.00     0.174 HD
ATOM     33  H61 UNL     1      40.335  16.993 -23.687  1.00  0.00     0.174 HD
ENDBRANCH  24  31
ENDBRANCH   1  19
TORSDOF 6
ENDMDL
