MODEL 1
REMARK VINA RESULT: -6.994352016      0.000      0.000
REMARK  1 active torsions:
REMARK  status: ('A' for Active; 'I' for Inactive)
REMARK       I    between atoms: C1_2  and  N2_4 
REMARK    1  A    between atoms: N2_4  and  C2_6 
ROOT
HETATM    1  C2  UNL     1     -33.665 -23.661 -52.767  1.00  0.00     0.690 A 
HETATM    2  N3  UNL     1     -32.942 -22.534 -52.639  1.00  0.00    -0.155 N 
ATOM      3  H3  UNL     1     -33.157 -21.864 -51.900  1.00  0.00     0.187 HD
HETATM    4  C3  UNL     1     -31.927 -22.298 -53.500  1.00  0.00     0.277 A 
HETATM    5  O2  UNL     1     -31.231 -21.254 -53.409  1.00  0.00    -0.266 OA
HETATM    6  C4  UNL     1     -31.604 -23.177 -54.512  1.00  0.00     0.130 A 
HETATM    7  C5  UNL     1     -30.586 -22.978 -55.405  1.00  0.00     0.208 A 
HETATM    8  O3  UNL     1     -29.892 -21.925 -55.305  1.00  0.00    -0.286 OA
HETATM    9  C6  UNL     1     -30.285 -23.885 -56.415  1.00  0.00     0.163 A 
HETATM   10  N4  UNL     1     -31.061 -24.984 -56.468  1.00  0.00    -0.306 N 
ATOM     11  H4  UNL     1     -30.881 -25.681 -57.192  1.00  0.00     0.186 HD
HETATM   12  N5  UNL     1     -32.052 -25.191 -55.609  1.00  0.00    -0.284 N 
ATOM     13  H5  UNL     1     -32.607 -26.043 -55.697  1.00  0.00     0.188 HD
HETATM   14  C7  UNL     1     -32.356 -24.322 -54.624  1.00  0.00     0.155 A 
HETATM   15  N6  UNL     1     -33.358 -24.525 -53.750  1.00  0.00    -0.174 N 
ATOM     16  H6  UNL     1     -33.913 -25.376 -53.837  1.00  0.00     0.186 HD
ENDROOT
BRANCH   1  17
HETATM   17  N2  UNL     1     -34.657 -23.934 -51.958  1.00  0.00    -0.143 N 
HETATM   18  C1  UNL     1     -35.876 -24.471 -52.438  1.00  0.00     0.346 C 
HETATM   19  N1  UNL     1     -37.071 -23.686 -52.400  1.00  0.00    -0.039 NA
HETATM   20  O1  UNL     1     -35.967 -25.628 -52.907  1.00  0.00    -0.250 OA
ATOM     21  H2  UNL     1     -34.550 -23.754 -50.959  1.00  0.00     0.188 HD
ENDBRANCH   1  17
TORSDOF 1
ENDMDL
MODEL 2
REMARK VINA RESULT: -6.304259739      2.381      5.093
REMARK  1 active torsions:
REMARK  status: ('A' for Active; 'I' for Inactive)
REMARK       I    between atoms: C1_2  and  N2_4 
REMARK    1  A    between atoms: N2_4  and  C2_6 
ROOT
HETATM    1  C2  UNL     1     -31.742 -23.958 -55.634  1.00  0.00     0.690 A 
HETATM    2  N3  UNL     1     -31.294 -22.949 -54.865  1.00  0.00    -0.155 N 
ATOM      3  H3  UNL     1     -30.293 -22.805 -54.735  1.00  0.00     0.187 HD
HETATM    4  C3  UNL     1     -32.186 -22.130 -54.265  1.00  0.00     0.277 A 
HETATM    5  O2  UNL     1     -31.802 -21.177 -53.539  1.00  0.00    -0.266 OA
HETATM    6  C4  UNL     1     -33.548 -22.291 -54.414  1.00  0.00     0.130 A 
HETATM    7  C5  UNL     1     -34.484 -21.486 -53.826  1.00  0.00     0.208 A 
HETATM    8  O3  UNL     1     -34.088 -20.530 -53.097  1.00  0.00    -0.286 OA
HETATM    9  C6  UNL     1     -35.851 -21.674 -53.997  1.00  0.00     0.163 A 
HETATM   10  N4  UNL     1     -36.207 -22.708 -54.783  1.00  0.00    -0.306 N 
ATOM     11  H4  UNL     1     -37.199 -22.890 -54.939  1.00  0.00     0.186 HD
HETATM   12  N5  UNL     1     -35.310 -23.498 -55.360  1.00  0.00    -0.284 N 
ATOM     13  H5  UNL     1     -35.639 -24.266 -55.945  1.00  0.00     0.188 HD
HETATM   14  C7  UNL     1     -33.982 -23.328 -55.205  1.00  0.00     0.155 A 
HETATM   15  N6  UNL     1     -33.067 -24.124 -55.787  1.00  0.00    -0.174 N 
ATOM     16  H6  UNL     1     -33.394 -24.892 -56.372  1.00  0.00     0.186 HD
ENDROOT
BRANCH   1  17
HETATM   17  N2  UNL     1     -30.918 -24.778 -56.236  1.00  0.00    -0.143 N 
HETATM   18  C1  UNL     1     -29.817 -24.301 -56.988  1.00  0.00     0.346 C 
HETATM   19  N1  UNL     1     -29.798 -24.461 -58.410  1.00  0.00    -0.039 NA
HETATM   20  O1  UNL     1     -28.835 -23.731 -56.463  1.00  0.00    -0.250 OA
ATOM     21  H2  UNL     1     -31.072 -25.784 -56.160  1.00  0.00     0.188 HD
ENDBRANCH   1  17
TORSDOF 1
ENDMDL
MODEL 3
REMARK VINA RESULT: -6.267709105      3.029      3.845
REMARK  1 active torsions:
REMARK  status: ('A' for Active; 'I' for Inactive)
REMARK       I    between atoms: C1_2  and  N2_4 
REMARK    1  A    between atoms: N2_4  and  C2_6 
ROOT
HETATM    1  C2  UNL     1     -34.702 -21.470 -53.849  1.00  0.00     0.690 A 
HETATM    2  N3  UNL     1     -35.061 -22.745 -54.086  1.00  0.00    -0.155 N 
ATOM      3  H3  UNL     1     -36.004 -23.065 -53.863  1.00  0.00     0.187 HD
HETATM    4  C3  UNL     1     -34.160 -23.597 -54.623  1.00  0.00     0.277 A 
HETATM    5  O2  UNL     1     -34.462 -24.795 -54.858  1.00  0.00    -0.266 OA
HETATM    6  C4  UNL     1     -32.876 -23.204 -54.939  1.00  0.00     0.130 A 
HETATM    7  C5  UNL     1     -31.933 -24.032 -55.484  1.00  0.00     0.208 A 
HETATM    8  O3  UNL     1     -32.247 -25.236 -55.716  1.00  0.00    -0.286 OA
HETATM    9  C6  UNL     1     -30.646 -23.605 -55.792  1.00  0.00     0.163 A 
HETATM   10  N4  UNL     1     -30.375 -22.315 -55.521  1.00  0.00    -0.306 N 
ATOM     11  H4  UNL     1     -29.444 -21.951 -55.728  1.00  0.00     0.186 HD
HETATM   12  N5  UNL     1     -31.280 -21.499 -54.993  1.00  0.00    -0.284 N 
ATOM     13  H5  UNL     1     -31.017 -20.530 -54.809  1.00  0.00     0.188 HD
HETATM   14  C7  UNL     1     -32.531 -21.898 -54.689  1.00  0.00     0.155 A 
HETATM   15  N6  UNL     1     -33.453 -21.077 -54.153  1.00  0.00    -0.174 N 
ATOM     16  H6  UNL     1     -33.192 -20.109 -53.969  1.00  0.00     0.186 HD
ENDROOT
BRANCH   1  17
HETATM   17  N2  UNL     1     -35.539 -20.608 -53.330  1.00  0.00    -0.143 N 
HETATM   18  C1  UNL     1     -35.326 -19.212 -53.442  1.00  0.00     0.346 C 
HETATM   19  N1  UNL     1     -35.008 -18.439 -52.282  1.00  0.00    -0.039 NA
HETATM   20  O1  UNL     1     -35.405 -18.602 -54.532  1.00  0.00    -0.250 OA
ATOM     21  H2  UNL     1     -36.361 -20.949 -52.832  1.00  0.00     0.188 HD
ENDBRANCH   1  17
TORSDOF 1
ENDMDL
MODEL 4
REMARK VINA RESULT: -6.234712291      1.339      1.418
REMARK  1 active torsions:
REMARK  status: ('A' for Active; 'I' for Inactive)
REMARK       I    between atoms: C1_2  and  N2_4 
REMARK    1  A    between atoms: N2_4  and  C2_6 
ROOT
HETATM    1  C2  UNL     1     -34.904 -24.026 -53.322  1.00  0.00     0.690 A 
HETATM    2  N3  UNL     1     -34.385 -22.895 -52.812  1.00  0.00    -0.155 N 
ATOM      3  H3  UNL     1     -34.881 -22.383 -52.082  1.00  0.00     0.187 HD
HETATM    4  C3  UNL     1     -33.199 -22.444 -53.276  1.00  0.00     0.277 A 
HETATM    5  O2  UNL     1     -32.685 -21.389 -52.822  1.00  0.00    -0.266 OA
HETATM    6  C4  UNL     1     -32.496 -23.106 -54.262  1.00  0.00     0.130 A 
HETATM    7  C5  UNL     1     -31.294 -22.685 -54.760  1.00  0.00     0.208 A 
HETATM    8  O3  UNL     1     -30.785 -21.623 -54.297  1.00  0.00    -0.286 OA
HETATM    9  C6  UNL     1     -30.610 -23.376 -55.754  1.00  0.00     0.163 A 
HETATM   10  N4  UNL     1     -31.204 -24.496 -56.205  1.00  0.00    -0.306 N 
ATOM     11  H4  UNL     1     -30.743 -25.040 -56.936  1.00  0.00     0.186 HD
HETATM   12  N5  UNL     1     -32.370 -24.917 -55.731  1.00  0.00    -0.284 N 
ATOM     13  H5  UNL     1     -32.773 -25.774 -56.112  1.00  0.00     0.188 HD
HETATM   14  C7  UNL     1     -33.045 -24.259 -54.768  1.00  0.00     0.155 A 
HETATM   15  N6  UNL     1     -34.228 -24.679 -54.282  1.00  0.00    -0.174 N 
ATOM     16  H6  UNL     1     -34.631 -25.536 -54.662  1.00  0.00     0.186 HD
ENDROOT
BRANCH   1  17
HETATM   17  N2  UNL     1     -36.050 -24.503 -52.905  1.00  0.00    -0.143 N 
HETATM   18  C1  UNL     1     -36.289 -25.897 -52.837  1.00  0.00     0.346 C 
HETATM   19  N1  UNL     1     -37.233 -26.506 -53.723  1.00  0.00    -0.039 NA
HETATM   20  O1  UNL     1     -35.705 -26.645 -52.022  1.00  0.00    -0.250 OA
ATOM     21  H2  UNL     1     -36.786 -23.856 -52.623  1.00  0.00     0.188 HD
ENDBRANCH   1  17
TORSDOF 1
ENDMDL
MODEL 5
REMARK VINA RESULT: -6.159439070      2.189      5.406
REMARK  1 active torsions:
REMARK  status: ('A' for Active; 'I' for Inactive)
REMARK       I    between atoms: C1_2  and  N2_4 
REMARK    1  A    between atoms: N2_4  and  C2_6 
ROOT
HETATM    1  C2  UNL     1     -33.808 -23.114 -54.601  1.00  0.00     0.690 A 
HETATM    2  N3  UNL     1     -33.544 -23.784 -53.465  1.00  0.00    -0.155 N 
ATOM      3  H3  UNL     1     -32.696 -23.584 -52.934  1.00  0.00     0.187 HD
HETATM    4  C3  UNL     1     -34.412 -24.726 -53.037  1.00  0.00     0.277 A 
HETATM    5  O2  UNL     1     -34.196 -25.372 -51.979  1.00  0.00    -0.266 OA
HETATM    6  C4  UNL     1     -35.568 -25.027 -53.726  1.00  0.00     0.130 A 
HETATM    7  C5  UNL     1     -36.474 -25.972 -53.328  1.00  0.00     0.208 A 
HETATM    8  O3  UNL     1     -36.248 -26.617 -52.263  1.00  0.00    -0.286 OA
HETATM    9  C6  UNL     1     -37.632 -26.252 -54.046  1.00  0.00     0.163 A 
HETATM   10  N4  UNL     1     -37.814 -25.534 -55.169  1.00  0.00    -0.306 N 
ATOM     11  H4  UNL     1     -38.648 -25.702 -55.733  1.00  0.00     0.186 HD
HETATM   12  N5  UNL     1     -36.944 -24.614 -55.568  1.00  0.00    -0.284 N 
ATOM     13  H5  UNL     1     -37.135 -24.100 -56.429  1.00  0.00     0.188 HD
HETATM   14  C7  UNL     1     -35.818 -24.330 -54.883  1.00  0.00     0.155 A 
HETATM   15  N6  UNL     1     -34.932 -23.399 -55.281  1.00  0.00    -0.174 N 
ATOM     16  H6  UNL     1     -35.122 -22.885 -56.141  1.00  0.00     0.186 HD
ENDROOT
BRANCH   1  17
HETATM   17  N2  UNL     1     -32.997 -22.193 -55.058  1.00  0.00    -0.143 N 
HETATM   18  C1  UNL     1     -31.615 -22.207 -54.751  1.00  0.00     0.346 C 
HETATM   19  N1  UNL     1     -31.056 -21.194 -53.911  1.00  0.00    -0.039 NA
HETATM   20  O1  UNL     1     -30.835 -23.082 -55.188  1.00  0.00    -0.250 OA
ATOM     21  H2  UNL     1     -33.370 -21.448 -55.647  1.00  0.00     0.188 HD
ENDBRANCH   1  17
TORSDOF 1
ENDMDL
