MODEL 1
REMARK VINA RESULT: -6.155546923      0.000      0.000
REMARK  2 active torsions:
REMARK  status: ('A' for Active; 'I' for Inactive)
REMARK    1  A    between atoms: N1_1  and  C1_4 
REMARK    2  A    between atoms: N5_19  and  C7_20 
ROOT
HETATM    1  C1  UNL     1     -29.952 -22.954 -55.802  1.00  0.00     0.122 A 
HETATM    2  N2  UNL     1     -29.462 -21.791 -55.351  1.00  0.00    -0.294 N 
ATOM      3  H2  UNL     1     -28.519 -21.521 -55.631  1.00  0.00     0.172 HD
HETATM    4  C2  UNL     1     -30.144 -20.970 -54.555  1.00  0.00     0.327 A 
HETATM    5  O1  UNL     1     -29.667 -19.866 -54.132  1.00  0.00    -0.247 OA
HETATM    6  N3  UNL     1     -31.403 -21.333 -54.183  1.00  0.00    -0.293 N 
ATOM      7  H3  UNL     1     -31.929 -20.708 -53.573  1.00  0.00     0.172 HD
HETATM    8  C3  UNL     1     -31.982 -22.476 -54.580  1.00  0.00     0.141 A 
HETATM    9  C4  UNL     1     -31.221 -23.306 -55.418  1.00  0.00     0.120 A 
HETATM   10  C5  UNL     1     -31.760 -24.491 -55.859  1.00  0.00     0.267 A 
HETATM   11  O2  UNL     1     -31.060 -25.225 -56.613  1.00  0.00    -0.267 OA
HETATM   12  N4  UNL     1     -32.998 -24.854 -55.497  1.00  0.00    -0.274 N 
ATOM     13  H4  UNL     1     -33.397 -25.734 -55.826  1.00  0.00     0.173 HD
HETATM   14  C6  UNL     1     -33.703 -24.046 -54.698  1.00  0.00     0.337 A 
HETATM   15  O3  UNL     1     -34.859 -24.392 -54.365  1.00  0.00    -0.246 OA
HETATM   16  N5  UNL     1     -33.220 -22.849 -54.224  1.00  0.00    -0.224 N 
ENDROOT
BRANCH   1  17
HETATM   17  N1  UNL     1     -29.310 -23.760 -56.570  1.00  0.00    -0.384 N 
ATOM     18  H12 UNL     1     -28.778 -23.360 -57.344  1.00  0.00     0.157 HD
ATOM     19  H11 UNL     1     -29.297 -24.773 -56.458  1.00  0.00     0.157 HD
ENDBRANCH   1  17
BRANCH  16  20
HETATM   20  C7  UNL     1     -34.021 -22.071 -53.398  1.00  0.00     0.365 C 
HETATM   21  O4  UNL     1     -34.130 -20.853 -53.270  1.00  0.00    -0.283 OA
ENDBRANCH  16  20
TORSDOF 2
ENDMDL
MODEL 2
REMARK VINA RESULT: -5.947420960      1.729      3.888
REMARK  2 active torsions:
REMARK  status: ('A' for Active; 'I' for Inactive)
REMARK    1  A    between atoms: N1_1  and  C1_4 
REMARK    2  A    between atoms: N5_19  and  C7_20 
ROOT
HETATM    1  C1  UNL     1     -31.948 -22.350 -55.021  1.00  0.00     0.122 A 
HETATM    2  N2  UNL     1     -31.280 -23.342 -55.626  1.00  0.00    -0.294 N 
ATOM      3  H2  UNL     1     -30.374 -23.132 -56.046  1.00  0.00     0.172 HD
HETATM    4  C2  UNL     1     -31.740 -24.589 -55.707  1.00  0.00     0.327 A 
HETATM    5  O1  UNL     1     -31.095 -25.525 -56.285  1.00  0.00    -0.247 OA
HETATM    6  N3  UNL     1     -32.949 -24.867 -55.145  1.00  0.00    -0.293 N 
ATOM      7  H3  UNL     1     -33.305 -25.820 -55.204  1.00  0.00     0.172 HD
HETATM    8  C3  UNL     1     -33.693 -23.944 -54.518  1.00  0.00     0.141 A 
HETATM    9  C4  UNL     1     -33.164 -22.645 -54.460  1.00  0.00     0.120 A 
HETATM   10  C5  UNL     1     -33.880 -21.655 -53.831  1.00  0.00     0.267 A 
HETATM   11  O2  UNL     1     -33.388 -20.492 -53.789  1.00  0.00    -0.267 OA
HETATM   12  N4  UNL     1     -35.071 -21.922 -53.275  1.00  0.00    -0.274 N 
ATOM     13  H4  UNL     1     -35.600 -21.186 -52.808  1.00  0.00     0.173 HD
HETATM   14  C6  UNL     1     -35.554 -23.167 -53.343  1.00  0.00     0.337 A 
HETATM   15  O3  UNL     1     -36.666 -23.408 -52.822  1.00  0.00    -0.246 OA
HETATM   16  N5  UNL     1     -34.885 -24.199 -53.959  1.00  0.00    -0.224 N 
ENDROOT
BRANCH   1  17
HETATM   17  N1  UNL     1     -31.521 -21.140 -54.933  1.00  0.00    -0.384 N 
ATOM     18  H12 UNL     1     -31.728 -20.622 -54.078  1.00  0.00     0.157 HD
ATOM     19  H11 UNL     1     -30.990 -20.665 -55.661  1.00  0.00     0.157 HD
ENDBRANCH   1  17
BRANCH  16  20
HETATM   20  C7  UNL     1     -35.461 -25.463 -53.984  1.00  0.00     0.365 C 
HETATM   21  O4  UNL     1     -36.071 -26.071 -54.860  1.00  0.00    -0.283 OA
ENDBRANCH  16  20
TORSDOF 2
ENDMDL
MODEL 3
REMARK VINA RESULT: -5.762774117      1.862      4.320
REMARK  2 active torsions:
REMARK  status: ('A' for Active; 'I' for Inactive)
REMARK    1  A    between atoms: N1_1  and  C1_4 
REMARK    2  A    between atoms: N5_19  and  C7_20 
ROOT
HETATM    1  C1  UNL     1     -35.906 -22.274 -53.989  1.00  0.00     0.122 A 
HETATM    2  N2  UNL     1     -35.937 -20.983 -53.632  1.00  0.00    -0.294 N 
ATOM      3  H2  UNL     1     -36.834 -20.575 -53.365  1.00  0.00     0.172 HD
HETATM    4  C2  UNL     1     -34.857 -20.205 -53.610  1.00  0.00     0.327 A 
HETATM    5  O1  UNL     1     -34.899 -18.977 -53.269  1.00  0.00    -0.247 OA
HETATM    6  N3  UNL     1     -33.662 -20.752 -53.967  1.00  0.00    -0.293 N 
ATOM      7  H3  UNL     1     -32.833 -20.160 -53.952  1.00  0.00     0.172 HD
HETATM    8  C3  UNL     1     -33.527 -22.034 -54.339  1.00  0.00     0.141 A 
HETATM    9  C4  UNL     1     -34.695 -22.811 -54.346  1.00  0.00     0.120 A 
HETATM   10  C5  UNL     1     -34.621 -24.132 -54.718  1.00  0.00     0.267 A 
HETATM   11  O2  UNL     1     -35.683 -24.817 -54.718  1.00  0.00    -0.267 OA
HETATM   12  N4  UNL     1     -33.448 -24.677 -55.071  1.00  0.00    -0.274 N 
ATOM     13  H4  UNL     1     -33.395 -25.658 -55.346  1.00  0.00     0.173 HD
HETATM   14  C6  UNL     1     -32.349 -23.915 -55.056  1.00  0.00     0.337 A 
HETATM   15  O3  UNL     1     -31.257 -24.432 -55.386  1.00  0.00    -0.246 OA
HETATM   16  N5  UNL     1     -32.359 -22.588 -54.694  1.00  0.00    -0.224 N 
ENDROOT
BRANCH   1  17
HETATM   17  N1  UNL     1     -36.937 -23.042 -54.017  1.00  0.00    -0.384 N 
ATOM     18  H12 UNL     1     -37.859 -22.605 -53.983  1.00  0.00     0.157 HD
ATOM     19  H11 UNL     1     -36.894 -24.059 -54.071  1.00  0.00     0.157 HD
ENDBRANCH   1  17
BRANCH  16  20
HETATM   20  C7  UNL     1     -31.170 -21.871 -54.707  1.00  0.00     0.365 C 
HETATM   21  O4  UNL     1     -30.679 -21.079 -53.904  1.00  0.00    -0.283 OA
ENDBRANCH  16  20
TORSDOF 2
ENDMDL
MODEL 4
REMARK VINA RESULT: -5.654189077      1.836      2.626
REMARK  2 active torsions:
REMARK  status: ('A' for Active; 'I' for Inactive)
REMARK    1  A    between atoms: N1_1  and  C1_4 
REMARK    2  A    between atoms: N5_19  and  C7_20 
ROOT
HETATM    1  C1  UNL     1     -32.250 -23.611 -54.719  1.00  0.00     0.122 A 
HETATM    2  N2  UNL     1     -31.209 -22.768 -54.680  1.00  0.00    -0.294 N 
ATOM      3  H2  UNL     1     -30.275 -23.143 -54.847  1.00  0.00     0.172 HD
HETATM    4  C2  UNL     1     -31.332 -21.465 -54.436  1.00  0.00     0.327 A 
HETATM    5  O1  UNL     1     -30.333 -20.672 -54.402  1.00  0.00    -0.247 OA
HETATM    6  N3  UNL     1     -32.580 -20.967 -54.214  1.00  0.00    -0.293 N 
ATOM      7  H3  UNL     1     -32.679 -19.970 -54.026  1.00  0.00     0.172 HD
HETATM    8  C3  UNL     1     -33.685 -21.728 -54.231  1.00  0.00     0.141 A 
HETATM    9  C4  UNL     1     -33.501 -23.094 -54.493  1.00  0.00     0.120 A 
HETATM   10  C5  UNL     1     -34.595 -23.925 -54.524  1.00  0.00     0.267 A 
HETATM   11  O2  UNL     1     -34.410 -25.153 -54.762  1.00  0.00    -0.267 OA
HETATM   12  N4  UNL     1     -35.826 -23.442 -54.307  1.00  0.00    -0.274 N 
ATOM     13  H4  UNL     1     -36.637 -24.060 -54.331  1.00  0.00     0.173 HD
HETATM   14  C6  UNL     1     -35.975 -22.137 -54.059  1.00  0.00     0.337 A 
HETATM   15  O3  UNL     1     -37.128 -21.693 -53.858  1.00  0.00    -0.246 OA
HETATM   16  N5  UNL     1     -34.920 -21.255 -54.015  1.00  0.00    -0.224 N 
ENDROOT
BRANCH   1  17
HETATM   17  N1  UNL     1     -32.152 -24.871 -54.954  1.00  0.00    -0.384 N 
ATOM     18  H12 UNL     1     -32.188 -25.509 -54.158  1.00  0.00     0.157 HD
ATOM     19  H11 UNL     1     -32.040 -25.274 -55.883  1.00  0.00     0.157 HD
ENDBRANCH   1  17
BRANCH  16  20
HETATM   20  C7  UNL     1     -35.166 -19.913 -53.750  1.00  0.00     0.365 C 
HETATM   21  O4  UNL     1     -34.634 -19.118 -52.979  1.00  0.00    -0.283 OA
ENDBRANCH  16  20
TORSDOF 2
ENDMDL
MODEL 5
REMARK VINA RESULT: -5.645341297      1.815      5.475
REMARK  2 active torsions:
REMARK  status: ('A' for Active; 'I' for Inactive)
REMARK    1  A    between atoms: N1_1  and  C1_4 
REMARK    2  A    between atoms: N5_19  and  C7_20 
ROOT
HETATM    1  C1  UNL     1     -35.729 -22.599 -53.763  1.00  0.00     0.122 A 
HETATM    2  N2  UNL     1     -36.297 -23.805 -53.904  1.00  0.00    -0.294 N 
ATOM      3  H2  UNL     1     -37.289 -23.903 -53.685  1.00  0.00     0.172 HD
HETATM    4  C2  UNL     1     -35.631 -24.883 -54.314  1.00  0.00     0.327 A 
HETATM    5  O1  UNL     1     -36.182 -26.025 -54.444  1.00  0.00    -0.247 OA
HETATM    6  N3  UNL     1     -34.308 -24.750 -54.606  1.00  0.00    -0.293 N 
ATOM      7  H3  UNL     1     -33.794 -25.572 -54.920  1.00  0.00     0.172 HD
HETATM    8  C3  UNL     1     -33.648 -23.586 -54.497  1.00  0.00     0.141 A 
HETATM    9  C4  UNL     1     -34.395 -22.481 -54.060  1.00  0.00     0.120 A 
HETATM   10  C5  UNL     1     -33.776 -21.261 -53.930  1.00  0.00     0.267 A 
HETATM   11  O2  UNL     1     -34.464 -20.277 -53.535  1.00  0.00    -0.267 OA
HETATM   12  N4  UNL     1     -32.473 -21.123 -54.215  1.00  0.00    -0.274 N 
ATOM     13  H4  UNL     1     -32.016 -20.217 -54.117  1.00  0.00     0.173 HD
HETATM   14  C6  UNL     1     -31.783 -22.191 -54.629  1.00  0.00     0.337 A 
HETATM   15  O3  UNL     1     -30.568 -22.053 -54.894  1.00  0.00    -0.246 OA
HETATM   16  N5  UNL     1     -32.346 -23.437 -54.780  1.00  0.00    -0.224 N 
ENDROOT
BRANCH   1  17
HETATM   17  N1  UNL     1     -36.354 -21.548 -53.369  1.00  0.00    -0.384 N 
ATOM     18  H12 UNL     1     -37.292 -21.383 -53.736  1.00  0.00     0.157 HD
ATOM     19  H11 UNL     1     -35.974 -20.867 -52.712  1.00  0.00     0.157 HD
ENDBRANCH   1  17
BRANCH  16  20
HETATM   20  C7  UNL     1     -31.555 -24.492 -55.216  1.00  0.00     0.365 C 
HETATM   21  O4  UNL     1     -31.640 -25.233 -56.193  1.00  0.00    -0.283 OA
ENDBRANCH  16  20
TORSDOF 2
ENDMDL
