MODEL 1
REMARK VINA RESULT: -7.092167133      0.000      0.000
REMARK  2 active torsions:
REMARK  status: ('A' for Active; 'I' for Inactive)
REMARK    1  A    between atoms: N1_1  and  N2_4 
REMARK       I    between atoms: N2_4  and  C1_6 
REMARK    2  A    between atoms: C1_6  and  C2_8 
ROOT
HETATM    1  C2  UNL     1     -34.768 -24.866 -53.448  1.00  0.00     0.050 A 
HETATM    2  C3  UNL     1     -34.384 -24.354 -52.209  1.00  0.00     0.106 A 
HETATM    3  N3  UNL     1     -33.407 -23.443 -52.061  1.00  0.00    -0.350 N 
ATOM      4  H3  UNL     1     -33.167 -23.102 -51.130  1.00  0.00     0.166 HD
HETATM    5  C4  UNL     1     -32.753 -22.987 -53.118  1.00  0.00     0.124 A 
HETATM    6  N4  UNL     1     -31.762 -22.069 -53.006  1.00  0.00    -0.294 N 
ATOM      7  H4  UNL     1     -31.494 -21.704 -52.092  1.00  0.00     0.172 HD
HETATM    8  C5  UNL     1     -31.143 -21.650 -54.113  1.00  0.00     0.328 A 
HETATM    9  O2  UNL     1     -30.212 -20.789 -54.022  1.00  0.00    -0.247 OA
HETATM   10  N5  UNL     1     -31.448 -22.090 -55.352  1.00  0.00    -0.275 N 
ATOM     11  H5  UNL     1     -30.944 -21.737 -56.165  1.00  0.00     0.173 HD
HETATM   12  C6  UNL     1     -32.426 -23.002 -55.500  1.00  0.00     0.263 A 
HETATM   13  O3  UNL     1     -32.754 -23.448 -56.622  1.00  0.00    -0.267 OA
HETATM   14  C7  UNL     1     -33.078 -23.447 -54.375  1.00  0.00     0.077 A 
HETATM   15  C8  UNL     1     -34.094 -24.396 -54.552  1.00  0.00     0.039 A 
ENDROOT
BRANCH   1  16
HETATM   16  C1  UNL     1     -35.831 -25.850 -53.566  1.00  0.00     0.271 C 
HETATM   17  N2  UNL     1     -36.404 -26.545 -52.477  1.00  0.00    -0.272 N 
ATOM     18  H2  UNL     1     -36.062 -26.356 -51.535  1.00  0.00     0.189 HD
HETATM   19  O1  UNL     1     -36.269 -26.095 -54.746  1.00  0.00    -0.266 OA
BRANCH  17  20
HETATM   20  N1  UNL     1     -37.420 -27.477 -52.652  1.00  0.00    -0.342 N 
ATOM     21  H12 UNL     1     -38.036 -27.368 -53.458  1.00  0.00     0.176 HD
ATOM     22  H11 UNL     1     -37.559 -28.252 -52.004  1.00  0.00     0.176 HD
ENDBRANCH  17  20
ENDBRANCH   1  16
TORSDOF 2
ENDMDL
MODEL 2
REMARK VINA RESULT: -6.636157638      1.234      1.234
REMARK  2 active torsions:
REMARK  status: ('A' for Active; 'I' for Inactive)
REMARK    1  A    between atoms: N1_1  and  N2_4 
REMARK       I    between atoms: N2_4  and  C1_6 
REMARK    2  A    between atoms: C1_6  and  C2_8 
ROOT
HETATM    1  C2  UNL     1     -35.116 -25.069 -53.564  1.00  0.00     0.050 A 
HETATM    2  C3  UNL     1     -35.185 -24.120 -52.545  1.00  0.00     0.106 A 
HETATM    3  N3  UNL     1     -34.280 -23.139 -52.391  1.00  0.00    -0.350 N 
ATOM      4  H3  UNL     1     -34.380 -22.471 -51.627  1.00  0.00     0.166 HD
HETATM    5  C4  UNL     1     -33.258 -23.036 -53.226  1.00  0.00     0.124 A 
HETATM    6  N4  UNL     1     -32.326 -22.059 -53.101  1.00  0.00    -0.294 N 
ATOM      7  H4  UNL     1     -32.392 -21.373 -52.349  1.00  0.00     0.172 HD
HETATM    8  C5  UNL     1     -31.321 -22.012 -53.978  1.00  0.00     0.328 A 
HETATM    9  O2  UNL     1     -30.440 -21.101 -53.872  1.00  0.00    -0.247 OA
HETATM   10  N5  UNL     1     -31.174 -22.887 -54.996  1.00  0.00    -0.275 N 
ATOM     11  H5  UNL     1     -30.386 -22.806 -55.638  1.00  0.00     0.173 HD
HETATM   12  C6  UNL     1     -32.080 -23.869 -55.149  1.00  0.00     0.263 A 
HETATM   13  O3  UNL     1     -31.997 -24.711 -56.072  1.00  0.00    -0.267 OA
HETATM   14  C7  UNL     1     -33.124 -23.938 -54.259  1.00  0.00     0.077 A 
HETATM   15  C8  UNL     1     -34.058 -24.969 -54.437  1.00  0.00     0.039 A 
ENDROOT
BRANCH   1  16
HETATM   16  C1  UNL     1     -36.117 -26.115 -53.697  1.00  0.00     0.271 C 
HETATM   17  N2  UNL     1     -36.775 -26.446 -54.902  1.00  0.00    -0.272 N 
ATOM     18  H2  UNL     1     -36.547 -25.926 -55.749  1.00  0.00     0.189 HD
HETATM   19  O1  UNL     1     -36.412 -26.776 -52.637  1.00  0.00    -0.266 OA
BRANCH  17  20
HETATM   20  N1  UNL     1     -37.724 -27.459 -54.967  1.00  0.00    -0.342 N 
ATOM     21  H12 UNL     1     -37.718 -28.069 -55.784  1.00  0.00     0.176 HD
ATOM     22  H11 UNL     1     -38.414 -27.600 -54.229  1.00  0.00     0.176 HD
ENDBRANCH  17  20
ENDBRANCH   1  16
TORSDOF 2
ENDMDL
MODEL 3
REMARK VINA RESULT: -6.620196413      1.334      1.334
REMARK  2 active torsions:
REMARK  status: ('A' for Active; 'I' for Inactive)
REMARK    1  A    between atoms: N1_1  and  N2_4 
REMARK       I    between atoms: N2_4  and  C1_6 
REMARK    2  A    between atoms: C1_6  and  C2_8 
ROOT
HETATM    1  C2  UNL     1     -34.365 -24.436 -53.633  1.00  0.00     0.050 A 
HETATM    2  C3  UNL     1     -34.353 -23.373 -52.732  1.00  0.00     0.106 A 
HETATM    3  N3  UNL     1     -33.417 -22.408 -52.744  1.00  0.00    -0.350 N 
ATOM      4  H3  UNL     1     -33.458 -21.653 -52.061  1.00  0.00     0.166 HD
HETATM    5  C4  UNL     1     -32.442 -22.436 -53.639  1.00  0.00     0.124 A 
HETATM    6  N4  UNL     1     -31.481 -21.481 -53.681  1.00  0.00    -0.294 N 
ATOM      7  H4  UNL     1     -31.488 -20.709 -53.014  1.00  0.00     0.172 HD
HETATM    8  C5  UNL     1     -30.526 -21.568 -54.610  1.00  0.00     0.328 A 
HETATM    9  O2  UNL     1     -29.619 -20.678 -54.661  1.00  0.00    -0.247 OA
HETATM   10  N5  UNL     1     -30.458 -22.561 -55.523  1.00  0.00    -0.275 N 
ATOM     11  H5  UNL     1     -29.707 -22.579 -56.212  1.00  0.00     0.173 HD
HETATM   12  C6  UNL     1     -31.396 -23.525 -55.509  1.00  0.00     0.263 A 
HETATM   13  O3  UNL     1     -31.386 -24.472 -56.328  1.00  0.00    -0.267 OA
HETATM   14  C7  UNL     1     -32.389 -23.457 -54.562  1.00  0.00     0.077 A 
HETATM   15  C8  UNL     1     -33.356 -24.472 -54.567  1.00  0.00     0.039 A 
ENDROOT
BRANCH   1  16
HETATM   16  C1  UNL     1     -35.397 -25.460 -53.586  1.00  0.00     0.271 C 
HETATM   17  N2  UNL     1     -36.138 -25.901 -54.704  1.00  0.00    -0.272 N 
ATOM     18  H2  UNL     1     -35.952 -25.486 -55.617  1.00  0.00     0.189 HD
HETATM   19  O1  UNL     1     -35.640 -25.990 -52.443  1.00  0.00    -0.266 OA
BRANCH  17  20
HETATM   20  N1  UNL     1     -37.113 -26.885 -54.598  1.00  0.00    -0.342 N 
ATOM     21  H12 UNL     1     -37.350 -27.226 -53.666  1.00  0.00     0.176 HD
ATOM     22  H11 UNL     1     -37.588 -27.266 -55.416  1.00  0.00     0.176 HD
ENDBRANCH  17  20
ENDBRANCH   1  16
TORSDOF 2
ENDMDL
MODEL 4
REMARK VINA RESULT: -6.485522934      2.322      5.295
REMARK  2 active torsions:
REMARK  status: ('A' for Active; 'I' for Inactive)
REMARK    1  A    between atoms: N1_1  and  N2_4 
REMARK       I    between atoms: N2_4  and  C1_6 
REMARK    2  A    between atoms: C1_6  and  C2_8 
ROOT
HETATM    1  C2  UNL     1     -32.704 -23.748 -55.358  1.00  0.00     0.050 A 
HETATM    2  C3  UNL     1     -32.778 -22.411 -54.969  1.00  0.00     0.106 A 
HETATM    3  N3  UNL     1     -33.815 -21.901 -54.284  1.00  0.00    -0.350 N 
ATOM      4  H3  UNL     1     -33.816 -20.915 -54.024  1.00  0.00     0.166 HD
HETATM    5  C4  UNL     1     -34.835 -22.673 -53.944  1.00  0.00     0.124 A 
HETATM    6  N4  UNL     1     -35.898 -22.192 -53.253  1.00  0.00    -0.294 N 
ATOM      7  H4  UNL     1     -35.936 -21.211 -52.976  1.00  0.00     0.172 HD
HETATM    8  C5  UNL     1     -36.894 -23.026 -52.942  1.00  0.00     0.328 A 
HETATM    9  O2  UNL     1     -37.896 -22.588 -52.293  1.00  0.00    -0.247 OA
HETATM   10  N5  UNL     1     -36.908 -24.334 -53.276  1.00  0.00    -0.275 N 
ATOM     11  H5  UNL     1     -37.694 -24.927 -53.013  1.00  0.00     0.173 HD
HETATM   12  C6  UNL     1     -35.869 -24.843 -53.962  1.00  0.00     0.263 A 
HETATM   13  O3  UNL     1     -35.825 -26.047 -54.302  1.00  0.00    -0.267 OA
HETATM   14  C7  UNL     1     -34.832 -24.005 -54.294  1.00  0.00     0.077 A 
HETATM   15  C8  UNL     1     -33.760 -24.557 -55.009  1.00  0.00     0.039 A 
ENDROOT
BRANCH   1  16
HETATM   16  C1  UNL     1     -31.563 -24.261 -56.100  1.00  0.00     0.271 C 
HETATM   17  N2  UNL     1     -30.749 -23.486 -56.955  1.00  0.00    -0.272 N 
ATOM     18  H2  UNL     1     -30.960 -22.495 -57.074  1.00  0.00     0.189 HD
HETATM   19  O1  UNL     1     -31.289 -25.506 -55.957  1.00  0.00    -0.266 OA
BRANCH  17  20
HETATM   20  N1  UNL     1     -29.670 -24.033 -57.638  1.00  0.00    -0.342 N 
ATOM     21  H12 UNL     1     -29.539 -23.771 -58.615  1.00  0.00     0.176 HD
ATOM     22  H11 UNL     1     -29.020 -24.680 -57.192  1.00  0.00     0.176 HD
ENDBRANCH  17  20
ENDBRANCH   1  16
TORSDOF 2
ENDMDL
MODEL 5
REMARK VINA RESULT: -6.398403812      1.305      1.320
REMARK  2 active torsions:
REMARK  status: ('A' for Active; 'I' for Inactive)
REMARK    1  A    between atoms: N1_1  and  N2_4 
REMARK       I    between atoms: N2_4  and  C1_6 
REMARK    2  A    between atoms: C1_6  and  C2_8 
ROOT
HETATM    1  C2  UNL     1     -34.828 -24.061 -54.385  1.00  0.00     0.050 A 
HETATM    2  C3  UNL     1     -34.962 -22.935 -53.575  1.00  0.00     0.106 A 
HETATM    3  N3  UNL     1     -33.992 -22.016 -53.428  1.00  0.00    -0.350 N 
ATOM      4  H3  UNL     1     -34.145 -21.210 -52.822  1.00  0.00     0.166 HD
HETATM    5  C4  UNL     1     -32.840 -22.153 -54.065  1.00  0.00     0.124 A 
HETATM    6  N4  UNL     1     -31.840 -21.246 -53.940  1.00  0.00    -0.294 N 
ATOM      7  H4  UNL     1     -31.955 -20.427 -53.342  1.00  0.00     0.172 HD
HETATM    8  C5  UNL     1     -30.703 -21.444 -54.611  1.00  0.00     0.328 A 
HETATM    9  O2  UNL     1     -29.758 -20.601 -54.503  1.00  0.00    -0.247 OA
HETATM   10  N5  UNL     1     -30.485 -22.504 -55.418  1.00  0.00    -0.275 N 
ATOM     11  H5  UNL     1     -29.598 -22.607 -55.908  1.00  0.00     0.173 HD
HETATM   12  C6  UNL     1     -31.456 -23.424 -55.565  1.00  0.00     0.263 A 
HETATM   13  O3  UNL     1     -31.314 -24.428 -56.297  1.00  0.00    -0.267 OA
HETATM   14  C7  UNL     1     -32.636 -23.241 -54.884  1.00  0.00     0.077 A 
HETATM   15  C8  UNL     1     -33.634 -24.211 -55.052  1.00  0.00     0.039 A 
ENDROOT
BRANCH   1  16
HETATM   16  C1  UNL     1     -35.902 -25.033 -54.518  1.00  0.00     0.271 C 
HETATM   17  N2  UNL     1     -36.058 -26.172 -53.698  1.00  0.00    -0.272 N 
ATOM     18  H2  UNL     1     -35.380 -26.343 -52.954  1.00  0.00     0.189 HD
HETATM   19  O1  UNL     1     -36.760 -24.828 -55.450  1.00  0.00    -0.266 OA
BRANCH  17  20
HETATM   20  N1  UNL     1     -37.107 -27.066 -53.873  1.00  0.00    -0.342 N 
ATOM     21  H12 UNL     1     -37.420 -27.601 -53.063  1.00  0.00     0.176 HD
ATOM     22  H11 UNL     1     -37.559 -27.197 -54.777  1.00  0.00     0.176 HD
ENDBRANCH  17  20
ENDBRANCH   1  16
TORSDOF 2
ENDMDL
