MODEL 1
REMARK VINA RESULT: -6.778215029      0.000      0.000
REMARK  3 active torsions:
REMARK  status: ('A' for Active; 'I' for Inactive)
REMARK    1  A    between atoms: C1_2  and  C2_4 
REMARK    2  A    between atoms: C4_12  and  N5_13 
REMARK    3  A    between atoms: N5_13  and  C5_15 
ROOT
HETATM    1  C2  UNL     1     -30.634 -22.337 -55.260  1.00  0.00     0.157 A 
HETATM    2  N2  UNL     1     -29.520 -22.720 -55.762  1.00  0.00    -0.296 N 
ATOM      3  H2  UNL     1     -28.657 -22.314 -55.397  1.00  0.00     0.187 HD
HETATM    4  N3  UNL     1     -29.430 -23.653 -56.773  1.00  0.00    -0.318 N 
ATOM      5  H3  UNL     1     -28.510 -23.915 -57.129  1.00  0.00     0.182 HD
HETATM    6  C3  UNL     1     -30.600 -24.265 -57.337  1.00  0.00     0.262 A 
HETATM    7  N4  UNL     1     -31.827 -23.810 -56.747  1.00  0.00    -0.357 N 
ATOM      8  H4  UNL     1     -32.711 -24.190 -57.085  1.00  0.00     0.162 HD
HETATM    9  C4  UNL     1     -31.844 -22.936 -55.806  1.00  0.00     0.138 A 
ENDROOT
BRANCH   9  10
HETATM   10  N5  UNL     1     -33.098 -22.507 -55.243  1.00  0.00    -0.327 N 
ATOM     11  H5  UNL     1     -33.382 -21.533 -55.351  1.00  0.00     0.169 HD
BRANCH  10  12
HETATM   12  C5  UNL     1     -33.868 -23.314 -54.611  1.00  0.00     0.111 A 
HETATM   13  C6  UNL     1     -35.002 -23.884 -55.123  1.00  0.00     0.066 A 
HETATM   14  C7  UNL     1     -35.797 -24.757 -54.381  1.00  0.00     0.096 A 
HETATM   15  N6  UNL     1     -35.382 -25.010 -53.124  1.00  0.00    -0.319 N 
HETATM   16  C8  UNL     1     -34.271 -24.460 -52.602  1.00  0.00     0.325 A 
ATOM     17  H6  UNL     1     -35.932 -25.643 -52.544  1.00  0.00     0.170 HD
HETATM   18  O2  UNL     1     -33.926 -24.731 -51.417  1.00  0.00    -0.247 OA
HETATM   19  N7  UNL     1     -33.527 -23.622 -53.346  1.00  0.00    -0.294 N 
ATOM     20  H7  UNL     1     -32.685 -23.211 -52.942  1.00  0.00     0.172 HD
ENDBRANCH  10  12
ENDBRANCH   9  10
BRANCH   1  21
HETATM   21  C1  UNL     1     -30.700 -21.338 -54.182  1.00  0.00     0.286 C 
HETATM   22  N1  UNL     1     -29.957 -20.136 -54.225  1.00  0.00    -0.056 NA
HETATM   23  O1  UNL     1     -31.443 -21.576 -53.197  1.00  0.00    -0.269 OA
ENDBRANCH   1  21
TORSDOF 3
ENDMDL
MODEL 2
REMARK VINA RESULT: -6.651961340      1.477      1.648
REMARK  3 active torsions:
REMARK  status: ('A' for Active; 'I' for Inactive)
REMARK    1  A    between atoms: C1_2  and  C2_4 
REMARK    2  A    between atoms: C4_12  and  N5_13 
REMARK    3  A    between atoms: N5_13  and  C5_15 
ROOT
HETATM    1  C2  UNL     1     -31.110 -22.748 -55.011  1.00  0.00     0.157 A 
HETATM    2  N2  UNL     1     -30.251 -22.724 -55.962  1.00  0.00    -0.296 N 
ATOM      3  H2  UNL     1     -29.727 -21.863 -56.121  1.00  0.00     0.187 HD
HETATM    4  N3  UNL     1     -30.003 -23.805 -56.780  1.00  0.00    -0.318 N 
ATOM      5  H3  UNL     1     -29.306 -23.720 -57.519  1.00  0.00     0.182 HD
HETATM    6  C3  UNL     1     -30.704 -25.048 -56.617  1.00  0.00     0.262 A 
HETATM    7  N4  UNL     1     -31.656 -25.034 -55.542  1.00  0.00    -0.357 N 
ATOM      8  H4  UNL     1     -32.201 -25.875 -55.351  1.00  0.00     0.162 HD
HETATM    9  C4  UNL     1     -31.841 -23.992 -54.814  1.00  0.00     0.138 A 
ENDROOT
BRANCH   9  10
HETATM   10  N5  UNL     1     -32.807 -24.022 -53.747  1.00  0.00    -0.327 N 
ATOM     11  H5  UNL     1     -32.501 -23.810 -52.796  1.00  0.00     0.169 HD
BRANCH  10  12
HETATM   12  C5  UNL     1     -34.039 -24.307 -53.956  1.00  0.00     0.111 A 
HETATM   13  C6  UNL     1     -34.802 -23.802 -54.974  1.00  0.00     0.066 A 
HETATM   14  C7  UNL     1     -36.140 -24.155 -55.148  1.00  0.00     0.096 A 
HETATM   15  N6  UNL     1     -36.642 -25.027 -54.250  1.00  0.00    -0.319 N 
HETATM   16  C8  UNL     1     -35.909 -25.534 -53.243  1.00  0.00     0.325 A 
ATOM     17  H6  UNL     1     -37.616 -25.314 -54.339  1.00  0.00     0.170 HD
HETATM   18  O2  UNL     1     -36.429 -26.349 -52.429  1.00  0.00    -0.247 OA
HETATM   19  N7  UNL     1     -34.621 -25.173 -53.105  1.00  0.00    -0.294 N 
ATOM     20  H7  UNL     1     -34.073 -25.564 -52.339  1.00  0.00     0.172 HD
ENDBRANCH  10  12
ENDBRANCH   9  10
BRANCH   1  21
HETATM   21  C1  UNL     1     -31.354 -21.578 -54.154  1.00  0.00     0.286 C 
HETATM   22  N1  UNL     1     -32.660 -21.125 -53.856  1.00  0.00    -0.056 NA
HETATM   23  O1  UNL     1     -30.361 -20.973 -53.679  1.00  0.00    -0.269 OA
ENDBRANCH   1  21
TORSDOF 3
ENDMDL
MODEL 3
REMARK VINA RESULT: -6.624908873      1.832      2.147
REMARK  3 active torsions:
REMARK  status: ('A' for Active; 'I' for Inactive)
REMARK    1  A    between atoms: C1_2  and  C2_4 
REMARK    2  A    between atoms: C4_12  and  N5_13 
REMARK    3  A    between atoms: N5_13  and  C5_15 
ROOT
HETATM    1  C2  UNL     1     -31.183 -22.735 -54.998  1.00  0.00     0.157 A 
HETATM    2  N2  UNL     1     -30.416 -22.724 -56.024  1.00  0.00    -0.296 N 
ATOM      3  H2  UNL     1     -29.943 -21.854 -56.268  1.00  0.00     0.187 HD
HETATM    4  N3  UNL     1     -30.199 -23.833 -56.814  1.00  0.00    -0.318 N 
ATOM      5  H3  UNL     1     -29.575 -23.758 -57.617  1.00  0.00     0.182 HD
HETATM    6  C3  UNL     1     -30.830 -25.091 -56.533  1.00  0.00     0.262 A 
HETATM    7  N4  UNL     1     -31.681 -25.062 -55.376  1.00  0.00    -0.357 N 
ATOM      8  H4  UNL     1     -32.172 -25.912 -55.100  1.00  0.00     0.162 HD
HETATM    9  C4  UNL     1     -31.841 -23.994 -54.681  1.00  0.00     0.138 A 
ENDROOT
BRANCH   9  10
HETATM   10  N5  UNL     1     -32.705 -24.009 -53.528  1.00  0.00    -0.327 N 
ATOM     11  H5  UNL     1     -32.324 -23.740 -52.620  1.00  0.00     0.169 HD
BRANCH  10  12
HETATM   12  C5  UNL     1     -33.937 -24.351 -53.610  1.00  0.00     0.111 A 
HETATM   13  C6  UNL     1     -34.590 -25.164 -52.723  1.00  0.00     0.066 A 
HETATM   14  C7  UNL     1     -35.936 -25.498 -52.868  1.00  0.00     0.096 A 
HETATM   15  N6  UNL     1     -36.562 -24.969 -53.939  1.00  0.00    -0.319 N 
HETATM   16  C8  UNL     1     -35.940 -24.168 -54.821  1.00  0.00     0.325 A 
ATOM     17  H6  UNL     1     -37.548 -25.185 -54.085  1.00  0.00     0.170 HD
HETATM   18  O2  UNL     1     -36.575 -23.699 -55.808  1.00  0.00    -0.247 OA
HETATM   19  N7  UNL     1     -34.640 -23.867 -54.651  1.00  0.00    -0.294 N 
ATOM     20  H7  UNL     1     -34.177 -23.257 -55.325  1.00  0.00     0.172 HD
ENDBRANCH  10  12
ENDBRANCH   9  10
BRANCH   1  21
HETATM   21  C1  UNL     1     -31.396 -21.536 -54.173  1.00  0.00     0.286 C 
HETATM   22  N1  UNL     1     -32.689 -21.096 -53.808  1.00  0.00    -0.056 NA
HETATM   23  O1  UNL     1     -30.387 -20.893 -53.790  1.00  0.00    -0.269 OA
ENDBRANCH   1  21
TORSDOF 3
ENDMDL
MODEL 4
REMARK VINA RESULT: -6.350548247      1.932      3.028
REMARK  3 active torsions:
REMARK  status: ('A' for Active; 'I' for Inactive)
REMARK    1  A    between atoms: C1_2  and  C2_4 
REMARK    2  A    between atoms: C4_12  and  N5_13 
REMARK    3  A    between atoms: N5_13  and  C5_15 
ROOT
HETATM    1  C2  UNL     1     -30.277 -23.116 -55.936  1.00  0.00     0.157 A 
HETATM    2  N2  UNL     1     -29.160 -22.499 -55.821  1.00  0.00    -0.296 N 
ATOM      3  H2  UNL     1     -28.347 -22.869 -56.313  1.00  0.00     0.187 HD
HETATM    4  N3  UNL     1     -29.006 -21.358 -55.062  1.00  0.00    -0.318 N 
ATOM      5  H3  UNL     1     -28.089 -20.913 -55.012  1.00  0.00     0.182 HD
HETATM    6  C3  UNL     1     -30.105 -20.780 -54.341  1.00  0.00     0.262 A 
HETATM    7  N4  UNL     1     -31.337 -21.501 -54.496  1.00  0.00    -0.357 N 
ATOM      8  H4  UNL     1     -32.173 -21.164 -54.019  1.00  0.00     0.162 HD
HETATM    9  C4  UNL     1     -31.415 -22.560 -55.219  1.00  0.00     0.138 A 
ENDROOT
BRANCH   9  10
HETATM   10  N5  UNL     1     -32.671 -23.253 -55.347  1.00  0.00    -0.327 N 
ATOM     11  H5  UNL     1     -32.973 -23.564 -56.270  1.00  0.00     0.169 HD
BRANCH  10  12
HETATM   12  C5  UNL     1     -33.421 -23.489 -54.334  1.00  0.00     0.111 A 
HETATM   13  C6  UNL     1     -33.064 -24.244 -53.250  1.00  0.00     0.066 A 
HETATM   14  C7  UNL     1     -33.928 -24.462 -52.176  1.00  0.00     0.096 A 
HETATM   15  N6  UNL     1     -35.142 -23.883 -52.269  1.00  0.00    -0.319 N 
HETATM   16  C8  UNL     1     -35.512 -23.138 -53.325  1.00  0.00     0.325 A 
ATOM     17  H6  UNL     1     -35.806 -24.015 -51.507  1.00  0.00     0.170 HD
HETATM   18  O2  UNL     1     -36.662 -22.616 -53.362  1.00  0.00    -0.247 OA
HETATM   19  N7  UNL     1     -34.653 -22.947 -54.343  1.00  0.00    -0.294 N 
ATOM     20  H7  UNL     1     -34.942 -22.379 -55.140  1.00  0.00     0.172 HD
ENDBRANCH  10  12
ENDBRANCH   9  10
BRANCH   1  21
HETATM   21  C1  UNL     1     -30.412 -24.332 -56.752  1.00  0.00     0.286 C 
HETATM   22  N1  UNL     1     -29.890 -24.419 -58.063  1.00  0.00    -0.056 NA
HETATM   23  O1  UNL     1     -31.014 -25.317 -56.255  1.00  0.00    -0.269 OA
ENDBRANCH   1  21
TORSDOF 3
ENDMDL
MODEL 5
REMARK VINA RESULT: -6.278356522      1.882      5.524
REMARK  3 active torsions:
REMARK  status: ('A' for Active; 'I' for Inactive)
REMARK    1  A    between atoms: C1_2  and  C2_4 
REMARK    2  A    between atoms: C4_12  and  N5_13 
REMARK    3  A    between atoms: N5_13  and  C5_15 
ROOT
HETATM    1  C2  UNL     1     -35.703 -23.479 -53.229  1.00  0.00     0.157 A 
HETATM    2  N2  UNL     1     -36.499 -22.801 -52.488  1.00  0.00    -0.296 N 
ATOM      3  H2  UNL     1     -36.848 -23.228 -51.630  1.00  0.00     0.187 HD
HETATM    4  N3  UNL     1     -36.905 -21.520 -52.797  1.00  0.00    -0.318 N 
ATOM      5  H3  UNL     1     -37.540 -21.033 -52.164  1.00  0.00     0.182 HD
HETATM    6  C3  UNL     1     -36.456 -20.855 -53.987  1.00  0.00     0.262 A 
HETATM    7  N4  UNL     1     -35.568 -21.649 -54.789  1.00  0.00    -0.357 N 
ATOM      8  H4  UNL     1     -35.197 -21.257 -55.655  1.00  0.00     0.162 HD
HETATM    9  C4  UNL     1     -35.226 -22.838 -54.446  1.00  0.00     0.138 A 
ENDROOT
BRANCH   9  10
HETATM   10  N5  UNL     1     -34.332 -23.600 -55.279  1.00  0.00    -0.327 N 
ATOM     11  H5  UNL     1     -34.705 -24.377 -55.825  1.00  0.00     0.169 HD
BRANCH  10  12
HETATM   12  C5  UNL     1     -33.082 -23.329 -55.355  1.00  0.00     0.111 A 
HETATM   13  C6  UNL     1     -32.170 -24.024 -56.103  1.00  0.00     0.066 A 
HETATM   14  C7  UNL     1     -30.819 -23.677 -56.144  1.00  0.00     0.096 A 
HETATM   15  N6  UNL     1     -30.462 -22.610 -55.401  1.00  0.00    -0.319 N 
HETATM   16  C8  UNL     1     -31.342 -21.914 -54.660  1.00  0.00     0.325 A 
ATOM     17  H6  UNL     1     -29.485 -22.319 -55.401  1.00  0.00     0.170 HD
HETATM   18  O2  UNL     1     -30.954 -20.921 -53.981  1.00  0.00    -0.247 OA
HETATM   19  N7  UNL     1     -32.638 -22.277 -54.644  1.00  0.00    -0.294 N 
ATOM     20  H7  UNL     1     -33.298 -21.742 -54.080  1.00  0.00     0.172 HD
ENDBRANCH  10  12
ENDBRANCH   9  10
BRANCH   1  21
HETATM   21  C1  UNL     1     -35.287 -24.845 -52.875  1.00  0.00     0.286 C 
HETATM   22  N1  UNL     1     -36.162 -25.950 -52.986  1.00  0.00    -0.056 NA
HETATM   23  O1  UNL     1     -34.113 -25.019 -52.461  1.00  0.00    -0.269 OA
ENDBRANCH   1  21
TORSDOF 3
ENDMDL
