MODEL 1
REMARK VINA RESULT: -5.566255255      0.000      0.000
REMARK  2 active torsions:
REMARK  status: ('A' for Active; 'I' for Inactive)
REMARK    1  A    between atoms: N1_1  and  C1_5 
REMARK    2  A    between atoms: C1_5  and  N2_6 
ROOT
HETATM    1  C1  UNL     1     -32.909 -23.589 -54.478  1.00  0.00     0.355 C 
HETATM    2  C6  UNL     1     -32.514 -22.991 -53.200  1.00  0.00     0.292 C 
HETATM    3  O1  UNL     1     -33.083 -23.414 -52.135  1.00  0.00    -0.268 OA
HETATM    4  N4  UNL     1     -31.546 -21.984 -53.094  1.00  0.00    -0.275 N 
ATOM      5  H4  UNL     1     -31.259 -21.649 -52.175  1.00  0.00     0.173 HD
HETATM    6  C7  UNL     1     -30.967 -21.432 -54.264  1.00  0.00     0.329 C 
HETATM    7  O2  UNL     1     -30.079 -20.507 -54.154  1.00  0.00    -0.247 OA
HETATM    8  N5  UNL     1     -31.371 -21.905 -55.527  1.00  0.00    -0.275 N 
ATOM      9  H5  UNL     1     -30.953 -21.507 -56.367  1.00  0.00     0.173 HD
HETATM   10  C8  UNL     1     -32.338 -22.911 -55.651  1.00  0.00     0.292 C 
HETATM   11  O3  UNL     1     -32.745 -23.259 -56.811  1.00  0.00    -0.268 OA
ENDROOT
BRANCH   1  12
HETATM   12  N1  UNL     1     -32.305 -24.938 -54.482  1.00  0.00    -0.034 N 
ATOM     13  H13 UNL     1     -31.883 -25.167 -55.382  1.00  0.00     0.278 HD
ATOM     14  H12 UNL     1     -31.462 -24.982 -53.909  1.00  0.00     0.278 HD
ATOM     15  H11 UNL     1     -33.000 -25.627 -54.197  1.00  0.00     0.278 HD
ENDBRANCH   1  12
BRANCH   1  16
HETATM   16  N2  UNL     1     -34.329 -23.691 -54.694  1.00  0.00    -0.363 N 
HETATM   17  C2  UNL     1     -34.948 -24.899 -54.272  1.00  0.00     0.139 C 
HETATM   18  C3  UNL     1     -36.285 -24.922 -55.041  1.00  0.00     0.133 C 
HETATM   19  N3  UNL     1     -37.100 -23.929 -54.426  1.00  0.00    -0.418 N 
HETATM   20  C4  UNL     1     -36.486 -22.726 -54.017  1.00  0.00     0.133 C 
ATOM     21  H3  UNL     1     -38.098 -24.084 -54.286  1.00  0.00     0.153 HD
HETATM   22  C5  UNL     1     -35.057 -22.506 -54.362  1.00  0.00     0.139 C 
ENDBRANCH   1  16
TORSDOF 2
ENDMDL
MODEL 2
REMARK VINA RESULT: -5.506110583      1.756      2.131
REMARK  2 active torsions:
REMARK  status: ('A' for Active; 'I' for Inactive)
REMARK    1  A    between atoms: N1_1  and  C1_5 
REMARK    2  A    between atoms: C1_5  and  N2_6 
ROOT
HETATM    1  C1  UNL     1     -34.018 -23.433 -53.456  1.00  0.00     0.355 C 
HETATM    2  C6  UNL     1     -34.244 -22.007 -53.704  1.00  0.00     0.292 C 
HETATM    3  O1  UNL     1     -35.433 -21.552 -53.570  1.00  0.00    -0.268 OA
HETATM    4  N4  UNL     1     -33.222 -21.125 -54.077  1.00  0.00    -0.275 N 
ATOM      5  H4  UNL     1     -33.418 -20.129 -54.173  1.00  0.00     0.173 HD
HETATM    6  C7  UNL     1     -31.915 -21.618 -54.323  1.00  0.00     0.329 C 
HETATM    7  O2  UNL     1     -30.985 -20.799 -54.667  1.00  0.00    -0.247 OA
HETATM    8  N5  UNL     1     -31.657 -22.995 -54.187  1.00  0.00    -0.275 N 
ATOM      9  H5  UNL     1     -30.717 -23.348 -54.363  1.00  0.00     0.173 HD
HETATM   10  C8  UNL     1     -32.668 -23.891 -53.814  1.00  0.00     0.292 C 
HETATM   11  O3  UNL     1     -32.423 -25.144 -53.781  1.00  0.00    -0.268 OA
ENDROOT
BRANCH   1  12
HETATM   12  N1  UNL     1     -34.101 -23.593 -51.989  1.00  0.00    -0.034 N 
ATOM     13  H13 UNL     1     -34.718 -24.360 -51.720  1.00  0.00     0.278 HD
ATOM     14  H12 UNL     1     -33.234 -23.956 -51.592  1.00  0.00     0.278 HD
ATOM     15  H11 UNL     1     -34.379 -22.710 -51.561  1.00  0.00     0.278 HD
ENDBRANCH   1  12
BRANCH   1  16
HETATM   16  N2  UNL     1     -34.953 -24.322 -54.095  1.00  0.00    -0.363 N 
HETATM   17  C2  UNL     1     -35.841 -25.030 -53.240  1.00  0.00     0.139 C 
HETATM   18  C3  UNL     1     -36.344 -26.200 -54.110  1.00  0.00     0.133 C 
HETATM   19  N3  UNL     1     -37.232 -25.621 -55.060  1.00  0.00    -0.418 N 
HETATM   20  C4  UNL     1     -36.890 -24.366 -55.609  1.00  0.00     0.133 C 
ATOM     21  H3  UNL     1     -38.090 -26.098 -55.336  1.00  0.00     0.153 HD
HETATM   22  C5  UNL     1     -35.569 -23.778 -55.267  1.00  0.00     0.139 C 
ENDBRANCH   1  16
TORSDOF 2
ENDMDL
MODEL 3
REMARK VINA RESULT: -5.433087830      1.875      2.405
REMARK  2 active torsions:
REMARK  status: ('A' for Active; 'I' for Inactive)
REMARK    1  A    between atoms: N1_1  and  C1_5 
REMARK    2  A    between atoms: C1_5  and  N2_6 
ROOT
HETATM    1  C1  UNL     1     -33.585 -23.313 -54.604  1.00  0.00     0.355 C 
HETATM    2  C6  UNL     1     -32.182 -23.731 -54.638  1.00  0.00     0.292 C 
HETATM    3  O1  UNL     1     -31.927 -24.978 -54.774  1.00  0.00    -0.268 OA
HETATM    4  N4  UNL     1     -31.113 -22.832 -54.531  1.00  0.00    -0.275 N 
ATOM      5  H4  UNL     1     -30.154 -23.165 -54.628  1.00  0.00     0.173 HD
HETATM    6  C7  UNL     1     -31.365 -21.458 -54.288  1.00  0.00     0.329 C 
HETATM    7  O2  UNL     1     -30.376 -20.641 -54.190  1.00  0.00    -0.247 OA
HETATM    8  N5  UNL     1     -32.693 -21.010 -54.157  1.00  0.00    -0.275 N 
ATOM      9  H5  UNL     1     -32.872 -20.021 -53.983  1.00  0.00     0.173 HD
HETATM   10  C8  UNL     1     -33.774 -21.895 -54.262  1.00  0.00     0.292 C 
HETATM   11  O3  UNL     1     -34.961 -21.473 -54.055  1.00  0.00    -0.268 OA
ENDROOT
BRANCH   1  12
HETATM   12  N1  UNL     1     -34.064 -23.438 -55.997  1.00  0.00    -0.034 N 
ATOM     13  H13 UNL     1     -34.946 -22.946 -56.146  1.00  0.00     0.278 HD
ATOM     14  H12 UNL     1     -33.488 -22.907 -56.651  1.00  0.00     0.278 HD
ATOM     15  H11 UNL     1     -34.127 -24.423 -56.253  1.00  0.00     0.278 HD
ENDBRANCH   1  12
BRANCH   1  16
HETATM   16  N2  UNL     1     -34.432 -24.079 -53.728  1.00  0.00    -0.363 N 
HETATM   17  C2  UNL     1     -35.184 -25.124 -54.329  1.00  0.00     0.139 C 
HETATM   18  C3  UNL     1     -36.301 -25.417 -53.306  1.00  0.00     0.133 C 
HETATM   19  N3  UNL     1     -35.665 -26.084 -52.221  1.00  0.00    -0.418 N 
HETATM   20  C4  UNL     1     -34.382 -25.642 -51.831  1.00  0.00     0.133 C 
ATOM     21  H3  UNL     1     -36.123 -26.857 -51.739  1.00  0.00     0.153 HD
HETATM   22  C5  UNL     1     -33.819 -24.432 -52.484  1.00  0.00     0.139 C 
ENDBRANCH   1  16
TORSDOF 2
ENDMDL
MODEL 4
REMARK VINA RESULT: -5.183153033      2.315      4.786
REMARK  2 active torsions:
REMARK  status: ('A' for Active; 'I' for Inactive)
REMARK    1  A    between atoms: N1_1  and  C1_5 
REMARK    2  A    between atoms: C1_5  and  N2_6 
ROOT
HETATM    1  C1  UNL     1     -34.157 -22.738 -53.925  1.00  0.00     0.355 C 
HETATM    2  C6  UNL     1     -35.032 -23.835 -54.347  1.00  0.00     0.292 C 
HETATM    3  O1  UNL     1     -34.512 -24.993 -54.508  1.00  0.00    -0.268 OA
HETATM    4  N4  UNL     1     -36.403 -23.673 -54.579  1.00  0.00    -0.275 N 
ATOM      5  H4  UNL     1     -36.981 -24.481 -54.806  1.00  0.00     0.173 HD
HETATM    6  C7  UNL     1     -36.988 -22.383 -54.499  1.00  0.00     0.329 C 
HETATM    7  O2  UNL     1     -38.249 -22.246 -54.715  1.00  0.00    -0.247 OA
HETATM    8  N5  UNL     1     -36.179 -21.274 -54.184  1.00  0.00    -0.275 N 
ATOM      9  H5  UNL     1     -36.602 -20.348 -54.126  1.00  0.00     0.173 HD
HETATM   10  C8  UNL     1     -34.806 -21.419 -53.949  1.00  0.00     0.292 C 
HETATM   11  O3  UNL     1     -34.085 -20.383 -53.748  1.00  0.00    -0.268 OA
ENDROOT
BRANCH   1  12
HETATM   12  N1  UNL     1     -33.865 -22.997 -52.499  1.00  0.00    -0.034 N 
ATOM     13  H13 UNL     1     -34.413 -22.399 -51.880  1.00  0.00     0.278 HD
ATOM     14  H12 UNL     1     -34.226 -23.899 -52.191  1.00  0.00     0.278 HD
ATOM     15  H11 UNL     1     -32.863 -22.906 -52.331  1.00  0.00     0.278 HD
ENDBRANCH   1  12
BRANCH   1  16
HETATM   16  N2  UNL     1     -32.924 -22.619 -54.660  1.00  0.00    -0.363 N 
HETATM   17  C2  UNL     1     -31.725 -22.768 -53.914  1.00  0.00     0.139 C 
HETATM   18  C3  UNL     1     -30.644 -22.131 -54.811  1.00  0.00     0.133 C 
HETATM   19  N3  UNL     1     -30.449 -23.043 -55.887  1.00  0.00    -0.418 N 
HETATM   20  C4  UNL     1     -31.583 -23.694 -56.418  1.00  0.00     0.133 C 
ATOM     21  H3  UNL     1     -29.518 -23.220 -56.262  1.00  0.00     0.153 HD
HETATM   22  C5  UNL     1     -32.927 -23.302 -55.918  1.00  0.00     0.139 C 
ENDBRANCH   1  16
TORSDOF 2
ENDMDL
MODEL 5
REMARK VINA RESULT: -5.109783893      2.309      3.863
REMARK  2 active torsions:
REMARK  status: ('A' for Active; 'I' for Inactive)
REMARK    1  A    between atoms: N1_1  and  C1_5 
REMARK    2  A    between atoms: C1_5  and  N2_6 
ROOT
HETATM    1  C1  UNL     1     -35.375 -24.316 -53.432  1.00  0.00     0.355 C 
HETATM    2  C6  UNL     1     -35.321 -23.795 -54.800  1.00  0.00     0.292 C 
HETATM    3  O1  UNL     1     -36.426 -23.591 -55.413  1.00  0.00    -0.268 OA
HETATM    4  N4  UNL     1     -34.121 -23.510 -55.463  1.00  0.00    -0.275 N 
ATOM      5  H4  UNL     1     -34.138 -23.086 -56.390  1.00  0.00     0.173 HD
HETATM    6  C7  UNL     1     -32.881 -23.812 -54.844  1.00  0.00     0.329 C 
HETATM    7  O2  UNL     1     -31.784 -23.548 -55.463  1.00  0.00    -0.247 OA
HETATM    8  N5  UNL     1     -32.870 -24.398 -53.564  1.00  0.00    -0.275 N 
ATOM      9  H5  UNL     1     -31.978 -24.614 -53.120  1.00  0.00     0.173 HD
HETATM   10  C8  UNL     1     -34.062 -24.689 -52.887  1.00  0.00     0.292 C 
HETATM   11  O3  UNL     1     -34.020 -25.296 -51.764  1.00  0.00    -0.268 OA
ENDROOT
BRANCH   1  12
HETATM   12  N1  UNL     1     -35.829 -23.182 -52.599  1.00  0.00    -0.034 N 
ATOM     13  H13 UNL     1     -36.670 -22.742 -52.974  1.00  0.00     0.278 HD
ATOM     14  H12 UNL     1     -36.210 -23.490 -51.705  1.00  0.00     0.278 HD
ATOM     15  H11 UNL     1     -35.067 -22.514 -52.483  1.00  0.00     0.278 HD
ENDBRANCH   1  12
BRANCH   1  16
HETATM   16  N2  UNL     1     -36.252 -25.442 -53.239  1.00  0.00    -0.363 N 
HETATM   17  C2  UNL     1     -37.547 -25.156 -52.730  1.00  0.00     0.139 C 
HETATM   18  C3  UNL     1     -38.044 -26.512 -52.189  1.00  0.00     0.133 C 
HETATM   19  N3  UNL     1     -38.335 -27.302 -53.337  1.00  0.00    -0.418 N 
HETATM   20  C4  UNL     1     -37.468 -27.205 -54.447  1.00  0.00     0.133 C 
ATOM     21  H3  UNL     1     -39.146 -27.920 -53.357  1.00  0.00     0.153 HD
HETATM   22  C5  UNL     1     -36.234 -26.386 -54.314  1.00  0.00     0.139 C 
ENDBRANCH   1  16
TORSDOF 2
ENDMDL
