MODEL 1
REMARK VINA RESULT: -6.537379199      0.000      0.000
REMARK  3 active torsions:
REMARK  status: ('A' for Active; 'I' for Inactive)
REMARK    1  A    between atoms: N1_1  and  C1_4 
REMARK    2  A    between atoms: N4_12  and  C5_14 
REMARK    3  A    between atoms: N6_21  and  O3_22 
ROOT
HETATM    1  C1  UNL     1     -35.500 -22.123 -53.902  1.00  0.00     0.704 A 
HETATM    2  N2  UNL     1     -35.550 -23.213 -54.691  1.00  0.00    -0.198 N 
ATOM      3  H2  UNL     1     -36.445 -23.687 -54.805  1.00  0.00     0.183 HD
HETATM    4  C2  UNL     1     -34.491 -23.704 -55.330  1.00  0.00     0.139 A 
HETATM    5  C3  UNL     1     -33.267 -23.084 -55.195  1.00  0.00     0.097 A 
HETATM    6  N3  UNL     1     -32.165 -23.558 -55.834  1.00  0.00    -0.334 N 
ATOM      7  H3  UNL     1     -32.245 -24.387 -56.424  1.00  0.00     0.168 HD
HETATM    8  C4  UNL     1     -30.973 -22.952 -55.700  1.00  0.00     0.177 A 
HETATM    9  N4  UNL     1     -29.904 -23.355 -56.277  1.00  0.00    -0.316 N 
ATOM     10  H4  UNL     1     -29.054 -22.819 -56.105  1.00  0.00     0.170 HD
HETATM   11  C6  UNL     1     -30.924 -21.835 -54.891  1.00  0.00     0.291 A 
HETATM   12  O2  UNL     1     -29.816 -21.257 -54.756  1.00  0.00    -0.264 OA
HETATM   13  N5  UNL     1     -32.012 -21.356 -54.253  1.00  0.00    -0.302 N 
ATOM     14  H5  UNL     1     -31.930 -20.527 -53.664  1.00  0.00     0.171 HD
HETATM   15  C7  UNL     1     -33.203 -21.966 -54.389  1.00  0.00     0.182 A 
HETATM   16  N6  UNL     1     -34.312 -21.506 -53.761  1.00  0.00    -0.033 N 
ENDROOT
BRANCH   9  17
HETATM   17  C5  UNL     1     -29.796 -24.463 -57.121  1.00  0.00     0.354 C 
HETATM   18  O1  UNL     1     -30.203 -25.578 -56.701  1.00  0.00    -0.283 OA
ENDBRANCH   9  17
BRANCH  16  19
HETATM   19  O3  UNL     1     -34.242 -20.384 -52.952  1.00  0.00    -0.268 OA
ATOM     20  H3  UNL     1     -33.397 -20.131 -52.601  1.00  0.00     0.246 HD
ENDBRANCH  16  19
BRANCH   1  21
HETATM   21  N1  UNL     1     -36.559 -21.664 -53.286  1.00  0.00    -0.232 N 
ATOM     22  H12 UNL     1     -36.489 -21.320 -52.328  1.00  0.00     0.174 HD
ATOM     23  H11 UNL     1     -37.474 -21.635 -53.735  1.00  0.00     0.174 HD
ENDBRANCH   1  21
TORSDOF 3
ENDMDL
MODEL 2
REMARK VINA RESULT: -5.760426889      1.602      4.986
REMARK  3 active torsions:
REMARK  status: ('A' for Active; 'I' for Inactive)
REMARK    1  A    between atoms: N1_1  and  C1_4 
REMARK    2  A    between atoms: N4_12  and  C5_14 
REMARK    3  A    between atoms: N6_21  and  O3_22 
ROOT
HETATM    1  C1  UNL     1     -30.619 -23.771 -56.076  1.00  0.00     0.704 A 
HETATM    2  N2  UNL     1     -31.494 -24.794 -56.114  1.00  0.00    -0.198 N 
ATOM      3  H2  UNL     1     -31.207 -25.658 -56.575  1.00  0.00     0.183 HD
HETATM    4  C2  UNL     1     -32.713 -24.737 -55.584  1.00  0.00     0.139 A 
HETATM    5  C3  UNL     1     -33.128 -23.582 -54.956  1.00  0.00     0.097 A 
HETATM    6  N3  UNL     1     -34.365 -23.489 -54.402  1.00  0.00    -0.334 N 
ATOM      7  H3  UNL     1     -34.998 -24.287 -54.452  1.00  0.00     0.168 HD
HETATM    8  C4  UNL     1     -34.767 -22.361 -53.790  1.00  0.00     0.177 A 
HETATM    9  N4  UNL     1     -35.920 -22.218 -53.254  1.00  0.00    -0.316 N 
ATOM     10  H4  UNL     1     -36.120 -21.319 -52.816  1.00  0.00     0.170 HD
HETATM   11  C6  UNL     1     -33.869 -21.313 -53.753  1.00  0.00     0.291 A 
HETATM   12  O2  UNL     1     -34.230 -20.252 -53.184  1.00  0.00    -0.264 OA
HETATM   13  N5  UNL     1     -32.638 -21.396 -54.298  1.00  0.00    -0.302 N 
ATOM     14  H5  UNL     1     -32.006 -20.597 -54.247  1.00  0.00     0.171 HD
HETATM   15  C7  UNL     1     -32.240 -22.527 -54.910  1.00  0.00     0.182 A 
HETATM   16  N6  UNL     1     -31.010 -22.637 -55.466  1.00  0.00    -0.033 N 
ENDROOT
BRANCH   9  17
HETATM   17  C5  UNL     1     -36.930 -23.182 -53.213  1.00  0.00     0.354 C 
HETATM   18  O1  UNL     1     -36.680 -24.289 -52.668  1.00  0.00    -0.283 OA
ENDBRANCH   9  17
BRANCH  16  19
HETATM   19  O3  UNL     1     -30.123 -21.574 -55.418  1.00  0.00    -0.268 OA
ATOM     20  H3  UNL     1     -29.839 -21.260 -54.568  1.00  0.00     0.246 HD
ENDBRANCH  16  19
BRANCH   1  21
HETATM   21  N1  UNL     1     -29.427 -23.858 -56.608  1.00  0.00    -0.232 N 
ATOM     22  H12 UNL     1     -28.767 -23.085 -56.521  1.00  0.00     0.174 HD
ATOM     23  H11 UNL     1     -29.123 -24.687 -57.119  1.00  0.00     0.174 HD
ENDBRANCH   1  21
TORSDOF 3
ENDMDL
MODEL 3
REMARK VINA RESULT: -5.671108582      1.823      3.068
REMARK  3 active torsions:
REMARK  status: ('A' for Active; 'I' for Inactive)
REMARK    1  A    between atoms: N1_1  and  C1_4 
REMARK    2  A    between atoms: N4_12  and  C5_14 
REMARK    3  A    between atoms: N6_21  and  O3_22 
ROOT
HETATM    1  C1  UNL     1     -36.517 -23.040 -53.900  1.00  0.00     0.704 A 
HETATM    2  N2  UNL     1     -36.067 -21.810 -53.589  1.00  0.00    -0.198 N 
ATOM      3  H2  UNL     1     -36.725 -21.141 -53.189  1.00  0.00     0.183 HD
HETATM    4  C2  UNL     1     -34.809 -21.420 -53.777  1.00  0.00     0.139 A 
HETATM    5  C3  UNL     1     -33.897 -22.302 -54.317  1.00  0.00     0.097 A 
HETATM    6  N3  UNL     1     -32.605 -21.939 -54.523  1.00  0.00    -0.334 N 
ATOM      7  H3  UNL     1     -32.302 -20.997 -54.273  1.00  0.00     0.168 HD
HETATM    8  C4  UNL     1     -31.717 -22.802 -55.050  1.00  0.00     0.177 A 
HETATM    9  N4  UNL     1     -30.490 -22.512 -55.265  1.00  0.00    -0.316 N 
ATOM     10  H4  UNL     1     -29.905 -23.244 -55.669  1.00  0.00     0.170 HD
HETATM   11  C6  UNL     1     -32.181 -24.062 -55.368  1.00  0.00     0.291 A 
HETATM   12  O2  UNL     1     -31.364 -24.879 -55.861  1.00  0.00    -0.264 OA
HETATM   13  N5  UNL     1     -33.462 -24.433 -55.167  1.00  0.00    -0.302 N 
ATOM     14  H5  UNL     1     -33.762 -25.376 -55.416  1.00  0.00     0.171 HD
HETATM   15  C7  UNL     1     -34.346 -23.566 -54.640  1.00  0.00     0.182 A 
HETATM   16  N6  UNL     1     -35.639 -23.913 -54.427  1.00  0.00    -0.033 N 
ENDROOT
BRANCH   9  17
HETATM   17  C5  UNL     1     -29.877 -21.285 -54.997  1.00  0.00     0.354 C 
HETATM   18  O1  UNL     1     -30.104 -20.731 -53.890  1.00  0.00    -0.283 OA
ENDBRANCH   9  17
BRANCH  16  19
HETATM   19  O3  UNL     1     -36.085 -25.183 -54.753  1.00  0.00    -0.268 OA
ATOM     20  H3  UNL     1     -35.779 -25.577 -55.561  1.00  0.00     0.246 HD
ENDBRANCH  16  19
BRANCH   1  21
HETATM   21  N1  UNL     1     -37.761 -23.393 -53.703  1.00  0.00    -0.232 N 
ATOM     22  H12 UNL     1     -38.498 -23.050 -54.320  1.00  0.00     0.174 HD
ATOM     23  H11 UNL     1     -38.033 -24.012 -52.939  1.00  0.00     0.174 HD
ENDBRANCH   1  21
TORSDOF 3
ENDMDL
MODEL 4
REMARK VINA RESULT: -5.602471534      3.097      5.415
REMARK  3 active torsions:
REMARK  status: ('A' for Active; 'I' for Inactive)
REMARK    1  A    between atoms: N1_1  and  C1_4 
REMARK    2  A    between atoms: N4_12  and  C5_14 
REMARK    3  A    between atoms: N6_21  and  O3_22 
ROOT
HETATM    1  C1  UNL     1     -32.131 -22.241 -54.556  1.00  0.00     0.704 A 
HETATM    2  N2  UNL     1     -31.825 -23.553 -54.542  1.00  0.00    -0.198 N 
ATOM      3  H2  UNL     1     -30.894 -23.835 -54.850  1.00  0.00     0.183 HD
HETATM    4  C2  UNL     1     -32.673 -24.499 -54.150  1.00  0.00     0.139 A 
HETATM    5  C3  UNL     1     -33.938 -24.147 -53.730  1.00  0.00     0.097 A 
HETATM    6  N3  UNL     1     -34.830 -25.087 -53.321  1.00  0.00    -0.334 N 
ATOM      7  H3  UNL     1     -34.559 -26.071 -53.325  1.00  0.00     0.168 HD
HETATM    8  C4  UNL     1     -36.063 -24.741 -52.912  1.00  0.00     0.177 A 
HETATM    9  N4  UNL     1     -36.941 -25.584 -52.519  1.00  0.00    -0.316 N 
ATOM     10  H4  UNL     1     -37.846 -25.211 -52.230  1.00  0.00     0.170 HD
HETATM   11  C6  UNL     1     -36.375 -23.397 -52.927  1.00  0.00     0.291 A 
HETATM   12  O2  UNL     1     -37.523 -23.057 -52.548  1.00  0.00    -0.264 OA
HETATM   13  N5  UNL     1     -35.497 -22.455 -53.330  1.00  0.00    -0.302 N 
ATOM     14  H5  UNL     1     -35.769 -21.472 -53.324  1.00  0.00     0.171 HD
HETATM   15  C7  UNL     1     -34.263 -22.807 -53.739  1.00  0.00     0.182 A 
HETATM   16  N6  UNL     1     -33.362 -21.882 -54.148  1.00  0.00    -0.033 N 
ENDROOT
BRANCH   9  17
HETATM   17  C5  UNL     1     -36.775 -26.969 -52.448  1.00  0.00     0.354 C 
HETATM   18  O1  UNL     1     -37.426 -27.608 -51.581  1.00  0.00    -0.283 OA
ENDBRANCH   9  17
BRANCH  16  19
HETATM   19  O3  UNL     1     -33.694 -20.537 -54.156  1.00  0.00    -0.268 OA
ATOM     20  H3  UNL     1     -34.480 -20.268 -54.616  1.00  0.00     0.246 HD
ENDBRANCH  16  19
BRANCH   1  21
HETATM   21  N1  UNL     1     -31.274 -21.334 -54.948  1.00  0.00    -0.232 N 
ATOM     22  H12 UNL     1     -30.332 -21.604 -55.234  1.00  0.00     0.174 HD
ATOM     23  H11 UNL     1     -31.514 -20.343 -54.982  1.00  0.00     0.174 HD
ENDBRANCH   1  21
TORSDOF 3
ENDMDL
MODEL 5
REMARK VINA RESULT: -5.567938349      2.851      5.099
REMARK  3 active torsions:
REMARK  status: ('A' for Active; 'I' for Inactive)
REMARK    1  A    between atoms: N1_1  and  C1_4 
REMARK    2  A    between atoms: N4_12  and  C5_14 
REMARK    3  A    between atoms: N6_21  and  O3_22 
ROOT
HETATM    1  C1  UNL     1     -31.860 -22.518 -54.232  1.00  0.00     0.704 A 
HETATM    2  N2  UNL     1     -31.833 -23.539 -55.109  1.00  0.00    -0.198 N 
ATOM      3  H2  UNL     1     -31.000 -23.660 -55.685  1.00  0.00     0.183 HD
HETATM    4  C2  UNL     1     -32.836 -24.399 -55.263  1.00  0.00     0.139 A 
HETATM    5  C3  UNL     1     -33.974 -24.261 -54.499  1.00  0.00     0.097 A 
HETATM    6  N3  UNL     1     -35.018 -25.121 -54.629  1.00  0.00    -0.334 N 
ATOM      7  H3  UNL     1     -34.958 -25.883 -55.305  1.00  0.00     0.168 HD
HETATM    8  C4  UNL     1     -36.127 -24.984 -53.882  1.00  0.00     0.177 A 
HETATM    9  N4  UNL     1     -37.138 -25.763 -53.965  1.00  0.00    -0.316 N 
ATOM     10  H4  UNL     1     -37.928 -25.566 -53.350  1.00  0.00     0.170 HD
HETATM   11  C6  UNL     1     -36.153 -23.936 -52.984  1.00  0.00     0.291 A 
HETATM   12  O2  UNL     1     -37.183 -23.794 -52.279  1.00  0.00    -0.264 OA
HETATM   13  N5  UNL     1     -35.122 -23.077 -52.846  1.00  0.00    -0.302 N 
ATOM     14  H5  UNL     1     -35.183 -22.316 -52.169  1.00  0.00     0.171 HD
HETATM   15  C7  UNL     1     -34.014 -23.218 -53.596  1.00  0.00     0.182 A 
HETATM   16  N6  UNL     1     -32.964 -22.370 -53.477  1.00  0.00    -0.033 N 
ENDROOT
BRANCH   9  17
HETATM   17  C5  UNL     1     -37.260 -26.861 -54.821  1.00  0.00     0.354 C 
HETATM   18  O1  UNL     1     -36.465 -27.825 -54.675  1.00  0.00    -0.283 OA
ENDBRANCH   9  17
BRANCH  16  19
HETATM   19  O3  UNL     1     -33.009 -21.324 -52.570  1.00  0.00    -0.268 OA
ATOM     20  H3  UNL     1     -33.233 -21.517 -51.667  1.00  0.00     0.246 HD
ENDBRANCH  16  19
BRANCH   1  21
HETATM   21  N1  UNL     1     -30.856 -21.688 -54.103  1.00  0.00    -0.232 N 
ATOM     22  H12 UNL     1     -29.989 -21.993 -53.660  1.00  0.00     0.174 HD
ATOM     23  H11 UNL     1     -30.905 -20.726 -54.437  1.00  0.00     0.174 HD
ENDBRANCH   1  21
TORSDOF 3
ENDMDL
