MODEL 1
REMARK VINA RESULT: -7.383737292      0.000      0.000
REMARK  6 active torsions:
REMARK  status: ('A' for Active; 'I' for Inactive)
REMARK    1  A    between atoms: C3_3  and  S1_4 
REMARK    2  A    between atoms: S1_4  and  C4_5 
REMARK    3  A    between atoms: N3_12  and  C7_13 
REMARK    4  A    between atoms: C10_19  and  C11_20 
REMARK    5  A    between atoms: C15_28  and  N7_29 
REMARK    6  A    between atoms: N7_29  and  N8_30 
ROOT
HETATM    1  C1  UNL     1      24.934  39.215  60.010  1.00  0.00     0.013 C 
HETATM    2  C2  UNL     1      25.780  38.356  60.016  1.00  0.00    -0.107 C 
HETATM    3  C3  UNL     1      26.810  37.320  60.035  1.00  0.00     0.175 C 
ENDROOT
BRANCH   3   4
HETATM    4  S1  UNL     1      27.739  37.327  58.461  1.00  0.00    -0.082 SA
BRANCH   4   5
HETATM    5  C4  UNL     1      26.626  37.024  57.088  1.00  0.00     0.149 A 
HETATM    6  N1  UNL     1      26.115  38.023  56.374  1.00  0.00    -0.321 N 
HETATM    7  C5  UNL     1      25.280  37.800  55.342  1.00  0.00     0.141 A 
ATOM      8  H1  UNL     1      26.362  38.984  56.614  1.00  0.00     0.169 HD
HETATM    9  N2  UNL     1      24.658  38.604  54.497  1.00  0.00    -0.336 N 
HETATM   10  C14 UNL     1      24.919  36.492  54.988  1.00  0.00     0.145 A 
HETATM   11  C6  UNL     1      23.956  37.890  53.667  1.00  0.00     0.190 A 
ATOM     12  H2  UNL     1      24.719  39.622  54.495  1.00  0.00     0.168 HD
HETATM   13  N3  UNL     1      24.088  36.526  53.939  1.00  0.00    -0.305 N 
HETATM   14  C15 UNL     1      25.436  35.434  55.714  1.00  0.00     0.236 A 
HETATM   15  N9  UNL     1      26.301  35.798  56.772  1.00  0.00    -0.308 N 
ATOM     16  H9  UNL     1      26.702  35.046  57.332  1.00  0.00     0.170 HD
BRANCH  13  17
HETATM   17  C7  UNL     1      23.432  35.641  53.166  1.00  0.00     0.035 C 
HETATM   18  C8  UNL     1      23.235  34.284  52.927  1.00  0.00     0.083 C 
HETATM   19  C9  UNL     1      22.249  34.242  51.757  1.00  0.00     0.239 C 
HETATM   20  N4  UNL     1      21.402  35.353  51.992  1.00  0.00    -0.059 N 
HETATM   21  C10 UNL     1      21.913  36.034  53.170  1.00  0.00     0.298 C 
ATOM     22  H42 UNL     1      21.312  35.967  51.183  1.00  0.00     0.278 HD
ATOM     23  H41 UNL     1      20.418  35.097  52.072  1.00  0.00     0.278 HD
BRANCH  21  24
HETATM   24  C11 UNL     1      21.180  35.503  54.311  1.00  0.00     0.118 A 
HETATM   25  N5  UNL     1      19.806  35.385  54.232  1.00  0.00    -0.352 N 
HETATM   26  C12 UNL     1      19.373  34.884  55.377  1.00  0.00     0.106 A 
ATOM     27  H5  UNL     1      19.228  35.640  53.432  1.00  0.00     0.166 HD
HETATM   28  C13 UNL     1      20.433  34.673  56.200  1.00  0.00     0.106 A 
HETATM   29  N6  UNL     1      21.537  35.063  55.518  1.00  0.00    -0.352 N 
ATOM     30  H6  UNL     1      22.493  35.026  55.872  1.00  0.00     0.166 HD
ENDBRANCH  21  24
ENDBRANCH  13  17
BRANCH  14  31
HETATM   31  N7  UNL     1      25.242  34.285  55.557  1.00  0.00    -0.312 NA
BRANCH  31  32
HETATM   32  N8  UNL     1      25.030  33.027  55.385  1.00  0.00    -0.278 N 
ATOM     33  H82 UNL     1      25.161  34.030  55.519  1.00  0.00     0.191 HD
ATOM     34  H81 UNL     1      24.862  32.030  55.249  1.00  0.00     0.191 HD
ENDBRANCH  31  32
ENDBRANCH  14  31
ENDBRANCH   4   5
ENDBRANCH   3   4
TORSDOF 6
ENDMDL
MODEL 2
REMARK VINA RESULT: -6.840570113      1.396      2.654
REMARK  6 active torsions:
REMARK  status: ('A' for Active; 'I' for Inactive)
REMARK    1  A    between atoms: C3_3  and  S1_4 
REMARK    2  A    between atoms: S1_4  and  C4_5 
REMARK    3  A    between atoms: N3_12  and  C7_13 
REMARK    4  A    between atoms: C10_19  and  C11_20 
REMARK    5  A    between atoms: C15_28  and  N7_29 
REMARK    6  A    between atoms: N7_29  and  N8_30 
ROOT
HETATM    1  C1  UNL     1      25.046  36.602  59.632  1.00  0.00     0.013 C 
HETATM    2  C2  UNL     1      26.154  36.943  59.303  1.00  0.00    -0.107 C 
HETATM    3  C3  UNL     1      27.494  37.370  58.905  1.00  0.00     0.175 C 
ENDROOT
BRANCH   3   4
HETATM    4  S1  UNL     1      27.989  36.530  57.360  1.00  0.00    -0.082 SA
BRANCH   4   5
HETATM    5  C4  UNL     1      26.536  36.101  56.399  1.00  0.00     0.149 A 
HETATM    6  N1  UNL     1      26.178  34.835  56.207  1.00  0.00    -0.321 N 
HETATM    7  C5  UNL     1      25.089  34.510  55.487  1.00  0.00     0.141 A 
ATOM      8  H1  UNL     1      26.743  34.091  56.617  1.00  0.00     0.169 HD
HETATM    9  N2  UNL     1      24.535  33.354  55.164  1.00  0.00    -0.336 N 
HETATM   10  C14 UNL     1      24.292  35.509  54.909  1.00  0.00     0.145 A 
HETATM   11  C6  UNL     1      23.475  33.575  54.443  1.00  0.00     0.190 A 
ATOM     12  H2  UNL     1      24.882  32.435  55.437  1.00  0.00     0.168 HD
HETATM   13  N3  UNL     1      23.274  34.944  54.249  1.00  0.00    -0.305 N 
HETATM   14  C15 UNL     1      24.642  36.835  55.093  1.00  0.00     0.236 A 
HETATM   15  N9  UNL     1      25.806  37.046  55.868  1.00  0.00    -0.308 N 
ATOM     16  H9  UNL     1      26.097  38.011  56.025  1.00  0.00     0.170 HD
BRANCH  13  17
HETATM   17  C7  UNL     1      22.212  35.351  53.529  1.00  0.00     0.035 C 
HETATM   18  C8  UNL     1      21.185  34.920  52.695  1.00  0.00     0.083 C 
HETATM   19  C9  UNL     1      20.427  36.200  52.331  1.00  0.00     0.239 C 
HETATM   20  N4  UNL     1      20.503  36.981  53.510  1.00  0.00    -0.059 N 
HETATM   21  C10 UNL     1      21.314  36.238  54.460  1.00  0.00     0.298 C 
ATOM     22  H42 UNL     1      20.846  37.927  53.343  1.00  0.00     0.278 HD
ATOM     23  H41 UNL     1      19.587  37.238  53.880  1.00  0.00     0.278 HD
BRANCH  21  24
HETATM   24  C11 UNL     1      20.394  35.467  55.284  1.00  0.00     0.118 A 
HETATM   25  N5  UNL     1      19.116  35.946  55.494  1.00  0.00    -0.352 N 
HETATM   26  C12 UNL     1      18.477  35.080  56.263  1.00  0.00     0.106 A 
ATOM     27  H5  UNL     1      18.732  36.814  55.121  1.00  0.00     0.166 HD
HETATM   28  C13 UNL     1      19.309  34.048  56.559  1.00  0.00     0.106 A 
HETATM   29  N6  UNL     1      20.487  34.311  55.942  1.00  0.00    -0.352 N 
ATOM     30  H6  UNL     1      21.315  33.717  55.975  1.00  0.00     0.166 HD
ENDBRANCH  21  24
ENDBRANCH  13  17
BRANCH  14  31
HETATM   31  N7  UNL     1      24.094  37.792  54.684  1.00  0.00    -0.312 NA
BRANCH  31  32
HETATM   32  N8  UNL     1      23.492  38.838  54.238  1.00  0.00    -0.278 N 
ATOM     33  H82 UNL     1      23.960  38.020  54.627  1.00  0.00     0.191 HD
ATOM     34  H81 UNL     1      23.016  39.668  53.883  1.00  0.00     0.191 HD
ENDBRANCH  31  32
ENDBRANCH  14  31
ENDBRANCH   4   5
ENDBRANCH   3   4
TORSDOF 6
ENDMDL
MODEL 3
REMARK VINA RESULT: -6.780945176      3.788      6.064
REMARK  6 active torsions:
REMARK  status: ('A' for Active; 'I' for Inactive)
REMARK    1  A    between atoms: C3_3  and  S1_4 
REMARK    2  A    between atoms: S1_4  and  C4_5 
REMARK    3  A    between atoms: N3_12  and  C7_13 
REMARK    4  A    between atoms: C10_19  and  C11_20 
REMARK    5  A    between atoms: C15_28  and  N7_29 
REMARK    6  A    between atoms: N7_29  and  N8_30 
ROOT
HETATM    1  C1  UNL     1      18.123  34.320  57.017  1.00  0.00     0.013 C 
HETATM    2  C2  UNL     1      19.168  34.813  56.675  1.00  0.00    -0.107 C 
HETATM    3  C3  UNL     1      20.432  35.422  56.266  1.00  0.00     0.175 C 
ENDROOT
BRANCH   3   4
HETATM    4  S1  UNL     1      20.662  35.243  54.462  1.00  0.00    -0.082 SA
BRANCH   4   5
HETATM    5  C4  UNL     1      22.396  34.983  54.084  1.00  0.00     0.149 A 
HETATM    6  N1  UNL     1      23.067  35.812  53.290  1.00  0.00    -0.321 N 
HETATM    7  C5  UNL     1      24.368  35.619  53.005  1.00  0.00     0.141 A 
ATOM      8  H1  UNL     1      22.583  36.615  52.887  1.00  0.00     0.169 HD
HETATM    9  N2  UNL     1      25.236  36.287  52.265  1.00  0.00    -0.336 N 
HETATM   10  C14 UNL     1      25.061  34.525  53.542  1.00  0.00     0.145 A 
HETATM   11  C6  UNL     1      26.389  35.687  52.312  1.00  0.00     0.190 A 
ATOM     12  H2  UNL     1      25.034  37.138  51.740  1.00  0.00     0.168 HD
HETATM   13  N3  UNL     1      26.331  34.548  53.119  1.00  0.00    -0.305 N 
HETATM   14  C15 UNL     1      24.386  33.646  54.371  1.00  0.00     0.236 A 
HETATM   15  N9  UNL     1      23.025  33.957  54.594  1.00  0.00    -0.308 N 
ATOM     16  H9  UNL     1      22.493  33.332  55.200  1.00  0.00     0.170 HD
BRANCH  13  17
HETATM   17  C7  UNL     1      27.444  33.810  53.285  1.00  0.00     0.035 C 
HETATM   18  C8  UNL     1      28.132  32.997  54.181  1.00  0.00     0.083 C 
HETATM   19  C9  UNL     1      29.402  32.592  53.429  1.00  0.00     0.239 C 
HETATM   20  N4  UNL     1      28.971  32.465  52.086  1.00  0.00    -0.059 N 
HETATM   21  C10 UNL     1      27.570  32.848  52.053  1.00  0.00     0.298 C 
ATOM     22  H42 UNL     1      29.546  32.992  51.429  1.00  0.00     0.278 HD
ATOM     23  H41 UNL     1      29.143  31.538  51.696  1.00  0.00     0.278 HD
BRANCH  21  24
HETATM   24  C11 UNL     1      26.797  31.621  52.193  1.00  0.00     0.118 A 
HETATM   25  N5  UNL     1      25.472  31.613  51.807  1.00  0.00    -0.352 N 
HETATM   26  C12 UNL     1      24.990  30.401  52.027  1.00  0.00     0.106 A 
ATOM     27  H5  UNL     1      24.956  32.402  51.420  1.00  0.00     0.166 HD
HETATM   28  C13 UNL     1      25.971  29.619  52.548  1.00  0.00     0.106 A 
HETATM   29  N6  UNL     1      27.078  30.397  52.641  1.00  0.00    -0.352 N 
ATOM     30  H6  UNL     1      27.984  30.093  52.997  1.00  0.00     0.166 HD
ENDBRANCH  21  24
ENDBRANCH  13  17
BRANCH  14  31
HETATM   31  N7  UNL     1      24.807  32.685  54.903  1.00  0.00    -0.312 NA
BRANCH  31  32
HETATM   32  N8  UNL     1      25.268  31.633  55.484  1.00  0.00    -0.278 N 
ATOM     33  H82 UNL     1      24.932  32.466  55.000  1.00  0.00     0.191 HD
ATOM     34  H81 UNL     1      25.632  30.800  55.946  1.00  0.00     0.191 HD
ENDBRANCH  31  32
ENDBRANCH  14  31
ENDBRANCH   4   5
ENDBRANCH   3   4
TORSDOF 6
ENDMDL
MODEL 4
REMARK VINA RESULT: -6.733466989      1.348      2.216
REMARK  6 active torsions:
REMARK  status: ('A' for Active; 'I' for Inactive)
REMARK    1  A    between atoms: C3_3  and  S1_4 
REMARK    2  A    between atoms: S1_4  and  C4_5 
REMARK    3  A    between atoms: N3_12  and  C7_13 
REMARK    4  A    between atoms: C10_19  and  C11_20 
REMARK    5  A    between atoms: C15_28  and  N7_29 
REMARK    6  A    between atoms: N7_29  and  N8_30 
ROOT
HETATM    1  C1  UNL     1      30.164  34.438  56.648  1.00  0.00     0.013 C 
HETATM    2  C2  UNL     1      29.925  35.545  57.061  1.00  0.00    -0.107 C 
HETATM    3  C3  UNL     1      29.647  36.886  57.569  1.00  0.00     0.175 C 
ENDROOT
BRANCH   3   4
HETATM    4  S1  UNL     1      27.950  36.965  58.243  1.00  0.00    -0.082 SA
BRANCH   4   5
HETATM    5  C4  UNL     1      26.753  36.739  56.927  1.00  0.00     0.149 A 
HETATM    6  N1  UNL     1      26.221  37.776  56.285  1.00  0.00    -0.321 N 
HETATM    7  C5  UNL     1      25.323  37.609  55.297  1.00  0.00     0.141 A 
ATOM      8  H1  UNL     1      26.501  38.720  56.548  1.00  0.00     0.169 HD
HETATM    9  N2  UNL     1      24.668  38.458  54.523  1.00  0.00    -0.336 N 
HETATM   10  C14 UNL     1      24.915  36.324  54.912  1.00  0.00     0.145 A 
HETATM   11  C6  UNL     1      23.904  37.792  53.708  1.00  0.00     0.190 A 
ATOM     12  H2  UNL     1      24.749  39.474  54.558  1.00  0.00     0.168 HD
HETATM   13  N3  UNL     1      24.024  36.415  53.917  1.00  0.00    -0.305 N 
HETATM   14  C15 UNL     1      25.453  35.228  55.564  1.00  0.00     0.236 A 
HETATM   15  N9  UNL     1      26.386  35.533  56.582  1.00  0.00    -0.308 N 
ATOM     16  H9  UNL     1      26.804  34.751  57.086  1.00  0.00     0.170 HD
BRANCH  13  17
HETATM   17  C7  UNL     1      23.307  35.574  53.150  1.00  0.00     0.035 C 
HETATM   18  C8  UNL     1      23.015  34.234  52.918  1.00  0.00     0.083 C 
HETATM   19  C9  UNL     1      22.026  34.255  51.750  1.00  0.00     0.239 C 
HETATM   20  N4  UNL     1      21.260  35.424  51.981  1.00  0.00    -0.059 N 
HETATM   21  C10 UNL     1      21.819  36.073  53.155  1.00  0.00     0.298 C 
ATOM     22  H42 UNL     1      21.211  36.038  51.168  1.00  0.00     0.278 HD
ATOM     23  H41 UNL     1      20.260  35.237  52.064  1.00  0.00     0.278 HD
BRANCH  21  24
HETATM   24  C11 UNL     1      21.053  35.600  54.300  1.00  0.00     0.118 A 
HETATM   25  N5  UNL     1      21.416  36.009  55.567  1.00  0.00    -0.352 N 
HETATM   26  C12 UNL     1      20.580  35.456  56.430  1.00  0.00     0.106 A 
ATOM     27  H5  UNL     1      22.193  36.629  55.798  1.00  0.00     0.166 HD
HETATM   28  C13 UNL     1      19.680  34.695  55.753  1.00  0.00     0.106 A 
HETATM   29  N6  UNL     1      19.994  34.802  54.439  1.00  0.00    -0.352 N 
ATOM     30  H6  UNL     1      19.498  34.343  53.676  1.00  0.00     0.166 HD
ENDBRANCH  21  24
ENDBRANCH  13  17
BRANCH  14  31
HETATM   31  N7  UNL     1      25.227  34.089  55.373  1.00  0.00    -0.312 NA
BRANCH  31  32
HETATM   32  N8  UNL     1      24.981  32.844  55.163  1.00  0.00    -0.278 N 
ATOM     33  H82 UNL     1      25.175  33.837  55.292  1.00  0.00     0.191 HD
ATOM     34  H81 UNL     1      24.786  31.856  54.999  1.00  0.00     0.191 HD
ENDBRANCH  31  32
ENDBRANCH  14  31
ENDBRANCH   4   5
ENDBRANCH   3   4
TORSDOF 6
ENDMDL
MODEL 5
REMARK VINA RESULT: -6.700205659      2.443      6.616
REMARK  6 active torsions:
REMARK  status: ('A' for Active; 'I' for Inactive)
REMARK    1  A    between atoms: C3_3  and  S1_4 
REMARK    2  A    between atoms: S1_4  and  C4_5 
REMARK    3  A    between atoms: N3_12  and  C7_13 
REMARK    4  A    between atoms: C10_19  and  C11_20 
REMARK    5  A    between atoms: C15_28  and  N7_29 
REMARK    6  A    between atoms: N7_29  and  N8_30 
ROOT
HETATM    1  C1  UNL     1      18.248  34.318  57.009  1.00  0.00     0.013 C 
HETATM    2  C2  UNL     1      18.731  35.000  56.141  1.00  0.00    -0.107 C 
HETATM    3  C3  UNL     1      19.305  35.832  55.085  1.00  0.00     0.175 C 
ENDROOT
BRANCH   3   4
HETATM    4  S1  UNL     1      20.386  34.826  54.010  1.00  0.00    -0.082 SA
BRANCH   4   5
HETATM    5  C4  UNL     1      22.108  35.133  54.407  1.00  0.00     0.149 A 
HETATM    6  N1  UNL     1      22.951  34.137  54.662  1.00  0.00    -0.321 N 
HETATM    7  C5  UNL     1      24.243  34.364  54.961  1.00  0.00     0.141 A 
ATOM      8  H1  UNL     1      22.609  33.176  54.631  1.00  0.00     0.169 HD
HETATM    9  N2  UNL     1      25.257  33.563  55.243  1.00  0.00    -0.336 N 
HETATM   10  C14 UNL     1      24.744  35.673  55.014  1.00  0.00     0.145 A 
HETATM   11  C6  UNL     1      26.320  34.279  55.459  1.00  0.00     0.190 A 
ATOM     12  H2  UNL     1      25.212  32.545  55.284  1.00  0.00     0.168 HD
HETATM   13  N3  UNL     1      26.046  35.643  55.326  1.00  0.00    -0.305 N 
HETATM   14  C15 UNL     1      23.888  36.728  54.752  1.00  0.00     0.236 A 
HETATM   15  N9  UNL     1      22.556  36.360  54.451  1.00  0.00    -0.308 N 
ATOM     16  H9  UNL     1      21.894  37.111  54.254  1.00  0.00     0.170 HD
BRANCH  13  17
HETATM   17  C7  UNL     1      27.041  36.529  55.509  1.00  0.00     0.035 C 
HETATM   18  C8  UNL     1      27.347  37.886  55.543  1.00  0.00     0.083 C 
HETATM   19  C9  UNL     1      28.850  37.930  55.834  1.00  0.00     0.239 C 
HETATM   20  N4  UNL     1      29.055  36.833  56.704  1.00  0.00    -0.059 N 
HETATM   21  C10 UNL     1      27.777  36.156  56.843  1.00  0.00     0.298 C 
ATOM     22  H42 UNL     1      29.805  36.213  56.398  1.00  0.00     0.278 HD
ATOM     23  H41 UNL     1      29.465  37.102  57.599  1.00  0.00     0.278 HD
BRANCH  21  24
HETATM   24  C11 UNL     1      27.138  36.705  58.031  1.00  0.00     0.118 A 
HETATM   25  N5  UNL     1      27.927  37.147  59.075  1.00  0.00    -0.352 N 
HETATM   26  C12 UNL     1      27.127  37.598  60.027  1.00  0.00     0.106 A 
ATOM     27  H5  UNL     1      28.946  37.128  59.106  1.00  0.00     0.166 HD
HETATM   28  C13 UNL     1      25.836  37.461  59.628  1.00  0.00     0.106 A 
HETATM   29  N6  UNL     1      25.871  36.907  58.391  1.00  0.00    -0.352 N 
ATOM     30  H6  UNL     1      25.054  36.681  57.824  1.00  0.00     0.166 HD
ENDBRANCH  21  24
ENDBRANCH  13  17
BRANCH  14  31
HETATM   31  N7  UNL     1      24.136  37.878  54.752  1.00  0.00    -0.312 NA
BRANCH  31  32
HETATM   32  N8  UNL     1      24.407  39.136  54.753  1.00  0.00    -0.278 N 
ATOM     33  H82 UNL     1      24.156  38.148  54.747  1.00  0.00     0.191 HD
ATOM     34  H81 UNL     1      24.623  40.133  54.753  1.00  0.00     0.191 HD
ENDBRANCH  31  32
ENDBRANCH  14  31
ENDBRANCH   4   5
ENDBRANCH   3   4
TORSDOF 6
ENDMDL
