MODEL 1
REMARK VINA RESULT: -7.419230838      0.000      0.000
REMARK  5 active torsions:
REMARK  status: ('A' for Active; 'I' for Inactive)
REMARK    1  A    between atoms: C2_3  and  C3_4 
REMARK    2  A    between atoms: C3_4  and  N2_5 
REMARK    3  A    between atoms: N3_8  and  N4_9 
REMARK    4  A    between atoms: C6_10  and  C7_11 
REMARK    5  A    between atoms: C11_21  and  N8_22 
ROOT
HETATM    1  N1  UNL     1     -19.057  38.818  -5.128  1.00  0.00    -0.197 NA
HETATM    2  C1  UNL     1     -18.681  37.740  -5.226  1.00  0.00     0.060 C 
HETATM    3  C2  UNL     1     -18.178  36.371  -5.343  1.00  0.00     0.154 C 
ENDROOT
BRANCH   3   4
HETATM    4  C3  UNL     1     -16.786  36.373  -5.931  1.00  0.00     0.286 C 
BRANCH   4   5
HETATM    5  N2  UNL     1     -16.726  35.731  -7.203  1.00  0.00     0.092 N 
HETATM    6  C4  UNL     1     -16.495  36.690  -8.232  1.00  0.00     0.293 C 
HETATM    7  C5  UNL     1     -17.823  36.987  -8.920  1.00  0.00     0.173 C 
HETATM    8  N3  UNL     1     -18.400  35.796  -9.532  1.00  0.00    -0.314 N 
HETATM    9  C14 UNL     1     -18.002  34.550  -8.904  1.00  0.00     0.173 C 
HETATM   10  C15 UNL     1     -17.898  34.898  -7.405  1.00  0.00     0.293 C 
BRANCH   8  11
HETATM   11  N4  UNL     1     -19.284  35.884 -10.611  1.00  0.00    -0.219 N 
HETATM   12  C6  UNL     1     -19.017  36.032 -11.910  1.00  0.00     0.174 A 
HETATM   13  N7  UNL     1     -20.207  36.049 -12.602  1.00  0.00    -0.332 N 
HETATM   14  C10 UNL     1     -21.226  35.916 -11.757  1.00  0.00     0.125 A 
ATOM     15  H7  UNL     1     -20.295  36.149 -13.614  1.00  0.00     0.168 HD
HETATM   16  C11 UNL     1     -22.591  35.886 -11.930  1.00  0.00     0.145 A 
HETATM   17  C13 UNL     1     -20.649  35.814 -10.508  1.00  0.00     0.175 A 
HETATM   18  N9  UNL     1     -23.343  35.754 -10.830  1.00  0.00    -0.175 N 
HETATM   19  C12 UNL     1     -22.756  35.655  -9.594  1.00  0.00     0.679 A 
ATOM     20  H9  UNL     1     -24.359  35.727 -10.912  1.00  0.00     0.186 HD
HETATM   21  N10 UNL     1     -23.524  35.538  -8.574  1.00  0.00    -0.234 N 
HETATM   22  N11 UNL     1     -21.429  35.683  -9.423  1.00  0.00    -0.173 N 
ATOM     23 2H10 UNL     1     -24.536  35.516  -8.704  1.00  0.00     0.174 HD
ATOM     24 1H10 UNL     1     -23.088  35.464  -7.655  1.00  0.00     0.174 HD
ATOM     25  H11 UNL     1     -21.020  35.607  -8.492  1.00  0.00     0.186 HD
BRANCH  12  26
HETATM   26  C7  UNL     1     -17.700  36.154 -12.535  1.00  0.00     0.152 A 
HETATM   27  N5  UNL     1     -17.077  37.193 -13.066  1.00  0.00    -0.348 N 
HETATM   28  C8  UNL     1     -15.883  36.833 -13.554  1.00  0.00     0.107 A 
ATOM     29  H5  UNL     1     -17.454  38.141 -13.098  1.00  0.00     0.167 HD
HETATM   30  C9  UNL     1     -15.747  35.493 -13.316  1.00  0.00     0.107 A 
HETATM   31  N6  UNL     1     -16.862  35.092 -12.695  1.00  0.00    -0.348 N 
ATOM     32  H6  UNL     1     -17.054  34.137 -12.388  1.00  0.00     0.167 HD
ENDBRANCH  12  26
BRANCH  16  33
HETATM   33  N8  UNL     1     -23.147  35.964 -13.079  1.00  0.00    -0.383 N 
ATOM     34  H82 UNL     1     -24.061  35.538 -13.233  1.00  0.00     0.157 HD
ATOM     35  H81 UNL     1     -22.713  36.431 -13.875  1.00  0.00     0.157 HD
ENDBRANCH  16  33
ENDBRANCH   8  11
ENDBRANCH   4   5
ENDBRANCH   3   4
TORSDOF 5
ENDMDL
MODEL 2
REMARK VINA RESULT: -6.973620688      1.307      2.655
REMARK  5 active torsions:
REMARK  status: ('A' for Active; 'I' for Inactive)
REMARK    1  A    between atoms: C2_3  and  C3_4 
REMARK    2  A    between atoms: C3_4  and  N2_5 
REMARK    3  A    between atoms: N3_8  and  N4_9 
REMARK    4  A    between atoms: C6_10  and  C7_11 
REMARK    5  A    between atoms: C11_21  and  N8_22 
ROOT
HETATM    1  N1  UNL     1     -14.223  32.470  -8.474  1.00  0.00    -0.197 NA
HETATM    2  C1  UNL     1     -14.484  33.580  -8.354  1.00  0.00     0.060 C 
HETATM    3  C2  UNL     1     -14.817  34.994  -8.176  1.00  0.00     0.154 C 
ENDROOT
BRANCH   3   4
HETATM    4  C3  UNL     1     -15.753  35.167  -7.003  1.00  0.00     0.286 C 
BRANCH   4   5
HETATM    5  N2  UNL     1     -16.888  35.969  -7.319  1.00  0.00     0.092 N 
HETATM    6  C4  UNL     1     -18.072  35.174  -7.320  1.00  0.00     0.293 C 
HETATM    7  C5  UNL     1     -18.431  34.847  -8.765  1.00  0.00     0.173 C 
HETATM    8  N3  UNL     1     -18.692  36.049  -9.549  1.00  0.00    -0.314 N 
HETATM    9  C14 UNL     1     -18.012  37.236  -9.065  1.00  0.00     0.173 C 
HETATM   10  C15 UNL     1     -16.658  36.710  -8.545  1.00  0.00     0.293 C 
BRANCH   8  11
HETATM   11  N4  UNL     1     -19.509  36.019 -10.682  1.00  0.00    -0.219 N 
HETATM   12  C6  UNL     1     -19.163  35.983 -11.970  1.00  0.00     0.174 A 
HETATM   13  N7  UNL     1     -20.309  35.945 -12.731  1.00  0.00    -0.332 N 
HETATM   14  C10 UNL     1     -21.379  35.958 -11.940  1.00  0.00     0.125 A 
ATOM     15  H7  UNL     1     -20.335  35.911 -13.751  1.00  0.00     0.168 HD
HETATM   16  C11 UNL     1     -22.733  35.948 -12.192  1.00  0.00     0.145 A 
HETATM   17  C13 UNL     1     -20.879  36.006 -10.656  1.00  0.00     0.175 A 
HETATM   18  N9  UNL     1     -23.550  35.988 -11.133  1.00  0.00    -0.175 N 
HETATM   19  C12 UNL     1     -23.040  36.037  -9.861  1.00  0.00     0.679 A 
ATOM     20  H9  UNL     1     -24.561  35.982 -11.274  1.00  0.00     0.186 HD
HETATM   21  N10 UNL     1     -23.869  36.081  -8.884  1.00  0.00    -0.234 N 
HETATM   22  N11 UNL     1     -21.724  36.046  -9.613  1.00  0.00    -0.173 N 
ATOM     23 2H10 UNL     1     -24.871  36.074  -9.072  1.00  0.00     0.174 HD
ATOM     24 1H10 UNL     1     -23.489  36.118  -7.938  1.00  0.00     0.174 HD
ATOM     25  H11 UNL     1     -21.373  36.083  -8.657  1.00  0.00     0.186 HD
BRANCH  12  26
HETATM   26  C7  UNL     1     -17.808  35.980 -12.524  1.00  0.00     0.152 A 
HETATM   27  N5  UNL     1     -16.843  35.077 -12.470  1.00  0.00    -0.348 N 
HETATM   28  C8  UNL     1     -15.747  35.515 -13.102  1.00  0.00     0.107 A 
ATOM     29  H5  UNL     1     -16.923  34.170 -12.010  1.00  0.00     0.167 HD
HETATM   30  C9  UNL     1     -16.039  36.761 -13.583  1.00  0.00     0.107 A 
HETATM   31  N6  UNL     1     -17.299  37.033 -13.223  1.00  0.00    -0.348 N 
ATOM     32  H6  UNL     1     -17.800  37.896 -13.438  1.00  0.00     0.167 HD
ENDBRANCH  12  26
BRANCH  16  33
HETATM   33  N8  UNL     1     -23.219  35.889 -13.373  1.00  0.00    -0.383 N 
ATOM     34  H82 UNL     1     -22.705  36.292 -14.157  1.00  0.00     0.157 HD
ATOM     35  H81 UNL     1     -24.121  35.459 -13.581  1.00  0.00     0.157 HD
ENDBRANCH  16  33
ENDBRANCH   8  11
ENDBRANCH   4   5
ENDBRANCH   3   4
TORSDOF 5
ENDMDL
MODEL 3
REMARK VINA RESULT: -6.930919943      1.029      1.177
REMARK  5 active torsions:
REMARK  status: ('A' for Active; 'I' for Inactive)
REMARK    1  A    between atoms: C2_3  and  C3_4 
REMARK    2  A    between atoms: C3_4  and  N2_5 
REMARK    3  A    between atoms: N3_8  and  N4_9 
REMARK    4  A    between atoms: C6_10  and  C7_11 
REMARK    5  A    between atoms: C11_21  and  N8_22 
ROOT
HETATM    1  N1  UNL     1     -14.893  37.424  -3.624  1.00  0.00    -0.197 NA
HETATM    2  C1  UNL     1     -15.782  37.321  -4.340  1.00  0.00     0.060 C 
HETATM    3  C2  UNL     1     -16.924  37.168  -5.243  1.00  0.00     0.154 C 
ENDROOT
BRANCH   3   4
HETATM    4  C3  UNL     1     -17.150  35.708  -5.557  1.00  0.00     0.286 C 
BRANCH   4   5
HETATM    5  N2  UNL     1     -16.910  35.398  -6.928  1.00  0.00     0.092 N 
HETATM    6  C4  UNL     1     -16.851  36.593  -7.704  1.00  0.00     0.293 C 
HETATM    7  C5  UNL     1     -18.187  36.770  -8.418  1.00  0.00     0.173 C 
HETATM    8  N3  UNL     1     -18.476  35.660  -9.318  1.00  0.00    -0.314 N 
HETATM    9  C14 UNL     1     -17.844  34.408  -8.944  1.00  0.00     0.173 C 
HETATM   10  C15 UNL     1     -17.870  34.418  -7.402  1.00  0.00     0.293 C 
BRANCH   8  11
HETATM   11  N4  UNL     1     -19.319  35.815 -10.421  1.00  0.00    -0.219 N 
HETATM   12  C6  UNL     1     -19.005  36.032 -11.699  1.00  0.00     0.174 A 
HETATM   13  N7  UNL     1     -20.168  36.097 -12.432  1.00  0.00    -0.332 N 
HETATM   14  C10 UNL     1     -21.218  35.925 -11.633  1.00  0.00     0.125 A 
ATOM     15  H7  UNL     1     -20.218  36.254 -13.439  1.00  0.00     0.168 HD
HETATM   16  C11 UNL     1     -22.576  35.916 -11.856  1.00  0.00     0.145 A 
HETATM   17  C13 UNL     1     -20.688  35.750 -10.372  1.00  0.00     0.175 A 
HETATM   18  N9  UNL     1     -23.368  35.730 -10.793  1.00  0.00    -0.175 N 
HETATM   19  C12 UNL     1     -22.828  35.557  -9.544  1.00  0.00     0.679 A 
ATOM     20  H9  UNL     1     -24.381  35.715 -10.913  1.00  0.00     0.186 HD
HETATM   21  N10 UNL     1     -23.633  35.389  -8.561  1.00  0.00    -0.234 N 
HETATM   22  N11 UNL     1     -21.507  35.565  -9.325  1.00  0.00    -0.173 N 
ATOM     23 2H10 UNL     1     -24.639  35.383  -8.728  1.00  0.00     0.174 HD
ATOM     24 1H10 UNL     1     -23.231  35.262  -7.633  1.00  0.00     0.174 HD
ATOM     25  H11 UNL     1     -21.133  35.434  -8.385  1.00  0.00     0.186 HD
BRANCH  12  26
HETATM   26  C7  UNL     1     -17.665  36.179 -12.270  1.00  0.00     0.152 A 
HETATM   27  N5  UNL     1     -16.997  37.248 -12.671  1.00  0.00    -0.348 N 
HETATM   28  C8  UNL     1     -15.798  36.904 -13.158  1.00  0.00     0.107 A 
ATOM     29  H5  UNL     1     -17.348  38.205 -12.616  1.00  0.00     0.167 HD
HETATM   30  C9  UNL     1     -15.705  35.543 -13.056  1.00  0.00     0.107 A 
HETATM   31  N6  UNL     1     -16.850  35.114 -12.513  1.00  0.00    -0.348 N 
ATOM     32  H6  UNL     1     -17.078  34.139 -12.312  1.00  0.00     0.167 HD
ENDBRANCH  12  26
BRANCH  16  33
HETATM   33  N8  UNL     1     -23.090  36.062 -13.018  1.00  0.00    -0.383 N 
ATOM     34  H82 UNL     1     -22.487  36.123 -13.838  1.00  0.00     0.157 HD
ATOM     35  H81 UNL     1     -24.096  36.134 -13.175  1.00  0.00     0.157 HD
ENDBRANCH  16  33
ENDBRANCH   8  11
ENDBRANCH   4   5
ENDBRANCH   3   4
TORSDOF 5
ENDMDL
MODEL 4
REMARK VINA RESULT: -6.892255273      2.933      7.307
REMARK  5 active torsions:
REMARK  status: ('A' for Active; 'I' for Inactive)
REMARK    1  A    between atoms: C2_3  and  C3_4 
REMARK    2  A    between atoms: C3_4  and  N2_5 
REMARK    3  A    between atoms: N3_8  and  N4_9 
REMARK    4  A    between atoms: C6_10  and  C7_11 
REMARK    5  A    between atoms: C11_21  and  N8_22 
ROOT
HETATM    1  N1  UNL     1     -15.704  34.755 -15.156  1.00  0.00    -0.197 NA
HETATM    2  C1  UNL     1     -16.456  35.134 -14.377  1.00  0.00     0.060 C 
HETATM    3  C2  UNL     1     -17.405  35.640 -13.385  1.00  0.00     0.154 C 
ENDROOT
BRANCH   3   4
HETATM    4  C3  UNL     1     -16.708  36.573 -12.423  1.00  0.00     0.286 C 
BRANCH   4   5
HETATM    5  N2  UNL     1     -17.389  36.685 -11.175  1.00  0.00     0.092 N 
HETATM    6  C4  UNL     1     -16.462  36.969 -10.129  1.00  0.00     0.293 C 
HETATM    7  C5  UNL     1     -16.177  35.676  -9.374  1.00  0.00     0.173 C 
HETATM    8  N3  UNL     1     -17.382  35.117  -8.772  1.00  0.00    -0.314 N 
HETATM    9  C14 UNL     1     -18.612  35.478  -9.454  1.00  0.00     0.173 C 
HETATM   10  C15 UNL     1     -18.219  35.517 -10.945  1.00  0.00     0.293 C 
BRANCH   8  11
HETATM   11  N4  UNL     1     -17.321  34.283  -7.653  1.00  0.00    -0.219 N 
HETATM   12  C6  UNL     1     -17.497  34.586  -6.365  1.00  0.00     0.174 A 
HETATM   13  N7  UNL     1     -17.360  33.435  -5.622  1.00  0.00    -0.332 N 
HETATM   14  C10 UNL     1     -17.096  32.406  -6.424  1.00  0.00     0.125 A 
ATOM     15  H7  UNL     1     -17.447  33.379  -4.607  1.00  0.00     0.168 HD
HETATM   16  C11 UNL     1     -16.862  31.070  -6.189  1.00  0.00     0.145 A 
HETATM   17  C13 UNL     1     -17.070  32.936  -7.697  1.00  0.00     0.175 A 
HETATM   18  N9  UNL     1     -16.605  30.300  -7.254  1.00  0.00    -0.175 N 
HETATM   19  C12 UNL     1     -16.581  30.840  -8.515  1.00  0.00     0.679 A 
ATOM     20  H9  UNL     1     -16.426  29.304  -7.126  1.00  0.00     0.186 HD
HETATM   21  N10 UNL     1     -16.323  30.058  -9.497  1.00  0.00    -0.234 N 
HETATM   22  N11 UNL     1     -16.809  32.139  -8.745  1.00  0.00    -0.173 N 
ATOM     23 2H10 UNL     1     -16.149  29.069  -9.321  1.00  0.00     0.174 HD
ATOM     24 1H10 UNL     1     -16.305  30.460 -10.434  1.00  0.00     0.174 HD
ATOM     25  H11 UNL     1     -16.785  32.514  -9.693  1.00  0.00     0.186 HD
BRANCH  12  26
HETATM   26  C7  UNL     1     -17.791  35.901  -5.796  1.00  0.00     0.152 A 
HETATM   27  N5  UNL     1     -17.066  36.710  -5.041  1.00  0.00    -0.348 N 
HETATM   28  C8  UNL     1     -17.757  37.813  -4.726  1.00  0.00     0.107 A 
ATOM     29  H5  UNL     1     -16.110  36.520  -4.740  1.00  0.00     0.167 HD
HETATM   30  C9  UNL     1     -18.984  37.693  -5.318  1.00  0.00     0.107 A 
HETATM   31  N6  UNL     1     -18.992  36.522  -5.966  1.00  0.00    -0.348 N 
ATOM     32  H6  UNL     1     -19.776  36.152  -6.505  1.00  0.00     0.167 HD
ENDBRANCH  12  26
BRANCH  16  33
HETATM   33  N8  UNL     1     -16.896  30.553  -5.020  1.00  0.00    -0.383 N 
ATOM     34  H82 UNL     1     -16.093  30.648  -4.398  1.00  0.00     0.157 HD
ATOM     35  H81 UNL     1     -17.697  30.029  -4.668  1.00  0.00     0.157 HD
ENDBRANCH  16  33
ENDBRANCH   8  11
ENDBRANCH   4   5
ENDBRANCH   3   4
TORSDOF 5
ENDMDL
MODEL 5
REMARK VINA RESULT: -6.844694360      1.729      5.621
REMARK  5 active torsions:
REMARK  status: ('A' for Active; 'I' for Inactive)
REMARK    1  A    between atoms: C2_3  and  C3_4 
REMARK    2  A    between atoms: C3_4  and  N2_5 
REMARK    3  A    between atoms: N3_8  and  N4_9 
REMARK    4  A    between atoms: C6_10  and  C7_11 
REMARK    5  A    between atoms: C11_21  and  N8_22 
ROOT
HETATM    1  N1  UNL     1     -26.222  38.461 -11.154  1.00  0.00    -0.197 NA
HETATM    2  C1  UNL     1     -25.391  37.772 -10.771  1.00  0.00     0.060 C 
HETATM    3  C2  UNL     1     -24.316  36.896 -10.302  1.00  0.00     0.154 C 
ENDROOT
BRANCH   3   4
HETATM    4  C3  UNL     1     -23.795  36.053 -11.442  1.00  0.00     0.286 C 
BRANCH   4   5
HETATM    5  N2  UNL     1     -22.544  36.519 -11.943  1.00  0.00     0.092 N 
HETATM    6  C4  UNL     1     -21.730  35.419 -12.345  1.00  0.00     0.293 C 
HETATM    7  C5  UNL     1     -20.708  35.150 -11.247  1.00  0.00     0.173 C 
HETATM    8  N3  UNL     1     -19.837  36.297 -11.018  1.00  0.00    -0.314 N 
HETATM    9  C14 UNL     1     -20.430  37.575 -11.365  1.00  0.00     0.173 C 
HETATM   10  C15 UNL     1     -21.918  37.415 -10.989  1.00  0.00     0.293 C 
BRANCH   8  11
HETATM   11  N4  UNL     1     -18.556  36.147 -10.480  1.00  0.00    -0.219 N 
HETATM   12  C6  UNL     1     -17.397  35.942 -11.107  1.00  0.00     0.174 A 
HETATM   13  N7  UNL     1     -16.395  35.877 -10.165  1.00  0.00    -0.332 N 
HETATM   14  C10 UNL     1     -16.906  36.035  -8.947  1.00  0.00     0.125 A 
ATOM     15  H7  UNL     1     -15.406  35.728 -10.370  1.00  0.00     0.168 HD
HETATM   16  C11 UNL     1     -16.349  36.037  -7.688  1.00  0.00     0.145 A 
HETATM   17  C13 UNL     1     -18.261  36.203  -9.142  1.00  0.00     0.175 A 
HETATM   18  N9  UNL     1     -17.181  36.210  -6.653  1.00  0.00    -0.175 N 
HETATM   19  C12 UNL     1     -18.527  36.374  -6.862  1.00  0.00     0.679 A 
ATOM     20  H9  UNL     1     -16.811  36.219  -5.703  1.00  0.00     0.186 HD
HETATM   21  N10 UNL     1     -19.278  36.529  -5.834  1.00  0.00    -0.234 N 
HETATM   22  N11 UNL     1     -19.071  36.373  -8.085  1.00  0.00    -0.173 N 
ATOM     23 2H10 UNL     1     -18.863  36.530  -4.902  1.00  0.00     0.174 HD
ATOM     24 1H10 UNL     1     -20.278  36.651  -5.990  1.00  0.00     0.174 HD
ATOM     25  H11 UNL     1     -20.075  36.498  -8.210  1.00  0.00     0.186 HD
BRANCH  12  26
HETATM   26  C7  UNL     1     -17.180  35.809 -12.548  1.00  0.00     0.152 A 
HETATM   27  N5  UNL     1     -17.443  36.629 -13.552  1.00  0.00    -0.348 N 
HETATM   28  C8  UNL     1     -17.098  36.075 -14.721  1.00  0.00     0.107 A 
ATOM     29  H5  UNL     1     -17.852  37.558 -13.450  1.00  0.00     0.167 HD
HETATM   30  C9  UNL     1     -16.587  34.838 -14.437  1.00  0.00     0.107 A 
HETATM   31  N6  UNL     1     -16.643  34.688 -13.108  1.00  0.00    -0.348 N 
ATOM     32  H6  UNL     1     -16.333  33.863 -12.595  1.00  0.00     0.167 HD
ENDBRANCH  12  26
BRANCH  16  33
HETATM   33  N8  UNL     1     -15.095  35.898  -7.484  1.00  0.00    -0.383 N 
ATOM     34  H82 UNL     1     -14.740  35.047  -7.048  1.00  0.00     0.157 HD
ATOM     35  H81 UNL     1     -14.410  36.614  -7.729  1.00  0.00     0.157 HD
ENDBRANCH  16  33
ENDBRANCH   8  11
ENDBRANCH   4   5
ENDBRANCH   3   4
TORSDOF 5
ENDMDL
