MODEL 1
REMARK VINA RESULT: -7.181976342      0.000      0.000
REMARK  9 active torsions:
REMARK  status: ('A' for Active; 'I' for Inactive)
REMARK    1  A    between atoms: C2_2  and  N1_3 
REMARK    2  A    between atoms: N2_5  and  C4_6 
REMARK    3  A    between atoms: C4_6  and  C5_7 
REMARK    4  A    between atoms: C5_7  and  C6_8 
REMARK    5  A    between atoms: C11_17  and  O1_18 
REMARK    6  A    between atoms: C12_20  and  N5_21 
REMARK    7  A    between atoms: N5_21  and  O2_22 
REMARK    8  A    between atoms: N5_21  and  O3_24 
REMARK    9  A    between atoms: C13_26  and  N6_27 
ROOT
HETATM    1  C6  UNL     1     -17.343  34.060  -7.693  1.00  0.00     0.041 A 
HETATM    2  C7  UNL     1     -15.966  34.091  -7.672  1.00  0.00     0.082 A 
HETATM    3  S1  UNL     1     -15.588  32.456  -7.358  1.00  0.00    -0.071 SA
HETATM    4  C8  UNL     1     -17.175  31.836  -7.271  1.00  0.00     0.156 A 
HETATM    5  C9  UNL     1     -17.623  30.466  -7.022  1.00  0.00     0.125 C 
HETATM    6  N3  UNL     1     -17.957  29.381  -6.829  1.00  0.00    -0.189 NA
HETATM    7  N4  UNL     1     -17.910  32.912  -7.487  1.00  0.00    -0.342 N 
ATOM      8  H4  UNL     1     -18.927  32.839  -7.493  1.00  0.00     0.167 HD
ENDROOT
BRANCH   1   9
HETATM    9  C5  UNL     1     -18.116  35.303  -7.941  1.00  0.00     0.047 C 
BRANCH   9  10
HETATM   10  C4  UNL     1     -19.346  35.202  -8.475  1.00  0.00     0.100 C 
BRANCH  10  11
HETATM   11  N2  UNL     1     -19.591  35.503  -9.823  1.00  0.00    -0.312 N 
HETATM   12  C3  UNL     1     -18.650  35.604 -10.786  1.00  0.00     0.192 A 
HETATM   13  N1  UNL     1     -19.220  35.903 -11.957  1.00  0.00    -0.327 N 
HETATM   14  C14 UNL     1     -20.564  36.002 -11.764  1.00  0.00     0.140 A 
HETATM   15  C10 UNL     1     -20.757  35.742 -10.399  1.00  0.00     0.120 A 
HETATM   16  N7  UNL     1     -21.589  36.275 -12.587  1.00  0.00    -0.325 N 
HETATM   17  C11 UNL     1     -22.066  35.787  -9.967  1.00  0.00     0.126 A 
HETATM   18  C12 UNL     1     -23.098  36.074 -10.842  1.00  0.00     0.144 A 
HETATM   19  C13 UNL     1     -22.867  36.324 -12.179  1.00  0.00     0.129 A 
ATOM     20  H7  UNL     1     -21.387  36.454 -13.570  1.00  0.00     0.169 HD
BRANCH  13  21
HETATM   21  C2  UNL     1     -18.572  36.102 -13.256  1.00  0.00     0.127 C 
HETATM   22  C1  UNL     1     -17.226  35.398 -13.166  1.00  0.00     0.027 C 
ENDBRANCH  13  21
BRANCH  17  23
HETATM   23  O1  UNL     1     -22.339  35.546  -8.651  1.00  0.00    -0.356 OA
ATOM     24  H1  UNL     1     -23.213  35.718  -8.322  1.00  0.00     0.218 HD
ENDBRANCH  17  23
BRANCH  18  25
HETATM   25  N5  UNL     1     -24.449  36.119 -10.390  1.00  0.00    -0.030 NA
BRANCH  25  26
HETATM   26  O2  UNL     1     -24.735  34.941  -9.796  1.00  0.00    -0.284 OA
ATOM     27  H2  UNL     1     -25.225  35.120  -9.002  1.00  0.00     0.240 HD
ENDBRANCH  25  26
BRANCH  25  28
HETATM   28  O3  UNL     1     -24.554  37.148  -9.506  1.00  0.00    -0.284 OA
ATOM     29  H3  UNL     1     -25.389  37.575  -9.658  1.00  0.00     0.240 HD
ENDBRANCH  25  28
ENDBRANCH  18  25
BRANCH  19  30
HETATM   30  N6  UNL     1     -23.837  36.591 -12.994  1.00  0.00    -0.384 N 
ATOM     31  H62 UNL     1     -24.554  37.281 -12.773  1.00  0.00     0.157 HD
ATOM     32  H61 UNL     1     -23.921  36.118 -13.894  1.00  0.00     0.157 HD
ENDBRANCH  19  30
ENDBRANCH  10  11
ENDBRANCH   9  10
ENDBRANCH   1   9
TORSDOF 9
ENDMDL
MODEL 2
REMARK VINA RESULT: -7.175521354      2.316      3.423
REMARK  9 active torsions:
REMARK  status: ('A' for Active; 'I' for Inactive)
REMARK    1  A    between atoms: C2_2  and  N1_3 
REMARK    2  A    between atoms: N2_5  and  C4_6 
REMARK    3  A    between atoms: C4_6  and  C5_7 
REMARK    4  A    between atoms: C5_7  and  C6_8 
REMARK    5  A    between atoms: C11_17  and  O1_18 
REMARK    6  A    between atoms: C12_20  and  N5_21 
REMARK    7  A    between atoms: N5_21  and  O2_22 
REMARK    8  A    between atoms: N5_21  and  O3_24 
REMARK    9  A    between atoms: C13_26  and  N6_27 
ROOT
HETATM    1  C6  UNL     1     -17.855  35.980  -6.853  1.00  0.00     0.041 A 
HETATM    2  C7  UNL     1     -16.787  35.726  -6.021  1.00  0.00     0.082 A 
HETATM    3  S1  UNL     1     -16.918  36.999  -4.891  1.00  0.00    -0.071 SA
HETATM    4  C8  UNL     1     -18.299  37.770  -5.530  1.00  0.00     0.156 A 
HETATM    5  C9  UNL     1     -18.997  38.965  -5.055  1.00  0.00     0.125 C 
HETATM    6  N3  UNL     1     -19.536  39.903  -4.664  1.00  0.00    -0.189 NA
HETATM    7  N4  UNL     1     -18.587  37.013  -6.573  1.00  0.00    -0.342 N 
ATOM      8  H4  UNL     1     -19.388  37.242  -7.161  1.00  0.00     0.167 HD
ENDROOT
BRANCH   1   9
HETATM    9  C5  UNL     1     -18.129  35.092  -8.012  1.00  0.00     0.047 C 
BRANCH   9  10
HETATM   10  C4  UNL     1     -19.370  35.070  -8.527  1.00  0.00     0.100 C 
BRANCH  10  11
HETATM   11  N2  UNL     1     -19.620  35.413  -9.863  1.00  0.00    -0.312 N 
HETATM   12  C3  UNL     1     -18.685  35.527 -10.829  1.00  0.00     0.192 A 
HETATM   13  N1  UNL     1     -19.258  35.867 -11.988  1.00  0.00    -0.327 N 
HETATM   14  C14 UNL     1     -20.599  35.980 -11.782  1.00  0.00     0.140 A 
HETATM   15  C10 UNL     1     -20.787  35.685 -10.425  1.00  0.00     0.120 A 
HETATM   16  N7  UNL     1     -21.626  36.291 -12.590  1.00  0.00    -0.325 N 
HETATM   17  C11 UNL     1     -22.092  35.737  -9.981  1.00  0.00     0.126 A 
HETATM   18  C12 UNL     1     -23.126  36.063 -10.841  1.00  0.00     0.144 A 
HETATM   19  C13 UNL     1     -22.900  36.347 -12.172  1.00  0.00     0.129 A 
ATOM     20  H7  UNL     1     -21.427  36.495 -13.570  1.00  0.00     0.169 HD
BRANCH  13  21
HETATM   21  C2  UNL     1     -18.616  36.093 -13.285  1.00  0.00     0.127 C 
HETATM   22  C1  UNL     1     -17.236  35.460 -13.186  1.00  0.00     0.027 C 
ENDBRANCH  13  21
BRANCH  17  23
HETATM   23  O1  UNL     1     -22.360  35.463  -8.672  1.00  0.00    -0.356 OA
ATOM     24  H1  UNL     1     -22.858  34.684  -8.455  1.00  0.00     0.218 HD
ENDBRANCH  17  23
BRANCH  18  25
HETATM   25  N5  UNL     1     -24.472  36.116 -10.378  1.00  0.00    -0.030 NA
BRANCH  25  26
HETATM   26  O2  UNL     1     -24.768  34.929  -9.806  1.00  0.00    -0.284 OA
ATOM     27  H2  UNL     1     -24.981  35.085  -8.893  1.00  0.00     0.240 HD
ENDBRANCH  25  26
BRANCH  25  28
HETATM   28  O3  UNL     1     -24.559  37.127  -9.473  1.00  0.00    -0.284 OA
ATOM     29  H3  UNL     1     -24.124  37.886  -9.845  1.00  0.00     0.240 HD
ENDBRANCH  25  28
ENDBRANCH  18  25
BRANCH  19  30
HETATM   30  N6  UNL     1     -23.871  36.651 -12.972  1.00  0.00    -0.384 N 
ATOM     31  H62 UNL     1     -24.783  36.949 -12.627  1.00  0.00     0.157 HD
ATOM     32  H61 UNL     1     -23.760  36.605 -13.985  1.00  0.00     0.157 HD
ENDBRANCH  19  30
ENDBRANCH  10  11
ENDBRANCH   9  10
ENDBRANCH   1   9
TORSDOF 9
ENDMDL
MODEL 3
REMARK VINA RESULT: -6.897673355      3.468      6.975
REMARK  9 active torsions:
REMARK  status: ('A' for Active; 'I' for Inactive)
REMARK    1  A    between atoms: C2_2  and  N1_3 
REMARK    2  A    between atoms: N2_5  and  C4_6 
REMARK    3  A    between atoms: C4_6  and  C5_7 
REMARK    4  A    between atoms: C5_7  and  C6_8 
REMARK    5  A    between atoms: C11_17  and  O1_18 
REMARK    6  A    between atoms: C12_20  and  N5_21 
REMARK    7  A    between atoms: N5_21  and  O2_22 
REMARK    8  A    between atoms: N5_21  and  O3_24 
REMARK    9  A    between atoms: C13_26  and  N6_27 
ROOT
HETATM    1  C6  UNL     1     -19.975  36.486 -10.700  1.00  0.00     0.041 A 
HETATM    2  C7  UNL     1     -20.244  36.013 -11.965  1.00  0.00     0.082 A 
HETATM    3  S1  UNL     1     -21.722  35.193 -11.722  1.00  0.00    -0.071 SA
HETATM    4  C8  UNL     1     -21.911  35.492 -10.053  1.00  0.00     0.156 A 
HETATM    5  C9  UNL     1     -22.985  35.074  -9.153  1.00  0.00     0.125 C 
HETATM    6  N3  UNL     1     -23.841  34.741  -8.459  1.00  0.00    -0.189 NA
HETATM    7  N4  UNL     1     -20.834  36.203  -9.771  1.00  0.00    -0.342 N 
ATOM      8  H4  UNL     1     -20.678  36.532  -8.818  1.00  0.00     0.167 HD
ENDROOT
BRANCH   1   9
HETATM    9  C5  UNL     1     -18.748  37.281 -10.443  1.00  0.00     0.047 C 
BRANCH   9  10
HETATM   10  C4  UNL     1     -17.719  36.691  -9.810  1.00  0.00     0.100 C 
BRANCH  10  11
HETATM   11  N2  UNL     1     -17.746  36.445  -8.429  1.00  0.00    -0.312 N 
HETATM   12  C3  UNL     1     -17.845  37.388  -7.469  1.00  0.00     0.192 A 
HETATM   13  N1  UNL     1     -17.843  36.817  -6.260  1.00  0.00    -0.327 N 
HETATM   14  C14 UNL     1     -17.741  35.469  -6.427  1.00  0.00     0.140 A 
HETATM   15  C10 UNL     1     -17.682  35.276  -7.814  1.00  0.00     0.120 A 
HETATM   16  N7  UNL     1     -17.697  34.442  -5.564  1.00  0.00    -0.325 N 
HETATM   17  C11 UNL     1     -17.576  33.964  -8.226  1.00  0.00     0.126 A 
HETATM   18  C12 UNL     1     -17.531  32.929  -7.309  1.00  0.00     0.144 A 
HETATM   19  C13 UNL     1     -17.592  33.161  -5.950  1.00  0.00     0.129 A 
ATOM     20  H7  UNL     1     -17.746  34.645  -4.565  1.00  0.00     0.169 HD
BRANCH  13  21
HETATM   21  C2  UNL     1     -17.932  37.467  -4.950  1.00  0.00     0.127 C 
HETATM   22  C1  UNL     1     -18.952  38.585  -5.105  1.00  0.00     0.027 C 
ENDBRANCH  13  21
BRANCH  17  23
HETATM   23  O1  UNL     1     -17.513  33.690  -9.561  1.00  0.00    -0.356 OA
ATOM     24  H1  UNL     1     -18.230  33.958 -10.123  1.00  0.00     0.218 HD
ENDBRANCH  17  23
BRANCH  18  25
HETATM   25  N5  UNL     1     -17.421  31.575  -7.739  1.00  0.00    -0.030 NA
BRANCH  25  26
HETATM   26  O2  UNL     1     -16.236  31.092  -7.312  1.00  0.00    -0.284 OA
ATOM     27  H2  UNL     1     -16.391  30.579  -6.526  1.00  0.00     0.240 HD
ENDBRANCH  25  26
BRANCH  25  28
HETATM   28  O3  UNL     1     -18.456  30.882  -7.192  1.00  0.00    -0.284 OA
ATOM     29  H3  UNL     1     -19.015  30.588  -7.902  1.00  0.00     0.240 HD
ENDBRANCH  25  28
ENDBRANCH  18  25
BRANCH  19  30
HETATM   30  N6  UNL     1     -17.550  32.189  -5.096  1.00  0.00    -0.384 N 
ATOM     31  H62 UNL     1     -17.097  31.301  -5.310  1.00  0.00     0.157 HD
ATOM     32  H61 UNL     1     -17.972  32.274  -4.171  1.00  0.00     0.157 HD
ENDBRANCH  19  30
ENDBRANCH  10  11
ENDBRANCH   9  10
ENDBRANCH   1   9
TORSDOF 9
ENDMDL
MODEL 4
REMARK VINA RESULT: -6.878573797      1.554      2.168
REMARK  9 active torsions:
REMARK  status: ('A' for Active; 'I' for Inactive)
REMARK    1  A    between atoms: C2_2  and  N1_3 
REMARK    2  A    between atoms: N2_5  and  C4_6 
REMARK    3  A    between atoms: C4_6  and  C5_7 
REMARK    4  A    between atoms: C5_7  and  C6_8 
REMARK    5  A    between atoms: C11_17  and  O1_18 
REMARK    6  A    between atoms: C12_20  and  N5_21 
REMARK    7  A    between atoms: N5_21  and  O2_22 
REMARK    8  A    between atoms: N5_21  and  O3_24 
REMARK    9  A    between atoms: C13_26  and  N6_27 
ROOT
HETATM    1  C6  UNL     1     -17.140  34.695  -7.783  1.00  0.00     0.041 A 
HETATM    2  C7  UNL     1     -17.244  33.448  -7.206  1.00  0.00     0.082 A 
HETATM    3  S1  UNL     1     -15.671  32.826  -7.439  1.00  0.00    -0.071 SA
HETATM    4  C8  UNL     1     -14.981  34.163  -8.243  1.00  0.00     0.156 A 
HETATM    5  C9  UNL     1     -13.621  34.336  -8.754  1.00  0.00     0.125 C 
HETATM    6  N3  UNL     1     -12.546  34.457  -9.146  1.00  0.00    -0.189 NA
HETATM    7  N4  UNL     1     -15.989  35.014  -8.290  1.00  0.00    -0.342 N 
ATOM      8  H4  UNL     1     -15.863  35.927  -8.729  1.00  0.00     0.167 HD
ENDROOT
BRANCH   1   9
HETATM    9  C5  UNL     1     -18.309  35.610  -7.807  1.00  0.00     0.047 C 
BRANCH   9  10
HETATM   10  C4  UNL     1     -19.424  35.213  -8.442  1.00  0.00     0.100 C 
BRANCH  10  11
HETATM   11  N2  UNL     1     -19.664  35.541  -9.785  1.00  0.00    -0.312 N 
HETATM   12  C3  UNL     1     -18.719  35.670 -10.739  1.00  0.00     0.192 A 
HETATM   13  N1  UNL     1     -19.284  35.988 -11.908  1.00  0.00    -0.327 N 
HETATM   14  C14 UNL     1     -20.630  36.071 -11.721  1.00  0.00     0.140 A 
HETATM   15  C10 UNL     1     -20.829  35.781 -10.364  1.00  0.00     0.120 A 
HETATM   16  N7  UNL     1     -21.652  36.352 -12.545  1.00  0.00    -0.325 N 
HETATM   17  C11 UNL     1     -22.141  35.805  -9.938  1.00  0.00     0.126 A 
HETATM   18  C12 UNL     1     -23.170  36.100 -10.814  1.00  0.00     0.144 A 
HETATM   19  C13 UNL     1     -22.933  36.380 -12.145  1.00  0.00     0.129 A 
ATOM     20  H7  UNL     1     -21.446  36.553 -13.523  1.00  0.00     0.169 HD
BRANCH  13  21
HETATM   21  C2  UNL     1     -18.630  36.221 -13.198  1.00  0.00     0.127 C 
HETATM   22  C1  UNL     1     -17.295  35.493 -13.129  1.00  0.00     0.027 C 
ENDBRANCH  13  21
BRANCH  17  23
HETATM   23  O1  UNL     1     -22.420  35.533  -8.631  1.00  0.00    -0.356 OA
ATOM     24  H1  UNL     1     -22.615  34.639  -8.375  1.00  0.00     0.218 HD
ENDBRANCH  17  23
BRANCH  18  25
HETATM   25  N5  UNL     1     -24.524  36.124 -10.370  1.00  0.00    -0.030 NA
BRANCH  25  26
HETATM   26  O2  UNL     1     -24.799  34.934  -9.794  1.00  0.00    -0.284 OA
ATOM     27  H2  UNL     1     -25.737  34.888  -9.644  1.00  0.00     0.240 HD
ENDBRANCH  25  26
BRANCH  25  28
HETATM   28  O3  UNL     1     -24.647  37.139  -9.473  1.00  0.00    -0.284 OA
ATOM     29  H3  UNL     1     -25.528  37.107  -9.120  1.00  0.00     0.240 HD
ENDBRANCH  25  28
ENDBRANCH  18  25
BRANCH  19  30
HETATM   30  N6  UNL     1     -23.900  36.655 -12.960  1.00  0.00    -0.384 N 
ATOM     31  H62 UNL     1     -23.763  37.243 -13.782  1.00  0.00     0.157 HD
ATOM     32  H61 UNL     1     -24.841  36.292 -12.811  1.00  0.00     0.157 HD
ENDBRANCH  19  30
ENDBRANCH  10  11
ENDBRANCH   9  10
ENDBRANCH   1   9
TORSDOF 9
ENDMDL
MODEL 5
REMARK VINA RESULT: -6.775736308      2.225      3.134
REMARK  9 active torsions:
REMARK  status: ('A' for Active; 'I' for Inactive)
REMARK    1  A    between atoms: C2_2  and  N1_3 
REMARK    2  A    between atoms: N2_5  and  C4_6 
REMARK    3  A    between atoms: C4_6  and  C5_7 
REMARK    4  A    between atoms: C5_7  and  C6_8 
REMARK    5  A    between atoms: C11_17  and  O1_18 
REMARK    6  A    between atoms: C12_20  and  N5_21 
REMARK    7  A    between atoms: N5_21  and  O2_22 
REMARK    8  A    between atoms: N5_21  and  O3_24 
REMARK    9  A    between atoms: C13_26  and  N6_27 
ROOT
HETATM    1  C6  UNL     1     -17.449  35.573  -7.037  1.00  0.00     0.041 A 
HETATM    2  C7  UNL     1     -17.900  35.589  -5.735  1.00  0.00     0.082 A 
HETATM    3  S1  UNL     1     -16.772  36.632  -4.990  1.00  0.00    -0.071 SA
HETATM    4  C8  UNL     1     -15.807  36.983  -6.352  1.00  0.00     0.156 A 
HETATM    5  C9  UNL     1     -14.624  37.838  -6.454  1.00  0.00     0.125 C 
HETATM    6  N3  UNL     1     -13.698  38.518  -6.518  1.00  0.00    -0.189 NA
HETATM    7  N4  UNL     1     -16.398  36.284  -7.304  1.00  0.00    -0.342 N 
ATOM      8  H4  UNL     1     -16.026  36.304  -8.254  1.00  0.00     0.167 HD
ENDROOT
BRANCH   1   9
HETATM    9  C5  UNL     1     -18.155  34.767  -8.064  1.00  0.00     0.047 C 
BRANCH   9  10
HETATM   10  C4  UNL     1     -19.366  35.174  -8.483  1.00  0.00     0.100 C 
BRANCH  10  11
HETATM   11  N2  UNL     1     -19.613  35.495  -9.825  1.00  0.00    -0.312 N 
HETATM   12  C3  UNL     1     -18.673  35.610 -10.787  1.00  0.00     0.192 A 
HETATM   13  N1  UNL     1     -19.244  35.925 -11.954  1.00  0.00    -0.327 N 
HETATM   14  C14 UNL     1     -20.588  36.020 -11.758  1.00  0.00     0.140 A 
HETATM   15  C10 UNL     1     -20.780  35.741 -10.397  1.00  0.00     0.120 A 
HETATM   16  N7  UNL     1     -21.614  36.304 -12.576  1.00  0.00    -0.325 N 
HETATM   17  C11 UNL     1     -22.088  35.779  -9.962  1.00  0.00     0.126 A 
HETATM   18  C12 UNL     1     -23.122  36.077 -10.832  1.00  0.00     0.144 A 
HETATM   19  C13 UNL     1     -22.892  36.346 -12.167  1.00  0.00     0.129 A 
ATOM     20  H7  UNL     1     -21.413  36.497 -13.557  1.00  0.00     0.169 HD
BRANCH  13  21
HETATM   21  C2  UNL     1     -18.598  36.143 -13.250  1.00  0.00     0.127 C 
HETATM   22  C1  UNL     1     -17.208  35.533 -13.134  1.00  0.00     0.027 C 
ENDBRANCH  13  21
BRANCH  17  23
HETATM   23  O1  UNL     1     -22.360  35.519  -8.651  1.00  0.00    -0.356 OA
ATOM     24  H1  UNL     1     -22.592  34.634  -8.393  1.00  0.00     0.218 HD
ENDBRANCH  17  23
BRANCH  18  25
HETATM   25  N5  UNL     1     -24.471  36.115 -10.379  1.00  0.00    -0.030 NA
BRANCH  25  26
HETATM   26  O2  UNL     1     -24.750  34.936  -9.785  1.00  0.00    -0.284 OA
ATOM     27  H2  UNL     1     -24.415  34.965  -8.896  1.00  0.00     0.240 HD
ENDBRANCH  25  26
BRANCH  25  28
HETATM   28  O3  UNL     1     -24.581  37.143  -9.494  1.00  0.00    -0.284 OA
ATOM     29  H3  UNL     1     -25.161  37.792  -9.877  1.00  0.00     0.240 HD
ENDBRANCH  25  28
ENDBRANCH  18  25
BRANCH  19  30
HETATM   30  N6  UNL     1     -23.862  36.624 -12.977  1.00  0.00    -0.384 N 
ATOM     31  H62 UNL     1     -24.783  36.197 -12.883  1.00  0.00     0.157 HD
ATOM     32  H61 UNL     1     -23.743  37.286 -13.744  1.00  0.00     0.157 HD
ENDBRANCH  19  30
ENDBRANCH  10  11
ENDBRANCH   9  10
ENDBRANCH   1   9
TORSDOF 9
ENDMDL
