MODEL 1
REMARK VINA RESULT: -4.778258923      0.000      0.000
REMARK  4 active torsions:
REMARK  status: ('A' for Active; 'I' for Inactive)
REMARK    1  A    between atoms: N1_2  and  C2_4 
REMARK    2  A    between atoms: C2_4  and  S2_6 
REMARK    3  A    between atoms: S2_6  and  C3_7 
REMARK    4  A    between atoms: C4_8  and  S3_10 
ROOT
HETATM    1  S2  UNL     1      22.526  15.840  14.337  1.00  0.00    -0.072 SA
ENDROOT
BRANCH   1   2
HETATM    2  C2  UNL     1      22.284  17.284  15.363  1.00  0.00     0.138 C 
HETATM    3  S1  UNL     1      21.415  18.570  14.827  1.00  0.00    -0.053 SA
BRANCH   2   4
HETATM    4  N1  UNL     1      22.847  17.329  16.660  1.00  0.00    -0.380 N 
HETATM    5  C1  UNL     1      22.002  17.117  17.805  1.00  0.00     0.147 C 
ATOM      6  H1  UNL     1      23.844  17.510  16.783  1.00  0.00     0.160 HD
ENDBRANCH   2   4
ENDBRANCH   1   2
BRANCH   1   7
HETATM    7  C3  UNL     1      23.438  16.309  12.862  1.00  0.00     0.066 C 
HETATM    8  C4  UNL     1      22.817  16.612  11.736  1.00  0.00    -0.020 C 
HETATM    9  C5  UNL     1      21.337  16.580  11.632  1.00  0.00     0.056 C 
BRANCH   8  10
HETATM   10  S3  UNL     1      23.757  17.072  10.294  1.00  0.00    -0.139 SA
HETATM   11  C6  UNL     1      22.746  18.084   9.181  1.00  0.00     0.095 C 
ENDBRANCH   8  10
ENDBRANCH   1   7
TORSDOF 4
ENDMDL
MODEL 2
REMARK VINA RESULT: -4.677894499      1.763      2.194
REMARK  4 active torsions:
REMARK  status: ('A' for Active; 'I' for Inactive)
REMARK    1  A    between atoms: N1_2  and  C2_4 
REMARK    2  A    between atoms: C2_4  and  S2_6 
REMARK    3  A    between atoms: S2_6  and  C3_7 
REMARK    4  A    between atoms: C4_8  and  S3_10 
ROOT
HETATM    1  S2  UNL     1      21.294  16.842  12.340  1.00  0.00    -0.072 SA
ENDROOT
BRANCH   1   2
HETATM    2  C2  UNL     1      21.607  17.215  14.061  1.00  0.00     0.138 C 
HETATM    3  S1  UNL     1      22.416  16.159  15.024  1.00  0.00    -0.053 SA
BRANCH   2   4
HETATM    4  N1  UNL     1      21.154  18.437  14.610  1.00  0.00    -0.380 N 
HETATM    5  C1  UNL     1      21.404  18.723  15.998  1.00  0.00     0.147 C 
ATOM      6  H1  UNL     1      20.655  19.110  14.028  1.00  0.00     0.160 HD
ENDBRANCH   2   4
ENDBRANCH   1   2
BRANCH   1   7
HETATM    7  C3  UNL     1      22.860  16.641  11.484  1.00  0.00     0.066 C 
HETATM    8  C4  UNL     1      23.052  17.140  10.275  1.00  0.00    -0.020 C 
HETATM    9  C5  UNL     1      21.985  17.889   9.566  1.00  0.00     0.056 C 
BRANCH   8  10
HETATM   10  S3  UNL     1      24.620  16.921   9.458  1.00  0.00    -0.139 SA
HETATM   11  C6  UNL     1      24.567  17.636   7.793  1.00  0.00     0.095 C 
ENDBRANCH   8  10
ENDBRANCH   1   7
TORSDOF 4
ENDMDL
MODEL 3
REMARK VINA RESULT: -4.651333846      1.401      1.720
REMARK  4 active torsions:
REMARK  status: ('A' for Active; 'I' for Inactive)
REMARK    1  A    between atoms: N1_2  and  C2_4 
REMARK    2  A    between atoms: C2_4  and  S2_6 
REMARK    3  A    between atoms: S2_6  and  C3_7 
REMARK    4  A    between atoms: C4_8  and  S3_10 
ROOT
HETATM    1  S2  UNL     1      22.645  15.933  14.520  1.00  0.00    -0.072 SA
ENDROOT
BRANCH   1   2
HETATM    2  C2  UNL     1      22.558  17.403  15.533  1.00  0.00     0.138 C 
HETATM    3  S1  UNL     1      22.891  17.346  17.140  1.00  0.00    -0.053 SA
BRANCH   2   4
HETATM    4  N1  UNL     1      22.199  18.641  14.950  1.00  0.00    -0.380 N 
HETATM    5  C1  UNL     1      20.845  18.847  14.510  1.00  0.00     0.147 C 
ATOM      6  H1  UNL     1      22.893  19.381  14.843  1.00  0.00     0.160 HD
ENDBRANCH   2   4
ENDBRANCH   1   2
BRANCH   1   7
HETATM    7  C3  UNL     1      23.497  16.320  12.986  1.00  0.00     0.066 C 
HETATM    8  C4  UNL     1      22.830  16.578  11.874  1.00  0.00    -0.020 C 
HETATM    9  C5  UNL     1      21.346  16.558  11.837  1.00  0.00     0.056 C 
BRANCH   8  10
HETATM   10  S3  UNL     1      23.711  16.958  10.373  1.00  0.00    -0.139 SA
HETATM   11  C6  UNL     1      22.696  18.006   9.297  1.00  0.00     0.095 C 
ENDBRANCH   8  10
ENDBRANCH   1   7
TORSDOF 4
ENDMDL
MODEL 4
REMARK VINA RESULT: -4.588146563      2.637      5.576
REMARK  4 active torsions:
REMARK  status: ('A' for Active; 'I' for Inactive)
REMARK    1  A    between atoms: N1_2  and  C2_4 
REMARK    2  A    between atoms: C2_4  and  S2_6 
REMARK    3  A    between atoms: S2_6  and  C3_7 
REMARK    4  A    between atoms: C4_8  and  S3_10 
ROOT
HETATM    1  S2  UNL     1      20.662  16.843  12.320  1.00  0.00    -0.072 SA
ENDROOT
BRANCH   1   2
HETATM    2  C2  UNL     1      21.992  17.036  11.141  1.00  0.00     0.138 C 
HETATM    3  S1  UNL     1      23.507  16.501  11.477  1.00  0.00    -0.053 SA
BRANCH   2   4
HETATM    4  N1  UNL     1      21.744  17.660   9.895  1.00  0.00    -0.380 N 
HETATM    5  C1  UNL     1      22.851  18.141   9.114  1.00  0.00     0.147 C 
ATOM      6  H1  UNL     1      20.788  17.767   9.554  1.00  0.00     0.160 HD
ENDBRANCH   2   4
ENDBRANCH   1   2
BRANCH   1   7
HETATM    7  C3  UNL     1      20.984  17.880  13.751  1.00  0.00     0.066 C 
HETATM    8  C4  UNL     1      21.633  17.417  14.805  1.00  0.00    -0.020 C 
HETATM    9  C5  UNL     1      22.127  16.018  14.860  1.00  0.00     0.056 C 
BRANCH   8  10
HETATM   10  S3  UNL     1      21.934  18.477  16.205  1.00  0.00    -0.139 SA
HETATM   11  C6  UNL     1      23.024  17.653  17.395  1.00  0.00     0.095 C 
ENDBRANCH   8  10
ENDBRANCH   1   7
TORSDOF 4
ENDMDL
MODEL 5
REMARK VINA RESULT: -4.572158675      2.787      5.751
REMARK  4 active torsions:
REMARK  status: ('A' for Active; 'I' for Inactive)
REMARK    1  A    between atoms: N1_2  and  C2_4 
REMARK    2  A    between atoms: C2_4  and  S2_6 
REMARK    3  A    between atoms: S2_6  and  C3_7 
REMARK    4  A    between atoms: C4_8  and  S3_10 
ROOT
HETATM    1  S2  UNL     1      22.997  16.200  11.771  1.00  0.00    -0.072 SA
ENDROOT
BRANCH   1   2
HETATM    2  C2  UNL     1      23.443  16.966  10.218  1.00  0.00     0.138 C 
HETATM    3  S1  UNL     1      22.408  17.980   9.446  1.00  0.00    -0.053 SA
BRANCH   2   4
HETATM    4  N1  UNL     1      24.705  16.700   9.638  1.00  0.00    -0.380 N 
HETATM    5  C1  UNL     1      25.046  17.308   8.380  1.00  0.00     0.147 C 
ATOM      6  H1  UNL     1      25.367  16.082  10.108  1.00  0.00     0.160 HD
ENDBRANCH   2   4
ENDBRANCH   1   2
BRANCH   1   7
HETATM    7  C3  UNL     1      22.220  17.423  12.833  1.00  0.00     0.066 C 
HETATM    8  C4  UNL     1      22.141  17.249  14.141  1.00  0.00    -0.020 C 
HETATM    9  C5  UNL     1      22.688  16.036  14.797  1.00  0.00     0.056 C 
BRANCH   8  10
HETATM   10  S3  UNL     1      21.363  18.486  15.161  1.00  0.00    -0.139 SA
HETATM   11  C6  UNL     1      21.439  18.000  16.905  1.00  0.00     0.095 C 
ENDBRANCH   8  10
ENDBRANCH   1   7
TORSDOF 4
ENDMDL
