MODEL 1
REMARK VINA RESULT: -7.410691768      0.000      0.000
REMARK  2 active torsions:
REMARK  status: ('A' for Active; 'I' for Inactive)
REMARK    1  A    between atoms: N1_2  and  C2_5 
REMARK    2  A    between atoms: C2_5  and  C3_6 
ROOT
HETATM    1  C3  UNL     1      22.136  16.300  11.958  1.00  0.00     0.186 C 
HETATM    2  C4  UNL     1      23.248  16.262  13.018  1.00  0.00     0.040 C 
HETATM    3  C5  UNL     1      23.012  17.522  13.839  1.00  0.00     0.044 C 
HETATM    4  C6  UNL     1      21.755  17.217  14.660  1.00  0.00     0.096 C 
HETATM    5  C7  UNL     1      21.190  18.533  15.108  1.00  0.00     0.041 C 
HETATM    6  C8  UNL     1      22.110  18.927  16.240  1.00  0.00     0.003 C 
HETATM    7  C9  UNL     1      22.711  17.658  16.758  1.00  0.00     0.003 C 
HETATM    8  C10 UNL     1      22.188  16.527  15.898  1.00  0.00     0.041 C 
HETATM    9  O1  UNL     1      20.918  16.500  13.840  1.00  0.00    -0.229 OA
HETATM   10  O2  UNL     1      21.036  16.855  12.558  1.00  0.00    -0.233 OA
ENDROOT
BRANCH   1  11
HETATM   11  C2  UNL     1      22.694  17.142  10.838  1.00  0.00     0.266 C 
BRANCH  11  12
HETATM   12  N1  UNL     1      24.064  16.853  10.534  1.00  0.00    -0.076 N 
HETATM   13  C1  UNL     1      24.350  17.547   9.269  1.00  0.00     0.267 C 
ATOM     14  H12 UNL     1      24.274  15.855  10.508  1.00  0.00     0.276 HD
ATOM     15  H11 UNL     1      24.709  17.094  11.287  1.00  0.00     0.276 HD
ENDBRANCH  11  12
ENDBRANCH   1  11
TORSDOF 2
ENDMDL
MODEL 2
REMARK VINA RESULT: -6.295149834      1.196      1.390
REMARK  2 active torsions:
REMARK  status: ('A' for Active; 'I' for Inactive)
REMARK    1  A    between atoms: N1_2  and  C2_5 
REMARK    2  A    between atoms: C2_5  and  C3_6 
ROOT
HETATM    1  C3  UNL     1      21.479  16.731  12.709  1.00  0.00     0.186 C 
HETATM    2  C4  UNL     1      21.756  15.810  13.908  1.00  0.00     0.040 C 
HETATM    3  C5  UNL     1      22.708  16.619  14.778  1.00  0.00     0.044 C 
HETATM    4  C6  UNL     1      21.831  17.716  15.392  1.00  0.00     0.096 C 
HETATM    5  C7  UNL     1      22.749  18.810  15.851  1.00  0.00     0.041 C 
HETATM    6  C8  UNL     1      23.333  18.247  17.125  1.00  0.00     0.003 C 
HETATM    7  C9  UNL     1      22.353  17.234  17.628  1.00  0.00     0.003 C 
HETATM    8  C10 UNL     1      21.223  17.162  16.624  1.00  0.00     0.041 C 
HETATM    9  O1  UNL     1      20.947  18.102  14.413  1.00  0.00    -0.229 OA
HETATM   10  O2  UNL     1      21.474  18.014  13.189  1.00  0.00    -0.233 OA
ENDROOT
BRANCH   1  11
HETATM   11  C2  UNL     1      22.604  16.459  11.742  1.00  0.00     0.266 C 
BRANCH  11  12
HETATM   12  N1  UNL     1      22.540  17.255  10.552  1.00  0.00    -0.076 N 
HETATM   13  C1  UNL     1      23.892  17.220   9.973  1.00  0.00     0.267 C 
ATOM     14  H12 UNL     1      22.189  18.199  10.712  1.00  0.00     0.276 HD
ATOM     15  H11 UNL     1      21.810  16.962   9.903  1.00  0.00     0.276 HD
ENDBRANCH  11  12
ENDBRANCH   1  11
TORSDOF 2
ENDMDL
MODEL 3
REMARK VINA RESULT: -6.186313924      1.092      1.285
REMARK  2 active torsions:
REMARK  status: ('A' for Active; 'I' for Inactive)
REMARK    1  A    between atoms: N1_2  and  C2_5 
REMARK    2  A    between atoms: C2_5  and  C3_6 
ROOT
HETATM    1  C3  UNL     1      21.864  16.136  13.098  1.00  0.00     0.186 C 
HETATM    2  C4  UNL     1      23.169  16.732  13.649  1.00  0.00     0.040 C 
HETATM    3  C5  UNL     1      22.716  17.987  14.384  1.00  0.00     0.044 C 
HETATM    4  C6  UNL     1      22.025  17.464  15.647  1.00  0.00     0.096 C 
HETATM    5  C7  UNL     1      21.148  18.568  16.160  1.00  0.00     0.041 C 
HETATM    6  C8  UNL     1      22.136  19.506  16.813  1.00  0.00     0.003 C 
HETATM    7  C9  UNL     1      23.331  18.681  17.170  1.00  0.00     0.003 C 
HETATM    8  C10 UNL     1      23.070  17.273  16.680  1.00  0.00     0.041 C 
HETATM    9  O1  UNL     1      21.339  16.332  15.278  1.00  0.00    -0.229 OA
HETATM   10  O2  UNL     1      20.888  16.399  14.022  1.00  0.00    -0.233 OA
ENDROOT
BRANCH   1  11
HETATM   11  C2  UNL     1      21.643  16.836  11.780  1.00  0.00     0.266 C 
BRANCH  11  12
HETATM   12  N1  UNL     1      22.839  16.989  11.006  1.00  0.00    -0.076 N 
HETATM   13  C1  UNL     1      22.441  17.713   9.790  1.00  0.00     0.267 C 
ATOM     14  H12 UNL     1      23.319  16.110  10.819  1.00  0.00     0.276 HD
ATOM     15  H11 UNL     1      23.601  17.437  11.517  1.00  0.00     0.276 HD
ENDBRANCH  11  12
ENDBRANCH   1  11
TORSDOF 2
ENDMDL
MODEL 4
REMARK VINA RESULT: -5.901431900      2.339      4.957
REMARK  2 active torsions:
REMARK  status: ('A' for Active; 'I' for Inactive)
REMARK    1  A    between atoms: N1_2  and  C2_5 
REMARK    2  A    between atoms: C2_5  and  C3_6 
ROOT
HETATM    1  C3  UNL     1      21.593  17.449  15.753  1.00  0.00     0.186 C 
HETATM    2  C4  UNL     1      21.098  18.351  14.611  1.00  0.00     0.040 C 
HETATM    3  C5  UNL     1      22.077  18.076  13.478  1.00  0.00     0.044 C 
HETATM    4  C6  UNL     1      21.709  16.673  12.983  1.00  0.00     0.096 C 
HETATM    5  C7  UNL     1      22.894  16.145  12.229  1.00  0.00     0.041 C 
HETATM    6  C8  UNL     1      22.811  16.880  10.912  1.00  0.00     0.003 C 
HETATM    7  C9  UNL     1      21.378  17.277  10.739  1.00  0.00     0.003 C 
HETATM    8  C10 UNL     1      20.632  16.825  11.976  1.00  0.00     0.041 C 
HETATM    9  O1  UNL     1      21.382  15.939  14.097  1.00  0.00    -0.229 OA
HETATM   10  O2  UNL     1      22.083  16.309  15.172  1.00  0.00    -0.233 OA
ENDROOT
BRANCH   1  11
HETATM   11  C2  UNL     1      22.650  18.262  16.460  1.00  0.00     0.266 C 
BRANCH  11  12
HETATM   12  N1  UNL     1      22.965  17.773  17.769  1.00  0.00    -0.076 N 
HETATM   13  C1  UNL     1      21.854  16.883  18.143  1.00  0.00     0.267 C 
ATOM     14  H12 UNL     1      23.142  18.512  18.449  1.00  0.00     0.276 HD
ATOM     15  H11 UNL     1      23.881  17.329  17.830  1.00  0.00     0.276 HD
ENDBRANCH  11  12
ENDBRANCH   1  11
TORSDOF 2
ENDMDL
MODEL 5
REMARK VINA RESULT: -5.818653284      1.763      2.184
REMARK  2 active torsions:
REMARK  status: ('A' for Active; 'I' for Inactive)
REMARK    1  A    between atoms: N1_2  and  C2_5 
REMARK    2  A    between atoms: C2_5  and  C3_6 
ROOT
HETATM    1  C3  UNL     1      21.885  16.187  12.950  1.00  0.00     0.186 C 
HETATM    2  C4  UNL     1      23.144  16.816  13.567  1.00  0.00     0.040 C 
HETATM    3  C5  UNL     1      22.599  17.928  14.453  1.00  0.00     0.044 C 
HETATM    4  C6  UNL     1      21.970  17.197  15.645  1.00  0.00     0.096 C 
HETATM    5  C7  UNL     1      21.012  18.153  16.293  1.00  0.00     0.041 C 
HETATM    6  C8  UNL     1      21.928  19.082  17.054  1.00  0.00     0.003 C 
HETATM    7  C9  UNL     1      23.192  18.321  17.303  1.00  0.00     0.003 C 
HETATM    8  C10 UNL     1      23.041  16.968  16.642  1.00  0.00     0.041 C 
HETATM    9  O1  UNL     1      21.375  16.067  15.139  1.00  0.00    -0.229 OA
HETATM   10  O2  UNL     1      20.903  16.251  13.903  1.00  0.00    -0.233 OA
ENDROOT
BRANCH   1  11
HETATM   11  C2  UNL     1      21.590  17.023  11.730  1.00  0.00     0.266 C 
BRANCH  11  12
HETATM   12  N1  UNL     1      20.204  17.029  11.363  1.00  0.00    -0.076 N 
HETATM   13  C1  UNL     1      19.564  18.027  12.234  1.00  0.00     0.267 C 
ATOM     14  H12 UNL     1      19.767  16.110  11.406  1.00  0.00     0.276 HD
ATOM     15  H11 UNL     1      20.046  17.194  10.369  1.00  0.00     0.276 HD
ENDBRANCH  11  12
ENDBRANCH   1  11
TORSDOF 2
ENDMDL
