MODEL 1
REMARK VINA RESULT: -5.126922943      0.000      0.000
REMARK  3 active torsions:
REMARK  status: ('A' for Active; 'I' for Inactive)
REMARK    1  A    between atoms: C2_2  and  C3_3 
REMARK    2  A    between atoms: C3_3  and  C4_4 
REMARK    3  A    between atoms: C4_4  and  O1_5 
ROOT
HETATM    1  C4  UNL     1      22.073  17.008  13.607  1.00  0.00     0.138 C 
HETATM    2  S1  UNL     1      23.432  16.265  12.640  1.00  0.00    -0.097 SA
HETATM    3  C5  UNL     1      22.578  16.562  11.040  1.00  0.00     0.183 C 
HETATM    4  C6  UNL     1      23.443  17.617  10.333  1.00  0.00     0.051 C 
HETATM    5  O2  UNL     1      21.403  17.134  11.345  1.00  0.00    -0.362 OA
HETATM    6  C7  UNL     1      20.985  17.029  12.596  1.00  0.00     0.096 C 
HETATM    7  C8  UNL     1      20.070  15.801  12.724  1.00  0.00     0.050 C 
HETATM    8  C9  UNL     1      20.092  18.218  12.936  1.00  0.00     0.050 C 
ENDROOT
BRANCH   1   9
HETATM    9  C3  UNL     1      21.765  16.163  14.823  1.00  0.00     0.052 C 
BRANCH   9  10
HETATM   10  C2  UNL     1      22.457  16.751  16.020  1.00  0.00    -0.001 C 
HETATM   11  C1  UNL     1      21.503  17.341  17.010  1.00  0.00     0.005 C 
ENDBRANCH   9  10
ENDBRANCH   1   9
BRANCH   1  12
HETATM   12  O1  UNL     1      22.453  18.299  13.960  1.00  0.00    -0.376 OA
ATOM     13  H1  UNL     1      22.981  18.708  13.284  1.00  0.00     0.211 HD
ENDBRANCH   1  12
TORSDOF 3
ENDMDL
MODEL 2
REMARK VINA RESULT: -4.060593727      1.376      4.196
REMARK  3 active torsions:
REMARK  status: ('A' for Active; 'I' for Inactive)
REMARK    1  A    between atoms: C2_2  and  C3_3 
REMARK    2  A    between atoms: C3_3  and  C4_4 
REMARK    3  A    between atoms: C4_4  and  O1_5 
ROOT
HETATM    1  C4  UNL     1      21.830  16.648  11.803  1.00  0.00     0.138 C 
HETATM    2  S1  UNL     1      23.107  17.197  12.987  1.00  0.00    -0.097 SA
HETATM    3  C5  UNL     1      21.981  17.008  14.427  1.00  0.00     0.183 C 
HETATM    4  C6  UNL     1      22.578  15.843  15.232  1.00  0.00     0.051 C 
HETATM    5  O2  UNL     1      20.804  16.600  13.929  1.00  0.00    -0.362 OA
HETATM    6  C7  UNL     1      20.604  16.766  12.632  1.00  0.00     0.096 C 
HETATM    7  C8  UNL     1      19.890  18.106  12.396  1.00  0.00     0.050 C 
HETATM    8  C9  UNL     1      19.628  15.710  12.126  1.00  0.00     0.050 C 
ENDROOT
BRANCH   1   9
HETATM    9  C3  UNL     1      21.831  17.532  10.576  1.00  0.00     0.052 C 
BRANCH   9  10
HETATM   10  C2  UNL     1      23.153  17.402   9.874  1.00  0.00    -0.001 C 
HETATM   11  C1  UNL     1      23.297  18.354   8.728  1.00  0.00     0.005 C 
ENDBRANCH   9  10
ENDBRANCH   1   9
BRANCH   1  12
HETATM   12  O1  UNL     1      22.088  15.318  11.478  1.00  0.00    -0.376 OA
ATOM     13  H1  UNL     1      22.433  14.836  12.221  1.00  0.00     0.211 HD
ENDBRANCH   1  12
TORSDOF 3
ENDMDL
MODEL 3
REMARK VINA RESULT: -3.811681893      1.999      2.943
REMARK  3 active torsions:
REMARK  status: ('A' for Active; 'I' for Inactive)
REMARK    1  A    between atoms: C2_2  and  C3_3 
REMARK    2  A    between atoms: C3_3  and  C4_4 
REMARK    3  A    between atoms: C4_4  and  O1_5 
ROOT
HETATM    1  C4  UNL     1      21.780  17.417  14.570  1.00  0.00     0.138 C 
HETATM    2  S1  UNL     1      20.525  18.141  13.458  1.00  0.00    -0.097 SA
HETATM    3  C5  UNL     1      20.657  16.756  12.258  1.00  0.00     0.183 C 
HETATM    4  C6  UNL     1      19.303  16.036  12.351  1.00  0.00     0.051 C 
HETATM    5  O2  UNL     1      21.594  15.928  12.746  1.00  0.00    -0.362 OA
HETATM    6  C7  UNL     1      22.404  16.410  13.675  1.00  0.00     0.096 C 
HETATM    7  C8  UNL     1      23.675  16.957  13.007  1.00  0.00     0.050 C 
HETATM    8  C9  UNL     1      22.891  15.272  14.566  1.00  0.00     0.050 C 
ENDROOT
BRANCH   1   9
HETATM    9  C3  UNL     1      22.736  18.484  15.055  1.00  0.00     0.052 C 
BRANCH   9  10
HETATM   10  C2  UNL     1      22.577  18.650  16.541  1.00  0.00    -0.001 C 
HETATM   11  C1  UNL     1      23.338  17.625  17.322  1.00  0.00     0.005 C 
ENDBRANCH   9  10
ENDBRANCH   1   9
BRANCH   1  12
HETATM   12  O1  UNL     1      21.114  16.803  15.627  1.00  0.00    -0.376 OA
ATOM     13  H1  UNL     1      21.185  15.857  15.585  1.00  0.00     0.211 HD
ENDBRANCH   1  12
TORSDOF 3
ENDMDL
MODEL 4
REMARK VINA RESULT: -3.510532504      1.704      3.820
REMARK  3 active torsions:
REMARK  status: ('A' for Active; 'I' for Inactive)
REMARK    1  A    between atoms: C2_2  and  C3_3 
REMARK    2  A    between atoms: C3_3  and  C4_4 
REMARK    3  A    between atoms: C4_4  and  O1_5 
ROOT
HETATM    1  C4  UNL     1      21.503  16.495  12.903  1.00  0.00     0.138 C 
HETATM    2  S1  UNL     1      22.583  17.561  13.918  1.00  0.00    -0.097 SA
HETATM    3  C5  UNL     1      21.199  18.677  14.382  1.00  0.00     0.183 C 
HETATM    4  C6  UNL     1      21.007  18.446  15.889  1.00  0.00     0.051 C 
HETATM    5  O2  UNL     1      20.112  18.205  13.754  1.00  0.00    -0.362 OA
HETATM    6  C7  UNL     1      20.309  17.366  12.750  1.00  0.00     0.096 C 
HETATM    7  C8  UNL     1      20.350  18.153  11.431  1.00  0.00     0.050 C 
HETATM    8  C9  UNL     1      19.105  16.440  12.614  1.00  0.00     0.050 C 
ENDROOT
BRANCH   1   9
HETATM    9  C3  UNL     1      22.180  16.145  11.597  1.00  0.00     0.052 C 
BRANCH   9  10
HETATM   10  C2  UNL     1      23.581  16.689  11.606  1.00  0.00    -0.001 C 
HETATM   11  C1  UNL     1      24.071  17.050  10.239  1.00  0.00     0.005 C 
ENDBRANCH   9  10
ENDBRANCH   1   9
BRANCH   1  12
HETATM   12  O1  UNL     1      21.200  15.358  13.647  1.00  0.00    -0.376 OA
ATOM     13  H1  UNL     1      21.693  15.327  14.459  1.00  0.00     0.211 HD
ENDBRANCH   1  12
TORSDOF 3
ENDMDL
MODEL 5
REMARK VINA RESULT: -3.493448244      1.850      4.255
REMARK  3 active torsions:
REMARK  status: ('A' for Active; 'I' for Inactive)
REMARK    1  A    between atoms: C2_2  and  C3_3 
REMARK    2  A    between atoms: C3_3  and  C4_4 
REMARK    3  A    between atoms: C4_4  and  O1_5 
ROOT
HETATM    1  C4  UNL     1      21.957  17.183  13.690  1.00  0.00     0.138 C 
HETATM    2  S1  UNL     1      21.074  18.402  14.724  1.00  0.00    -0.097 SA
HETATM    3  C5  UNL     1      22.000  17.925  16.237  1.00  0.00     0.183 C 
HETATM    4  C6  UNL     1      22.862  19.155  16.564  1.00  0.00     0.051 C 
HETATM    5  O2  UNL     1      22.826  16.933  15.873  1.00  0.00    -0.362 OA
HETATM    6  C7  UNL     1      22.564  16.316  14.732  1.00  0.00     0.096 C 
HETATM    7  C8  UNL     1      21.697  15.078  15.011  1.00  0.00     0.050 C 
HETATM    8  C9  UNL     1      23.857  15.761  14.143  1.00  0.00     0.050 C 
ENDROOT
BRANCH   1   9
HETATM    9  C3  UNL     1      20.990  16.463  12.777  1.00  0.00     0.052 C 
BRANCH   9  10
HETATM   10  C2  UNL     1      21.511  16.513  11.369  1.00  0.00    -0.001 C 
HETATM   11  C1  UNL     1      20.752  17.469  10.503  1.00  0.00     0.005 C 
ENDBRANCH   9  10
ENDBRANCH   1   9
BRANCH   1  12
HETATM   12  O1  UNL     1      22.938  17.860  12.970  1.00  0.00    -0.376 OA
ATOM     13  H1  UNL     1      23.598  18.234  13.541  1.00  0.00     0.211 HD
ENDBRANCH   1  12
TORSDOF 3
ENDMDL
