MODEL 1
REMARK VINA RESULT: -8.371065538      0.000      0.000
REMARK  14 active torsions:
REMARK  status: ('A' for Active; 'I' for Inactive)
REMARK       I    between atoms: N1_2  and  C2_4 
REMARK    1  A    between atoms: C2_4  and  C3_6 
REMARK    2  A    between atoms: C3_6  and  O2_7 
REMARK    3  A    between atoms: C3_6  and  C4_9 
REMARK    4  A    between atoms: C4_9  and  O3_10 
REMARK    5  A    between atoms: C4_9  and  C5_12 
REMARK    6  A    between atoms: C5_12  and  O4_13 
REMARK    7  A    between atoms: C5_12  and  C6_15 
REMARK    8  A    between atoms: C7_19  and  O5_20 
REMARK    9  A    between atoms: O5_20  and  C8_21 
REMARK   10  A    between atoms: C10_23  and  O6_24 
REMARK   11  A    between atoms: O6_24  and  C11_25 
REMARK   12  A    between atoms: C13_29  and  O9_31 
REMARK   13  A    between atoms: C15_33  and  N3_34 
REMARK   14  A    between atoms: C19_43  and  C20_44 
ROOT
HETATM    1  C6  UNL     1      29.288  -2.751   2.314  1.00  0.00     0.417 C 
HETATM    2  N2  UNL     1      30.126  -2.117   1.281  1.00  0.00    -0.017 N 
ATOM      3  H21 UNL     1      31.124  -2.136   1.491  1.00  0.00     0.282 HD
ATOM      4  H22 UNL     1      30.033  -1.102   1.240  1.00  0.00     0.282 HD
HETATM    5  C7  UNL     1      29.775  -2.788   0.046  1.00  0.00     0.332 C 
HETATM    6  C18 UNL     1      28.372  -2.347  -0.297  1.00  0.00     0.106 C 
HETATM    7  C19 UNL     1      27.412  -2.708   0.799  1.00  0.00     0.292 C 
HETATM    8  N7  UNL     1      27.899  -2.440   2.119  1.00  0.00    -0.029 N 
ATOM      9  H71 UNL     1      27.712  -1.471   2.377  1.00  0.00     0.280 HD
ATOM     10  H72 UNL     1      27.327  -2.920   2.814  1.00  0.00     0.280 HD
ENDROOT
BRANCH   5  11
HETATM   11  O5  UNL     1      30.693  -2.689  -0.972  1.00  0.00    -0.320 OA
BRANCH  11  12
HETATM   12  C8  UNL     1      31.609  -3.656  -1.392  1.00  0.00     0.080 C 
HETATM   13  C9  UNL     1      31.483  -4.858  -0.903  1.00  0.00     0.068 C 
HETATM   14  C10 UNL     1      32.378  -5.965  -1.261  1.00  0.00     0.300 C 
HETATM   15  O8  UNL     1      33.344  -5.665  -2.171  1.00  0.00    -0.319 OA
HETATM   16  C13 UNL     1      33.814  -4.359  -2.095  1.00  0.00     0.190 C 
HETATM   17  C14 UNL     1      34.504  -4.098  -0.779  1.00  0.00     0.082 C 
HETATM   18  C15 UNL     1      32.690  -3.368  -2.348  1.00  0.00     0.227 C 
BRANCH  14  19
HETATM   19  O6  UNL     1      32.925  -6.572  -0.081  1.00  0.00    -0.286 OA
BRANCH  19  20
HETATM   20  C11 UNL     1      33.559  -7.788  -0.086  1.00  0.00     0.257 C 
HETATM   21  C12 UNL     1      35.048  -7.927  -0.061  1.00  0.00     0.126 C 
HETATM   22  O7  UNL     1      32.857  -8.830  -0.111  1.00  0.00    -0.266 OA
ENDBRANCH  19  20
ENDBRANCH  14  19
BRANCH  16  23
HETATM   23  O9  UNL     1      34.755  -4.191  -3.108  1.00  0.00    -0.363 OA
ATOM     24  H9  UNL     1      34.920  -3.260  -3.195  1.00  0.00     0.213 HD
ENDBRANCH  16  23
BRANCH  18  25
HETATM   25  N3  UNL     1      32.289  -3.394  -3.731  1.00  0.00    -0.269 N 
HETATM   26  C16 UNL     1      32.021  -2.306  -4.474  1.00  0.00     0.159 A 
HETATM   27  C17 UNL     1      31.674  -2.729  -5.738  1.00  0.00     0.149 A 
HETATM   28  N4  UNL     1      31.306  -1.917  -6.873  1.00  0.00    -0.080 NA
HETATM   29  N5  UNL     1      31.745  -4.069  -5.720  1.00  0.00    -0.272 N 
HETATM   30  N6  UNL     1      32.117  -4.430  -4.497  1.00  0.00    -0.239 N 
ATOM     31  H5  UNL     1      31.550  -4.695  -6.501  1.00  0.00     0.189 HD
ATOM     32  H6  UNL     1      32.251  -5.396  -4.198  1.00  0.00     0.208 HD
ENDBRANCH  18  25
ENDBRANCH  11  12
ENDBRANCH   5  11
BRANCH   1  33
HETATM   33  C5  UNL     1      29.703  -2.294   3.684  1.00  0.00     0.208 C 
BRANCH  33  34
HETATM   34  C4  UNL     1      28.790  -1.147   4.092  1.00  0.00     0.188 C 
BRANCH  34  35
HETATM   35  C3  UNL     1      28.842  -0.922   5.589  1.00  0.00     0.241 C 
BRANCH  35  36
HETATM   36  C2  UNL     1      28.271   0.385   5.968  1.00  0.00     0.248 C 
HETATM   37  N1  UNL     1      28.786   1.146   7.044  1.00  0.00    -0.363 N 
HETATM   38  C1  UNL     1      28.205   2.444   7.408  1.00  0.00     0.149 C 
ATOM     39  H1  UNL     1      29.577   0.785   7.578  1.00  0.00     0.162 HD
HETATM   40  O1  UNL     1      27.287   0.844   5.312  1.00  0.00    -0.271 OA
ENDBRANCH  35  36
BRANCH  35  41
HETATM   41  O2  UNL     1      30.158  -1.021   5.982  1.00  0.00    -0.383 OA
ATOM     42  H2  UNL     1      30.333  -1.868   6.377  1.00  0.00     0.210 HD
ENDBRANCH  35  41
ENDBRANCH  34  35
BRANCH  34  43
HETATM   43  O3  UNL     1      29.132   0.029   3.476  1.00  0.00    -0.390 OA
ATOM     44  H3  UNL     1      28.367   0.592   3.474  1.00  0.00     0.210 HD
ENDBRANCH  34  43
ENDBRANCH  33  34
BRANCH  33  45
HETATM   45  O4  UNL     1      29.504  -3.376   4.573  1.00  0.00    -0.389 OA
ATOM     46  H4  UNL     1      28.779  -3.904   4.259  1.00  0.00     0.210 HD
ENDBRANCH  33  45
ENDBRANCH   1  33
BRANCH   7  47
HETATM   47  C20 UNL     1      27.006  -4.136   0.726  1.00  0.00     0.205 C 
HETATM   48  O10 UNL     1      25.961  -4.491   0.115  1.00  0.00    -0.646 OA
HETATM   49  O11 UNL     1      27.744  -5.162   1.320  1.00  0.00    -0.646 OA
ENDBRANCH   7  47
TORSDOF 14
ENDMDL
MODEL 2
REMARK VINA RESULT: -8.087980059      2.980      4.896
REMARK  14 active torsions:
REMARK  status: ('A' for Active; 'I' for Inactive)
REMARK       I    between atoms: N1_2  and  C2_4 
REMARK    1  A    between atoms: C2_4  and  C3_6 
REMARK    2  A    between atoms: C3_6  and  O2_7 
REMARK    3  A    between atoms: C3_6  and  C4_9 
REMARK    4  A    between atoms: C4_9  and  O3_10 
REMARK    5  A    between atoms: C4_9  and  C5_12 
REMARK    6  A    between atoms: C5_12  and  O4_13 
REMARK    7  A    between atoms: C5_12  and  C6_15 
REMARK    8  A    between atoms: C7_19  and  O5_20 
REMARK    9  A    between atoms: O5_20  and  C8_21 
REMARK   10  A    between atoms: C10_23  and  O6_24 
REMARK   11  A    between atoms: O6_24  and  C11_25 
REMARK   12  A    between atoms: C13_29  and  O9_31 
REMARK   13  A    between atoms: C15_33  and  N3_34 
REMARK   14  A    between atoms: C19_43  and  C20_44 
ROOT
HETATM    1  C6  UNL     1      28.685  -2.605   2.766  1.00  0.00     0.417 C 
HETATM    2  N2  UNL     1      30.134  -2.843   2.648  1.00  0.00    -0.017 N 
ATOM      3  H21 UNL     1      30.617  -2.905   3.545  1.00  0.00     0.282 HD
ATOM      4  H22 UNL     1      30.656  -2.043   2.288  1.00  0.00     0.282 HD
HETATM    5  C7  UNL     1      30.255  -4.036   1.835  1.00  0.00     0.332 C 
HETATM    6  C18 UNL     1      29.831  -3.648   0.439  1.00  0.00     0.106 C 
HETATM    7  C19 UNL     1      28.420  -3.135   0.428  1.00  0.00     0.292 C 
HETATM    8  N7  UNL     1      28.114  -2.236   1.501  1.00  0.00    -0.029 N 
ATOM      9  H71 UNL     1      28.382  -1.284   1.254  1.00  0.00     0.280 HD
ATOM     10  H72 UNL     1      27.105  -2.117   1.588  1.00  0.00     0.280 HD
ENDROOT
BRANCH   5  11
HETATM   11  O5  UNL     1      31.453  -4.704   1.926  1.00  0.00    -0.320 OA
BRANCH  11  12
HETATM   12  C8  UNL     1      32.459  -4.786   0.961  1.00  0.00     0.080 C 
HETATM   13  C9  UNL     1      32.818  -3.682   0.369  1.00  0.00     0.068 C 
HETATM   14  C10 UNL     1      33.862  -3.630  -0.662  1.00  0.00     0.300 C 
HETATM   15  O8  UNL     1      34.463  -4.817  -0.945  1.00  0.00    -0.319 OA
HETATM   16  C13 UNL     1      33.629  -5.922  -0.825  1.00  0.00     0.190 C 
HETATM   17  C14 UNL     1      32.501  -5.872  -1.826  1.00  0.00     0.082 C 
HETATM   18  C15 UNL     1      33.113  -6.054   0.598  1.00  0.00     0.227 C 
BRANCH  14  19
HETATM   19  O6  UNL     1      33.370  -2.984  -1.844  1.00  0.00    -0.286 OA
BRANCH  19  20
HETATM   20  C11 UNL     1      32.701  -1.786  -1.824  1.00  0.00     0.257 C 
HETATM   21  C12 UNL     1      33.335  -0.511  -1.365  1.00  0.00     0.126 C 
HETATM   22  O7  UNL     1      31.505  -1.761  -2.208  1.00  0.00    -0.266 OA
ENDBRANCH  19  20
ENDBRANCH  14  19
BRANCH  16  23
HETATM   23  O9  UNL     1      34.390  -7.055  -1.101  1.00  0.00    -0.363 OA
ATOM     24  H9  UNL     1      34.042  -7.449  -1.891  1.00  0.00     0.213 HD
ENDBRANCH  16  23
BRANCH  18  25
HETATM   25  N3  UNL     1      34.171  -6.459   1.488  1.00  0.00    -0.269 N 
HETATM   26  C16 UNL     1      34.157  -7.573   2.241  1.00  0.00     0.159 A 
HETATM   27  C17 UNL     1      35.334  -7.619   2.954  1.00  0.00     0.149 A 
HETATM   28  N4  UNL     1      35.763  -8.629   3.891  1.00  0.00    -0.080 NA
HETATM   29  N5  UNL     1      36.028  -6.523   2.607  1.00  0.00    -0.272 N 
HETATM   30  N6  UNL     1      35.296  -5.853   1.725  1.00  0.00    -0.239 N 
ATOM     31  H5  UNL     1      36.949  -6.255   2.956  1.00  0.00     0.189 HD
ATOM     32  H6  UNL     1      35.580  -4.975   1.290  1.00  0.00     0.208 HD
ENDBRANCH  18  25
ENDBRANCH  11  12
ENDBRANCH   5  11
BRANCH   1  33
HETATM   33  C5  UNL     1      28.409  -1.514   3.763  1.00  0.00     0.208 C 
BRANCH  33  34
HETATM   34  C4  UNL     1      29.378  -1.684   4.924  1.00  0.00     0.188 C 
BRANCH  34  35
HETATM   35  C3  UNL     1      29.196  -0.579   5.944  1.00  0.00     0.241 C 
BRANCH  35  36
HETATM   36  C2  UNL     1      29.227  -1.097   7.326  1.00  0.00     0.248 C 
HETATM   37  N1  UNL     1      28.060  -1.186   8.121  1.00  0.00    -0.363 N 
HETATM   38  C1  UNL     1      28.111  -1.703   9.494  1.00  0.00     0.149 C 
ATOM     39  H1  UNL     1      27.166  -0.885   7.733  1.00  0.00     0.162 HD
HETATM   40  O1  UNL     1      30.333  -1.475   7.820  1.00  0.00    -0.271 OA
ENDBRANCH  35  36
BRANCH  35  41
HETATM   41  O2  UNL     1      27.999   0.046   5.676  1.00  0.00    -0.383 OA
ATOM     42  H2  UNL     1      28.140   0.895   5.273  1.00  0.00     0.210 HD
ENDBRANCH  35  41
ENDBRANCH  34  35
BRANCH  34  43
HETATM   43  O3  UNL     1      29.210  -2.883   5.566  1.00  0.00    -0.390 OA
ATOM     44  H3  UNL     1      29.345  -3.576   4.930  1.00  0.00     0.210 HD
ENDBRANCH  34  43
ENDBRANCH  33  34
BRANCH  33  45
HETATM   45  O4  UNL     1      28.668  -0.278   3.126  1.00  0.00    -0.389 OA
ATOM     46  H4  UNL     1      28.313   0.424   3.660  1.00  0.00     0.210 HD
ENDBRANCH  33  45
ENDBRANCH   1  33
BRANCH   7  47
HETATM   47  C20 UNL     1      27.432  -4.244   0.446  1.00  0.00     0.205 C 
HETATM   48  O10 UNL     1      26.192  -4.019   0.491  1.00  0.00    -0.646 OA
HETATM   49  O11 UNL     1      27.806  -5.589   0.412  1.00  0.00    -0.646 OA
ENDBRANCH   7  47
TORSDOF 14
ENDMDL
MODEL 3
REMARK VINA RESULT: -8.035775301      2.913      4.788
REMARK  14 active torsions:
REMARK  status: ('A' for Active; 'I' for Inactive)
REMARK       I    between atoms: N1_2  and  C2_4 
REMARK    1  A    between atoms: C2_4  and  C3_6 
REMARK    2  A    between atoms: C3_6  and  O2_7 
REMARK    3  A    between atoms: C3_6  and  C4_9 
REMARK    4  A    between atoms: C4_9  and  O3_10 
REMARK    5  A    between atoms: C4_9  and  C5_12 
REMARK    6  A    between atoms: C5_12  and  O4_13 
REMARK    7  A    between atoms: C5_12  and  C6_15 
REMARK    8  A    between atoms: C7_19  and  O5_20 
REMARK    9  A    between atoms: O5_20  and  C8_21 
REMARK   10  A    between atoms: C10_23  and  O6_24 
REMARK   11  A    between atoms: O6_24  and  C11_25 
REMARK   12  A    between atoms: C13_29  and  O9_31 
REMARK   13  A    between atoms: C15_33  and  N3_34 
REMARK   14  A    between atoms: C19_43  and  C20_44 
ROOT
HETATM    1  C6  UNL     1      28.733  -2.507   2.906  1.00  0.00     0.417 C 
HETATM    2  N2  UNL     1      30.178  -2.761   2.764  1.00  0.00    -0.017 N 
ATOM      3  H21 UNL     1      30.671  -2.846   3.653  1.00  0.00     0.282 HD
ATOM      4  H22 UNL     1      30.704  -1.961   2.413  1.00  0.00     0.282 HD
HETATM    5  C7  UNL     1      30.273  -3.939   1.927  1.00  0.00     0.332 C 
HETATM    6  C18 UNL     1      29.836  -3.519   0.544  1.00  0.00     0.106 C 
HETATM    7  C19 UNL     1      28.432  -2.988   0.562  1.00  0.00     0.292 C 
HETATM    8  N7  UNL     1      28.151  -2.107   1.655  1.00  0.00    -0.029 N 
ATOM      9  H71 UNL     1      28.428  -1.154   1.423  1.00  0.00     0.280 HD
ATOM     10  H72 UNL     1      27.144  -1.977   1.758  1.00  0.00     0.280 HD
ENDROOT
BRANCH   5  11
HETATM   11  O5  UNL     1      31.464  -4.624   1.989  1.00  0.00    -0.320 OA
BRANCH  11  12
HETATM   12  C8  UNL     1      32.432  -4.744   0.990  1.00  0.00     0.080 C 
HETATM   13  C9  UNL     1      32.792  -3.657   0.367  1.00  0.00     0.068 C 
HETATM   14  C10 UNL     1      33.799  -3.645  -0.702  1.00  0.00     0.300 C 
HETATM   15  O8  UNL     1      34.364  -4.849  -0.987  1.00  0.00    -0.319 OA
HETATM   16  C13 UNL     1      33.512  -5.934  -0.818  1.00  0.00     0.190 C 
HETATM   17  C14 UNL     1      32.349  -5.876  -1.778  1.00  0.00     0.082 C 
HETATM   18  C15 UNL     1      33.046  -6.031   0.625  1.00  0.00     0.227 C 
BRANCH  14  19
HETATM   19  O6  UNL     1      33.277  -3.008  -1.877  1.00  0.00    -0.286 OA
BRANCH  19  20
HETATM   20  C11 UNL     1      32.627  -1.799  -1.852  1.00  0.00     0.257 C 
HETATM   21  C12 UNL     1      33.290  -0.531  -1.417  1.00  0.00     0.126 C 
HETATM   22  O7  UNL     1      31.424  -1.759  -2.211  1.00  0.00    -0.266 OA
ENDBRANCH  19  20
ENDBRANCH  14  19
BRANCH  16  23
HETATM   23  O9  UNL     1      34.238  -7.088  -1.101  1.00  0.00    -0.363 OA
ATOM     24  H9  UNL     1      34.063  -7.714  -0.409  1.00  0.00     0.213 HD
ENDBRANCH  16  23
BRANCH  18  25
HETATM   25  N3  UNL     1      34.126  -6.444   1.484  1.00  0.00    -0.269 N 
HETATM   26  C16 UNL     1      34.123  -7.555   2.241  1.00  0.00     0.159 A 
HETATM   27  C17 UNL     1      35.322  -7.611   2.917  1.00  0.00     0.149 A 
HETATM   28  N4  UNL     1      35.769  -8.622   3.844  1.00  0.00    -0.080 NA
HETATM   29  N5  UNL     1      36.017  -6.524   2.543  1.00  0.00    -0.272 N 
HETATM   30  N6  UNL     1      35.264  -5.850   1.683  1.00  0.00    -0.239 N 
ATOM     31  H5  UNL     1      36.951  -6.265   2.862  1.00  0.00     0.189 HD
ATOM     32  H6  UNL     1      35.544  -4.976   1.235  1.00  0.00     0.208 HD
ENDBRANCH  18  25
ENDBRANCH  11  12
ENDBRANCH   5  11
BRANCH   1  33
HETATM   33  C5  UNL     1      28.483  -1.433   3.927  1.00  0.00     0.208 C 
BRANCH  33  34
HETATM   34  C4  UNL     1      29.186  -1.839   5.215  1.00  0.00     0.188 C 
BRANCH  34  35
HETATM   35  C3  UNL     1      28.462  -1.280   6.422  1.00  0.00     0.241 C 
BRANCH  35  36
HETATM   36  C2  UNL     1      29.130  -0.075   6.953  1.00  0.00     0.248 C 
HETATM   37  N1  UNL     1      28.431   1.137   7.170  1.00  0.00    -0.363 N 
HETATM   38  C1  UNL     1      29.112   2.326   7.698  1.00  0.00     0.149 C 
ATOM     39  H1  UNL     1      27.435   1.185   6.955  1.00  0.00     0.162 HD
HETATM   40  O1  UNL     1      30.368  -0.122   7.224  1.00  0.00    -0.271 OA
ENDBRANCH  35  36
BRANCH  35  41
HETATM   41  O2  UNL     1      28.405  -2.274   7.374  1.00  0.00    -0.383 OA
ATOM     42  H2  UNL     1      28.766  -3.087   7.040  1.00  0.00     0.210 HD
ENDBRANCH  35  41
ENDBRANCH  34  35
BRANCH  34  43
HETATM   43  O3  UNL     1      29.256  -3.200   5.358  1.00  0.00    -0.390 OA
ATOM     44  H3  UNL     1      28.403  -3.509   5.638  1.00  0.00     0.210 HD
ENDBRANCH  34  43
ENDBRANCH  33  34
BRANCH  33  45
HETATM   45  O4  UNL     1      29.067  -0.240   3.443  1.00  0.00    -0.389 OA
ATOM     46  H4  UNL     1      29.884  -0.087   3.904  1.00  0.00     0.210 HD
ENDBRANCH  33  45
ENDBRANCH   1  33
BRANCH   7  47
HETATM   47  C20 UNL     1      27.430  -4.086   0.570  1.00  0.00     0.205 C 
HETATM   48  O10 UNL     1      26.192  -3.845   0.574  1.00  0.00    -0.646 OA
HETATM   49  O11 UNL     1      27.788  -5.435   0.574  1.00  0.00    -0.646 OA
ENDBRANCH   7  47
TORSDOF 14
ENDMDL
MODEL 4
REMARK VINA RESULT: -8.001222431      3.044      8.780
REMARK  14 active torsions:
REMARK  status: ('A' for Active; 'I' for Inactive)
REMARK       I    between atoms: N1_2  and  C2_4 
REMARK    1  A    between atoms: C2_4  and  C3_6 
REMARK    2  A    between atoms: C3_6  and  O2_7 
REMARK    3  A    between atoms: C3_6  and  C4_9 
REMARK    4  A    between atoms: C4_9  and  O3_10 
REMARK    5  A    between atoms: C4_9  and  C5_12 
REMARK    6  A    between atoms: C5_12  and  O4_13 
REMARK    7  A    between atoms: C5_12  and  C6_15 
REMARK    8  A    between atoms: C7_19  and  O5_20 
REMARK    9  A    between atoms: O5_20  and  C8_21 
REMARK   10  A    between atoms: C10_23  and  O6_24 
REMARK   11  A    between atoms: O6_24  and  C11_25 
REMARK   12  A    between atoms: C13_29  and  O9_31 
REMARK   13  A    between atoms: C15_33  and  N3_34 
REMARK   14  A    between atoms: C19_43  and  C20_44 
ROOT
HETATM    1  C6  UNL     1      32.204  -1.953   0.763  1.00  0.00     0.417 C 
HETATM    2  N2  UNL     1      31.090  -1.096   1.205  1.00  0.00    -0.017 N 
ATOM      3  H21 UNL     1      30.275  -1.615   1.532  1.00  0.00     0.282 HD
ATOM      4  H22 UNL     1      30.620  -0.606   0.444  1.00  0.00     0.282 HD
HETATM    5  C7  UNL     1      31.663  -0.216   2.203  1.00  0.00     0.332 C 
HETATM    6  C18 UNL     1      32.583   0.727   1.466  1.00  0.00     0.106 C 
HETATM    7  C19 UNL     1      33.658  -0.028   0.738  1.00  0.00     0.292 C 
HETATM    8  N7  UNL     1      33.192  -1.194   0.048  1.00  0.00    -0.029 N 
ATOM      9  H71 UNL     1      32.846  -0.944  -0.878  1.00  0.00     0.280 HD
ATOM     10  H72 UNL     1      33.977  -1.790  -0.213  1.00  0.00     0.280 HD
ENDROOT
BRANCH   5  11
HETATM   11  O5  UNL     1      30.770   0.378   3.063  1.00  0.00    -0.320 OA
BRANCH  11  12
HETATM   12  C8  UNL     1      29.895  -0.250   3.951  1.00  0.00     0.080 C 
HETATM   13  C9  UNL     1      29.050   0.502   4.599  1.00  0.00     0.068 C 
HETATM   14  C10 UNL     1      28.077  -0.033   5.560  1.00  0.00     0.300 C 
HETATM   15  O8  UNL     1      28.090  -1.385   5.714  1.00  0.00    -0.319 OA
HETATM   16  C13 UNL     1      29.345  -1.964   5.567  1.00  0.00     0.190 C 
HETATM   17  C14 UNL     1      30.297  -1.497   6.640  1.00  0.00     0.082 C 
HETATM   18  C15 UNL     1      29.896  -1.706   4.175  1.00  0.00     0.227 C 
BRANCH  14  19
HETATM   19  O6  UNL     1      28.185   0.650   6.817  1.00  0.00    -0.286 OA
BRANCH  19  20
HETATM   20  C11 UNL     1      28.152   2.016   6.937  1.00  0.00     0.257 C 
HETATM   21  C12 UNL     1      26.920   2.823   6.676  1.00  0.00     0.126 C 
HETATM   22  O7  UNL     1      29.203   2.613   7.281  1.00  0.00    -0.266 OA
ENDBRANCH  19  20
ENDBRANCH  14  19
BRANCH  16  23
HETATM   23  O9  UNL     1      29.191  -3.341   5.706  1.00  0.00    -0.363 OA
ATOM     24  H9  UNL     1      29.113  -3.710   4.835  1.00  0.00     0.213 HD
ENDBRANCH  16  23
BRANCH  18  25
HETATM   25  N3  UNL     1      29.169  -2.464   3.189  1.00  0.00    -0.269 N 
HETATM   26  C16 UNL     1      28.149  -1.987   2.453  1.00  0.00     0.159 A 
HETATM   27  C17 UNL     1      27.713  -2.999   1.626  1.00  0.00     0.149 A 
HETATM   28  N4  UNL     1      26.642  -2.953   0.660  1.00  0.00    -0.080 NA
HETATM   29  N5  UNL     1      28.490  -4.062   1.890  1.00  0.00    -0.272 N 
HETATM   30  N6  UNL     1      29.351  -3.700   2.834  1.00  0.00    -0.239 N 
ATOM     31  H5  UNL     1      28.430  -4.979   1.447  1.00  0.00     0.189 HD
ATOM     32  H6  UNL     1      30.063  -4.314   3.230  1.00  0.00     0.208 HD
ENDBRANCH  18  25
ENDBRANCH  11  12
ENDBRANCH   5  11
BRANCH   1  33
HETATM   33  C5  UNL     1      31.701  -3.058  -0.123  1.00  0.00     0.208 C 
BRANCH  33  34
HETATM   34  C4  UNL     1      31.954  -4.380   0.588  1.00  0.00     0.188 C 
BRANCH  34  35
HETATM   35  C3  UNL     1      33.192  -5.058   0.039  1.00  0.00     0.241 C 
BRANCH  35  36
HETATM   36  C2  UNL     1      33.482  -6.324   0.741  1.00  0.00     0.248 C 
HETATM   37  N1  UNL     1      34.350  -6.382   1.857  1.00  0.00    -0.363 N 
HETATM   38  C1  UNL     1      34.627  -7.651   2.542  1.00  0.00     0.149 C 
ATOM     39  H1  UNL     1      34.792  -5.526   2.192  1.00  0.00     0.162 HD
HETATM   40  O1  UNL     1      32.937  -7.395   0.334  1.00  0.00    -0.271 OA
ENDBRANCH  35  36
BRANCH  35  41
HETATM   41  O2  UNL     1      34.242  -4.175   0.156  1.00  0.00    -0.383 OA
ATOM     42  H2  UNL     1      34.490  -3.824  -0.691  1.00  0.00     0.210 HD
ENDBRANCH  35  41
ENDBRANCH  34  35
BRANCH  34  43
HETATM   43  O3  UNL     1      32.126  -4.216   1.937  1.00  0.00    -0.390 OA
ATOM     44  H3  UNL     1      32.795  -4.827   2.223  1.00  0.00     0.210 HD
ENDBRANCH  34  43
ENDBRANCH  33  34
BRANCH  33  45
HETATM   45  O4  UNL     1      30.307  -2.880  -0.277  1.00  0.00    -0.389 OA
ATOM     46  H4  UNL     1      30.140  -2.472  -1.119  1.00  0.00     0.210 HD
ENDBRANCH  33  45
ENDBRANCH   1  33
BRANCH   7  47
HETATM   47  C20 UNL     1      34.761  -0.429   1.650  1.00  0.00     0.205 C 
HETATM   48  O10 UNL     1      35.202   0.356   2.532  1.00  0.00    -0.646 OA
HETATM   49  O11 UNL     1      35.372  -1.684   1.590  1.00  0.00    -0.646 OA
ENDBRANCH   7  47
TORSDOF 14
ENDMDL
MODEL 5
REMARK VINA RESULT: -7.993561587      3.640      6.071
REMARK  14 active torsions:
REMARK  status: ('A' for Active; 'I' for Inactive)
REMARK       I    between atoms: N1_2  and  C2_4 
REMARK    1  A    between atoms: C2_4  and  C3_6 
REMARK    2  A    between atoms: C3_6  and  O2_7 
REMARK    3  A    between atoms: C3_6  and  C4_9 
REMARK    4  A    between atoms: C4_9  and  O3_10 
REMARK    5  A    between atoms: C4_9  and  C5_12 
REMARK    6  A    between atoms: C5_12  and  O4_13 
REMARK    7  A    between atoms: C5_12  and  C6_15 
REMARK    8  A    between atoms: C7_19  and  O5_20 
REMARK    9  A    between atoms: O5_20  and  C8_21 
REMARK   10  A    between atoms: C10_23  and  O6_24 
REMARK   11  A    between atoms: O6_24  and  C11_25 
REMARK   12  A    between atoms: C13_29  and  O9_31 
REMARK   13  A    between atoms: C15_33  and  N3_34 
REMARK   14  A    between atoms: C19_43  and  C20_44 
ROOT
HETATM    1  C6  UNL     1      28.046   0.956   6.069  1.00  0.00     0.417 C 
HETATM    2  N2  UNL     1      27.713   0.556   4.691  1.00  0.00    -0.017 N 
ATOM      3  H21 UNL     1      27.555   1.341   4.060  1.00  0.00     0.282 HD
ATOM      4  H22 UNL     1      26.788   0.138   4.595  1.00  0.00     0.282 HD
HETATM    5  C7  UNL     1      28.795  -0.316   4.280  1.00  0.00     0.332 C 
HETATM    6  C18 UNL     1      28.647  -1.588   5.080  1.00  0.00     0.106 C 
HETATM    7  C19 UNL     1      28.716  -1.309   6.553  1.00  0.00     0.292 C 
HETATM    8  N7  UNL     1      27.968  -0.161   6.968  1.00  0.00    -0.029 N 
ATOM      9  H71 UNL     1      26.995  -0.414   7.138  1.00  0.00     0.280 HD
ATOM     10  H72 UNL     1      28.242   0.121   7.910  1.00  0.00     0.280 HD
ENDROOT
BRANCH   5  11
HETATM   11  O5  UNL     1      28.949  -0.482   2.924  1.00  0.00    -0.320 OA
BRANCH  11  12
HETATM   12  C8  UNL     1      29.299  -1.650   2.243  1.00  0.00     0.080 C 
HETATM   13  C9  UNL     1      28.342  -2.325   1.672  1.00  0.00     0.068 C 
HETATM   14  C10 UNL     1      28.575  -3.568   0.926  1.00  0.00     0.300 C 
HETATM   15  O8  UNL     1      29.874  -3.963   0.839  1.00  0.00    -0.319 OA
HETATM   16  C13 UNL     1      30.645  -3.638   1.949  1.00  0.00     0.190 C 
HETATM   17  C14 UNL     1      30.161  -4.356   3.184  1.00  0.00     0.082 C 
HETATM   18  C15 UNL     1      30.687  -2.134   2.152  1.00  0.00     0.227 C 
BRANCH  14  19
HETATM   19  O6  UNL     1      27.729  -4.617   1.419  1.00  0.00    -0.286 OA
BRANCH  19  20
HETATM   20  C11 UNL     1      26.836  -5.297   0.629  1.00  0.00     0.257 C 
HETATM   21  C12 UNL     1      25.649  -4.642  -0.002  1.00  0.00     0.126 C 
HETATM   22  O7  UNL     1      27.026  -6.523   0.430  1.00  0.00    -0.266 OA
ENDBRANCH  19  20
ENDBRANCH  14  19
BRANCH  16  23
HETATM   23  O9  UNL     1      31.947  -4.063   1.695  1.00  0.00    -0.363 OA
ATOM     24  H9  UNL     1      32.395  -3.358   1.243  1.00  0.00     0.213 HD
ENDBRANCH  16  23
BRANCH  18  25
HETATM   25  N3  UNL     1      31.475  -1.502   1.125  1.00  0.00    -0.269 N 
HETATM   26  C16 UNL     1      32.270  -0.434   1.314  1.00  0.00     0.159 A 
HETATM   27  C17 UNL     1      32.856  -0.121   0.107  1.00  0.00     0.149 A 
HETATM   28  N4  UNL     1      33.784   0.947  -0.175  1.00  0.00    -0.080 NA
HETATM   29  N5  UNL     1      32.394  -1.017  -0.779  1.00  0.00    -0.272 N 
HETATM   30  N6  UNL     1      31.567  -1.828  -0.130  1.00  0.00    -0.239 N 
ATOM     31  H5  UNL     1      32.634  -1.066  -1.770  1.00  0.00     0.189 HD
ATOM     32  H6  UNL     1      31.069  -2.608  -0.560  1.00  0.00     0.208 HD
ENDBRANCH  18  25
ENDBRANCH  11  12
ENDBRANCH   5  11
BRANCH   1  33
HETATM   33  C5  UNL     1      27.111   2.033   6.546  1.00  0.00     0.208 C 
BRANCH  33  34
HETATM   34  C4  UNL     1      27.931   3.054   7.322  1.00  0.00     0.188 C 
BRANCH  34  35
HETATM   35  C3  UNL     1      27.039   3.901   8.206  1.00  0.00     0.241 C 
BRANCH  35  36
HETATM   36  C2  UNL     1      27.823   4.775   9.101  1.00  0.00     0.248 C 
HETATM   37  N1  UNL     1      27.973   6.160   8.855  1.00  0.00    -0.363 N 
HETATM   38  C1  UNL     1      28.758   7.014   9.756  1.00  0.00     0.149 C 
ATOM     39  H1  UNL     1      27.528   6.574   8.035  1.00  0.00     0.162 HD
HETATM   40  O1  UNL     1      28.380   4.272  10.124  1.00  0.00    -0.271 OA
ENDBRANCH  35  36
BRANCH  35  41
HETATM   41  O2  UNL     1      26.233   3.048   8.928  1.00  0.00    -0.383 OA
ATOM     42  H2  UNL     1      25.438   3.487   9.209  1.00  0.00     0.210 HD
ENDBRANCH  35  41
ENDBRANCH  34  35
BRANCH  34  43
HETATM   43  O3  UNL     1      28.874   2.460   8.120  1.00  0.00    -0.390 OA
ATOM     44  H3  UNL     1      28.543   2.454   9.010  1.00  0.00     0.210 HD
ENDBRANCH  34  43
ENDBRANCH  33  34
BRANCH  33  45
HETATM   45  O4  UNL     1      26.563   2.659   5.403  1.00  0.00    -0.389 OA
ATOM     46  H4  UNL     1      25.750   3.088   5.646  1.00  0.00     0.210 HD
ENDBRANCH  33  45
ENDBRANCH   1  33
BRANCH   7  47
HETATM   47  C20 UNL     1      30.119  -1.152   7.018  1.00  0.00     0.205 C 
HETATM   48  O10 UNL     1      30.964  -2.078   6.878  1.00  0.00    -0.646 OA
HETATM   49  O11 UNL     1      30.586   0.013   7.629  1.00  0.00    -0.646 OA
ENDBRANCH   7  47
TORSDOF 14
ENDMDL
