MODEL 1
REMARK VINA RESULT: -5.042892679      0.000      0.000
REMARK  1 active torsions:
REMARK  status: ('A' for Active; 'I' for Inactive)
REMARK    1  A    between atoms: C1_2  and  C2_4 
REMARK       I    between atoms: N4_11  and  C5_13 
REMARK       I    between atoms: C5_13  and  N5_14 
REMARK       I    between atoms: C5_13  and  N6_18 
ROOT
HETATM    1  C2  UNL     1      12.335  -3.673   4.235  1.00  0.00     0.187 A 
HETATM    2  N2  UNL     1      12.239  -4.445   5.332  1.00  0.00    -0.333 N 
ATOM      3  H2  UNL     1      11.326  -4.561   5.772  1.00  0.00     0.168 HD
HETATM    4  C3  UNL     1      13.308  -5.072   5.873  1.00  0.00     0.199 A 
HETATM    5  N3  UNL     1      14.512  -4.916   5.287  1.00  0.00    -0.188 N 
ATOM      6  H3  UNL     1      15.329  -5.382   5.681  1.00  0.00     0.185 HD
HETATM    7  C4  UNL     1      14.647  -4.154   4.190  1.00  0.00     0.683 A 
HETATM    8  N4  UNL     1      15.824  -4.049   3.684  1.00  0.00    -0.173 N 
ATOM      9  H4  UNL     1      16.583  -4.549   4.147  1.00  0.00     0.181 HD
HETATM   10  C5  UNL     1      16.150  -3.283   2.523  1.00  0.00     0.494 C 
HETATM   11  N5  UNL     1      15.509  -3.673   1.326  1.00  0.00    -0.032 N 
ATOM     12  H51 UNL     1      15.742  -3.126   0.497  1.00  0.00     0.278 HD
ATOM     13  H52 UNL     1      14.499  -3.683   1.462  1.00  0.00     0.278 HD
ATOM     14  H53 UNL     1      15.680  -4.662   1.148  1.00  0.00     0.278 HD
HETATM   15  N6  UNL     1      15.910  -1.868   2.748  1.00  0.00    -0.032 N 
ATOM     16  H61 UNL     1      16.143  -1.321   1.919  1.00  0.00     0.278 HD
ATOM     17  H62 UNL     1      16.404  -1.529   3.574  1.00  0.00     0.278 HD
ATOM     18  H63 UNL     1      14.954  -1.694   3.058  1.00  0.00     0.278 HD
HETATM   19  N7  UNL     1      13.558  -3.551   3.690  1.00  0.00    -0.171 N 
ATOM     20  H7  UNL     1      13.662  -2.971   2.857  1.00  0.00     0.186 HD
ENDROOT
BRANCH   1  21
HETATM   21  C1  UNL     1      11.158  -3.006   3.674  1.00  0.00     0.299 C 
HETATM   22  N1  UNL     1      11.228  -1.974   2.734  1.00  0.00    -0.054 NA
HETATM   23  O1  UNL     1      10.021  -3.383   4.058  1.00  0.00    -0.268 OA
ENDBRANCH   1  21
TORSDOF 1
ENDMDL
MODEL 2
REMARK VINA RESULT: -4.879029983      2.249      2.919
REMARK  1 active torsions:
REMARK  status: ('A' for Active; 'I' for Inactive)
REMARK    1  A    between atoms: C1_2  and  C2_4 
REMARK       I    between atoms: N4_11  and  C5_13 
REMARK       I    between atoms: C5_13  and  N5_14 
REMARK       I    between atoms: C5_13  and  N6_18 
ROOT
HETATM    1  C2  UNL     1      12.973  -5.471   4.483  1.00  0.00     0.187 A 
HETATM    2  N2  UNL     1      12.959  -6.650   3.836  1.00  0.00    -0.333 N 
ATOM      3  H2  UNL     1      12.515  -7.451   4.285  1.00  0.00     0.168 HD
HETATM    4  C3  UNL     1      13.512  -6.812   2.612  1.00  0.00     0.199 A 
HETATM    5  N3  UNL     1      14.096  -5.750   2.023  1.00  0.00    -0.188 N 
ATOM      6  H3  UNL     1      14.517  -5.854   1.100  1.00  0.00     0.185 HD
HETATM    7  C4  UNL     1      14.129  -4.556   2.637  1.00  0.00     0.683 A 
HETATM    8  N4  UNL     1      14.703  -3.588   2.017  1.00  0.00    -0.173 N 
ATOM      9  H4  UNL     1      15.099  -3.785   1.098  1.00  0.00     0.181 HD
HETATM   10  C5  UNL     1      14.830  -2.256   2.519  1.00  0.00     0.494 C 
HETATM   11  N5  UNL     1      13.619  -1.574   2.771  1.00  0.00    -0.032 N 
ATOM     12  H51 UNL     1      13.710  -0.623   3.129  1.00  0.00     0.278 HD
ATOM     13  H52 UNL     1      13.034  -2.126   3.397  1.00  0.00     0.278 HD
ATOM     14  H53 UNL     1      13.039  -1.574   1.932  1.00  0.00     0.278 HD
HETATM   15  N6  UNL     1      15.647  -2.228   3.720  1.00  0.00    -0.032 N 
ATOM     16  H61 UNL     1      15.737  -1.277   4.078  1.00  0.00     0.278 HD
ATOM     17  H62 UNL     1      16.558  -2.660   3.566  1.00  0.00     0.278 HD
ATOM     18  H63 UNL     1      15.291  -2.866   4.432  1.00  0.00     0.278 HD
HETATM   19  N7  UNL     1      13.568  -4.445   3.851  1.00  0.00    -0.171 N 
ATOM     20  H7  UNL     1      13.595  -3.538   4.317  1.00  0.00     0.186 HD
ENDROOT
BRANCH   1  21
HETATM   21  C1  UNL     1      12.367  -5.328   5.808  1.00  0.00     0.299 C 
HETATM   22  N1  UNL     1      11.085  -4.812   6.021  1.00  0.00    -0.054 NA
HETATM   23  O1  UNL     1      13.035  -5.690   6.811  1.00  0.00    -0.268 OA
ENDBRANCH   1  21
TORSDOF 1
ENDMDL
MODEL 3
REMARK VINA RESULT: -4.843477732      1.548      3.500
REMARK  1 active torsions:
REMARK  status: ('A' for Active; 'I' for Inactive)
REMARK    1  A    between atoms: C1_2  and  C2_4 
REMARK       I    between atoms: N4_11  and  C5_13 
REMARK       I    between atoms: C5_13  and  N5_14 
REMARK       I    between atoms: C5_13  and  N6_18 
ROOT
HETATM    1  C2  UNL     1      12.735  -2.419   2.963  1.00  0.00     0.187 A 
HETATM    2  N2  UNL     1      13.851  -1.739   2.644  1.00  0.00    -0.333 N 
ATOM      3  H2  UNL     1      13.787  -0.980   1.966  1.00  0.00     0.168 HD
HETATM    4  C3  UNL     1      15.055  -2.026   3.190  1.00  0.00     0.199 A 
HETATM    5  N3  UNL     1      15.133  -3.031   4.087  1.00  0.00    -0.188 N 
ATOM      6  H3  UNL     1      16.033  -3.261   4.509  1.00  0.00     0.185 HD
HETATM    7  C4  UNL     1      14.041  -3.731   4.430  1.00  0.00     0.683 A 
HETATM    8  N4  UNL     1      14.189  -4.675   5.290  1.00  0.00    -0.173 N 
ATOM      9  H4  UNL     1      15.127  -4.835   5.658  1.00  0.00     0.181 HD
HETATM   10  C5  UNL     1      13.139  -5.518   5.768  1.00  0.00     0.494 C 
HETATM   11  N5  UNL     1      12.084  -4.867   6.444  1.00  0.00    -0.032 N 
ATOM     12  H51 UNL     1      11.335  -5.469   6.786  1.00  0.00     0.278 HD
ATOM     13  H52 UNL     1      11.696  -4.131   5.854  1.00  0.00     0.278 HD
ATOM     14  H53 UNL     1      12.457  -4.308   7.211  1.00  0.00     0.278 HD
HETATM   15  N6  UNL     1      12.586  -6.322   4.692  1.00  0.00    -0.032 N 
ATOM     16  H61 UNL     1      11.837  -6.924   5.033  1.00  0.00     0.278 HD
ATOM     17  H62 UNL     1      13.309  -6.857   4.212  1.00  0.00     0.278 HD
ATOM     18  H63 UNL     1      12.278  -5.743   3.911  1.00  0.00     0.278 HD
HETATM   19  N7  UNL     1      12.869  -3.410   3.861  1.00  0.00    -0.171 N 
ATOM     20  H7  UNL     1      12.040  -3.944   4.122  1.00  0.00     0.186 HD
ENDROOT
BRANCH   1  21
HETATM   21  C1  UNL     1      11.446  -2.084   2.353  1.00  0.00     0.299 C 
HETATM   22  N1  UNL     1      11.139  -0.822   1.835  1.00  0.00    -0.054 NA
HETATM   23  O1  UNL     1      10.566  -2.981   2.291  1.00  0.00    -0.268 OA
ENDBRANCH   1  21
TORSDOF 1
ENDMDL
MODEL 4
REMARK VINA RESULT: -4.759435848      1.886      3.224
REMARK  1 active torsions:
REMARK  status: ('A' for Active; 'I' for Inactive)
REMARK    1  A    between atoms: C1_2  and  C2_4 
REMARK       I    between atoms: N4_11  and  C5_13 
REMARK       I    between atoms: C5_13  and  N5_14 
REMARK       I    between atoms: C5_13  and  N6_18 
ROOT
HETATM    1  C2  UNL     1      12.861  -3.998   4.723  1.00  0.00     0.187 A 
HETATM    2  N2  UNL     1      11.575  -3.716   4.454  1.00  0.00    -0.333 N 
ATOM      3  H2  UNL     1      10.845  -4.216   4.962  1.00  0.00     0.168 HD
HETATM    4  C3  UNL     1      11.212  -2.793   3.533  1.00  0.00     0.199 A 
HETATM    5  N3  UNL     1      12.181  -2.134   2.865  1.00  0.00    -0.188 N 
ATOM      6  H3  UNL     1      11.926  -1.435   2.168  1.00  0.00     0.185 HD
HETATM    7  C4  UNL     1      13.477  -2.388   3.107  1.00  0.00     0.683 A 
HETATM    8  N4  UNL     1      14.346  -1.724   2.433  1.00  0.00    -0.173 N 
ATOM      9  H4  UNL     1      13.999  -1.045   1.755  1.00  0.00     0.181 HD
HETATM   10  C5  UNL     1      15.762  -1.865   2.560  1.00  0.00     0.494 C 
HETATM   11  N5  UNL     1      16.301  -1.566   3.831  1.00  0.00    -0.032 N 
ATOM     12  H51 UNL     1      17.312  -1.666   3.921  1.00  0.00     0.278 HD
ATOM     13  H52 UNL     1      15.831  -2.121   4.546  1.00  0.00     0.278 HD
ATOM     14  H53 UNL     1      16.019  -0.627   4.115  1.00  0.00     0.278 HD
HETATM   15  N6  UNL     1      16.190  -3.197   2.167  1.00  0.00    -0.032 N 
ATOM     16  H61 UNL     1      17.201  -3.298   2.258  1.00  0.00     0.278 HD
ATOM     17  H62 UNL     1      15.871  -3.433   1.228  1.00  0.00     0.278 HD
ATOM     18  H63 UNL     1      15.691  -3.920   2.686  1.00  0.00     0.278 HD
HETATM   19  N7  UNL     1      13.787  -3.313   4.028  1.00  0.00    -0.171 N 
ATOM     20  H7  UNL     1      14.771  -3.507   4.210  1.00  0.00     0.186 HD
ENDROOT
BRANCH   1  21
HETATM   21  C1  UNL     1      13.221  -5.004   5.725  1.00  0.00     0.299 C 
HETATM   22  N1  UNL     1      12.315  -5.537   6.646  1.00  0.00    -0.054 NA
HETATM   23  O1  UNL     1      14.411  -5.411   5.759  1.00  0.00    -0.268 OA
ENDBRANCH   1  21
TORSDOF 1
ENDMDL
MODEL 5
REMARK VINA RESULT: -4.578689163      1.495      3.101
REMARK  1 active torsions:
REMARK  status: ('A' for Active; 'I' for Inactive)
REMARK    1  A    between atoms: C1_2  and  C2_4 
REMARK       I    between atoms: N4_11  and  C5_13 
REMARK       I    between atoms: C5_13  and  N5_14 
REMARK       I    between atoms: C5_13  and  N6_18 
ROOT
HETATM    1  C2  UNL     1      12.024  -3.667   4.173  1.00  0.00     0.187 A 
HETATM    2  N2  UNL     1      10.873  -3.116   3.750  1.00  0.00    -0.333 N 
ATOM      3  H2  UNL     1       9.993  -3.465   4.129  1.00  0.00     0.168 HD
HETATM    4  C3  UNL     1      10.840  -2.116   2.839  1.00  0.00     0.199 A 
HETATM    5  N3  UNL     1      12.007  -1.658   2.341  1.00  0.00    -0.188 N 
ATOM      6  H3  UNL     1      12.000  -0.905   1.654  1.00  0.00     0.185 HD
HETATM    7  C4  UNL     1      13.176  -2.182   2.741  1.00  0.00     0.683 A 
HETATM    8  N4  UNL     1      14.249  -1.698   2.225  1.00  0.00    -0.173 N 
ATOM      9  H4  UNL     1      14.146  -0.946   1.543  1.00  0.00     0.181 HD
HETATM   10  C5  UNL     1      15.574  -2.134   2.533  1.00  0.00     0.494 C 
HETATM   11  N5  UNL     1      15.977  -1.983   3.878  1.00  0.00    -0.032 N 
ATOM     12  H51 UNL     1      16.923  -2.295   4.098  1.00  0.00     0.278 HD
ATOM     13  H52 UNL     1      15.308  -2.446   4.494  1.00  0.00     0.278 HD
ATOM     14  H53 UNL     1      15.854  -1.014   4.170  1.00  0.00     0.278 HD
HETATM   15  N6  UNL     1      15.774  -3.516   2.132  1.00  0.00    -0.032 N 
ATOM     16  H61 UNL     1      16.720  -3.827   2.351  1.00  0.00     0.278 HD
ATOM     17  H62 UNL     1      15.550  -3.658   1.147  1.00  0.00     0.278 HD
ATOM     18  H63 UNL     1      15.071  -4.132   2.540  1.00  0.00     0.278 HD
HETATM   19  N7  UNL     1      13.158  -3.173   3.646  1.00  0.00    -0.171 N 
ATOM     20  H7  UNL     1      14.047  -3.572   3.947  1.00  0.00     0.186 HD
ENDROOT
BRANCH   1  21
HETATM   21  C1  UNL     1      12.027  -4.749   5.160  1.00  0.00     0.299 C 
HETATM   22  N1  UNL     1      13.131  -5.068   5.955  1.00  0.00    -0.054 NA
HETATM   23  O1  UNL     1      10.978  -5.429   5.301  1.00  0.00    -0.268 OA
ENDBRANCH   1  21
TORSDOF 1
ENDMDL
