MODEL 1
REMARK VINA RESULT: -6.323928481      0.000      0.000
REMARK  9 active torsions:
REMARK  status: ('A' for Active; 'I' for Inactive)
REMARK    1  A    between atoms: N1_2  and  C2_3 
REMARK    2  A    between atoms: N1_2  and  C4_7 
REMARK    3  A    between atoms: C2_3  and  C3_4 
REMARK    4  A    between atoms: C3_4  and  O1_5 
REMARK    5  A    between atoms: N3_11  and  C6_13 
REMARK    6  A    between atoms: C6_13  and  C7_14 
REMARK    7  A    between atoms: C7_14  and  N4_15 
REMARK    8  A    between atoms: C10_23  and  C11_24 
REMARK    9  A    between atoms: C12_25  and  N8_26 
ROOT
HETATM    1  C4  UNL     1     -24.439 -16.977   9.958  1.00  0.00     0.686 A 
HETATM    2  N2  UNL     1     -23.843 -17.378  11.140  1.00  0.00    -0.174 N 
ATOM      3  H2  UNL     1     -23.141 -16.760  11.546  1.00  0.00     0.186 HD
HETATM    4  C5  UNL     1     -24.112 -18.501  11.784  1.00  0.00     0.147 A 
HETATM    5  N3  UNL     1     -23.548 -18.860  12.883  1.00  0.00    -0.372 N 
ATOM      6  H3  UNL     1     -23.808 -19.742  13.324  1.00  0.00     0.161 HD
HETATM    7  C9  UNL     1     -25.064 -19.328  11.224  1.00  0.00     0.124 A 
HETATM    8  N7  UNL     1     -25.568 -20.529  11.617  1.00  0.00    -0.329 N 
ATOM      9  H7  UNL     1     -25.294 -21.041  12.455  1.00  0.00     0.168 HD
HETATM   10  C10 UNL     1     -26.493 -20.935  10.712  1.00  0.00     0.165 A 
HETATM   11  N9  UNL     1     -26.553 -19.977   9.766  1.00  0.00    -0.319 N 
ATOM     12  H9  UNL     1     -27.163 -20.000   8.950  1.00  0.00     0.169 HD
HETATM   13  C13 UNL     1     -25.696 -18.993  10.053  1.00  0.00     0.153 A 
HETATM   14  N10 UNL     1     -25.353 -17.803   9.451  1.00  0.00    -0.174 N 
ATOM     15  H10 UNL     1     -25.817 -17.544   8.580  1.00  0.00     0.186 HD
ENDROOT
BRANCH   5  16
HETATM   16  C6  UNL     1     -22.547 -18.016  13.497  1.00  0.00     0.141 C 
BRANCH  16  17
HETATM   17  C7  UNL     1     -21.444 -18.843  14.087  1.00  0.00     0.141 C 
BRANCH  17  18
HETATM   18  N4  UNL     1     -20.830 -18.122  15.185  1.00  0.00    -0.365 N 
HETATM   19  C8  UNL     1     -19.555 -18.016  15.283  1.00  0.00     0.197 C 
HETATM   20  N5  UNL     1     -18.958 -17.311  16.356  1.00  0.00    -0.067 NA
HETATM   21  N6  UNL     1     -18.738 -18.619  14.295  1.00  0.00    -0.067 NA
ATOM     22  H4  UNL     1     -21.424 -17.689  15.894  1.00  0.00     0.161 HD
ENDBRANCH  17  18
ENDBRANCH  16  17
ENDBRANCH   5  16
BRANCH   1  23
HETATM   23  N1  UNL     1     -24.044 -15.768   9.394  1.00  0.00    -0.199 N 
HETATM   24  C1  UNL     1     -22.547 -15.536   9.415  1.00  0.00     0.174 C 
BRANCH  23  25
HETATM   25  C2  UNL     1     -24.729 -14.697   8.807  1.00  0.00     0.107 C 
BRANCH  25  26
HETATM   26  C3  UNL     1     -24.730 -13.331   9.338  1.00  0.00     0.209 C 
BRANCH  26  27
HETATM   27  O1  UNL     1     -23.699 -12.623   8.644  1.00  0.00    -0.396 OA
ATOM     28  H1  UNL     1     -23.153 -12.219   9.309  1.00  0.00     0.209 HD
ENDBRANCH  26  27
ENDBRANCH  25  26
ENDBRANCH  23  25
ENDBRANCH   1  23
BRANCH  10  29
HETATM   29  C11 UNL     1     -27.226 -22.166  10.816  1.00  0.00    -0.007 C 
HETATM   30  C12 UNL     1     -27.845 -23.205  10.886  1.00  0.00     0.012 C 
BRANCH  30  31
HETATM   31  N8  UNL     1     -28.544 -24.417  10.948  1.00  0.00    -0.359 N 
ATOM     32  H82 UNL     1     -27.941 -23.963  10.263  1.00  0.00     0.166 HD
ATOM     33  H81 UNL     1     -29.060 -25.294  11.012  1.00  0.00     0.166 HD
ENDBRANCH  30  31
ENDBRANCH  10  29
TORSDOF 9
ENDMDL
MODEL 2
REMARK VINA RESULT: -6.320741710      1.017      1.454
REMARK  9 active torsions:
REMARK  status: ('A' for Active; 'I' for Inactive)
REMARK    1  A    between atoms: N1_2  and  C2_3 
REMARK    2  A    between atoms: N1_2  and  C4_7 
REMARK    3  A    between atoms: C2_3  and  C3_4 
REMARK    4  A    between atoms: C3_4  and  O1_5 
REMARK    5  A    between atoms: N3_11  and  C6_13 
REMARK    6  A    between atoms: C6_13  and  C7_14 
REMARK    7  A    between atoms: C7_14  and  N4_15 
REMARK    8  A    between atoms: C10_23  and  C11_24 
REMARK    9  A    between atoms: C12_25  and  N8_26 
ROOT
HETATM    1  C4  UNL     1     -24.298 -16.834   9.935  1.00  0.00     0.686 A 
HETATM    2  N2  UNL     1     -23.717 -17.239  11.123  1.00  0.00    -0.174 N 
ATOM      3  H2  UNL     1     -23.004 -16.632  11.528  1.00  0.00     0.186 HD
HETATM    4  C5  UNL     1     -24.012 -18.351  11.773  1.00  0.00     0.147 A 
HETATM    5  N3  UNL     1     -23.462 -18.713  12.878  1.00  0.00    -0.372 N 
ATOM      6  H3  UNL     1     -23.742 -19.587  13.324  1.00  0.00     0.161 HD
HETATM    7  C9  UNL     1     -24.977 -19.163  11.214  1.00  0.00     0.124 A 
HETATM    8  N7  UNL     1     -25.508 -20.350  11.612  1.00  0.00    -0.329 N 
ATOM      9  H7  UNL     1     -25.249 -20.862  12.455  1.00  0.00     0.168 HD
HETATM   10  C10 UNL     1     -26.436 -20.743  10.705  1.00  0.00     0.165 A 
HETATM   11  N9  UNL     1     -26.471 -19.792   9.752  1.00  0.00    -0.319 N 
ATOM     12  H9  UNL     1     -27.077 -19.808   8.932  1.00  0.00     0.169 HD
HETATM   13  C13 UNL     1     -25.596 -18.823  10.036  1.00  0.00     0.153 A 
HETATM   14  N10 UNL     1     -25.225 -17.645   9.428  1.00  0.00    -0.174 N 
ATOM     15  H10 UNL     1     -25.679 -17.383   8.553  1.00  0.00     0.186 HD
ENDROOT
BRANCH   5  16
HETATM   16  C6  UNL     1     -22.447 -17.886  13.492  1.00  0.00     0.141 C 
BRANCH  16  17
HETATM   17  C7  UNL     1     -21.390 -18.731  14.138  1.00  0.00     0.141 C 
BRANCH  17  18
HETATM   18  N4  UNL     1     -20.836 -18.028  15.279  1.00  0.00    -0.365 N 
HETATM   19  C8  UNL     1     -19.568 -17.885  15.421  1.00  0.00     0.197 C 
HETATM   20  N5  UNL     1     -19.029 -17.198  16.536  1.00  0.00    -0.067 NA
HETATM   21  N6  UNL     1     -18.702 -18.428  14.441  1.00  0.00    -0.067 NA
ATOM     22  H4  UNL     1     -21.465 -17.639  15.981  1.00  0.00     0.161 HD
ENDBRANCH  17  18
ENDBRANCH  16  17
ENDBRANCH   5  16
BRANCH   1  23
HETATM   23  N1  UNL     1     -23.875 -15.637   9.364  1.00  0.00    -0.199 N 
HETATM   24  C1  UNL     1     -25.004 -14.706   8.972  1.00  0.00     0.174 C 
BRANCH  23  25
HETATM   25  C2  UNL     1     -22.621 -15.092   9.061  1.00  0.00     0.107 C 
BRANCH  25  26
HETATM   26  C3  UNL     1     -21.583 -15.791   8.298  1.00  0.00     0.209 C 
BRANCH  26  27
HETATM   27  O1  UNL     1     -20.430 -15.855   9.142  1.00  0.00    -0.396 OA
ATOM     28  H1  UNL     1     -20.170 -16.768   9.178  1.00  0.00     0.209 HD
ENDBRANCH  26  27
ENDBRANCH  25  26
ENDBRANCH  23  25
ENDBRANCH   1  23
BRANCH  10  29
HETATM   29  C11 UNL     1     -27.195 -21.958  10.814  1.00  0.00    -0.007 C 
HETATM   30  C12 UNL     1     -27.826 -22.990  10.891  1.00  0.00     0.012 C 
BRANCH  30  31
HETATM   31  N8  UNL     1     -28.532 -24.196  10.977  1.00  0.00    -0.359 N 
ATOM     32  H82 UNL     1     -28.088 -23.668  10.226  1.00  0.00     0.166 HD
ATOM     33  H81 UNL     1     -29.049 -25.071  11.060  1.00  0.00     0.166 HD
ENDBRANCH  30  31
ENDBRANCH  10  29
TORSDOF 9
ENDMDL
MODEL 3
REMARK VINA RESULT: -6.241490807      1.068      1.338
REMARK  9 active torsions:
REMARK  status: ('A' for Active; 'I' for Inactive)
REMARK    1  A    between atoms: N1_2  and  C2_3 
REMARK    2  A    between atoms: N1_2  and  C4_7 
REMARK    3  A    between atoms: C2_3  and  C3_4 
REMARK    4  A    between atoms: C3_4  and  O1_5 
REMARK    5  A    between atoms: N3_11  and  C6_13 
REMARK    6  A    between atoms: C6_13  and  C7_14 
REMARK    7  A    between atoms: C7_14  and  N4_15 
REMARK    8  A    between atoms: C10_23  and  C11_24 
REMARK    9  A    between atoms: C12_25  and  N8_26 
ROOT
HETATM    1  C4  UNL     1     -25.344 -17.598   9.718  1.00  0.00     0.686 A 
HETATM    2  N2  UNL     1     -24.582 -17.890  10.834  1.00  0.00    -0.174 N 
ATOM      3  H2  UNL     1     -23.833 -17.240  11.075  1.00  0.00     0.186 HD
HETATM    4  C5  UNL     1     -24.746 -18.944  11.614  1.00  0.00     0.147 A 
HETATM    5  N3  UNL     1     -24.028 -19.201  12.650  1.00  0.00    -0.372 N 
ATOM      6  H3  UNL     1     -24.216 -20.036  13.204  1.00  0.00     0.161 HD
HETATM    7  C9  UNL     1     -25.763 -19.815  11.277  1.00  0.00     0.124 A 
HETATM    8  N7  UNL     1     -26.196 -20.970  11.849  1.00  0.00    -0.329 N 
ATOM      9  H7  UNL     1     -25.801 -21.402  12.684  1.00  0.00     0.168 HD
HETATM   10  C10 UNL     1     -27.238 -21.454  11.130  1.00  0.00     0.165 A 
HETATM   11  N9  UNL     1     -27.440 -20.590  10.116  1.00  0.00    -0.319 N 
ATOM     12  H9  UNL     1     -28.161 -20.687   9.401  1.00  0.00     0.169 HD
HETATM   13  C13 UNL     1     -26.559 -19.588  10.182  1.00  0.00     0.153 A 
HETATM   14  N10 UNL     1     -26.314 -18.463   9.427  1.00  0.00    -0.174 N 
ATOM     15  H10 UNL     1     -26.901 -18.285   8.611  1.00  0.00     0.186 HD
ENDROOT
BRANCH   5  16
HETATM   16  C6  UNL     1     -22.956 -18.309  13.031  1.00  0.00     0.141 C 
BRANCH  16  17
HETATM   17  C7  UNL     1     -21.770 -19.083  13.524  1.00  0.00     0.141 C 
BRANCH  17  18
HETATM   18  N4  UNL     1     -21.261 -18.472  14.736  1.00  0.00    -0.365 N 
HETATM   19  C8  UNL     1     -20.025 -18.576  15.066  1.00  0.00     0.197 C 
HETATM   20  N5  UNL     1     -19.530 -17.978  16.251  1.00  0.00    -0.067 NA
HETATM   21  N6  UNL     1     -19.148 -19.304  14.225  1.00  0.00    -0.067 NA
ATOM     22  H4  UNL     1     -21.897 -17.948  15.338  1.00  0.00     0.161 HD
ENDBRANCH  17  18
ENDBRANCH  16  17
ENDBRANCH   5  16
BRANCH   1  23
HETATM   23  N1  UNL     1     -25.043 -16.450   8.991  1.00  0.00    -0.199 N 
HETATM   24  C1  UNL     1     -26.255 -15.621   8.615  1.00  0.00     0.174 C 
BRANCH  23  25
HETATM   25  C2  UNL     1     -23.855 -15.882   8.516  1.00  0.00     0.107 C 
BRANCH  25  26
HETATM   26  C3  UNL     1     -22.972 -15.031   9.318  1.00  0.00     0.209 C 
BRANCH  26  27
HETATM   27  O1  UNL     1     -23.037 -13.721   8.747  1.00  0.00    -0.396 OA
ATOM     28  H1  UNL     1     -23.056 -13.109   9.473  1.00  0.00     0.209 HD
ENDBRANCH  26  27
ENDBRANCH  25  26
ENDBRANCH  23  25
ENDBRANCH   1  23
BRANCH  10  29
HETATM   29  C11 UNL     1     -27.939 -22.665  11.454  1.00  0.00    -0.007 C 
HETATM   30  C12 UNL     1     -28.524 -23.694  11.712  1.00  0.00     0.012 C 
BRANCH  30  31
HETATM   31  N8  UNL     1     -29.178 -24.898  12.005  1.00  0.00    -0.359 N 
ATOM     32  H82 UNL     1     -28.205 -24.604  11.918  1.00  0.00     0.166 HD
ATOM     33  H81 UNL     1     -29.672 -25.765  12.216  1.00  0.00     0.166 HD
ENDBRANCH  30  31
ENDBRANCH  10  29
TORSDOF 9
ENDMDL
MODEL 4
REMARK VINA RESULT: -5.867033815     10.241     15.659
REMARK  9 active torsions:
REMARK  status: ('A' for Active; 'I' for Inactive)
REMARK    1  A    between atoms: N1_2  and  C2_3 
REMARK    2  A    between atoms: N1_2  and  C4_7 
REMARK    3  A    between atoms: C2_3  and  C3_4 
REMARK    4  A    between atoms: C3_4  and  O1_5 
REMARK    5  A    between atoms: N3_11  and  C6_13 
REMARK    6  A    between atoms: C6_13  and  C7_14 
REMARK    7  A    between atoms: C7_14  and  N4_15 
REMARK    8  A    between atoms: C10_23  and  C11_24 
REMARK    9  A    between atoms: C12_25  and  N8_26 
ROOT
HETATM    1  C4  UNL     1     -19.690  -9.851  22.091  1.00  0.00     0.686 A 
HETATM    2  N2  UNL     1     -19.363 -10.187  20.791  1.00  0.00    -0.174 N 
ATOM      3  H2  UNL     1     -20.051 -10.718  20.255  1.00  0.00     0.186 HD
HETATM    4  C5  UNL     1     -18.230  -9.876  20.187  1.00  0.00     0.147 A 
HETATM    5  N3  UNL     1     -17.941 -10.197  18.975  1.00  0.00    -0.372 N 
ATOM      6  H3  UNL     1     -17.043  -9.920  18.575  1.00  0.00     0.161 HD
HETATM    7  C9  UNL     1     -17.308  -9.158  20.922  1.00  0.00     0.124 A 
HETATM    8  N7  UNL     1     -16.071  -8.685  20.615  1.00  0.00    -0.329 N 
ATOM      9  H7  UNL     1     -15.598  -8.800  19.718  1.00  0.00     0.168 HD
HETATM   10  C10 UNL     1     -15.567  -8.036  21.693  1.00  0.00     0.165 A 
HETATM   11  N9  UNL     1     -16.501  -8.115  22.661  1.00  0.00    -0.319 N 
ATOM     12  H9  UNL     1     -16.410  -7.717  23.596  1.00  0.00     0.169 HD
HETATM   13  C13 UNL     1     -17.566  -8.790  22.219  1.00  0.00     0.153 A 
HETATM   14  N10 UNL     1     -18.774  -9.158  22.767  1.00  0.00    -0.174 N 
ATOM     15  H10 UNL     1     -18.976  -8.889  23.730  1.00  0.00     0.186 HD
ENDROOT
BRANCH   5  16
HETATM   16  C6  UNL     1     -18.883 -10.948  18.176  1.00  0.00     0.141 C 
BRANCH  16  17
HETATM   17  C7  UNL     1     -18.322 -11.229  16.814  1.00  0.00     0.141 C 
BRANCH  17  18
HETATM   18  N4  UNL     1     -18.736 -12.549  16.381  1.00  0.00    -0.365 N 
HETATM   19  C8  UNL     1     -19.417 -12.715  15.306  1.00  0.00     0.197 C 
HETATM   20  N5  UNL     1     -19.821 -14.005  14.885  1.00  0.00    -0.067 NA
HETATM   21  N6  UNL     1     -19.766 -11.580  14.533  1.00  0.00    -0.067 NA
ATOM     22  H4  UNL     1     -18.481 -13.363  16.942  1.00  0.00     0.161 HD
ENDBRANCH  17  18
ENDBRANCH  16  17
ENDBRANCH   5  16
BRANCH   1  23
HETATM   23  N1  UNL     1     -20.923 -10.258  22.591  1.00  0.00    -0.199 N 
HETATM   24  C1  UNL     1     -21.614  -9.220  23.454  1.00  0.00     0.174 C 
BRANCH  23  25
HETATM   25  C2  UNL     1     -21.680 -11.430  22.481  1.00  0.00     0.107 C 
BRANCH  25  26
HETATM   26  C3  UNL     1     -21.452 -12.636  23.282  1.00  0.00     0.209 C 
BRANCH  26  27
HETATM   27  O1  UNL     1     -22.249 -13.671  22.699  1.00  0.00    -0.396 OA
ATOM     28  H1  UNL     1     -23.156 -13.436  22.857  1.00  0.00     0.209 HD
ENDBRANCH  26  27
ENDBRANCH  25  26
ENDBRANCH  23  25
ENDBRANCH   1  23
BRANCH  10  29
HETATM   29  C11 UNL     1     -14.274  -7.412  21.718  1.00  0.00    -0.007 C 
HETATM   30  C12 UNL     1     -13.176  -6.900  21.733  1.00  0.00     0.012 C 
BRANCH  30  31
HETATM   31  N8  UNL     1     -11.903  -6.316  21.724  1.00  0.00    -0.359 N 
ATOM     32  H82 UNL     1     -12.849  -5.995  21.519  1.00  0.00     0.166 HD
ATOM     33  H81 UNL     1     -10.968  -5.909  21.723  1.00  0.00     0.166 HD
ENDBRANCH  30  31
ENDBRANCH  10  29
TORSDOF 9
ENDMDL
MODEL 5
REMARK VINA RESULT: -5.520396797      3.764      6.402
REMARK  9 active torsions:
REMARK  status: ('A' for Active; 'I' for Inactive)
REMARK    1  A    between atoms: N1_2  and  C2_3 
REMARK    2  A    between atoms: N1_2  and  C4_7 
REMARK    3  A    between atoms: C2_3  and  C3_4 
REMARK    4  A    between atoms: C3_4  and  O1_5 
REMARK    5  A    between atoms: N3_11  and  C6_13 
REMARK    6  A    between atoms: C6_13  and  C7_14 
REMARK    7  A    between atoms: C7_14  and  N4_15 
REMARK    8  A    between atoms: C10_23  and  C11_24 
REMARK    9  A    between atoms: C12_25  and  N8_26 
ROOT
HETATM    1  C4  UNL     1     -27.895 -20.732  11.732  1.00  0.00     0.686 A 
HETATM    2  N2  UNL     1     -26.638 -20.170  11.860  1.00  0.00    -0.174 N 
ATOM      3  H2  UNL     1     -25.980 -20.628  12.491  1.00  0.00     0.186 HD
HETATM    4  C5  UNL     1     -26.221 -19.087  11.228  1.00  0.00     0.147 A 
HETATM    5  N3  UNL     1     -25.047 -18.577  11.357  1.00  0.00    -0.372 N 
ATOM      6  H3  UNL     1     -24.797 -17.737  10.835  1.00  0.00     0.161 HD
HETATM    7  C9  UNL     1     -27.120 -18.477  10.376  1.00  0.00     0.124 A 
HETATM    8  N7  UNL     1     -27.021 -17.373   9.589  1.00  0.00    -0.329 N 
ATOM      9  H7  UNL     1     -26.197 -16.779   9.503  1.00  0.00     0.168 HD
HETATM   10  C10 UNL     1     -28.196 -17.189   8.937  1.00  0.00     0.165 A 
HETATM   11  N9  UNL     1     -29.013 -18.186   9.329  1.00  0.00    -0.319 N 
ATOM     12  H9  UNL     1     -29.972 -18.316   9.007  1.00  0.00     0.169 HD
HETATM   13  C13 UNL     1     -28.386 -18.981  10.201  1.00  0.00     0.153 A 
HETATM   14  N10 UNL     1     -28.733 -20.114  10.901  1.00  0.00    -0.174 N 
ATOM     15  H10 UNL     1     -29.671 -20.497  10.778  1.00  0.00     0.186 HD
ENDROOT
BRANCH   5  16
HETATM   16  C6  UNL     1     -24.081 -19.190  12.240  1.00  0.00     0.141 C 
BRANCH  16  17
HETATM   17  C7  UNL     1     -23.115 -18.169  12.763  1.00  0.00     0.141 C 
BRANCH  17  18
HETATM   18  N4  UNL     1     -22.124 -18.820  13.598  1.00  0.00    -0.365 N 
HETATM   19  C8  UNL     1     -20.894 -18.893  13.238  1.00  0.00     0.197 C 
HETATM   20  N5  UNL     1     -19.928 -19.530  14.055  1.00  0.00    -0.067 NA
HETATM   21  N6  UNL     1     -20.506 -18.323  12.001  1.00  0.00    -0.067 NA
ATOM     22  H4  UNL     1     -22.410 -19.229  14.488  1.00  0.00     0.161 HD
ENDBRANCH  17  18
ENDBRANCH  16  17
ENDBRANCH   5  16
BRANCH   1  23
HETATM   23  N1  UNL     1     -28.189 -21.873  12.472  1.00  0.00    -0.199 N 
HETATM   24  C1  UNL     1     -28.787 -21.589  13.835  1.00  0.00     0.174 C 
BRANCH  23  25
HETATM   25  C2  UNL     1     -28.050 -23.247  12.240  1.00  0.00     0.107 C 
BRANCH  25  26
HETATM   26  C3  UNL     1     -27.689 -23.830  10.945  1.00  0.00     0.209 C 
BRANCH  26  27
HETATM   27  O1  UNL     1     -28.090 -25.203  10.989  1.00  0.00    -0.396 OA
ATOM     28  H1  UNL     1     -28.284 -25.399  11.898  1.00  0.00     0.209 HD
ENDBRANCH  26  27
ENDBRANCH  25  26
ENDBRANCH  23  25
ENDBRANCH   1  23
BRANCH  10  29
HETATM   29  C11 UNL     1     -28.441 -16.111   8.020  1.00  0.00    -0.007 C 
HETATM   30  C12 UNL     1     -28.665 -15.207   7.246  1.00  0.00     0.012 C 
BRANCH  30  31
HETATM   31  N8  UNL     1     -28.946 -14.155   6.365  1.00  0.00    -0.359 N 
ATOM     32  H82 UNL     1     -28.203 -14.363   7.032  1.00  0.00     0.166 HD
ATOM     33  H81 UNL     1     -29.168 -13.399   5.718  1.00  0.00     0.166 HD
ENDBRANCH  30  31
ENDBRANCH  10  29
TORSDOF 9
ENDMDL
