MODEL 1
REMARK VINA RESULT: -8.091141234      0.000      0.000
REMARK  10 active torsions:
REMARK  status: ('A' for Active; 'I' for Inactive)
REMARK    1  A    between atoms: C2_2  and  C4_10 
REMARK    2  A    between atoms: N1_3  and  N2_5 
REMARK    3  A    between atoms: C5_12  and  N5_13 
REMARK    4  A    between atoms: N5_13  and  C6_15 
REMARK    5  A    between atoms: C6_15  and  C7_16 
REMARK    6  A    between atoms: C7_16  and  N6_17 
REMARK       I    between atoms: N6_17  and  C8_19 
REMARK    7  A    between atoms: C8_19  and  C9_21 
REMARK    8  A    between atoms: C9_21  and  N7_22 
REMARK    9  A    between atoms: C9_21  and  C10_26 
REMARK   10  A    between atoms: C10_26  and  N8_27 
ROOT
HETATM    1  N5  UNL     1     -18.657 -14.156  15.871  1.00  0.00    -0.369 N 
ATOM      2  H5  UNL     1     -18.097 -14.096  16.721  1.00  0.00     0.161 HD
ENDROOT
BRANCH   1   3
HETATM    3  C5  UNL     1     -19.120 -15.298  15.405  1.00  0.00     0.146 A 
HETATM    4  S1  UNL     1     -20.040 -15.604  13.999  1.00  0.00    -0.049 SA
HETATM    5  C4  UNL     1     -20.197 -17.299  14.164  1.00  0.00     0.073 A 
HETATM    6  C11 UNL     1     -19.511 -17.532  15.326  1.00  0.00     0.137 A 
HETATM    7  N9  UNL     1     -18.977 -16.513  15.934  1.00  0.00    -0.324 N 
HETATM    8  N10 UNL     1     -19.408 -18.896  15.829  1.00  0.00    -0.081 NA
ATOM      9  H9  UNL     1     -18.458 -16.643  16.802  1.00  0.00     0.169 HD
BRANCH   5  10
HETATM   10  C2  UNL     1     -20.888 -18.224  13.280  1.00  0.00     0.042 C 
HETATM   11  C1  UNL     1     -20.154 -19.169  12.427  1.00  0.00     0.071 C 
HETATM   12  N1  UNL     1     -22.167 -18.202  13.253  1.00  0.00    -0.302 N 
ATOM     13  H1  UNL     1     -22.638 -17.530  13.859  1.00  0.00     0.186 HD
BRANCH  12  14
HETATM   14  N2  UNL     1     -22.958 -19.011  12.472  1.00  0.00    -0.276 N 
HETATM   15  C3  UNL     1     -24.238 -18.977  12.424  1.00  0.00     0.215 C 
HETATM   16  N3  UNL     1     -25.014 -18.069  13.199  1.00  0.00    -0.065 NA
HETATM   17  N4  UNL     1     -24.934 -19.869  11.574  1.00  0.00    -0.065 NA
ATOM     18  H2  UNL     1     -22.486 -19.696  11.881  1.00  0.00     0.189 HD
ENDBRANCH  12  14
ENDBRANCH   5  10
ENDBRANCH   1   3
BRANCH   1  19
HETATM   19  C6  UNL     1     -19.010 -12.976  15.069  1.00  0.00     0.141 C 
BRANCH  19  20
HETATM   20  C7  UNL     1     -19.285 -11.857  16.049  1.00  0.00     0.142 C 
BRANCH  20  21
HETATM   21  N6  UNL     1     -18.108 -11.719  16.889  1.00  0.00    -0.358 N 
HETATM   22  C8  UNL     1     -18.290 -11.034  18.128  1.00  0.00     0.250 C 
HETATM   23  O1  UNL     1     -19.397 -10.567  18.494  1.00  0.00    -0.271 OA
ATOM     24  H6  UNL     1     -17.201 -12.091  16.608  1.00  0.00     0.162 HD
BRANCH  22  25
HETATM   25  C9  UNL     1     -17.098 -10.883  19.005  1.00  0.00     0.299 C 
BRANCH  25  26
HETATM   26  N7  UNL     1     -16.787 -12.127  19.677  1.00  0.00    -0.065 N 
ATOM     27  H73 UNL     1     -17.185 -12.929  19.188  1.00  0.00     0.275 HD
ATOM     28  H72 UNL     1     -15.800 -12.367  19.589  1.00  0.00     0.275 HD
ATOM     29  H71 UNL     1     -17.082 -12.098  20.653  1.00  0.00     0.275 HD
ENDBRANCH  25  26
BRANCH  25  30
HETATM   30  C10 UNL     1     -17.381  -9.776  19.997  1.00  0.00     0.272 C 
BRANCH  30  31
HETATM   31  N8  UNL     1     -16.323  -8.802  20.027  1.00  0.00    -0.077 N 
ATOM     32  H83 UNL     1     -16.281  -8.326  20.928  1.00  0.00     0.274 HD
ATOM     33  H82 UNL     1     -15.406  -9.249  20.041  1.00  0.00     0.274 HD
ATOM     34  H81 UNL     1     -16.399  -8.136  19.258  1.00  0.00     0.274 HD
ENDBRANCH  30  31
ENDBRANCH  25  30
ENDBRANCH  22  25
ENDBRANCH  20  21
ENDBRANCH  19  20
ENDBRANCH   1  19
TORSDOF 10
ENDMDL
MODEL 2
REMARK VINA RESULT: -8.002280810      1.000      1.174
REMARK  10 active torsions:
REMARK  status: ('A' for Active; 'I' for Inactive)
REMARK    1  A    between atoms: C2_2  and  C4_10 
REMARK    2  A    between atoms: N1_3  and  N2_5 
REMARK    3  A    between atoms: C5_12  and  N5_13 
REMARK    4  A    between atoms: N5_13  and  C6_15 
REMARK    5  A    between atoms: C6_15  and  C7_16 
REMARK    6  A    between atoms: C7_16  and  N6_17 
REMARK       I    between atoms: N6_17  and  C8_19 
REMARK    7  A    between atoms: C8_19  and  C9_21 
REMARK    8  A    between atoms: C9_21  and  N7_22 
REMARK    9  A    between atoms: C9_21  and  C10_26 
REMARK   10  A    between atoms: C10_26  and  N8_27 
ROOT
HETATM    1  N5  UNL     1     -18.644 -13.851  15.989  1.00  0.00    -0.369 N 
ATOM      2  H5  UNL     1     -17.846 -13.762  16.618  1.00  0.00     0.161 HD
ENDROOT
BRANCH   1   3
HETATM    3  C5  UNL     1     -19.065 -15.013  15.536  1.00  0.00     0.146 A 
HETATM    4  S1  UNL     1     -19.944 -15.372  14.116  1.00  0.00    -0.049 SA
HETATM    5  C4  UNL     1     -20.057 -17.068  14.312  1.00  0.00     0.073 A 
HETATM    6  C11 UNL     1     -19.391 -17.259  15.493  1.00  0.00     0.137 A 
HETATM    7  N9  UNL     1     -18.900 -16.214  16.092  1.00  0.00    -0.324 N 
HETATM    8  N10 UNL     1     -19.261 -18.610  16.024  1.00  0.00    -0.081 NA
ATOM      9  H9  UNL     1     -18.396 -16.312  16.973  1.00  0.00     0.169 HD
BRANCH   5  10
HETATM   10  C2  UNL     1     -20.702 -18.028  13.431  1.00  0.00     0.042 C 
HETATM   11  C1  UNL     1     -19.925 -18.993  12.640  1.00  0.00     0.071 C 
HETATM   12  N1  UNL     1     -21.979 -18.023  13.351  1.00  0.00    -0.302 N 
ATOM     13  H1  UNL     1     -22.481 -17.337  13.916  1.00  0.00     0.186 HD
BRANCH  12  14
HETATM   14  N2  UNL     1     -22.729 -18.865  12.566  1.00  0.00    -0.276 N 
HETATM   15  C3  UNL     1     -24.009 -18.879  12.501  1.00  0.00     0.215 C 
HETATM   16  N3  UNL     1     -24.828 -17.994  13.259  1.00  0.00    -0.065 NA
HETATM   17  N4  UNL     1     -24.661 -19.801  11.649  1.00  0.00    -0.065 NA
ATOM     18  H2  UNL     1     -22.225 -19.536  11.987  1.00  0.00     0.189 HD
ENDBRANCH  12  14
ENDBRANCH   5  10
ENDBRANCH   1   3
BRANCH   1  19
HETATM   19  C6  UNL     1     -19.415 -12.691  15.516  1.00  0.00     0.141 C 
BRANCH  19  20
HETATM   20  C7  UNL     1     -18.608 -11.463  15.877  1.00  0.00     0.142 C 
BRANCH  20  21
HETATM   21  N6  UNL     1     -18.851 -11.183  17.281  1.00  0.00    -0.358 N 
HETATM   22  C8  UNL     1     -17.704 -11.158  18.131  1.00  0.00     0.250 C 
HETATM   23  O1  UNL     1     -16.539 -11.363  17.710  1.00  0.00    -0.271 OA
ATOM     24  H6  UNL     1     -19.791 -11.014  17.641  1.00  0.00     0.162 HD
BRANCH  22  25
HETATM   25  C9  UNL     1     -17.930 -10.872  19.573  1.00  0.00     0.299 C 
BRANCH  25  26
HETATM   26  N7  UNL     1     -17.787  -9.458  19.850  1.00  0.00    -0.065 N 
ATOM     27  H73 UNL     1     -16.833  -9.137  19.687  1.00  0.00     0.275 HD
ATOM     28  H72 UNL     1     -18.264  -8.887  19.151  1.00  0.00     0.275 HD
ATOM     29  H71 UNL     1     -18.102  -9.237  20.795  1.00  0.00     0.275 HD
ENDBRANCH  25  26
BRANCH  25  30
HETATM   30  C10 UNL     1     -16.943 -11.693  20.375  1.00  0.00     0.272 C 
BRANCH  30  31
HETATM   31  N8  UNL     1     -15.794 -10.918  20.762  1.00  0.00    -0.077 N 
ATOM     32  H83 UNL     1     -14.972 -11.509  20.885  1.00  0.00     0.274 HD
ATOM     33  H82 UNL     1     -15.460 -10.339  19.992  1.00  0.00     0.274 HD
ATOM     34  H81 UNL     1     -15.977 -10.359  21.594  1.00  0.00     0.274 HD
ENDBRANCH  30  31
ENDBRANCH  25  30
ENDBRANCH  22  25
ENDBRANCH  20  21
ENDBRANCH  19  20
ENDBRANCH   1  19
TORSDOF 10
ENDMDL
MODEL 3
REMARK VINA RESULT: -7.687807990      1.368      1.689
REMARK  10 active torsions:
REMARK  status: ('A' for Active; 'I' for Inactive)
REMARK    1  A    between atoms: C2_2  and  C4_10 
REMARK    2  A    between atoms: N1_3  and  N2_5 
REMARK    3  A    between atoms: C5_12  and  N5_13 
REMARK    4  A    between atoms: N5_13  and  C6_15 
REMARK    5  A    between atoms: C6_15  and  C7_16 
REMARK    6  A    between atoms: C7_16  and  N6_17 
REMARK       I    between atoms: N6_17  and  C8_19 
REMARK    7  A    between atoms: C8_19  and  C9_21 
REMARK    8  A    between atoms: C9_21  and  N7_22 
REMARK    9  A    between atoms: C9_21  and  C10_26 
REMARK   10  A    between atoms: C10_26  and  N8_27 
ROOT
HETATM    1  N5  UNL     1     -18.448 -13.109  16.721  1.00  0.00    -0.369 N 
ATOM      2  H5  UNL     1     -17.817 -13.143  17.522  1.00  0.00     0.161 HD
ENDROOT
BRANCH   1   3
HETATM    3  C5  UNL     1     -18.887 -14.193  16.116  1.00  0.00     0.146 A 
HETATM    4  S1  UNL     1     -19.716 -14.348  14.631  1.00  0.00    -0.049 SA
HETATM    5  C4  UNL     1     -19.893 -16.049  14.618  1.00  0.00     0.073 A 
HETATM    6  C11 UNL     1     -19.285 -16.403  15.793  1.00  0.00     0.137 A 
HETATM    7  N9  UNL     1     -18.786 -15.456  16.531  1.00  0.00    -0.324 N 
HETATM    8  N10 UNL     1     -19.223 -17.812  16.164  1.00  0.00    -0.081 NA
ATOM      9  H9  UNL     1     -18.324 -15.676  17.413  1.00  0.00     0.169 HD
BRANCH   5  10
HETATM   10  C2  UNL     1     -20.531 -16.874  13.605  1.00  0.00     0.042 C 
HETATM   11  C1  UNL     1     -20.386 -16.585  12.171  1.00  0.00     0.071 C 
HETATM   12  N1  UNL     1     -21.235 -17.873  13.984  1.00  0.00    -0.302 N 
ATOM     13  H1  UNL     1     -21.311 -18.038  14.988  1.00  0.00     0.186 HD
BRANCH  12  14
HETATM   14  N2  UNL     1     -21.897 -18.741  13.149  1.00  0.00    -0.276 N 
HETATM   15  C3  UNL     1     -23.147 -18.695  12.868  1.00  0.00     0.215 C 
HETATM   16  N3  UNL     1     -24.022 -17.709  13.405  1.00  0.00    -0.065 NA
HETATM   17  N4  UNL     1     -23.706 -19.654  11.989  1.00  0.00    -0.065 NA
ATOM     18  H2  UNL     1     -21.348 -19.484  12.717  1.00  0.00     0.189 HD
ENDBRANCH  12  14
ENDBRANCH   5  10
ENDBRANCH   1   3
BRANCH   1  19
HETATM   19  C6  UNL     1     -18.938 -11.845  16.151  1.00  0.00     0.141 C 
BRANCH  19  20
HETATM   20  C7  UNL     1     -19.387 -10.993  17.318  1.00  0.00     0.142 C 
BRANCH  20  21
HETATM   21  N6  UNL     1     -18.219 -10.736  18.141  1.00  0.00    -0.358 N 
HETATM   22  C8  UNL     1     -18.469 -10.338  19.489  1.00  0.00     0.250 C 
HETATM   23  O1  UNL     1     -19.625 -10.210  19.960  1.00  0.00    -0.271 OA
ATOM     24  H6  UNL     1     -17.272 -10.834  17.775  1.00  0.00     0.162 HD
BRANCH  22  25
HETATM   25  C9  UNL     1     -17.285 -10.070  20.350  1.00  0.00     0.299 C 
BRANCH  25  26
HETATM   26  N7  UNL     1     -16.385  -9.130  19.716  1.00  0.00    -0.065 N 
ATOM     27  H73 UNL     1     -16.796  -8.198  19.656  1.00  0.00     0.275 HD
ATOM     28  H72 UNL     1     -15.588  -8.909  20.314  1.00  0.00     0.275 HD
ATOM     29  H71 UNL     1     -16.087  -9.469  18.802  1.00  0.00     0.275 HD
ENDBRANCH  25  26
BRANCH  25  30
HETATM   30  C10 UNL     1     -16.598 -11.390  20.628  1.00  0.00     0.272 C 
BRANCH  30  31
HETATM   31  N8  UNL     1     -15.810 -11.339  21.831  1.00  0.00    -0.077 N 
ATOM     32  H83 UNL     1     -15.385 -10.422  21.958  1.00  0.00     0.274 HD
ATOM     33  H82 UNL     1     -16.401 -11.357  22.662  1.00  0.00     0.274 HD
ATOM     34  H81 UNL     1     -15.110 -12.081  21.857  1.00  0.00     0.274 HD
ENDBRANCH  30  31
ENDBRANCH  25  30
ENDBRANCH  22  25
ENDBRANCH  20  21
ENDBRANCH  19  20
ENDBRANCH   1  19
TORSDOF 10
ENDMDL
MODEL 4
REMARK VINA RESULT: -7.593166652      3.818      9.985
REMARK  10 active torsions:
REMARK  status: ('A' for Active; 'I' for Inactive)
REMARK    1  A    between atoms: C2_2  and  C4_10 
REMARK    2  A    between atoms: N1_3  and  N2_5 
REMARK    3  A    between atoms: C5_12  and  N5_13 
REMARK    4  A    between atoms: N5_13  and  C6_15 
REMARK    5  A    between atoms: C6_15  and  C7_16 
REMARK    6  A    between atoms: C7_16  and  N6_17 
REMARK       I    between atoms: N6_17  and  C8_19 
REMARK    7  A    between atoms: C8_19  and  C9_21 
REMARK    8  A    between atoms: C9_21  and  N7_22 
REMARK    9  A    between atoms: C9_21  and  C10_26 
REMARK   10  A    between atoms: C10_26  and  N8_27 
ROOT
HETATM    1  N5  UNL     1     -21.703 -19.314  12.629  1.00  0.00    -0.369 N 
ATOM      2  H5  UNL     1     -21.404 -20.008  11.945  1.00  0.00     0.161 HD
ENDROOT
BRANCH   1   3
HETATM    3  C5  UNL     1     -20.865 -18.475  13.203  1.00  0.00     0.146 A 
HETATM    4  S1  UNL     1     -21.151 -16.915  13.836  1.00  0.00    -0.049 SA
HETATM    5  C4  UNL     1     -19.563 -16.564  14.367  1.00  0.00     0.073 A 
HETATM    6  C11 UNL     1     -18.891 -17.703  14.014  1.00  0.00     0.137 A 
HETATM    7  N9  UNL     1     -19.562 -18.652  13.430  1.00  0.00    -0.324 N 
HETATM    8  N10 UNL     1     -17.466 -17.805  14.302  1.00  0.00    -0.081 NA
ATOM      9  H9  UNL     1     -19.100 -19.517  13.151  1.00  0.00     0.169 HD
BRANCH   5  10
HETATM   10  C2  UNL     1     -19.086 -15.356  15.021  1.00  0.00     0.042 C 
HETATM   11  C1  UNL     1     -19.047 -15.236  16.486  1.00  0.00     0.071 C 
HETATM   12  N1  UNL     1     -18.694 -14.381  14.293  1.00  0.00    -0.302 N 
ATOM     13  H1  UNL     1     -18.739 -14.504  13.280  1.00  0.00     0.186 HD
BRANCH  12  14
HETATM   14  N2  UNL     1     -18.219 -13.179  14.762  1.00  0.00    -0.276 N 
HETATM   15  C3  UNL     1     -18.919 -12.119  14.936  1.00  0.00     0.215 C 
HETATM   16  N3  UNL     1     -20.313 -12.062  14.655  1.00  0.00    -0.065 NA
HETATM   17  N4  UNL     1     -18.303 -10.943  15.427  1.00  0.00    -0.065 NA
ATOM     18  H2  UNL     1     -17.226 -13.127  14.990  1.00  0.00     0.189 HD
ENDBRANCH  12  14
ENDBRANCH   5  10
ENDBRANCH   1   3
BRANCH   1  19
HETATM   19  C6  UNL     1     -23.103 -19.169  13.054  1.00  0.00     0.141 C 
BRANCH  19  20
HETATM   20  C7  UNL     1     -23.820 -18.448  11.934  1.00  0.00     0.142 C 
BRANCH  20  21
HETATM   21  N6  UNL     1     -25.188 -18.933  11.912  1.00  0.00    -0.358 N 
HETATM   22  C8  UNL     1     -25.779 -19.108  10.624  1.00  0.00     0.250 C 
HETATM   23  O1  UNL     1     -25.170 -18.862   9.555  1.00  0.00    -0.271 OA
ATOM     24  H6  UNL     1     -25.700 -19.138  12.771  1.00  0.00     0.162 HD
BRANCH  22  25
HETATM   25  C9  UNL     1     -27.181 -19.605  10.580  1.00  0.00     0.299 C 
BRANCH  25  26
HETATM   26  N7  UNL     1     -28.049 -18.782  11.396  1.00  0.00    -0.065 N 
ATOM     27  H73 UNL     1     -28.452 -18.014  10.860  1.00  0.00     0.275 HD
ATOM     28  H72 UNL     1     -28.911 -19.270  11.640  1.00  0.00     0.275 HD
ATOM     29  H71 UNL     1     -27.559 -18.446  12.226  1.00  0.00     0.275 HD
ENDBRANCH  25  26
BRANCH  25  30
HETATM   30  C10 UNL     1     -27.184 -21.045  11.049  1.00  0.00     0.272 C 
BRANCH  30  31
HETATM   31  N8  UNL     1     -26.369 -21.881  10.209  1.00  0.00    -0.077 N 
ATOM     32  H83 UNL     1     -25.930 -21.343   9.463  1.00  0.00     0.274 HD
ATOM     33  H82 UNL     1     -25.529 -22.191  10.697  1.00  0.00     0.274 HD
ATOM     34  H81 UNL     1     -26.895 -22.672   9.838  1.00  0.00     0.274 HD
ENDBRANCH  30  31
ENDBRANCH  25  30
ENDBRANCH  22  25
ENDBRANCH  20  21
ENDBRANCH  19  20
ENDBRANCH   1  19
TORSDOF 10
ENDMDL
MODEL 5
REMARK VINA RESULT: -7.397203489      3.063      9.890
REMARK  10 active torsions:
REMARK  status: ('A' for Active; 'I' for Inactive)
REMARK    1  A    between atoms: C2_2  and  C4_10 
REMARK    2  A    between atoms: N1_3  and  N2_5 
REMARK    3  A    between atoms: C5_12  and  N5_13 
REMARK    4  A    between atoms: N5_13  and  C6_15 
REMARK    5  A    between atoms: C6_15  and  C7_16 
REMARK    6  A    between atoms: C7_16  and  N6_17 
REMARK       I    between atoms: N6_17  and  C8_19 
REMARK    7  A    between atoms: C8_19  and  C9_21 
REMARK    8  A    between atoms: C9_21  and  N7_22 
REMARK    9  A    between atoms: C9_21  and  C10_26 
REMARK   10  A    between atoms: C10_26  and  N8_27 
ROOT
HETATM    1  N5  UNL     1     -20.596 -18.571  12.598  1.00  0.00    -0.369 N 
ATOM      2  H5  UNL     1     -20.073 -18.794  11.752  1.00  0.00     0.161 HD
ENDROOT
BRANCH   1   3
HETATM    3  C5  UNL     1     -20.204 -17.648  13.452  1.00  0.00     0.146 A 
HETATM    4  S1  UNL     1     -20.134 -15.952  13.264  1.00  0.00    -0.049 SA
HETATM    5  C4  UNL     1     -19.528 -15.551  14.812  1.00  0.00     0.073 A 
HETATM    6  C11 UNL     1     -19.413 -16.784  15.396  1.00  0.00     0.137 A 
HETATM    7  N9  UNL     1     -19.758 -17.825  14.697  1.00  0.00    -0.324 N 
HETATM    8  N10 UNL     1     -18.915 -16.879  16.762  1.00  0.00    -0.081 NA
ATOM      9  H9  UNL     1     -19.688 -18.762  15.094  1.00  0.00     0.169 HD
BRANCH   5  10
HETATM   10  C2  UNL     1     -19.224 -14.230  15.339  1.00  0.00     0.042 C 
HETATM   11  C1  UNL     1     -19.774 -13.011  14.729  1.00  0.00     0.071 C 
HETATM   12  N1  UNL     1     -18.455 -14.141  16.357  1.00  0.00    -0.302 N 
ATOM     13  H1  UNL     1     -18.093 -15.010  16.749  1.00  0.00     0.186 HD
BRANCH  12  14
HETATM   14  N2  UNL     1     -18.077 -12.968  16.966  1.00  0.00    -0.276 N 
HETATM   15  C3  UNL     1     -17.301 -12.873  17.982  1.00  0.00     0.215 C 
HETATM   16  N3  UNL     1     -16.723 -14.009  18.618  1.00  0.00    -0.065 NA
HETATM   17  N4  UNL     1     -16.991 -11.599  18.514  1.00  0.00    -0.065 NA
ATOM     18  H2  UNL     1     -18.445 -12.100  16.577  1.00  0.00     0.189 HD
ENDBRANCH  12  14
ENDBRANCH   5  10
ENDBRANCH   1   3
BRANCH   1  19
HETATM   19  C6  UNL     1     -21.847 -19.253  12.962  1.00  0.00     0.141 C 
BRANCH  19  20
HETATM   20  C7  UNL     1     -22.972 -18.311  12.596  1.00  0.00     0.142 C 
BRANCH  20  21
HETATM   21  N6  UNL     1     -24.192 -19.097  12.537  1.00  0.00    -0.358 N 
HETATM   22  C8  UNL     1     -24.995 -18.934  11.368  1.00  0.00     0.250 C 
HETATM   23  O1  UNL     1     -24.685 -18.159  10.430  1.00  0.00    -0.271 OA
ATOM     24  H6  UNL     1     -24.461 -19.730  13.291  1.00  0.00     0.162 HD
BRANCH  22  25
HETATM   25  C9  UNL     1     -26.249 -19.730  11.287  1.00  0.00     0.299 C 
BRANCH  25  26
HETATM   26  N7  UNL     1     -26.173 -20.710  10.224  1.00  0.00    -0.065 N 
ATOM     27  H73 UNL     1     -25.221 -21.055  10.099  1.00  0.00     0.275 HD
ATOM     28  H72 UNL     1     -26.622 -21.588  10.488  1.00  0.00     0.275 HD
ATOM     29  H71 UNL     1     -26.556 -20.338   9.355  1.00  0.00     0.275 HD
ENDBRANCH  25  26
BRANCH  25  30
HETATM   30  C10 UNL     1     -27.401 -18.771  11.071  1.00  0.00     0.272 C 
BRANCH  30  31
HETATM   31  N8  UNL     1     -27.572 -18.448   9.679  1.00  0.00    -0.077 N 
ATOM     32  H83 UNL     1     -28.559 -18.376   9.433  1.00  0.00     0.274 HD
ATOM     33  H82 UNL     1     -27.289 -17.488   9.483  1.00  0.00     0.274 HD
ATOM     34  H81 UNL     1     -27.085 -19.110   9.074  1.00  0.00     0.274 HD
ENDBRANCH  30  31
ENDBRANCH  25  30
ENDBRANCH  22  25
ENDBRANCH  20  21
ENDBRANCH  19  20
ENDBRANCH   1  19
TORSDOF 10
ENDMDL
