MODEL 1
REMARK VINA RESULT: -3.857047203      0.000      0.000
REMARK  1 active torsions:
REMARK  status: ('A' for Active; 'I' for Inactive)
REMARK    1  A    between atoms: N1_1  and  C1_5 
ROOT
HETATM    1  C1  UNL     1      20.934   5.652  -3.551  1.00  0.00     0.188 C 
HETATM    2  C2  UNL     1      20.096   6.167  -2.403  1.00  0.00     0.037 C 
HETATM    3  C3  UNL     1      20.498   7.617  -2.233  1.00  0.00    -0.012 C 
HETATM    4  C4  UNL     1      19.721   8.530  -3.138  1.00  0.00     0.005 C 
HETATM    5  C5  UNL     1      20.428   8.867  -4.412  1.00  0.00     0.001 C 
HETATM    6  C6  UNL     1      21.136   7.673  -5.029  1.00  0.00     0.007 C 
HETATM    7  C7  UNL     1      21.799   6.804  -4.008  1.00  0.00     0.016 C 
HETATM    8  C8  UNL     1      21.939   7.594  -2.703  1.00  0.00     0.011 C 
ENDROOT
BRANCH   1   9
HETATM    9  N1  UNL     1      21.829   4.592  -3.123  1.00  0.00    -0.075 N 
ATOM     10  H13 UNL     1      22.235   4.793  -2.210  1.00  0.00     0.274 HD
ATOM     11  H12 UNL     1      21.316   3.744  -2.885  1.00  0.00     0.274 HD
ATOM     12  H11 UNL     1      22.551   4.408  -3.821  1.00  0.00     0.274 HD
ENDBRANCH   1   9
TORSDOF 1
ENDMDL
MODEL 2
REMARK VINA RESULT: -3.847296399      1.966      3.159
REMARK  1 active torsions:
REMARK  status: ('A' for Active; 'I' for Inactive)
REMARK    1  A    between atoms: N1_1  and  C1_5 
ROOT
HETATM    1  C1  UNL     1      20.212   8.461  -4.354  1.00  0.00     0.188 C 
HETATM    2  C2  UNL     1      21.006   7.194  -4.575  1.00  0.00     0.037 C 
HETATM    3  C3  UNL     1      21.314   6.667  -3.188  1.00  0.00    -0.012 C 
HETATM    4  C4  UNL     1      20.204   5.813  -2.647  1.00  0.00     0.005 C 
HETATM    5  C5  UNL     1      19.254   6.546  -1.756  1.00  0.00     0.001 C 
HETATM    6  C6  UNL     1      18.909   7.932  -2.272  1.00  0.00     0.007 C 
HETATM    7  C7  UNL     1      20.089   8.640  -2.858  1.00  0.00     0.016 C 
HETATM    8  C8  UNL     1      21.369   7.948  -2.378  1.00  0.00     0.011 C 
ENDROOT
BRANCH   1   9
HETATM    9  N1  UNL     1      20.913   9.625  -4.864  1.00  0.00    -0.075 N 
ATOM     10  H13 UNL     1      20.674   9.807  -5.838  1.00  0.00     0.274 HD
ATOM     11  H12 UNL     1      20.557  10.485  -4.450  1.00  0.00     0.274 HD
ATOM     12  H11 UNL     1      21.922   9.540  -4.737  1.00  0.00     0.274 HD
ENDBRANCH   1   9
TORSDOF 1
ENDMDL
MODEL 3
REMARK VINA RESULT: -3.682705154      1.851      3.018
REMARK  1 active torsions:
REMARK  status: ('A' for Active; 'I' for Inactive)
REMARK    1  A    between atoms: N1_1  and  C1_5 
ROOT
HETATM    1  C1  UNL     1      19.588   7.939  -2.950  1.00  0.00     0.188 C 
HETATM    2  C2  UNL     1      20.234   8.718  -4.073  1.00  0.00     0.037 C 
HETATM    3  C3  UNL     1      21.651   8.189  -4.163  1.00  0.00    -0.012 C 
HETATM    4  C4  UNL     1      21.746   6.966  -5.029  1.00  0.00     0.005 C 
HETATM    5  C5  UNL     1      21.707   5.679  -4.268  1.00  0.00     0.001 C 
HETATM    6  C6  UNL     1      20.685   5.688  -3.144  1.00  0.00     0.007 C 
HETATM    7  C7  UNL     1      20.639   6.993  -2.416  1.00  0.00     0.016 C 
HETATM    8  C8  UNL     1      21.918   7.778  -2.727  1.00  0.00     0.011 C 
ENDROOT
BRANCH   1   9
HETATM    9  N1  UNL     1      19.202   8.808  -1.854  1.00  0.00    -0.075 N 
ATOM     10  H13 UNL     1      18.873   8.272  -1.051  1.00  0.00     0.274 HD
ATOM     11  H12 UNL     1      20.013   9.251  -1.426  1.00  0.00     0.274 HD
ATOM     12  H11 UNL     1      18.512   9.500  -2.149  1.00  0.00     0.274 HD
ENDBRANCH   1   9
TORSDOF 1
ENDMDL
MODEL 4
REMARK VINA RESULT: -3.674998887      1.611      2.581
REMARK  1 active torsions:
REMARK  status: ('A' for Active; 'I' for Inactive)
REMARK    1  A    between atoms: N1_1  and  C1_5 
ROOT
HETATM    1  C1  UNL     1      21.063   7.645  -4.589  1.00  0.00     0.188 C 
HETATM    2  C2  UNL     1      21.181   6.172  -4.273  1.00  0.00     0.037 C 
HETATM    3  C3  UNL     1      21.116   6.080  -2.763  1.00  0.00    -0.012 C 
HETATM    4  C4  UNL     1      19.703   6.020  -2.259  1.00  0.00     0.005 C 
HETATM    5  C5  UNL     1      19.153   7.343  -1.833  1.00  0.00     0.001 C 
HETATM    6  C6  UNL     1      19.535   8.472  -2.775  1.00  0.00     0.007 C 
HETATM    7  C7  UNL     1      20.943   8.365  -3.265  1.00  0.00     0.016 C 
HETATM    8  C8  UNL     1      21.714   7.410  -2.347  1.00  0.00     0.011 C 
ENDROOT
BRANCH   1   9
HETATM    9  N1  UNL     1      22.260   8.148  -5.238  1.00  0.00    -0.075 N 
ATOM     10  H13 UNL     1      22.052   8.946  -5.837  1.00  0.00     0.274 HD
ATOM     11  H12 UNL     1      22.880   8.607  -4.573  1.00  0.00     0.274 HD
ATOM     12  H11 UNL     1      22.744   7.412  -5.753  1.00  0.00     0.274 HD
ENDBRANCH   1   9
TORSDOF 1
ENDMDL
MODEL 5
REMARK VINA RESULT: -3.491076647      1.271      2.386
REMARK  1 active torsions:
REMARK  status: ('A' for Active; 'I' for Inactive)
REMARK    1  A    between atoms: N1_1  and  C1_5 
ROOT
HETATM    1  C1  UNL     1      22.090   6.447  -2.459  1.00  0.00     0.188 C 
HETATM    2  C2  UNL     1      21.933   7.897  -2.063  1.00  0.00     0.037 C 
HETATM    3  C3  UNL     1      20.567   8.306  -2.574  1.00  0.00    -0.012 C 
HETATM    4  C4  UNL     1      19.475   7.977  -1.596  1.00  0.00     0.005 C 
HETATM    5  C5  UNL     1      18.783   6.681  -1.873  1.00  0.00     0.001 C 
HETATM    6  C6  UNL     1      19.741   5.575  -2.282  1.00  0.00     0.007 C 
HETATM    7  C7  UNL     1      20.826   6.057  -3.191  1.00  0.00     0.016 C 
HETATM    8  C8  UNL     1      20.409   7.407  -3.784  1.00  0.00     0.011 C 
ENDROOT
BRANCH   1   9
HETATM    9  N1  UNL     1      23.191   6.265  -3.388  1.00  0.00    -0.075 N 
ATOM     10  H13 UNL     1      23.634   7.153  -3.621  1.00  0.00     0.274 HD
ATOM     11  H12 UNL     1      23.984   5.806  -2.941  1.00  0.00     0.274 HD
ATOM     12  H11 UNL     1      22.895   5.764  -4.226  1.00  0.00     0.274 HD
ENDBRANCH   1   9
TORSDOF 1
ENDMDL
