MODEL 1
REMARK VINA RESULT: -3.386038122      0.000      0.000
REMARK  1 active torsions:
REMARK  status: ('A' for Active; 'I' for Inactive)
REMARK    1  A    between atoms: C6_6  and  O1_8 
ROOT
HETATM    1  C1  UNL     1      20.292   5.183  -2.726  1.00  0.00     0.013 C 
HETATM    2  C2  UNL     1      21.365   6.233  -2.693  1.00  0.00     0.015 C 
HETATM    3  C3  UNL     1      22.153   6.116  -3.985  1.00  0.00     0.007 C 
HETATM    4  C4  UNL     1      21.258   6.865  -4.952  1.00  0.00     0.004 C 
HETATM    5  C5  UNL     1      20.722   8.046  -4.171  1.00  0.00     0.038 C 
HETATM    6  C6  UNL     1      20.858   7.630  -2.746  1.00  0.00     0.057 C 
HETATM    7  C7  UNL     1      19.596   7.837  -1.939  1.00  0.00     0.046 C 
ENDROOT
BRANCH   6   8
HETATM    8  O1  UNL     1      21.839   8.455  -2.151  1.00  0.00    -0.390 OA
ATOM      9  H1  UNL     1      21.439   9.304  -1.998  1.00  0.00     0.210 HD
ENDBRANCH   6   8
TORSDOF 1
ENDMDL
MODEL 2
REMARK VINA RESULT: -3.350357426      1.092      3.013
REMARK  1 active torsions:
REMARK  status: ('A' for Active; 'I' for Inactive)
REMARK    1  A    between atoms: C6_6  and  O1_8 
ROOT
HETATM    1  C1  UNL     1      20.181   8.739  -4.401  1.00  0.00     0.013 C 
HETATM    2  C2  UNL     1      20.908   8.237  -3.187  1.00  0.00     0.015 C 
HETATM    3  C3  UNL     1      20.042   8.549  -1.979  1.00  0.00     0.007 C 
HETATM    4  C4  UNL     1      19.044   7.410  -2.023  1.00  0.00     0.004 C 
HETATM    5  C5  UNL     1      19.842   6.192  -2.435  1.00  0.00     0.038 C 
HETATM    6  C6  UNL     1      21.039   6.758  -3.119  1.00  0.00     0.057 C 
HETATM    7  C7  UNL     1      21.318   6.122  -4.463  1.00  0.00     0.046 C 
ENDROOT
BRANCH   6   8
HETATM    8  O1  UNL     1      22.166   6.473  -2.314  1.00  0.00    -0.390 OA
ATOM      9  H1  UNL     1      22.494   5.622  -2.579  1.00  0.00     0.210 HD
ENDBRANCH   6   8
TORSDOF 1
ENDMDL
MODEL 3
REMARK VINA RESULT: -3.334468907      1.717      2.754
REMARK  1 active torsions:
REMARK  status: ('A' for Active; 'I' for Inactive)
REMARK    1  A    between atoms: C6_6  and  O1_8 
ROOT
HETATM    1  C1  UNL     1      19.305   7.622  -1.657  1.00  0.00     0.013 C 
HETATM    2  C2  UNL     1      20.059   7.405  -2.937  1.00  0.00     0.015 C 
HETATM    3  C3  UNL     1      21.219   8.385  -2.951  1.00  0.00     0.007 C 
HETATM    4  C4  UNL     1      22.227   7.671  -2.073  1.00  0.00     0.004 C 
HETATM    5  C5  UNL     1      22.107   6.206  -2.435  1.00  0.00     0.038 C 
HETATM    6  C6  UNL     1      20.745   6.088  -3.028  1.00  0.00     0.057 C 
HETATM    7  C7  UNL     1      19.934   4.952  -2.445  1.00  0.00     0.046 C 
ENDROOT
BRANCH   6   8
HETATM    8  O1  UNL     1      20.900   5.790  -4.400  1.00  0.00    -0.390 OA
ATOM      9  H1  UNL     1      21.156   4.877  -4.463  1.00  0.00     0.210 HD
ENDBRANCH   6   8
TORSDOF 1
ENDMDL
MODEL 4
REMARK VINA RESULT: -3.177755075      1.060      2.107
REMARK  1 active torsions:
REMARK  status: ('A' for Active; 'I' for Inactive)
REMARK    1  A    between atoms: C6_6  and  O1_8 
ROOT
HETATM    1  C1  UNL     1      19.613   7.785  -2.269  1.00  0.00     0.013 C 
HETATM    2  C2  UNL     1      21.068   7.911  -2.619  1.00  0.00     0.015 C 
HETATM    3  C3  UNL     1      21.717   6.565  -2.353  1.00  0.00     0.007 C 
HETATM    4  C4  UNL     1      21.340   5.797  -3.604  1.00  0.00     0.004 C 
HETATM    5  C5  UNL     1      21.455   6.794  -4.737  1.00  0.00     0.038 C 
HETATM    6  C6  UNL     1      21.334   8.120  -4.068  1.00  0.00     0.057 C 
HETATM    7  C7  UNL     1      20.331   9.036  -4.731  1.00  0.00     0.046 C 
ENDROOT
BRANCH   6   8
HETATM    8  O1  UNL     1      22.584   8.770  -4.175  1.00  0.00    -0.390 OA
ATOM      9  H1  UNL     1      22.691   9.025  -5.084  1.00  0.00     0.210 HD
ENDBRANCH   6   8
TORSDOF 1
ENDMDL
MODEL 5
REMARK VINA RESULT: -3.167287671      1.738      2.817
REMARK  1 active torsions:
REMARK  status: ('A' for Active; 'I' for Inactive)
REMARK    1  A    between atoms: C6_6  and  O1_8 
ROOT
HETATM    1  C1  UNL     1      22.431   7.753  -1.944  1.00  0.00     0.013 C 
HETATM    2  C2  UNL     1      21.560   7.096  -2.977  1.00  0.00     0.015 C 
HETATM    3  C3  UNL     1      20.143   7.081  -2.432  1.00  0.00     0.007 C 
HETATM    4  C4  UNL     1      19.686   8.492  -2.743  1.00  0.00     0.004 C 
HETATM    5  C5  UNL     1      20.267   8.810  -4.104  1.00  0.00     0.038 C 
HETATM    6  C6  UNL     1      21.415   7.870  -4.238  1.00  0.00     0.057 C 
HETATM    7  C7  UNL     1      22.696   8.548  -4.672  1.00  0.00     0.046 C 
ENDROOT
BRANCH   6   8
HETATM    8  O1  UNL     1      21.097   6.949  -5.261  1.00  0.00    -0.390 OA
ATOM      9  H1  UNL     1      21.478   6.114  -5.017  1.00  0.00     0.210 HD
ENDBRANCH   6   8
TORSDOF 1
ENDMDL
