MODEL 1
REMARK VINA RESULT: -3.786289364      0.000      0.000
REMARK  1 active torsions:
REMARK  status: ('A' for Active; 'I' for Inactive)
REMARK    1  A    between atoms: C7_7  and  N1_8 
ROOT
HETATM    1  C1  UNL     1      20.133   8.551  -3.860  1.00  0.00     0.012 C 
HETATM    2  C2  UNL     1      20.198   7.856  -2.491  1.00  0.00     0.012 C 
HETATM    3  C3  UNL     1      21.252   6.810  -2.495  1.00  0.00     0.006 C 
HETATM    4  C4  UNL     1      20.750   5.507  -3.071  1.00  0.00     0.000 C 
HETATM    5  C5  UNL     1      19.647   5.053  -2.144  1.00  0.00     0.002 C 
HETATM    6  C6  UNL     1      18.518   6.014  -2.049  1.00  0.00     0.033 C 
HETATM    7  C7  UNL     1      18.863   7.446  -2.029  1.00  0.00     0.187 C 
ENDROOT
BRANCH   7   8
HETATM    8  N1  UNL     1      18.600   7.964  -0.673  1.00  0.00    -0.075 N 
ATOM      9  H13 UNL     1      18.033   8.811  -0.695  1.00  0.00     0.274 HD
ATOM     10  H12 UNL     1      17.958   7.363  -0.156  1.00  0.00     0.274 HD
ATOM     11  H11 UNL     1      19.474   8.108  -0.167  1.00  0.00     0.274 HD
ENDBRANCH   7   8
TORSDOF 1
ENDMDL
MODEL 2
REMARK VINA RESULT: -3.743184584      1.855      2.692
REMARK  1 active torsions:
REMARK  status: ('A' for Active; 'I' for Inactive)
REMARK    1  A    between atoms: C7_7  and  N1_8 
ROOT
HETATM    1  C1  UNL     1      21.980   7.914  -1.924  1.00  0.00     0.012 C 
HETATM    2  C2  UNL     1      20.821   7.419  -2.804  1.00  0.00     0.012 C 
HETATM    3  C3  UNL     1      19.587   8.192  -2.511  1.00  0.00     0.006 C 
HETATM    4  C4  UNL     1      18.845   7.635  -1.319  1.00  0.00     0.000 C 
HETATM    5  C5  UNL     1      18.436   6.236  -1.713  1.00  0.00     0.002 C 
HETATM    6  C6  UNL     1      19.585   5.349  -2.033  1.00  0.00     0.033 C 
HETATM    7  C7  UNL     1      20.706   5.953  -2.773  1.00  0.00     0.187 C 
ENDROOT
BRANCH   7   8
HETATM    8  N1  UNL     1      20.704   5.402  -4.142  1.00  0.00    -0.075 N 
ATOM      9  H13 UNL     1      20.419   6.099  -4.830  1.00  0.00     0.274 HD
ATOM     10  H12 UNL     1      21.650   5.229  -4.481  1.00  0.00     0.274 HD
ATOM     11  H11 UNL     1      20.124   4.564  -4.191  1.00  0.00     0.274 HD
ENDBRANCH   7   8
TORSDOF 1
ENDMDL
MODEL 3
REMARK VINA RESULT: -3.649677589      1.709      3.008
REMARK  1 active torsions:
REMARK  status: ('A' for Active; 'I' for Inactive)
REMARK    1  A    between atoms: C7_7  and  N1_8 
ROOT
HETATM    1  C1  UNL     1      16.614   6.869  -1.972  1.00  0.00     0.012 C 
HETATM    2  C2  UNL     1      17.949   6.469  -1.324  1.00  0.00     0.012 C 
HETATM    3  C3  UNL     1      18.719   7.681  -0.942  1.00  0.00     0.006 C 
HETATM    4  C4  UNL     1      19.512   8.233  -2.103  1.00  0.00     0.000 C 
HETATM    5  C5  UNL     1      20.500   7.150  -2.470  1.00  0.00     0.002 C 
HETATM    6  C6  UNL     1      19.857   5.874  -2.878  1.00  0.00     0.033 C 
HETATM    7  C7  UNL     1      18.660   5.461  -2.126  1.00  0.00     0.187 C 
ENDROOT
BRANCH   7   8
HETATM    8  N1  UNL     1      19.016   4.293  -1.297  1.00  0.00    -0.075 N 
ATOM      9  H13 UNL     1      18.194   3.748  -1.039  1.00  0.00     0.274 HD
ATOM     10  H12 UNL     1      19.509   3.582  -1.838  1.00  0.00     0.274 HD
ATOM     11  H11 UNL     1      19.550   4.583  -0.478  1.00  0.00     0.274 HD
ENDBRANCH   7   8
TORSDOF 1
ENDMDL
MODEL 4
REMARK VINA RESULT: -3.489069579      1.600      2.673
REMARK  1 active torsions:
REMARK  status: ('A' for Active; 'I' for Inactive)
REMARK    1  A    between atoms: C7_7  and  N1_8 
ROOT
HETATM    1  C1  UNL     1      22.143   6.090  -2.417  1.00  0.00     0.012 C 
HETATM    2  C2  UNL     1      20.712   6.137  -2.974  1.00  0.00     0.012 C 
HETATM    3  C3  UNL     1      20.425   7.479  -3.542  1.00  0.00     0.006 C 
HETATM    4  C4  UNL     1      19.984   8.458  -2.480  1.00  0.00     0.000 C 
HETATM    5  C5  UNL     1      18.694   7.901  -1.926  1.00  0.00     0.002 C 
HETATM    6  C6  UNL     1      18.841   6.553  -1.319  1.00  0.00     0.033 C 
HETATM    7  C7  UNL     1      19.738   5.608  -2.006  1.00  0.00     0.187 C 
ENDROOT
BRANCH   7   8
HETATM    8  N1  UNL     1      18.910   4.554  -2.625  1.00  0.00    -0.075 N 
ATOM      9  H13 UNL     1      17.916   4.775  -2.572  1.00  0.00     0.274 HD
ATOM     10  H12 UNL     1      19.011   4.541  -3.640  1.00  0.00     0.274 HD
ATOM     11  H11 UNL     1      19.117   3.645  -2.211  1.00  0.00     0.274 HD
ENDBRANCH   7   8
TORSDOF 1
ENDMDL
MODEL 5
REMARK VINA RESULT: -3.481478352      1.462      2.572
REMARK  1 active torsions:
REMARK  status: ('A' for Active; 'I' for Inactive)
REMARK    1  A    between atoms: C7_7  and  N1_8 
ROOT
HETATM    1  C1  UNL     1      18.669   7.817  -0.504  1.00  0.00     0.012 C 
HETATM    2  C2  UNL     1      18.765   7.338  -1.961  1.00  0.00     0.012 C 
HETATM    3  C3  UNL     1      18.110   6.013  -2.111  1.00  0.00     0.006 C 
HETATM    4  C4  UNL     1      19.038   4.881  -1.737  1.00  0.00     0.000 C 
HETATM    5  C5  UNL     1      20.180   4.951  -2.724  1.00  0.00     0.002 C 
HETATM    6  C6  UNL     1      20.928   6.234  -2.676  1.00  0.00     0.033 C 
HETATM    7  C7  UNL     1      20.135   7.460  -2.482  1.00  0.00     0.187 C 
ENDROOT
BRANCH   7   8
HETATM    8  N1  UNL     1      20.146   8.220  -3.746  1.00  0.00    -0.075 N 
ATOM      9  H13 UNL     1      19.206   8.502  -4.026  1.00  0.00     0.274 HD
ATOM     10  H12 UNL     1      20.555   9.147  -3.627  1.00  0.00     0.274 HD
ATOM     11  H11 UNL     1      20.615   7.691  -4.481  1.00  0.00     0.274 HD
ENDBRANCH   7   8
TORSDOF 1
ENDMDL
