MODEL 1
REMARK VINA RESULT: -4.372369083      0.000      0.000
REMARK  3 active torsions:
REMARK  status: ('A' for Active; 'I' for Inactive)
REMARK    1  A    between atoms: C3_3  and  N1_4 
REMARK    2  A    between atoms: N1_4  and  C5_6 
REMARK    3  A    between atoms: C5_6  and  C6_7 
REMARK       I    between atoms: N2_12  and  C11_13 
ROOT
HETATM    1  C1  UNL     1      19.045   7.860  -1.827  1.00  0.00     0.013 C 
HETATM    2  C2  UNL     1      19.901   8.515  -2.360  1.00  0.00    -0.087 C 
HETATM    3  C3  UNL     1      20.934   9.314  -2.965  1.00  0.00     0.364 C 
ENDROOT
BRANCH   3   4
HETATM    4  N1  UNL     1      20.780   9.586  -4.366  1.00  0.00     0.095 N 
HETATM    5  C4  UNL     1      21.873  10.395  -4.879  1.00  0.00     0.310 C 
BRANCH   4   6
HETATM    6  C5  UNL     1      20.597   8.399  -5.183  1.00  0.00     0.278 C 
BRANCH   6   7
HETATM    7  C6  UNL     1      21.985   7.800  -5.352  1.00  0.00     0.025 A 
HETATM    8  C7  UNL     1      21.953   6.706  -6.431  1.00  0.00     0.018 A 
HETATM    9  C8  UNL     1      22.223   6.396  -4.987  1.00  0.00    -0.017 A 
HETATM   10  C9  UNL     1      21.233   5.654  -4.128  1.00  0.00     0.031 C 
HETATM   11  C12 UNL     1      23.558   5.799  -4.724  1.00  0.00     0.135 C 
HETATM   12  C10 UNL     1      22.053   4.755  -3.227  1.00  0.00     0.126 C 
HETATM   13  N2  UNL     1      23.325   4.603  -3.942  1.00  0.00    -0.355 N 
HETATM   14  C11 UNL     1      24.153   3.472  -3.872  1.00  0.00     0.183 C 
HETATM   15  N3  UNL     1      25.422   3.480  -3.670  1.00  0.00    -0.374 N 
HETATM   16  N4  UNL     1      23.514   2.214  -4.047  1.00  0.00    -0.064 NA
ATOM     17  H32 UNL     1      25.881   4.383  -3.545  1.00  0.00     0.158 HD
ATOM     18  H31 UNL     1      26.024   2.658  -3.619  1.00  0.00     0.158 HD
ENDBRANCH   6   7
ENDBRANCH   4   6
ENDBRANCH   3   4
TORSDOF 3
ENDMDL
MODEL 2
REMARK VINA RESULT: -4.250152362      3.219      4.436
REMARK  3 active torsions:
REMARK  status: ('A' for Active; 'I' for Inactive)
REMARK    1  A    between atoms: C3_3  and  N1_4 
REMARK    2  A    between atoms: N1_4  and  C5_6 
REMARK    3  A    between atoms: C5_6  and  C6_7 
REMARK       I    between atoms: N2_12  and  C11_13 
ROOT
HETATM    1  C1  UNL     1      24.490   9.468  -0.810  1.00  0.00     0.013 C 
HETATM    2  C2  UNL     1      24.309   9.240  -1.978  1.00  0.00    -0.087 C 
HETATM    3  C3  UNL     1      24.118   8.942  -3.372  1.00  0.00     0.364 C 
ENDROOT
BRANCH   3   4
HETATM    4  N1  UNL     1      23.606  10.010  -4.181  1.00  0.00     0.095 N 
HETATM    5  C4  UNL     1      24.353  10.152  -5.420  1.00  0.00     0.310 C 
BRANCH   4   6
HETATM    6  C5  UNL     1      22.182   9.919  -4.452  1.00  0.00     0.278 C 
BRANCH   6   7
HETATM    7  C6  UNL     1      21.849   8.436  -4.397  1.00  0.00     0.025 A 
HETATM    8  C7  UNL     1      20.517   8.173  -5.117  1.00  0.00     0.018 A 
HETATM    9  C8  UNL     1      20.677   7.977  -3.638  1.00  0.00    -0.017 A 
HETATM   10  C9  UNL     1      20.018   8.887  -2.634  1.00  0.00     0.031 C 
HETATM   11  C12 UNL     1      20.455   6.584  -3.172  1.00  0.00     0.135 C 
HETATM   12  C10 UNL     1      19.585   7.998  -1.487  1.00  0.00     0.126 C 
HETATM   13  N2  UNL     1      19.499   6.662  -2.088  1.00  0.00    -0.355 N 
HETATM   14  C11 UNL     1      18.620   5.651  -1.669  1.00  0.00     0.183 C 
HETATM   15  N3  UNL     1      18.938   4.428  -1.438  1.00  0.00    -0.374 N 
HETATM   16  N4  UNL     1      17.262   6.032  -1.497  1.00  0.00    -0.064 NA
ATOM     17  H32 UNL     1      19.913   4.154  -1.563  1.00  0.00     0.158 HD
ATOM     18  H31 UNL     1      18.298   3.692  -1.134  1.00  0.00     0.158 HD
ENDBRANCH   6   7
ENDBRANCH   4   6
ENDBRANCH   3   4
TORSDOF 3
ENDMDL
MODEL 3
REMARK VINA RESULT: -4.174916757      3.355      5.151
REMARK  3 active torsions:
REMARK  status: ('A' for Active; 'I' for Inactive)
REMARK    1  A    between atoms: C3_3  and  N1_4 
REMARK    2  A    between atoms: N1_4  and  C5_6 
REMARK    3  A    between atoms: C5_6  and  C6_7 
REMARK       I    between atoms: N2_12  and  C11_13 
ROOT
HETATM    1  C1  UNL     1      18.734   7.428  -1.444  1.00  0.00     0.013 C 
HETATM    2  C2  UNL     1      19.530   8.246  -1.825  1.00  0.00    -0.087 C 
HETATM    3  C3  UNL     1      20.455   9.247  -2.287  1.00  0.00     0.364 C 
ENDROOT
BRANCH   3   4
HETATM    4  N1  UNL     1      21.698   8.762  -2.812  1.00  0.00     0.095 N 
HETATM    5  C4  UNL     1      22.442   8.004  -1.819  1.00  0.00     0.310 C 
BRANCH   4   6
HETATM    6  C5  UNL     1      21.566   7.999  -4.041  1.00  0.00     0.278 C 
BRANCH   6   7
HETATM    7  C6  UNL     1      21.277   9.021  -5.129  1.00  0.00     0.025 A 
HETATM    8  C7  UNL     1      20.015   8.614  -5.906  1.00  0.00     0.018 A 
HETATM    9  C8  UNL     1      21.374   8.630  -6.543  1.00  0.00    -0.017 A 
HETATM   10  C9  UNL     1      22.090   7.364  -6.935  1.00  0.00     0.031 C 
HETATM   11  C12 UNL     1      21.511   9.575  -7.681  1.00  0.00     0.135 C 
HETATM   12  C10 UNL     1      22.802   7.673  -8.234  1.00  0.00     0.126 C 
HETATM   13  N2  UNL     1      22.060   8.814  -8.782  1.00  0.00    -0.355 N 
HETATM   14  C11 UNL     1      21.913   9.091 -10.150  1.00  0.00     0.183 C 
HETATM   15  N3  UNL     1      22.102  10.232 -10.710  1.00  0.00    -0.374 N 
HETATM   16  N4  UNL     1      21.514   8.003 -10.972  1.00  0.00    -0.064 NA
ATOM     17  H32 UNL     1      22.388  11.014 -10.120  1.00  0.00     0.158 HD
ATOM     18  H31 UNL     1      21.995  10.434 -11.705  1.00  0.00     0.158 HD
ENDBRANCH   6   7
ENDBRANCH   4   6
ENDBRANCH   3   4
TORSDOF 3
ENDMDL
MODEL 4
REMARK VINA RESULT: -4.150878772      2.533      5.546
REMARK  3 active torsions:
REMARK  status: ('A' for Active; 'I' for Inactive)
REMARK    1  A    between atoms: C3_3  and  N1_4 
REMARK    2  A    between atoms: N1_4  and  C5_6 
REMARK    3  A    between atoms: C5_6  and  C6_7 
REMARK       I    between atoms: N2_12  and  C11_13 
ROOT
HETATM    1  C1  UNL     1      18.296   5.262  -1.448  1.00  0.00     0.013 C 
HETATM    2  C2  UNL     1      19.361   5.078  -1.977  1.00  0.00    -0.087 C 
HETATM    3  C3  UNL     1      20.638   4.826  -2.591  1.00  0.00     0.364 C 
ENDROOT
BRANCH   3   4
HETATM    4  N1  UNL     1      21.373   5.983  -3.013  1.00  0.00     0.095 N 
HETATM    5  C4  UNL     1      22.545   6.208  -2.183  1.00  0.00     0.310 C 
BRANCH   4   6
HETATM    6  C5  UNL     1      21.739   5.972  -4.419  1.00  0.00     0.278 C 
BRANCH   6   7
HETATM    7  C6  UNL     1      21.063   7.191  -5.028  1.00  0.00     0.025 A 
HETATM    8  C7  UNL     1      21.551   7.392  -6.471  1.00  0.00     0.018 A 
HETATM    9  C8  UNL     1      21.864   8.372  -5.378  1.00  0.00    -0.017 A 
HETATM   10  C9  UNL     1      23.255   8.539  -4.827  1.00  0.00     0.031 C 
HETATM   11  C12 UNL     1      21.319   9.736  -5.599  1.00  0.00     0.135 C 
HETATM   12  C10 UNL     1      23.422  10.018  -4.553  1.00  0.00     0.126 C 
HETATM   13  N2  UNL     1      22.425  10.653  -5.424  1.00  0.00    -0.355 N 
HETATM   14  C11 UNL     1      22.554  11.931  -5.989  1.00  0.00     0.183 C 
HETATM   15  N3  UNL     1      21.657  12.851  -5.979  1.00  0.00    -0.374 N 
HETATM   16  N4  UNL     1      23.791  12.213  -6.629  1.00  0.00    -0.064 NA
ATOM     17  H32 UNL     1      20.768  12.648  -5.519  1.00  0.00     0.158 HD
ATOM     18  H31 UNL     1      21.750  13.780  -6.389  1.00  0.00     0.158 HD
ENDBRANCH   6   7
ENDBRANCH   4   6
ENDBRANCH   3   4
TORSDOF 3
ENDMDL
MODEL 5
REMARK VINA RESULT: -4.121153193      2.796      5.678
REMARK  3 active torsions:
REMARK  status: ('A' for Active; 'I' for Inactive)
REMARK    1  A    between atoms: C3_3  and  N1_4 
REMARK    2  A    between atoms: N1_4  and  C5_6 
REMARK    3  A    between atoms: C5_6  and  C6_7 
REMARK       I    between atoms: N2_12  and  C11_13 
ROOT
HETATM    1  C1  UNL     1      18.152   7.409  -1.447  1.00  0.00     0.013 C 
HETATM    2  C2  UNL     1      19.275   7.657  -1.802  1.00  0.00    -0.087 C 
HETATM    3  C3  UNL     1      20.610   7.989  -2.224  1.00  0.00     0.364 C 
ENDROOT
BRANCH   3   4
HETATM    4  N1  UNL     1      21.288   6.998  -3.008  1.00  0.00     0.095 N 
HETATM    5  C4  UNL     1      20.906   5.650  -2.618  1.00  0.00     0.310 C 
BRANCH   4   6
HETATM    6  C5  UNL     1      21.140   7.174  -4.442  1.00  0.00     0.278 C 
BRANCH   6   7
HETATM    7  C6  UNL     1      21.084   8.678  -4.666  1.00  0.00     0.025 A 
HETATM    8  C7  UNL     1      20.130   8.997  -5.828  1.00  0.00     0.018 A 
HETATM    9  C8  UNL     1      21.607   9.250  -5.915  1.00  0.00    -0.017 A 
HETATM   10  C9  UNL     1      22.508   8.436  -6.807  1.00  0.00     0.031 C 
HETATM   11  C12 UNL     1      21.978  10.675  -6.109  1.00  0.00     0.135 C 
HETATM   12  C10 UNL     1      23.528   9.405  -7.365  1.00  0.00     0.126 C 
HETATM   13  N2  UNL     1      22.877  10.714  -7.243  1.00  0.00    -0.355 N 
HETATM   14  C11 UNL     1      23.097  11.802  -8.103  1.00  0.00     0.183 C 
HETATM   15  N3  UNL     1      23.339  13.010  -7.739  1.00  0.00    -0.374 N 
HETATM   16  N4  UNL     1      23.038  11.523  -9.496  1.00  0.00    -0.064 NA
ATOM     17  H32 UNL     1      23.381  13.210  -6.740  1.00  0.00     0.158 HD
ATOM     18  H31 UNL     1      23.499  13.800  -8.364  1.00  0.00     0.158 HD
ENDBRANCH   6   7
ENDBRANCH   4   6
ENDBRANCH   3   4
TORSDOF 3
ENDMDL
