MODEL 1
REMARK VINA RESULT: -4.659243863      0.000      0.000
REMARK  3 active torsions:
REMARK  status: ('A' for Active; 'I' for Inactive)
REMARK    1  A    between atoms: C1_2  and  C2_4 
REMARK    2  A    between atoms: C6_8  and  N1_9 
REMARK       I    between atoms: N1_9  and  C7_11 
REMARK    3  A    between atoms: C7_11  and  C8_13 
ROOT
HETATM    1  C2  UNL     1      22.542  10.572  -5.505  1.00  0.00     0.089 C 
HETATM    2  C3  UNL     1      21.760  10.462  -6.763  1.00  0.00     0.015 C 
HETATM    3  C4  UNL     1      21.233   9.030  -6.858  1.00  0.00     0.003 C 
HETATM    4  C5  UNL     1      20.193   8.920  -5.751  1.00  0.00     0.025 C 
HETATM    5  C6  UNL     1      20.963   8.924  -4.446  1.00  0.00     0.085 C 
HETATM    6  C11 UNL     1      21.814  10.124  -4.277  1.00  0.00     0.040 C 
ENDROOT
BRANCH   5   7
HETATM    7  N1  UNL     1      20.059   8.833  -3.315  1.00  0.00    -0.356 N 
HETATM    8  C7  UNL     1      20.014   7.664  -2.511  1.00  0.00     0.222 C 
HETATM    9  O3  UNL     1      20.742   6.680  -2.745  1.00  0.00    -0.273 OA
ATOM     10  H1  UNL     1      19.447   9.620  -3.096  1.00  0.00     0.162 HD
BRANCH   8  11
HETATM   11  C8  UNL     1      19.084   7.589  -1.359  1.00  0.00     0.078 A 
HETATM   12  C9  UNL     1      18.452   6.285  -1.034  1.00  0.00     0.015 A 
HETATM   13  C10 UNL     1      17.636   7.348  -1.667  1.00  0.00     0.015 A 
ENDBRANCH   8  11
ENDBRANCH   5   7
BRANCH   1  14
HETATM   14  C1  UNL     1      22.947  11.979  -5.316  1.00  0.00     0.177 C 
HETATM   15  O1  UNL     1      22.246  12.927  -5.727  1.00  0.00    -0.648 OA
HETATM   16  O2  UNL     1      24.130  12.273  -4.671  1.00  0.00    -0.648 OA
ENDBRANCH   1  14
TORSDOF 3
ENDMDL
MODEL 2
REMARK VINA RESULT: -4.595622593      2.081      2.880
REMARK  3 active torsions:
REMARK  status: ('A' for Active; 'I' for Inactive)
REMARK    1  A    between atoms: C1_2  and  C2_4 
REMARK    2  A    between atoms: C6_8  and  N1_9 
REMARK       I    between atoms: N1_9  and  C7_11 
REMARK    3  A    between atoms: C7_11  and  C8_13 
ROOT
HETATM    1  C2  UNL     1      21.630   9.441  -5.131  1.00  0.00     0.089 C 
HETATM    2  C3  UNL     1      22.918   8.885  -4.644  1.00  0.00     0.015 C 
HETATM    3  C4  UNL     1      23.166   9.448  -3.245  1.00  0.00     0.003 C 
HETATM    4  C5  UNL     1      22.111   8.794  -2.364  1.00  0.00     0.025 C 
HETATM    5  C6  UNL     1      20.786   9.414  -2.761  1.00  0.00     0.085 C 
HETATM    6  C11 UNL     1      20.475   9.249  -4.200  1.00  0.00     0.040 C 
ENDROOT
BRANCH   5   7
HETATM    7  N1  UNL     1      19.700   8.848  -1.983  1.00  0.00    -0.356 N 
HETATM    8  C7  UNL     1      19.540   7.442  -1.870  1.00  0.00     0.222 C 
HETATM    9  O3  UNL     1      20.319   6.647  -2.431  1.00  0.00    -0.273 OA
ATOM     10  H1  UNL     1      19.043   9.470  -1.511  1.00  0.00     0.162 HD
BRANCH   8  11
HETATM   11  C8  UNL     1      18.424   6.882  -1.070  1.00  0.00     0.078 A 
HETATM   12  C9  UNL     1      17.963   5.500  -1.356  1.00  0.00     0.015 A 
HETATM   13  C10 UNL     1      17.126   6.645  -1.785  1.00  0.00     0.015 A 
ENDBRANCH   8  11
ENDBRANCH   5   7
BRANCH   1  14
HETATM   14  C1  UNL     1      21.294   8.807  -6.422  1.00  0.00     0.177 C 
HETATM   15  O1  UNL     1      21.536   7.603  -6.647  1.00  0.00    -0.648 OA
HETATM   16  O2  UNL     1      20.697   9.550  -7.417  1.00  0.00    -0.648 OA
ENDBRANCH   1  14
TORSDOF 3
ENDMDL
MODEL 3
REMARK VINA RESULT: -4.581072112      3.684      6.353
REMARK  3 active torsions:
REMARK  status: ('A' for Active; 'I' for Inactive)
REMARK    1  A    between atoms: C1_2  and  C2_4 
REMARK    2  A    between atoms: C6_8  and  N1_9 
REMARK       I    between atoms: N1_9  and  C7_11 
REMARK    3  A    between atoms: C7_11  and  C8_13 
ROOT
HETATM    1  C2  UNL     1      19.410   6.675  -1.680  1.00  0.00     0.089 C 
HETATM    2  C3  UNL     1      18.891   8.023  -2.026  1.00  0.00     0.015 C 
HETATM    3  C4  UNL     1      20.093   8.919  -2.323  1.00  0.00     0.003 C 
HETATM    4  C5  UNL     1      20.669   8.385  -3.628  1.00  0.00     0.025 C 
HETATM    5  C6  UNL     1      21.302   7.050  -3.295  1.00  0.00     0.085 C 
HETATM    6  C11 UNL     1      20.352   6.092  -2.685  1.00  0.00     0.040 C 
ENDROOT
BRANCH   5   7
HETATM    7  N1  UNL     1      21.877   6.443  -4.480  1.00  0.00    -0.356 N 
HETATM    8  C7  UNL     1      23.107   5.737  -4.414  1.00  0.00     0.222 C 
HETATM    9  O3  UNL     1      23.735   5.614  -3.344  1.00  0.00    -0.273 OA
ATOM     10  H1  UNL     1      21.391   6.525  -5.374  1.00  0.00     0.162 HD
BRANCH   8  11
HETATM   11  C8  UNL     1      23.680   5.122  -5.636  1.00  0.00     0.078 A 
HETATM   12  C9  UNL     1      22.836   5.033  -6.854  1.00  0.00     0.015 A 
HETATM   13  C10 UNL     1      23.105   3.806  -6.068  1.00  0.00     0.015 A 
ENDBRANCH   8  11
ENDBRANCH   5   7
BRANCH   1  14
HETATM   14  C1  UNL     1      18.269   5.750  -1.523  1.00  0.00     0.177 C 
HETATM   15  O1  UNL     1      18.434   4.522  -1.363  1.00  0.00    -0.648 OA
HETATM   16  O2  UNL     1      16.980   6.237  -1.553  1.00  0.00    -0.648 OA
ENDBRANCH   1  14
TORSDOF 3
ENDMDL
MODEL 4
REMARK VINA RESULT: -4.561490122      2.958      6.493
REMARK  3 active torsions:
REMARK  status: ('A' for Active; 'I' for Inactive)
REMARK    1  A    between atoms: C1_2  and  C2_4 
REMARK    2  A    between atoms: C6_8  and  N1_9 
REMARK       I    between atoms: N1_9  and  C7_11 
REMARK    3  A    between atoms: C7_11  and  C8_13 
ROOT
HETATM    1  C2  UNL     1      19.550   6.623  -1.793  1.00  0.00     0.089 C 
HETATM    2  C3  UNL     1      18.895   7.950  -1.914  1.00  0.00     0.015 C 
HETATM    3  C4  UNL     1      19.957   8.951  -2.368  1.00  0.00     0.003 C 
HETATM    4  C5  UNL     1      20.285   8.555  -3.801  1.00  0.00     0.025 C 
HETATM    5  C6  UNL     1      21.048   7.249  -3.714  1.00  0.00     0.085 C 
HETATM    6  C11 UNL     1      20.298   6.183  -3.011  1.00  0.00     0.040 C 
ENDROOT
BRANCH   5   7
HETATM    7  N1  UNL     1      21.403   6.772  -5.038  1.00  0.00    -0.356 N 
HETATM    8  C7  UNL     1      22.620   7.166  -5.652  1.00  0.00     0.222 C 
HETATM    9  O3  UNL     1      23.423   7.931  -5.083  1.00  0.00    -0.273 OA
ATOM     10  H1  UNL     1      20.768   6.144  -5.533  1.00  0.00     0.162 HD
BRANCH   8  11
HETATM   11  C8  UNL     1      22.967   6.668  -7.005  1.00  0.00     0.078 A 
HETATM   12  C9  UNL     1      23.852   7.493  -7.865  1.00  0.00     0.015 A 
HETATM   13  C10 UNL     1      22.404   7.423  -8.173  1.00  0.00     0.015 A 
ENDBRANCH   8  11
ENDBRANCH   5   7
BRANCH   1  14
HETATM   14  C1  UNL     1      18.520   5.608  -1.491  1.00  0.00     0.177 C 
HETATM   15  O1  UNL     1      18.819   4.423  -1.232  1.00  0.00    -0.648 OA
HETATM   16  O2  UNL     1      17.187   5.960  -1.492  1.00  0.00    -0.648 OA
ENDBRANCH   1  14
TORSDOF 3
ENDMDL
MODEL 5
REMARK VINA RESULT: -4.530012613      1.983      6.333
REMARK  3 active torsions:
REMARK  status: ('A' for Active; 'I' for Inactive)
REMARK    1  A    between atoms: C1_2  and  C2_4 
REMARK    2  A    between atoms: C6_8  and  N1_9 
REMARK       I    between atoms: N1_9  and  C7_11 
REMARK    3  A    between atoms: C7_11  and  C8_13 
ROOT
HETATM    1  C2  UNL     1      21.091   6.565  -2.697  1.00  0.00     0.089 C 
HETATM    2  C3  UNL     1      19.901   7.293  -2.187  1.00  0.00     0.015 C 
HETATM    3  C4  UNL     1      20.140   8.786  -2.412  1.00  0.00     0.003 C 
HETATM    4  C5  UNL     1      20.082   8.971  -3.922  1.00  0.00     0.025 C 
HETATM    5  C6  UNL     1      21.337   8.327  -4.475  1.00  0.00     0.085 C 
HETATM    6  C11 UNL     1      21.471   6.900  -4.104  1.00  0.00     0.040 C 
ENDROOT
BRANCH   5   7
HETATM    7  N1  UNL     1      21.378   8.437  -5.921  1.00  0.00    -0.356 N 
HETATM    8  C7  UNL     1      21.825   9.630  -6.549  1.00  0.00     0.222 C 
HETATM    9  O3  UNL     1      22.196  10.619  -5.887  1.00  0.00    -0.273 OA
ATOM     10  H1  UNL     1      21.081   7.647  -6.495  1.00  0.00     0.162 HD
BRANCH   8  11
HETATM   11  C8  UNL     1      21.861   9.725  -8.028  1.00  0.00     0.078 A 
HETATM   12  C9  UNL     1      22.122   8.494  -8.817  1.00  0.00     0.015 A 
HETATM   13  C10 UNL     1      23.190   9.514  -8.691  1.00  0.00     0.015 A 
ENDBRANCH   8  11
ENDBRANCH   5   7
BRANCH   1  14
HETATM   14  C1  UNL     1      20.831   5.113  -2.621  1.00  0.00     0.177 C 
HETATM   15  O1  UNL     1      21.572   4.281  -3.186  1.00  0.00    -0.648 OA
HETATM   16  O2  UNL     1      19.746   4.645  -1.912  1.00  0.00    -0.648 OA
ENDBRANCH   1  14
TORSDOF 3
ENDMDL
