MODEL 1
REMARK VINA RESULT: -3.984206121      0.000      0.000
REMARK  0 active torsions:
REMARK  status: ('A' for Active; 'I' for Inactive)
ROOT
HETATM    1  C1  UNL     1      21.158   9.500  -6.848  1.00  0.00     0.010 C 
HETATM    2  C2  UNL     1      21.644   8.802  -5.593  1.00  0.00    -0.017 C 
HETATM    3  C3  UNL     1      22.061   7.402  -6.006  1.00  0.00     0.006 C 
HETATM    4  C4  UNL     1      22.704   6.774  -4.779  1.00  0.00     0.024 C 
HETATM    5  C5  UNL     1      21.571   6.125  -3.996  1.00  0.00     0.072 C 
HETATM    6  C6  UNL     1      22.019   4.785  -3.487  1.00  0.00     0.031 C 
HETATM    7  N1  UNL     1      21.186   6.981  -2.954  1.00  0.00    -0.414 N 
ATOM      8  H1  UNL     1      21.115   6.632  -1.998  1.00  0.00     0.153 HD
HETATM    9  C7  UNL     1      20.903   8.316  -3.242  1.00  0.00     0.073 C 
HETATM   10  C8  UNL     1      19.791   8.795  -2.300  1.00  0.00     0.032 C 
HETATM   11  C9  UNL     1      20.472   8.641  -4.629  1.00  0.00     0.028 C 
ENDROOT
TORSDOF 0
ENDMDL
MODEL 2
REMARK VINA RESULT: -3.957123275      1.876      4.444
REMARK  0 active torsions:
REMARK  status: ('A' for Active; 'I' for Inactive)
ROOT
HETATM    1  C1  UNL     1      18.194   5.367  -1.052  1.00  0.00     0.010 C 
HETATM    2  C2  UNL     1      19.363   6.185  -1.563  1.00  0.00    -0.017 C 
HETATM    3  C3  UNL     1      18.774   7.368  -2.311  1.00  0.00     0.006 C 
HETATM    4  C4  UNL     1      19.948   8.268  -2.669  1.00  0.00     0.024 C 
HETATM    5  C5  UNL     1      20.465   7.771  -4.012  1.00  0.00     0.072 C 
HETATM    6  C6  UNL     1      20.792   8.946  -4.887  1.00  0.00     0.031 C 
HETATM    7  N1  UNL     1      21.582   6.950  -3.796  1.00  0.00    -0.414 N 
ATOM      8  H1  UNL     1      22.449   7.112  -4.308  1.00  0.00     0.153 HD
HETATM    9  C7  UNL     1      21.490   5.909  -2.872  1.00  0.00     0.073 C 
HETATM   10  C8  UNL     1      22.357   4.741  -3.362  1.00  0.00     0.032 C 
HETATM   11  C9  UNL     1      20.136   5.361  -2.589  1.00  0.00     0.028 C 
ENDROOT
TORSDOF 0
ENDMDL
MODEL 3
REMARK VINA RESULT: -3.919503485      2.762      4.404
REMARK  0 active torsions:
REMARK  status: ('A' for Active; 'I' for Inactive)
ROOT
HETATM    1  C1  UNL     1      21.763   4.861  -3.172  1.00  0.00     0.010 C 
HETATM    2  C2  UNL     1      20.786   5.554  -2.243  1.00  0.00    -0.017 C 
HETATM    3  C3  UNL     1      19.502   4.744  -2.280  1.00  0.00     0.006 C 
HETATM    4  C4  UNL     1      18.593   5.348  -1.219  1.00  0.00     0.024 C 
HETATM    5  C5  UNL     1      17.821   6.463  -1.911  1.00  0.00     0.072 C 
HETATM    6  C6  UNL     1      16.388   6.429  -1.466  1.00  0.00     0.031 C 
HETATM    7  N1  UNL     1      18.433   7.691  -1.619  1.00  0.00    -0.414 N 
ATOM      8  H1  UNL     1      17.881   8.473  -1.267  1.00  0.00     0.153 HD
HETATM    9  C7  UNL     1      19.807   7.828  -1.815  1.00  0.00     0.073 C 
HETATM   10  C8  UNL     1      20.099   9.269  -2.252  1.00  0.00     0.032 C 
HETATM   11  C9  UNL     1      20.450   6.929  -2.812  1.00  0.00     0.028 C 
ENDROOT
TORSDOF 0
ENDMDL
MODEL 4
REMARK VINA RESULT: -3.855475029      1.076      3.246
REMARK  0 active torsions:
REMARK  status: ('A' for Active; 'I' for Inactive)
ROOT
HETATM    1  C1  UNL     1      23.179   5.417  -3.104  1.00  0.00     0.010 C 
HETATM    2  C2  UNL     1      22.083   6.167  -3.835  1.00  0.00    -0.017 C 
HETATM    3  C3  UNL     1      22.669   6.610  -5.164  1.00  0.00     0.006 C 
HETATM    4  C4  UNL     1      21.515   7.207  -5.955  1.00  0.00     0.024 C 
HETATM    5  C5  UNL     1      21.462   8.680  -5.573  1.00  0.00     0.072 C 
HETATM    6  C6  UNL     1      21.212   9.506  -6.801  1.00  0.00     0.031 C 
HETATM    7  N1  UNL     1      20.464   8.865  -4.604  1.00  0.00    -0.414 N 
ATOM      8  H1  UNL     1      19.754   9.587  -4.725  1.00  0.00     0.153 HD
HETATM    9  C7  UNL     1      20.457   8.048  -3.473  1.00  0.00     0.073 C 
HETATM   10  C8  UNL     1      19.941   8.864  -2.282  1.00  0.00     0.032 C 
HETATM   11  C9  UNL     1      21.751   7.438  -3.060  1.00  0.00     0.028 C 
ENDROOT
TORSDOF 0
ENDMDL
MODEL 5
REMARK VINA RESULT: -3.822798544      1.300      3.266
REMARK  0 active torsions:
REMARK  status: ('A' for Active; 'I' for Inactive)
ROOT
HETATM    1  C1  UNL     1      22.927   4.932  -5.110  1.00  0.00     0.010 C 
HETATM    2  C2  UNL     1      22.509   6.197  -4.387  1.00  0.00    -0.017 C 
HETATM    3  C3  UNL     1      21.788   5.760  -3.124  1.00  0.00     0.006 C 
HETATM    4  C4  UNL     1      21.526   7.030  -2.327  1.00  0.00     0.024 C 
HETATM    5  C5  UNL     1      20.187   7.565  -2.817  1.00  0.00     0.072 C 
HETATM    6  C6  UNL     1      19.382   8.045  -1.644  1.00  0.00     0.031 C 
HETATM    7  N1  UNL     1      20.417   8.588  -3.749  1.00  0.00    -0.414 N 
ATOM      8  H1  UNL     1      19.954   9.491  -3.650  1.00  0.00     0.153 HD
HETATM    9  C7  UNL     1      21.288   8.352  -4.813  1.00  0.00     0.073 C 
HETATM   10  C8  UNL     1      20.787   9.128  -6.038  1.00  0.00     0.032 C 
HETATM   11  C9  UNL     1      21.483   6.939  -5.239  1.00  0.00     0.028 C 
ENDROOT
TORSDOF 0
ENDMDL
