MODEL 1
REMARK VINA RESULT: -4.678399298      0.000      0.000
REMARK  1 active torsions:
REMARK  status: ('A' for Active; 'I' for Inactive)
REMARK    1  A    between atoms: C9_9  and  N1_10 
ROOT
HETATM    1  C1  UNL     1      18.184   5.135  -1.227  1.00  0.00     0.012 C 
HETATM    2  C2  UNL     1      19.398   6.011  -1.560  1.00  0.00     0.012 C 
HETATM    3  C3  UNL     1      20.242   5.280  -2.558  1.00  0.00     0.007 C 
HETATM    4  C4  UNL     1      21.150   6.104  -3.366  1.00  0.00     0.009 C 
HETATM    5  C5  UNL     1      21.304   7.530  -3.025  1.00  0.00    -0.046 C 
HETATM    6  C6  UNL     1      22.614   7.753  -2.262  1.00  0.00     0.015 C 
HETATM    7  C7  UNL     1      21.445   8.328  -4.329  1.00  0.00     0.015 C 
HETATM    8  C8  UNL     1      20.224   8.168  -2.247  1.00  0.00     0.041 C 
HETATM    9  C9  UNL     1      18.966   7.340  -2.121  1.00  0.00     0.188 C 
ENDROOT
BRANCH   9  10
HETATM   10  N1  UNL     1      18.119   8.037  -1.162  1.00  0.00    -0.075 N 
ATOM     11  H13 UNL     1      17.657   7.392  -0.521  1.00  0.00     0.274 HD
ATOM     12  H12 UNL     1      18.668   8.560  -0.479  1.00  0.00     0.274 HD
ATOM     13  H11 UNL     1      17.451   8.632  -1.652  1.00  0.00     0.274 HD
ENDBRANCH   9  10
TORSDOF 1
ENDMDL
MODEL 2
REMARK VINA RESULT: -4.509515030      1.463      2.565
REMARK  1 active torsions:
REMARK  status: ('A' for Active; 'I' for Inactive)
REMARK    1  A    between atoms: C9_9  and  N1_10 
ROOT
HETATM    1  C1  UNL     1      18.086   7.407  -1.186  1.00  0.00     0.012 C 
HETATM    2  C2  UNL     1      19.125   6.902  -2.193  1.00  0.00     0.012 C 
HETATM    3  C3  UNL     1      20.123   7.995  -2.424  1.00  0.00     0.007 C 
HETATM    4  C4  UNL     1      21.432   7.580  -2.940  1.00  0.00     0.009 C 
HETATM    5  C5  UNL     1      21.615   6.179  -3.362  1.00  0.00    -0.046 C 
HETATM    6  C6  UNL     1      21.557   6.075  -4.891  1.00  0.00     0.015 C 
HETATM    7  C7  UNL     1      23.032   5.735  -2.973  1.00  0.00     0.015 C 
HETATM    8  C8  UNL     1      20.684   5.173  -2.815  1.00  0.00     0.041 C 
HETATM    9  C9  UNL     1      19.819   5.669  -1.679  1.00  0.00     0.188 C 
ENDROOT
BRANCH   9  10
HETATM   10  N1  UNL     1      18.845   4.615  -1.425  1.00  0.00    -0.075 N 
ATOM     11  H13 UNL     1      19.284   3.697  -1.357  1.00  0.00     0.274 HD
ATOM     12  H12 UNL     1      18.462   4.669  -0.481  1.00  0.00     0.274 HD
ATOM     13  H11 UNL     1      18.113   4.637  -2.135  1.00  0.00     0.274 HD
ENDBRANCH   9  10
TORSDOF 1
ENDMDL
MODEL 3
REMARK VINA RESULT: -4.485641707      1.270      1.504
REMARK  1 active torsions:
REMARK  status: ('A' for Active; 'I' for Inactive)
REMARK    1  A    between atoms: C9_9  and  N1_10 
ROOT
HETATM    1  C1  UNL     1      18.076   6.902  -1.468  1.00  0.00     0.012 C 
HETATM    2  C2  UNL     1      19.586   6.834  -1.727  1.00  0.00     0.012 C 
HETATM    3  C3  UNL     1      19.911   5.468  -2.245  1.00  0.00     0.007 C 
HETATM    4  C4  UNL     1      21.161   5.343  -3.005  1.00  0.00     0.009 C 
HETATM    5  C5  UNL     1      22.080   6.495  -3.049  1.00  0.00    -0.046 C 
HETATM    6  C6  UNL     1      23.251   6.274  -2.084  1.00  0.00     0.015 C 
HETATM    7  C7  UNL     1      22.708   6.562  -4.449  1.00  0.00     0.015 C 
HETATM    8  C8  UNL     1      21.519   7.830  -2.766  1.00  0.00     0.041 C 
HETATM    9  C9  UNL     1      20.009   7.880  -2.724  1.00  0.00     0.188 C 
ENDROOT
BRANCH   9  10
HETATM   10  N1  UNL     1      19.664   9.209  -2.233  1.00  0.00    -0.075 N 
ATOM     11  H13 UNL     1      20.460   9.671  -1.792  1.00  0.00     0.274 HD
ATOM     12  H12 UNL     1      19.510   9.869  -2.995  1.00  0.00     0.274 HD
ATOM     13  H11 UNL     1      18.860   9.153  -1.607  1.00  0.00     0.274 HD
ENDBRANCH   9  10
TORSDOF 1
ENDMDL
MODEL 4
REMARK VINA RESULT: -3.886046715      2.667      4.328
REMARK  1 active torsions:
REMARK  status: ('A' for Active; 'I' for Inactive)
REMARK    1  A    between atoms: C9_9  and  N1_10 
ROOT
HETATM    1  C1  UNL     1      20.985   9.226  -6.345  1.00  0.00     0.012 C 
HETATM    2  C2  UNL     1      21.475   8.301  -5.225  1.00  0.00     0.012 C 
HETATM    3  C3  UNL     1      20.654   8.572  -4.002  1.00  0.00     0.007 C 
HETATM    4  C4  UNL     1      20.609   7.500  -3.001  1.00  0.00     0.009 C 
HETATM    5  C5  UNL     1      21.496   6.335  -3.171  1.00  0.00    -0.046 C 
HETATM    6  C6  UNL     1      22.706   6.451  -2.237  1.00  0.00     0.015 C 
HETATM    7  C7  UNL     1      20.741   5.079  -2.713  1.00  0.00     0.015 C 
HETATM    8  C8  UNL     1      22.009   6.057  -4.527  1.00  0.00     0.041 C 
HETATM    9  C9  UNL     1      21.344   6.855  -5.625  1.00  0.00     0.188 C 
ENDROOT
BRANCH   9  10
HETATM   10  N1  UNL     1      22.118   6.598  -6.833  1.00  0.00    -0.075 N 
ATOM     11  H13 UNL     1      21.520   6.386  -7.632  1.00  0.00     0.274 HD
ATOM     12  H12 UNL     1      22.555   7.447  -7.194  1.00  0.00     0.274 HD
ATOM     13  H11 UNL     1      22.801   5.860  -6.661  1.00  0.00     0.274 HD
ENDBRANCH   9  10
TORSDOF 1
ENDMDL
MODEL 5
REMARK VINA RESULT: -3.759993443      1.938      3.825
REMARK  1 active torsions:
REMARK  status: ('A' for Active; 'I' for Inactive)
REMARK    1  A    between atoms: C9_9  and  N1_10 
ROOT
HETATM    1  C1  UNL     1      22.664   7.397  -3.752  1.00  0.00     0.012 C 
HETATM    2  C2  UNL     1      21.531   7.245  -2.730  1.00  0.00     0.012 C 
HETATM    3  C3  UNL     1      20.624   8.430  -2.858  1.00  0.00     0.007 C 
HETATM    4  C4  UNL     1      19.257   8.258  -2.353  1.00  0.00     0.009 C 
HETATM    5  C5  UNL     1      18.928   7.030  -1.605  1.00  0.00    -0.046 C 
HETATM    6  C6  UNL     1      18.895   7.320  -0.100  1.00  0.00     0.015 C 
HETATM    7  C7  UNL     1      17.500   6.604  -1.975  1.00  0.00     0.015 C 
HETATM    8  C8  UNL     1      19.794   5.852  -1.809  1.00  0.00     0.041 C 
HETATM    9  C9  UNL     1      20.759   5.974  -2.966  1.00  0.00     0.188 C 
ENDROOT
BRANCH   9  10
HETATM   10  N1  UNL     1      21.648   4.824  -2.872  1.00  0.00    -0.075 N 
ATOM     11  H13 UNL     1      22.351   4.943  -2.141  1.00  0.00     0.274 HD
ATOM     12  H12 UNL     1      21.173   4.005  -2.491  1.00  0.00     0.274 HD
ATOM     13  H11 UNL     1      22.071   4.632  -3.780  1.00  0.00     0.274 HD
ENDBRANCH   9  10
TORSDOF 1
ENDMDL
