MODEL 1
REMARK VINA RESULT: -4.377943169      0.000      0.000
REMARK  1 active torsions:
REMARK  status: ('A' for Active; 'I' for Inactive)
REMARK    1  A    between atoms: N1_1  and  C1_5 
ROOT
HETATM    1  C1  UNL     1      20.786   6.752  -2.885  1.00  0.00     0.127 C 
HETATM    2  C2  UNL     1      20.403   5.343  -2.567  1.00  0.00     0.039 C 
HETATM    3  C3  UNL     1      19.041   5.148  -2.020  1.00  0.00     0.002 C 
HETATM    4  C4  UNL     1      18.421   6.260  -1.281  1.00  0.00     0.001 C 
HETATM    5  C5  UNL     1      19.115   7.598  -1.426  1.00  0.00     0.007 C 
HETATM    6  C6  UNL     1      19.530   7.640  -2.849  1.00  0.00     0.021 C 
HETATM    7  C7  UNL     1      20.034   8.905  -3.382  1.00  0.00     0.007 C 
HETATM    8  C8  UNL     1      21.056   8.490  -4.425  1.00  0.00     0.003 C 
HETATM    9  C9  UNL     1      21.211   6.985  -4.297  1.00  0.00     0.039 C 
ENDROOT
BRANCH   1  10
HETATM   10  N1  UNL     1      21.807   7.263  -1.992  1.00  0.00    -0.070 N 
ATOM     11  H13 UNL     1      21.402   7.568  -1.107  1.00  0.00     0.275 HD
ATOM     12  H12 UNL     1      22.404   6.512  -1.648  1.00  0.00     0.275 HD
ATOM     13  H11 UNL     1      22.361   8.007  -2.418  1.00  0.00     0.275 HD
ENDBRANCH   1  10
TORSDOF 1
ENDMDL
MODEL 2
REMARK VINA RESULT: -4.192574080      0.812      1.153
REMARK  1 active torsions:
REMARK  status: ('A' for Active; 'I' for Inactive)
REMARK    1  A    between atoms: N1_1  and  C1_5 
ROOT
HETATM    1  C1  UNL     1      20.985   6.882  -3.309  1.00  0.00     0.127 C 
HETATM    2  C2  UNL     1      20.275   5.894  -2.440  1.00  0.00     0.039 C 
HETATM    3  C3  UNL     1      19.023   6.368  -1.808  1.00  0.00     0.002 C 
HETATM    4  C4  UNL     1      18.873   7.809  -1.552  1.00  0.00     0.001 C 
HETATM    5  C5  UNL     1      19.885   8.697  -2.246  1.00  0.00     0.007 C 
HETATM    6  C6  UNL     1      20.056   8.077  -3.582  1.00  0.00     0.021 C 
HETATM    7  C7  UNL     1      20.804   8.821  -4.595  1.00  0.00     0.007 C 
HETATM    8  C8  UNL     1      21.480   7.744  -5.425  1.00  0.00     0.003 C 
HETATM    9  C9  UNL     1      21.221   6.429  -4.712  1.00  0.00     0.039 C 
ENDROOT
BRANCH   1  10
HETATM   10  N1  UNL     1      22.241   7.322  -2.735  1.00  0.00    -0.070 N 
ATOM     11  H13 UNL     1      22.369   6.942  -1.797  1.00  0.00     0.275 HD
ATOM     12  H12 UNL     1      23.033   6.879  -3.200  1.00  0.00     0.275 HD
ATOM     13  H11 UNL     1      22.335   8.338  -2.737  1.00  0.00     0.275 HD
ENDBRANCH   1  10
TORSDOF 1
ENDMDL
MODEL 3
REMARK VINA RESULT: -4.008475437      1.051      1.471
REMARK  1 active torsions:
REMARK  status: ('A' for Active; 'I' for Inactive)
REMARK    1  A    between atoms: N1_1  and  C1_5 
ROOT
HETATM    1  C1  UNL     1      21.075   5.901  -3.084  1.00  0.00     0.127 C 
HETATM    2  C2  UNL     1      19.974   5.162  -2.395  1.00  0.00     0.039 C 
HETATM    3  C3  UNL     1      18.860   5.988  -1.878  1.00  0.00     0.002 C 
HETATM    4  C4  UNL     1      19.140   7.387  -1.517  1.00  0.00     0.001 C 
HETATM    5  C5  UNL     1      20.468   7.927  -2.006  1.00  0.00     0.007 C 
HETATM    6  C6  UNL     1      20.620   7.344  -3.361  1.00  0.00     0.021 C 
HETATM    7  C7  UNL     1      21.700   7.848  -4.210  1.00  0.00     0.007 C 
HETATM    8  C8  UNL     1      22.111   6.648  -5.042  1.00  0.00     0.003 C 
HETATM    9  C9  UNL     1      21.350   5.458  -4.483  1.00  0.00     0.039 C 
ENDROOT
BRANCH   1  10
HETATM   10  N1  UNL     1      22.311   5.884  -2.328  1.00  0.00    -0.070 N 
ATOM     11  H13 UNL     1      22.186   5.417  -1.430  1.00  0.00     0.275 HD
ATOM     12  H12 UNL     1      22.990   5.249  -2.749  1.00  0.00     0.275 HD
ATOM     13  H11 UNL     1      22.707   6.816  -2.206  1.00  0.00     0.275 HD
ENDBRANCH   1  10
TORSDOF 1
ENDMDL
MODEL 4
REMARK VINA RESULT: -3.965820117      0.939      3.159
REMARK  1 active torsions:
REMARK  status: ('A' for Active; 'I' for Inactive)
REMARK    1  A    between atoms: N1_1  and  C1_5 
ROOT
HETATM    1  C1  UNL     1      20.802   7.807  -2.984  1.00  0.00     0.127 C 
HETATM    2  C2  UNL     1      21.368   8.113  -4.333  1.00  0.00     0.039 C 
HETATM    3  C3  UNL     1      21.404   6.988  -5.293  1.00  0.00     0.002 C 
HETATM    4  C4  UNL     1      21.486   5.619  -4.760  1.00  0.00     0.001 C 
HETATM    5  C5  UNL     1      21.209   5.486  -3.277  1.00  0.00     0.007 C 
HETATM    6  C6  UNL     1      20.100   6.439  -3.028  1.00  0.00     0.021 C 
HETATM    7  C7  UNL     1      19.434   6.394  -1.726  1.00  0.00     0.007 C 
HETATM    8  C8  UNL     1      19.022   7.833  -1.469  1.00  0.00     0.003 C 
HETATM    9  C9  UNL     1      19.648   8.662  -2.576  1.00  0.00     0.039 C 
ENDROOT
BRANCH   1  10
HETATM   10  N1  UNL     1      21.809   7.839  -1.942  1.00  0.00    -0.070 N 
ATOM     11  H13 UNL     1      22.733   7.626  -2.317  1.00  0.00     0.275 HD
ATOM     12  H12 UNL     1      21.977   8.793  -1.623  1.00  0.00     0.275 HD
ATOM     13  H11 UNL     1      21.579   7.226  -1.159  1.00  0.00     0.275 HD
ENDBRANCH   1  10
TORSDOF 1
ENDMDL
MODEL 5
REMARK VINA RESULT: -3.897969066      1.425      2.533
REMARK  1 active torsions:
REMARK  status: ('A' for Active; 'I' for Inactive)
REMARK    1  A    between atoms: N1_1  and  C1_5 
ROOT
HETATM    1  C1  UNL     1      20.689   7.292  -2.634  1.00  0.00     0.127 C 
HETATM    2  C2  UNL     1      19.393   7.708  -2.016  1.00  0.00     0.039 C 
HETATM    3  C3  UNL     1      18.610   6.633  -1.367  1.00  0.00     0.002 C 
HETATM    4  C4  UNL     1      18.778   5.255  -1.855  1.00  0.00     0.001 C 
HETATM    5  C5  UNL     1      19.970   5.033  -2.763  1.00  0.00     0.007 C 
HETATM    6  C6  UNL     1      21.041   5.869  -2.167  1.00  0.00     0.021 C 
HETATM    7  C7  UNL     1      22.403   5.708  -2.675  1.00  0.00     0.007 C 
HETATM    8  C8  UNL     1      23.016   7.090  -2.543  1.00  0.00     0.003 C 
HETATM    9  C9  UNL     1      21.890   8.021  -2.128  1.00  0.00     0.039 C 
ENDROOT
BRANCH   1  10
HETATM   10  N1  UNL     1      20.662   7.370  -4.081  1.00  0.00    -0.070 N 
ATOM     11  H13 UNL     1      20.353   6.489  -4.491  1.00  0.00     0.275 HD
ATOM     12  H12 UNL     1      19.905   7.974  -4.403  1.00  0.00     0.275 HD
ATOM     13  H11 UNL     1      21.558   7.663  -4.473  1.00  0.00     0.275 HD
ENDBRANCH   1  10
TORSDOF 1
ENDMDL
