MODEL 1
REMARK VINA RESULT: -3.903210786      0.000      0.000
REMARK  0 active torsions:
REMARK  status: ('A' for Active; 'I' for Inactive)
ROOT
HETATM    1  C1  UNL     1      16.879   6.657  -1.782  1.00  0.00     0.015 C 
HETATM    2  C2  UNL     1      18.313   6.872  -1.277  1.00  0.00     0.020 C 
HETATM    3  C3  UNL     1      19.052   7.809  -2.158  1.00  0.00     0.010 C 
HETATM    4  C4  UNL     1      20.537   7.591  -1.993  1.00  0.00     0.015 C 
HETATM    5  C5  UNL     1      20.970   6.551  -2.970  1.00  0.00    -0.016 C 
HETATM    6  C6  UNL     1      21.241   7.265  -4.298  1.00  0.00     0.020 C 
HETATM    7  C7  UNL     1      22.269   5.878  -2.575  1.00  0.00     0.020 C 
HETATM    8  C8  UNL     1      19.943   5.497  -3.228  1.00  0.00     0.069 C 
HETATM    9  N1  UNL     1      19.437   4.832  -2.101  1.00  0.00    -0.381 N 
ATOM     10  H1  UNL     1      19.425   3.813  -2.072  1.00  0.00     0.164 HD
HETATM   11  C9  UNL     1      18.950   5.570  -1.018  1.00  0.00     0.064 C 
ENDROOT
TORSDOF 0
ENDMDL
MODEL 2
REMARK VINA RESULT: -3.746052992      1.883      2.785
REMARK  0 active torsions:
REMARK  status: ('A' for Active; 'I' for Inactive)
ROOT
HETATM    1  C1  UNL     1      19.099   7.946  -2.092  1.00  0.00     0.015 C 
HETATM    2  C2  UNL     1      20.403   8.524  -2.661  1.00  0.00     0.020 C 
HETATM    3  C3  UNL     1      20.350   8.600  -4.141  1.00  0.00     0.010 C 
HETATM    4  C4  UNL     1      21.754   8.634  -4.695  1.00  0.00     0.015 C 
HETATM    5  C5  UNL     1      22.203   7.230  -4.922  1.00  0.00    -0.016 C 
HETATM    6  C6  UNL     1      21.687   6.810  -6.303  1.00  0.00     0.020 C 
HETATM    7  C7  UNL     1      23.711   7.096  -4.972  1.00  0.00     0.020 C 
HETATM    8  C8  UNL     1      21.666   6.254  -3.928  1.00  0.00     0.069 C 
HETATM    9  N1  UNL     1      21.893   6.554  -2.576  1.00  0.00    -0.381 N 
ATOM     10  H1  UNL     1      22.303   5.854  -1.958  1.00  0.00     0.164 HD
HETATM   11  C9  UNL     1      21.556   7.817  -2.078  1.00  0.00     0.064 C 
ENDROOT
TORSDOF 0
ENDMDL
MODEL 3
REMARK VINA RESULT: -3.451643503      2.124      3.065
REMARK  0 active torsions:
REMARK  status: ('A' for Active; 'I' for Inactive)
ROOT
HETATM    1  C1  UNL     1      19.921   4.958  -2.468  1.00  0.00     0.015 C 
HETATM    2  C2  UNL     1      21.046   5.998  -2.569  1.00  0.00     0.020 C 
HETATM    3  C3  UNL     1      20.508   7.331  -2.932  1.00  0.00     0.010 C 
HETATM    4  C4  UNL     1      21.604   8.168  -3.547  1.00  0.00     0.015 C 
HETATM    5  C5  UNL     1      21.610   7.925  -5.018  1.00  0.00    -0.016 C 
HETATM    6  C6  UNL     1      20.569   8.867  -5.635  1.00  0.00     0.020 C 
HETATM    7  C7  UNL     1      22.934   8.271  -5.666  1.00  0.00     0.020 C 
HETATM    8  C8  UNL     1      21.237   6.531  -5.404  1.00  0.00     0.069 C 
HETATM    9  N1  UNL     1      21.977   5.501  -4.804  1.00  0.00    -0.381 N 
ATOM     10  H1  UNL     1      22.400   4.773  -5.380  1.00  0.00     0.164 HD
HETATM   11  C9  UNL     1      22.132   5.474  -3.414  1.00  0.00     0.064 C 
ENDROOT
TORSDOF 0
ENDMDL
MODEL 4
REMARK VINA RESULT: -3.332627453      1.821      2.665
REMARK  0 active torsions:
REMARK  status: ('A' for Active; 'I' for Inactive)
ROOT
HETATM    1  C1  UNL     1      18.680   7.456  -0.798  1.00  0.00     0.015 C 
HETATM    2  C2  UNL     1      19.125   7.106  -2.225  1.00  0.00     0.020 C 
HETATM    3  C3  UNL     1      19.979   5.894  -2.234  1.00  0.00     0.010 C 
HETATM    4  C4  UNL     1      20.825   5.881  -3.485  1.00  0.00     0.015 C 
HETATM    5  C5  UNL     1      22.096   6.606  -3.199  1.00  0.00    -0.016 C 
HETATM    6  C6  UNL     1      23.057   5.596  -2.561  1.00  0.00     0.020 C 
HETATM    7  C7  UNL     1      22.780   7.111  -4.453  1.00  0.00     0.020 C 
HETATM    8  C8  UNL     1      21.943   7.744  -2.244  1.00  0.00     0.069 C 
HETATM    9  N1  UNL     1      20.976   8.706  -2.572  1.00  0.00    -0.381 N 
ATOM     10  H1  UNL     1      21.221   9.696  -2.583  1.00  0.00     0.164 HD
HETATM   11  C9  UNL     1      19.673   8.303  -2.884  1.00  0.00     0.064 C 
ENDROOT
TORSDOF 0
ENDMDL
MODEL 5
REMARK VINA RESULT: -3.253133850      2.852      4.205
REMARK  0 active torsions:
REMARK  status: ('A' for Active; 'I' for Inactive)
ROOT
HETATM    1  C1  UNL     1      21.452   9.706  -6.515  1.00  0.00     0.015 C 
HETATM    2  C2  UNL     1      20.798   8.554  -5.740  1.00  0.00     0.020 C 
HETATM    3  C3  UNL     1      20.701   8.872  -4.294  1.00  0.00     0.010 C 
HETATM    4  C4  UNL     1      20.584   7.592  -3.502  1.00  0.00     0.015 C 
HETATM    5  C5  UNL     1      21.958   7.122  -3.165  1.00  0.00    -0.016 C 
HETATM    6  C6  UNL     1      22.383   7.853  -1.886  1.00  0.00     0.020 C 
HETATM    7  C7  UNL     1      22.012   5.642  -2.847  1.00  0.00     0.020 C 
HETATM    8  C8  UNL     1      22.978   7.425  -4.214  1.00  0.00     0.069 C 
HETATM    9  N1  UNL     1      22.687   6.977  -5.511  1.00  0.00    -0.381 N 
ATOM     10  H1  UNL     1      23.374   6.431  -6.030  1.00  0.00     0.164 HD
HETATM   11  C9  UNL     1      21.452   7.283  -6.092  1.00  0.00     0.064 C 
ENDROOT
TORSDOF 0
ENDMDL
