MODEL 1
REMARK VINA RESULT: -5.058084809      0.000      0.000
REMARK  0 active torsions:
REMARK  status: ('A' for Active; 'I' for Inactive)
ROOT
HETATM    1  C1  UNL     1      20.414   8.306  -3.203  1.00  0.00     0.000 C 
HETATM    2  C2  UNL     1      19.560   8.806  -2.113  1.00  0.00     0.000 C 
HETATM    3  C3  UNL     1      18.792   7.925  -1.227  1.00  0.00     0.002 C 
HETATM    4  C4  UNL     1      18.044   6.754  -1.747  1.00  0.00     0.026 C 
HETATM    5  C5  UNL     1      18.300   5.422  -1.184  1.00  0.00     0.167 C 
HETATM    6  O1  UNL     1      19.116   4.516  -1.915  1.00  0.00    -0.391 OA
HETATM    7  C6  UNL     1      20.050   5.266  -2.516  1.00  0.00     0.167 C 
HETATM    8  C7  UNL     1      21.338   4.896  -3.079  1.00  0.00     0.026 C 
HETATM    9  C8  UNL     1      21.809   6.228  -3.704  1.00  0.00     0.002 C 
HETATM   10  C9  UNL     1      21.584   7.449  -2.892  1.00  0.00     0.000 C 
ENDROOT
TORSDOF 0
ENDMDL
MODEL 2
REMARK VINA RESULT: -5.031139452      0.858      3.060
REMARK  0 active torsions:
REMARK  status: ('A' for Active; 'I' for Inactive)
ROOT
HETATM    1  C1  UNL     1      18.953   8.019  -1.300  1.00  0.00     0.000 C 
HETATM    2  C2  UNL     1      19.682   8.846  -2.276  1.00  0.00     0.000 C 
HETATM    3  C3  UNL     1      20.649   8.294  -3.230  1.00  0.00     0.002 C 
HETATM    4  C4  UNL     1      21.645   7.270  -2.829  1.00  0.00     0.026 C 
HETATM    5  C5  UNL     1      21.719   6.004  -3.568  1.00  0.00     0.167 C 
HETATM    6  O1  UNL     1      21.129   4.842  -2.998  1.00  0.00    -0.391 OA
HETATM    7  C6  UNL     1      20.035   5.267  -2.351  1.00  0.00     0.167 C 
HETATM    8  C7  UNL     1      18.862   4.536  -1.901  1.00  0.00     0.026 C 
HETATM    9  C8  UNL     1      18.081   5.626  -1.134  1.00  0.00     0.002 C 
HETATM   10  C9  UNL     1      18.023   6.964  -1.772  1.00  0.00     0.000 C 
ENDROOT
TORSDOF 0
ENDMDL
MODEL 3
REMARK VINA RESULT: -4.662991223      1.540      2.964
REMARK  0 active torsions:
REMARK  status: ('A' for Active; 'I' for Inactive)
ROOT
HETATM    1  C1  UNL     1      19.288   4.879  -1.648  1.00  0.00     0.000 C 
HETATM    2  C2  UNL     1      18.031   5.628  -1.487  1.00  0.00     0.000 C 
HETATM    3  C3  UNL     1      17.929   7.077  -1.689  1.00  0.00     0.002 C 
HETATM    4  C4  UNL     1      18.959   8.011  -1.173  1.00  0.00     0.026 C 
HETATM    5  C5  UNL     1      19.614   8.948  -2.096  1.00  0.00     0.167 C 
HETATM    6  O1  UNL     1      20.925   8.647  -2.559  1.00  0.00    -0.391 OA
HETATM    7  C6  UNL     1      20.971   7.314  -2.689  1.00  0.00     0.167 C 
HETATM    8  C7  UNL     1      21.883   6.472  -3.445  1.00  0.00     0.026 C 
HETATM    9  C8  UNL     1      21.424   5.055  -3.035  1.00  0.00     0.002 C 
HETATM   10  C9  UNL     1      19.958   4.833  -2.971  1.00  0.00     0.000 C 
ENDROOT
TORSDOF 0
ENDMDL
MODEL 4
REMARK VINA RESULT: -4.490659469      1.281      3.311
REMARK  0 active torsions:
REMARK  status: ('A' for Active; 'I' for Inactive)
ROOT
HETATM    1  C1  UNL     1      17.825   7.017  -1.726  1.00  0.00     0.000 C 
HETATM    2  C2  UNL     1      17.867   5.604  -1.319  1.00  0.00     0.000 C 
HETATM    3  C3  UNL     1      19.007   4.723  -1.594  1.00  0.00     0.002 C 
HETATM    4  C4  UNL     1      19.699   4.729  -2.906  1.00  0.00     0.026 C 
HETATM    5  C5  UNL     1      21.150   4.949  -2.959  1.00  0.00     0.167 C 
HETATM    6  O1  UNL     1      21.635   6.233  -3.330  1.00  0.00    -0.391 OA
HETATM    7  C6  UNL     1      20.763   7.115  -2.823  1.00  0.00     0.167 C 
HETATM    8  C7  UNL     1      20.906   8.537  -2.559  1.00  0.00     0.026 C 
HETATM    9  C8  UNL     1      19.482   8.922  -2.100  1.00  0.00     0.002 C 
HETATM   10  C9  UNL     1      18.814   7.976  -1.173  1.00  0.00     0.000 C 
ENDROOT
TORSDOF 0
ENDMDL
MODEL 5
REMARK VINA RESULT: -4.381327750      1.620      4.076
REMARK  0 active torsions:
REMARK  status: ('A' for Active; 'I' for Inactive)
ROOT
HETATM    1  C1  UNL     1      19.480   4.778  -2.698  1.00  0.00     0.000 C 
HETATM    2  C2  UNL     1      20.945   4.854  -2.813  1.00  0.00     0.000 C 
HETATM    3  C3  UNL     1      21.692   6.113  -2.725  1.00  0.00     0.002 C 
HETATM    4  C4  UNL     1      21.225   7.347  -3.403  1.00  0.00     0.026 C 
HETATM    5  C5  UNL     1      21.038   8.576  -2.621  1.00  0.00     0.167 C 
HETATM    6  O1  UNL     1      19.719   8.955  -2.247  1.00  0.00    -0.391 OA
HETATM    7  C6  UNL     1      19.062   7.812  -2.011  1.00  0.00     0.167 C 
HETATM    8  C7  UNL     1      17.838   7.563  -1.268  1.00  0.00     0.026 C 
HETATM    9  C8  UNL     1      17.612   6.055  -1.518  1.00  0.00     0.002 C 
HETATM   10  C9  UNL     1      18.814   5.190  -1.438  1.00  0.00     0.000 C 
ENDROOT
TORSDOF 0
ENDMDL
