MODEL 1
REMARK VINA RESULT: -4.750080701      0.000      0.000
REMARK  0 active torsions:
REMARK  status: ('A' for Active; 'I' for Inactive)
ROOT
HETATM    1  C1  UNL     1      22.754   6.730  -3.918  1.00  0.00     0.040 C 
HETATM    2  C2  UNL     1      21.309   6.895  -3.532  1.00  0.00     0.182 C 
HETATM    3  C3  UNL     1      20.978   8.278  -3.132  1.00  0.00     0.033 C 
HETATM    4  C4  UNL     1      19.769   8.467  -2.300  1.00  0.00     0.008 C 
HETATM    5  C5  UNL     1      19.240   7.254  -1.635  1.00  0.00     0.016 C 
HETATM    6  C6  UNL     1      17.761   7.163  -1.527  1.00  0.00     0.007 C 
HETATM    7  C7  UNL     1      17.497   5.687  -1.300  1.00  0.00     0.002 C 
HETATM    8  C8  UNL     1      18.826   4.982  -1.606  1.00  0.00     0.033 C 
HETATM    9  C9  UNL     1      19.516   5.977  -2.445  1.00  0.00     0.190 C 
HETATM   10  N1  UNL     1      20.926   5.884  -2.551  1.00  0.00    -0.067 N 
ATOM     11  H11 UNL     1      21.412   5.974  -1.659  1.00  0.00     0.278 HD
ATOM     12  H12 UNL     1      21.260   4.947  -2.776  1.00  0.00     0.278 HD
ENDROOT
TORSDOF 0
ENDMDL
MODEL 2
REMARK VINA RESULT: -4.300536410      1.184      3.633
REMARK  0 active torsions:
REMARK  status: ('A' for Active; 'I' for Inactive)
ROOT
HETATM    1  C1  UNL     1      17.077   5.600  -1.334  1.00  0.00     0.040 C 
HETATM    2  C2  UNL     1      18.500   6.078  -1.438  1.00  0.00     0.182 C 
HETATM    3  C3  UNL     1      18.602   7.544  -1.581  1.00  0.00     0.033 C 
HETATM    4  C4  UNL     1      19.856   8.078  -2.158  1.00  0.00     0.008 C 
HETATM    5  C5  UNL     1      20.707   7.105  -2.881  1.00  0.00     0.016 C 
HETATM    6  C6  UNL     1      22.174   7.293  -2.743  1.00  0.00     0.007 C 
HETATM    7  C7  UNL     1      22.756   5.945  -3.121  1.00  0.00     0.002 C 
HETATM    8  C8  UNL     1      21.565   4.978  -3.150  1.00  0.00     0.033 C 
HETATM    9  C9  UNL     1      20.578   5.682  -2.314  1.00  0.00     0.190 C 
HETATM   10  N1  UNL     1      19.214   5.328  -2.467  1.00  0.00    -0.067 N 
ATOM     11  H11 UNL     1      18.853   5.480  -3.409  1.00  0.00     0.278 HD
ATOM     12  H12 UNL     1      19.045   4.322  -2.433  1.00  0.00     0.278 HD
ENDROOT
TORSDOF 0
ENDMDL
MODEL 3
REMARK VINA RESULT: -4.229985222      1.275      2.166
REMARK  0 active torsions:
REMARK  status: ('A' for Active; 'I' for Inactive)
ROOT
HETATM    1  C1  UNL     1      22.970   3.990  -3.913  1.00  0.00     0.040 C 
HETATM    2  C2  UNL     1      22.130   5.228  -3.756  1.00  0.00     0.182 C 
HETATM    3  C3  UNL     1      22.935   6.465  -3.715  1.00  0.00     0.033 C 
HETATM    4  C4  UNL     1      22.307   7.657  -3.101  1.00  0.00     0.008 C 
HETATM    5  C5  UNL     1      21.117   7.404  -2.256  1.00  0.00     0.016 C 
HETATM    6  C6  UNL     1      20.046   8.433  -2.316  1.00  0.00     0.007 C 
HETATM    7  C7  UNL     1      18.814   7.711  -1.805  1.00  0.00     0.002 C 
HETATM    8  C8  UNL     1      19.191   6.224  -1.779  1.00  0.00     0.033 C 
HETATM    9  C9  UNL     1      20.319   6.177  -2.725  1.00  0.00     0.190 C 
HETATM   10  N1  UNL     1      21.211   5.079  -2.632  1.00  0.00    -0.067 N 
ATOM     11  H11 UNL     1      21.677   5.004  -1.728  1.00  0.00     0.278 HD
ATOM     12  H12 UNL     1      20.743   4.172  -2.602  1.00  0.00     0.278 HD
ENDROOT
TORSDOF 0
ENDMDL
MODEL 4
REMARK VINA RESULT: -4.205499737      1.271      2.313
REMARK  0 active torsions:
REMARK  status: ('A' for Active; 'I' for Inactive)
ROOT
HETATM    1  C1  UNL     1      23.780   7.537  -3.592  1.00  0.00     0.040 C 
HETATM    2  C2  UNL     1      22.581   7.067  -2.814  1.00  0.00     0.182 C 
HETATM    3  C3  UNL     1      22.298   5.631  -3.011  1.00  0.00     0.033 C 
HETATM    4  C4  UNL     1      20.926   5.168  -2.709  1.00  0.00     0.008 C 
HETATM    5  C5  UNL     1      19.888   6.221  -2.619  1.00  0.00     0.016 C 
HETATM    6  C6  UNL     1      18.829   6.006  -1.598  1.00  0.00     0.007 C 
HETATM    7  C7  UNL     1      18.246   7.388  -1.375  1.00  0.00     0.002 C 
HETATM    8  C8  UNL     1      19.221   8.358  -2.056  1.00  0.00     0.033 C 
HETATM    9  C9  UNL     1      20.456   7.559  -2.119  1.00  0.00     0.190 C 
HETATM   10  N1  UNL     1      21.438   7.939  -3.068  1.00  0.00    -0.067 N 
ATOM     11  H11 UNL     1      21.109   7.913  -4.033  1.00  0.00     0.278 HD
ATOM     12  H12 UNL     1      21.667   8.933  -3.045  1.00  0.00     0.278 HD
ENDROOT
TORSDOF 0
ENDMDL
MODEL 5
REMARK VINA RESULT: -4.198861533      1.407      3.736
REMARK  0 active torsions:
REMARK  status: ('A' for Active; 'I' for Inactive)
ROOT
HETATM    1  C1  UNL     1      18.488   7.606  -1.078  1.00  0.00     0.040 C 
HETATM    2  C2  UNL     1      19.759   7.575  -1.882  1.00  0.00     0.182 C 
HETATM    3  C3  UNL     1      19.818   8.644  -2.899  1.00  0.00     0.033 C 
HETATM    4  C4  UNL     1      20.746   8.443  -4.034  1.00  0.00     0.008 C 
HETATM    5  C5  UNL     1      21.223   7.057  -4.248  1.00  0.00     0.016 C 
HETATM    6  C6  UNL     1      22.627   6.916  -4.715  1.00  0.00     0.007 C 
HETATM    7  C7  UNL     1      22.990   5.486  -4.365  1.00  0.00     0.002 C 
HETATM    8  C8  UNL     1      21.871   4.995  -3.436  1.00  0.00     0.033 C 
HETATM    9  C9  UNL     1      21.309   6.261  -2.936  1.00  0.00     0.190 C 
HETATM   10  N1  UNL     1      19.992   6.236  -2.413  1.00  0.00    -0.067 N 
ATOM     11  H11 UNL     1      19.288   5.933  -3.087  1.00  0.00     0.278 HD
ATOM     12  H12 UNL     1      19.835   5.492  -1.733  1.00  0.00     0.278 HD
ENDROOT
TORSDOF 0
ENDMDL
