MODEL 1
REMARK VINA RESULT: -4.749694329      0.000      0.000
REMARK  0 active torsions:
REMARK  status: ('A' for Active; 'I' for Inactive)
ROOT
HETATM    1  C1  UNL     1      16.796   6.650  -1.768  1.00  0.00     0.023 C 
HETATM    2  C2  UNL     1      18.208   6.690  -1.179  1.00  0.00     0.053 C 
HETATM    3  C3  UNL     1      18.839   5.260  -1.314  1.00  0.00     0.042 C 
HETATM    4  C4  UNL     1      19.640   5.040  -2.531  1.00  0.00    -0.027 C 
HETATM    5  C5  UNL     1      20.996   5.496  -2.776  1.00  0.00    -0.007 C 
HETATM    6  C6  UNL     1      21.504   6.856  -2.689  1.00  0.00     0.096 C 
HETATM    7  C7  UNL     1      22.877   6.800  -3.440  1.00  0.00     0.036 C 
HETATM    8  N1  UNL     1      20.931   8.024  -3.158  1.00  0.00    -0.405 N 
ATOM      9  H1  UNL     1      21.264   8.462  -4.017  1.00  0.00     0.154 HD
HETATM   10  C8  UNL     1      19.810   8.629  -2.376  1.00  0.00     0.195 C 
HETATM   11  C9  UNL     1      19.115   7.533  -1.839  1.00  0.00    -0.159 C 
ENDROOT
TORSDOF 0
ENDMDL
MODEL 2
REMARK VINA RESULT: -4.638003665      1.459      4.134
REMARK  0 active torsions:
REMARK  status: ('A' for Active; 'I' for Inactive)
ROOT
HETATM    1  C1  UNL     1      22.291   7.937  -4.178  1.00  0.00     0.023 C 
HETATM    2  C2  UNL     1      21.830   7.523  -2.779  1.00  0.00     0.053 C 
HETATM    3  C3  UNL     1      20.801   8.590  -2.264  1.00  0.00     0.042 C 
HETATM    4  C4  UNL     1      19.387   8.279  -2.534  1.00  0.00    -0.027 C 
HETATM    5  C5  UNL     1      18.547   7.342  -1.810  1.00  0.00    -0.007 C 
HETATM    6  C6  UNL     1      18.807   5.935  -1.551  1.00  0.00     0.096 C 
HETATM    7  C7  UNL     1      17.416   5.364  -1.112  1.00  0.00     0.036 C 
HETATM    8  N1  UNL     1      19.287   4.972  -2.420  1.00  0.00    -0.405 N 
ATOM      9  H1  UNL     1      18.659   4.288  -2.842  1.00  0.00     0.154 HD
HETATM   10  C8  UNL     1      20.750   4.957  -2.726  1.00  0.00     0.195 C 
HETATM   11  C9  UNL     1      21.134   6.307  -2.706  1.00  0.00    -0.159 C 
ENDROOT
TORSDOF 0
ENDMDL
MODEL 3
REMARK VINA RESULT: -4.474750088      1.688      4.332
REMARK  0 active torsions:
REMARK  status: ('A' for Active; 'I' for Inactive)
ROOT
HETATM    1  C1  UNL     1      22.057   6.373  -6.104  1.00  0.00     0.023 C 
HETATM    2  C2  UNL     1      22.199   6.829  -4.651  1.00  0.00     0.053 C 
HETATM    3  C3  UNL     1      21.785   8.340  -4.566  1.00  0.00     0.042 C 
HETATM    4  C4  UNL     1      20.372   8.584  -4.226  1.00  0.00    -0.027 C 
HETATM    5  C5  UNL     1      19.765   8.501  -2.910  1.00  0.00    -0.007 C 
HETATM    6  C6  UNL     1      19.790   7.373  -1.992  1.00  0.00     0.096 C 
HETATM    7  C7  UNL     1      18.662   7.699  -0.956  1.00  0.00     0.036 C 
HETATM    8  N1  UNL     1      19.595   6.032  -2.266  1.00  0.00    -0.405 N 
ATOM      9  H1  UNL     1      18.708   5.578  -2.048  1.00  0.00     0.154 HD
HETATM   10  C8  UNL     1      20.715   5.264  -2.889  1.00  0.00     0.195 C 
HETATM   11  C9  UNL     1      21.359   6.186  -3.730  1.00  0.00    -0.159 C 
ENDROOT
TORSDOF 0
ENDMDL
MODEL 4
REMARK VINA RESULT: -4.278532916      1.518      2.653
REMARK  0 active torsions:
REMARK  status: ('A' for Active; 'I' for Inactive)
ROOT
HETATM    1  C1  UNL     1      18.569   7.704  -0.671  1.00  0.00     0.023 C 
HETATM    2  C2  UNL     1      19.013   7.460  -2.114  1.00  0.00     0.053 C 
HETATM    3  C3  UNL     1      20.037   8.580  -2.511  1.00  0.00     0.042 C 
HETATM    4  C4  UNL     1      21.454   8.238  -2.298  1.00  0.00    -0.027 C 
HETATM    5  C5  UNL     1      22.283   7.394  -3.139  1.00  0.00    -0.007 C 
HETATM    6  C6  UNL     1      22.017   6.028  -3.560  1.00  0.00     0.096 C 
HETATM    7  C7  UNL     1      23.401   5.513  -4.082  1.00  0.00     0.036 C 
HETATM    8  N1  UNL     1      21.546   4.968  -2.807  1.00  0.00    -0.405 N 
ATOM      9  H1  UNL     1      22.178   4.239  -2.477  1.00  0.00     0.154 HD
HETATM   10  C8  UNL     1      20.087   4.918  -2.487  1.00  0.00     0.195 C 
HETATM   11  C9  UNL     1      19.705   6.261  -2.340  1.00  0.00    -0.159 C 
ENDROOT
TORSDOF 0
ENDMDL
MODEL 5
REMARK VINA RESULT: -4.214383275      1.408      3.705
REMARK  0 active torsions:
REMARK  status: ('A' for Active; 'I' for Inactive)
ROOT
HETATM    1  C1  UNL     1      22.907   8.048  -4.299  1.00  0.00     0.023 C 
HETATM    2  C2  UNL     1      21.481   7.523  -4.480  1.00  0.00     0.053 C 
HETATM    3  C3  UNL     1      21.533   5.955  -4.505  1.00  0.00     0.042 C 
HETATM    4  C4  UNL     1      21.326   5.300  -3.202  1.00  0.00    -0.027 C 
HETATM    5  C5  UNL     1      20.060   5.096  -2.521  1.00  0.00    -0.007 C 
HETATM    6  C6  UNL     1      19.068   6.101  -2.172  1.00  0.00     0.096 C 
HETATM    7  C7  UNL     1      18.152   5.386  -1.124  1.00  0.00     0.036 C 
HETATM    8  N1  UNL     1      19.266   7.354  -1.622  1.00  0.00    -0.405 N 
ATOM      9  H1  UNL     1      19.090   7.524  -0.632  1.00  0.00     0.154 HD
HETATM   10  C8  UNL     1      19.743   8.455  -2.514  1.00  0.00     0.195 C 
HETATM   11  C9  UNL     1      20.589   7.824  -3.440  1.00  0.00    -0.159 C 
ENDROOT
TORSDOF 0
ENDMDL
