MODEL 1
REMARK VINA RESULT: -2.542988655      0.000      0.000
REMARK  0 active torsions:
REMARK  status: ('A' for Active; 'I' for Inactive)
ROOT
HETATM    1  C1  UNL     1      20.250   6.546  -2.883  1.00  0.00     0.026 C 
HETATM    2  C2  UNL     1      21.693   6.051  -2.843  1.00  0.00     0.077 C 
HETATM    3  S1  UNL     1      22.401   7.849  -2.619  1.00  0.00    -0.143 SA
HETATM    4  S2  UNL     1      22.334   8.854  -4.666  1.00  0.00    -0.035 SA
HETATM    5  S3  UNL     1      20.183   8.836  -4.684  1.00  0.00    -0.086 SA
HETATM    6  C3  UNL     1      19.881   9.069  -2.891  1.00  0.00     0.102 C 
HETATM    7  C4  UNL     1      20.548   7.875  -2.237  1.00  0.00     0.059 C 
ENDROOT
TORSDOF 0
ENDMDL
MODEL 2
REMARK VINA RESULT: -2.463381765      0.640      2.722
REMARK  0 active torsions:
REMARK  status: ('A' for Active; 'I' for Inactive)
ROOT
HETATM    1  C1  UNL     1      19.950   7.896  -1.941  1.00  0.00     0.026 C 
HETATM    2  C2  UNL     1      19.674   9.072  -2.875  1.00  0.00     0.077 C 
HETATM    3  S1  UNL     1      20.576   8.215  -4.371  1.00  0.00    -0.143 SA
HETATM    4  S2  UNL     1      22.818   8.445  -4.020  1.00  0.00    -0.035 SA
HETATM    5  S3  UNL     1      22.751   7.170  -2.289  1.00  0.00    -0.086 SA
HETATM    6  C3  UNL     1      21.431   6.021  -2.832  1.00  0.00     0.102 C 
HETATM    7  C4  UNL     1      20.221   6.910  -3.048  1.00  0.00     0.059 C 
ENDROOT
TORSDOF 0
ENDMDL
MODEL 3
REMARK VINA RESULT: -2.453943689      2.286      3.235
REMARK  0 active torsions:
REMARK  status: ('A' for Active; 'I' for Inactive)
ROOT
HETATM    1  C1  UNL     1      20.958   7.855  -4.824  1.00  0.00     0.026 C 
HETATM    2  C2  UNL     1      19.955   8.990  -4.642  1.00  0.00     0.077 C 
HETATM    3  S1  UNL     1      20.175   8.999  -2.710  1.00  0.00    -0.143 SA
HETATM    4  S2  UNL     1      18.992   7.227  -1.893  1.00  0.00    -0.035 SA
HETATM    5  S3  UNL     1      20.310   5.817  -2.843  1.00  0.00    -0.086 SA
HETATM    6  C3  UNL     1      21.877   6.759  -2.713  1.00  0.00     0.102 C 
HETATM    7  C4  UNL     1      21.613   8.041  -3.480  1.00  0.00     0.059 C 
ENDROOT
TORSDOF 0
ENDMDL
MODEL 4
REMARK VINA RESULT: -2.431000053      2.411      2.805
REMARK  0 active torsions:
REMARK  status: ('A' for Active; 'I' for Inactive)
ROOT
HETATM    1  C1  UNL     1      21.823   7.871  -2.226  1.00  0.00     0.026 C 
HETATM    2  C2  UNL     1      22.253   6.424  -2.450  1.00  0.00     0.077 C 
HETATM    3  S1  UNL     1      20.670   6.019  -3.506  1.00  0.00    -0.143 SA
HETATM    4  S2  UNL     1      18.942   5.746  -2.042  1.00  0.00    -0.035 SA
HETATM    5  S3  UNL     1      19.011   7.816  -1.463  1.00  0.00    -0.086 SA
HETATM    6  C3  UNL     1      19.512   8.545  -3.068  1.00  0.00     0.102 C 
HETATM    7  C4  UNL     1      20.849   7.898  -3.376  1.00  0.00     0.059 C 
ENDROOT
TORSDOF 0
ENDMDL
MODEL 5
REMARK VINA RESULT: -2.402537105      2.184      2.559
REMARK  0 active torsions:
REMARK  status: ('A' for Active; 'I' for Inactive)
ROOT
HETATM    1  C1  UNL     1      22.339   7.863  -3.293  1.00  0.00     0.026 C 
HETATM    2  C2  UNL     1      22.344   6.528  -2.553  1.00  0.00     0.077 C 
HETATM    3  S1  UNL     1      20.540   6.093  -3.135  1.00  0.00    -0.143 SA
HETATM    4  S2  UNL     1      19.107   7.311  -1.844  1.00  0.00    -0.035 SA
HETATM    5  S3  UNL     1      19.800   9.161  -2.695  1.00  0.00    -0.086 SA
HETATM    6  C3  UNL     1      20.154   8.578  -4.396  1.00  0.00     0.102 C 
HETATM    7  C4  UNL     1      21.203   7.498  -4.214  1.00  0.00     0.059 C 
ENDROOT
TORSDOF 0
ENDMDL
