MODEL 1
REMARK VINA RESULT: -4.861205604      0.000      0.000
REMARK  1 active torsions:
REMARK  status: ('A' for Active; 'I' for Inactive)
REMARK    1  A    between atoms: N1_9  and  O1_11 
ROOT
HETATM    1  C1  UNL     1      22.002   4.875  -3.449  1.00  0.00     0.016 C 
HETATM    2  C2  UNL     1      20.656   5.462  -3.805  1.00  0.00     0.030 C 
HETATM    3  C3  UNL     1      20.883   6.896  -4.244  1.00  0.00     0.019 C 
HETATM    4  C4  UNL     1      20.523   7.760  -3.072  1.00  0.00    -0.042 C 
HETATM    5  C5  UNL     1      19.777   8.993  -3.579  1.00  0.00     0.015 C 
HETATM    6  C6  UNL     1      21.701   8.236  -2.290  1.00  0.00     0.015 C 
HETATM    7  C7  UNL     1      19.636   6.926  -2.168  1.00  0.00     0.063 C 
HETATM    8  C8  UNL     1      19.738   5.535  -2.672  1.00  0.00     0.014 C 
HETATM    9  N1  UNL     1      19.099   4.541  -2.172  1.00  0.00    -0.277 N 
ATOM     10  H1  UNL     1      19.235   3.620  -2.589  1.00  0.00     0.193 HD
ENDROOT
BRANCH   9  11
HETATM   11  O1  UNL     1      18.242   4.652  -1.106  1.00  0.00    -0.290 OA
ATOM     12  H1  UNL     1      18.102   3.958  -0.472  1.00  0.00     0.244 HD
ENDBRANCH   9  11
TORSDOF 1
ENDMDL
MODEL 2
REMARK VINA RESULT: -4.323235643      1.397      2.881
REMARK  1 active torsions:
REMARK  status: ('A' for Active; 'I' for Inactive)
REMARK    1  A    between atoms: N1_9  and  O1_11 
ROOT
HETATM    1  C1  UNL     1      17.164   8.032  -1.762  1.00  0.00     0.016 C 
HETATM    2  C2  UNL     1      18.465   7.601  -1.124  1.00  0.00     0.030 C 
HETATM    3  C3  UNL     1      19.548   8.547  -1.605  1.00  0.00     0.019 C 
HETATM    4  C4  UNL     1      20.286   7.829  -2.695  1.00  0.00    -0.042 C 
HETATM    5  C5  UNL     1      21.779   8.117  -2.552  1.00  0.00     0.015 C 
HETATM    6  C6  UNL     1      19.877   8.238  -4.071  1.00  0.00     0.015 C 
HETATM    7  C7  UNL     1      20.001   6.350  -2.516  1.00  0.00     0.063 C 
HETATM    8  C8  UNL     1      18.896   6.266  -1.532  1.00  0.00     0.014 C 
HETATM    9  N1  UNL     1      18.396   5.164  -1.104  1.00  0.00    -0.277 N 
ATOM     10  H1  UNL     1      17.635   5.210  -0.426  1.00  0.00     0.193 HD
ENDROOT
BRANCH   9  11
HETATM   11  O1  UNL     1      18.831   3.928  -1.512  1.00  0.00    -0.290 OA
ATOM     12  H1  UNL     1      19.369   3.359  -0.974  1.00  0.00     0.244 HD
ENDBRANCH   9  11
TORSDOF 1
ENDMDL
MODEL 3
REMARK VINA RESULT: -4.301912992      2.128      3.310
REMARK  1 active torsions:
REMARK  status: ('A' for Active; 'I' for Inactive)
REMARK    1  A    between atoms: N1_9  and  O1_11 
ROOT
HETATM    1  C1  UNL     1      19.987   9.004  -5.140  1.00  0.00     0.016 C 
HETATM    2  C2  UNL     1      20.649   9.004  -3.782  1.00  0.00     0.030 C 
HETATM    3  C3  UNL     1      21.917   8.179  -3.889  1.00  0.00     0.019 C 
HETATM    4  C4  UNL     1      21.597   6.833  -3.309  1.00  0.00    -0.042 C 
HETATM    5  C5  UNL     1      22.791   6.355  -2.487  1.00  0.00     0.015 C 
HETATM    6  C6  UNL     1      21.308   5.789  -4.335  1.00  0.00     0.015 C 
HETATM    7  C7  UNL     1      20.374   7.013  -2.432  1.00  0.00     0.063 C 
HETATM    8  C8  UNL     1      19.845   8.363  -2.745  1.00  0.00     0.014 C 
HETATM    9  N1  UNL     1      18.821   8.884  -2.174  1.00  0.00    -0.277 N 
ATOM     10  H1  UNL     1      18.533   9.821  -2.458  1.00  0.00     0.193 HD
ENDROOT
BRANCH   9  11
HETATM   11  O1  UNL     1      18.093   8.247  -1.201  1.00  0.00    -0.290 OA
ATOM     12  H1  UNL     1      17.144   8.283  -1.149  1.00  0.00     0.244 HD
ENDBRANCH   9  11
TORSDOF 1
ENDMDL
MODEL 4
REMARK VINA RESULT: -4.232571241      1.034      2.681
REMARK  1 active torsions:
REMARK  status: ('A' for Active; 'I' for Inactive)
REMARK    1  A    between atoms: N1_9  and  O1_11 
ROOT
HETATM    1  C1  UNL     1      19.027   8.493  -2.621  1.00  0.00     0.016 C 
HETATM    2  C2  UNL     1      19.939   7.559  -1.859  1.00  0.00     0.030 C 
HETATM    3  C3  UNL     1      21.338   7.725  -2.421  1.00  0.00     0.019 C 
HETATM    4  C4  UNL     1      21.561   6.569  -3.350  1.00  0.00    -0.042 C 
HETATM    5  C5  UNL     1      22.993   6.066  -3.175  1.00  0.00     0.015 C 
HETATM    6  C6  UNL     1      21.375   6.909  -4.791  1.00  0.00     0.015 C 
HETATM    7  C7  UNL     1      20.561   5.497  -2.964  1.00  0.00     0.063 C 
HETATM    8  C8  UNL     1      19.605   6.149  -2.036  1.00  0.00     0.014 C 
HETATM    9  N1  UNL     1      18.623   5.544  -1.474  1.00  0.00    -0.277 N 
ATOM     10  H1  UNL     1      18.019   6.080  -0.850  1.00  0.00     0.193 HD
ENDROOT
BRANCH   9  11
HETATM   11  O1  UNL     1      18.344   4.215  -1.667  1.00  0.00    -0.290 OA
ATOM     12  H1  UNL     1      18.461   3.552  -0.995  1.00  0.00     0.244 HD
ENDBRANCH   9  11
TORSDOF 1
ENDMDL
MODEL 5
REMARK VINA RESULT: -3.913252897      1.951      2.620
REMARK  1 active torsions:
REMARK  status: ('A' for Active; 'I' for Inactive)
REMARK    1  A    between atoms: N1_9  and  O1_11 
ROOT
HETATM    1  C1  UNL     1      23.076   8.104  -1.529  1.00  0.00     0.016 C 
HETATM    2  C2  UNL     1      22.780   7.648  -2.940  1.00  0.00     0.030 C 
HETATM    3  C3  UNL     1      22.071   8.785  -3.649  1.00  0.00     0.019 C 
HETATM    4  C4  UNL     1      20.610   8.444  -3.641  1.00  0.00    -0.042 C 
HETATM    5  C5  UNL     1      20.007   8.826  -4.991  1.00  0.00     0.015 C 
HETATM    6  C6  UNL     1      19.832   9.152  -2.583  1.00  0.00     0.015 C 
HETATM    7  C7  UNL     1      20.510   6.949  -3.408  1.00  0.00     0.063 C 
HETATM    8  C8  UNL     1      21.868   6.511  -3.002  1.00  0.00     0.014 C 
HETATM    9  N1  UNL     1      22.183   5.294  -2.744  1.00  0.00    -0.277 N 
ATOM     10  H1  UNL     1      23.145   5.091  -2.472  1.00  0.00     0.193 HD
ENDROOT
BRANCH   9  11
HETATM   11  O1  UNL     1      21.293   4.251  -2.817  1.00  0.00    -0.290 OA
ATOM     12  H1  UNL     1      20.575   4.218  -3.438  1.00  0.00     0.244 HD
ENDBRANCH   9  11
TORSDOF 1
ENDMDL
