MODEL 1
REMARK VINA RESULT: -3.778766066      0.000      0.000
REMARK  2 active torsions:
REMARK  status: ('A' for Active; 'I' for Inactive)
REMARK    1  A    between atoms: C2_2  and  N1_5 
REMARK       I    between atoms: N1_5  and  C5_7 
REMARK    2  A    between atoms: C5_7  and  S1_9 
ROOT
HETATM    1  S1  UNL     1      18.358   7.557  -1.368  1.00  0.00     0.050 SA
HETATM    2  C6  UNL     1      18.311   5.801  -1.484  1.00  0.00     0.143 C 
HETATM    3  N2  UNL     1      18.277   4.643  -1.557  1.00  0.00    -0.184 NA
ENDROOT
BRANCH   1   4
HETATM    4  C5  UNL     1      19.561   8.178  -2.497  1.00  0.00     0.294 C 
HETATM    5  N1  UNL     1      20.279   7.298  -3.304  1.00  0.00    -0.343 N 
ATOM      6  H1  UNL     1      20.075   6.303  -3.206  1.00  0.00     0.164 HD
HETATM    7  O1  UNL     1      19.766   9.402  -2.570  1.00  0.00    -0.259 OA
BRANCH   5   8
HETATM    8  C2  UNL     1      21.289   7.672  -4.267  1.00  0.00     0.022 C 
HETATM    9  C1  UNL     1      22.458   8.386  -3.658  1.00  0.00     0.037 C 
HETATM   10  C3  UNL     1      21.820   6.361  -4.843  1.00  0.00     0.037 C 
HETATM   11  C4  UNL     1      20.707   8.446  -5.397  1.00  0.00     0.037 C 
ENDBRANCH   5   8
ENDBRANCH   1   4
TORSDOF 2
ENDMDL
MODEL 2
REMARK VINA RESULT: -3.693478312      1.797      1.872
REMARK  2 active torsions:
REMARK  status: ('A' for Active; 'I' for Inactive)
REMARK    1  A    between atoms: C2_2  and  N1_5 
REMARK       I    between atoms: N1_5  and  C5_7 
REMARK    2  A    between atoms: C5_7  and  S1_9 
ROOT
HETATM    1  S1  UNL     1      20.410   4.977  -2.880  1.00  0.00     0.050 SA
HETATM    2  C6  UNL     1      18.908   4.919  -1.962  1.00  0.00     0.143 C 
HETATM    3  N2  UNL     1      17.919   4.878  -1.356  1.00  0.00    -0.184 NA
ENDROOT
BRANCH   1   4
HETATM    4  C5  UNL     1      20.720   6.639  -3.377  1.00  0.00     0.294 C 
HETATM    5  N1  UNL     1      21.085   6.916  -4.692  1.00  0.00    -0.343 N 
ATOM      6  H1  UNL     1      21.161   6.125  -5.332  1.00  0.00     0.164 HD
HETATM    7  O1  UNL     1      20.612   7.561  -2.550  1.00  0.00    -0.259 OA
BRANCH   5   8
HETATM    8  C2  UNL     1      21.366   8.227  -5.229  1.00  0.00     0.022 C 
HETATM    9  C1  UNL     1      22.480   8.936  -4.518  1.00  0.00     0.037 C 
HETATM   10  C3  UNL     1      21.833   7.997  -6.666  1.00  0.00     0.037 C 
HETATM   11  C4  UNL     1      20.139   9.067  -5.294  1.00  0.00     0.037 C 
ENDBRANCH   5   8
ENDBRANCH   1   4
TORSDOF 2
ENDMDL
MODEL 3
REMARK VINA RESULT: -3.601786785      0.389      1.223
REMARK  2 active torsions:
REMARK  status: ('A' for Active; 'I' for Inactive)
REMARK    1  A    between atoms: C2_2  and  N1_5 
REMARK       I    between atoms: N1_5  and  C5_7 
REMARK    2  A    between atoms: C5_7  and  S1_9 
ROOT
HETATM    1  S1  UNL     1      18.245   7.535  -1.414  1.00  0.00     0.050 SA
HETATM    2  C6  UNL     1      18.334   5.781  -1.529  1.00  0.00     0.143 C 
HETATM    3  N2  UNL     1      18.390   4.623  -1.603  1.00  0.00    -0.184 NA
ENDROOT
BRANCH   1   4
HETATM    4  C5  UNL     1      19.522   8.245  -2.400  1.00  0.00     0.294 C 
HETATM    5  N1  UNL     1      20.241   7.447  -3.286  1.00  0.00    -0.343 N 
ATOM      6  H1  UNL     1      19.994   6.459  -3.330  1.00  0.00     0.164 HD
HETATM    7  O1  UNL     1      19.777   9.457  -2.300  1.00  0.00    -0.259 OA
BRANCH   5   8
HETATM    8  C2  UNL     1      21.308   7.899  -4.150  1.00  0.00     0.022 C 
HETATM    9  C1  UNL     1      20.976   9.154  -4.900  1.00  0.00     0.037 C 
HETATM   10  C3  UNL     1      22.478   8.232  -3.226  1.00  0.00     0.037 C 
HETATM   11  C4  UNL     1      21.764   6.821  -5.068  1.00  0.00     0.037 C 
ENDBRANCH   5   8
ENDBRANCH   1   4
TORSDOF 2
ENDMDL
MODEL 4
REMARK VINA RESULT: -3.521702184      0.212      1.399
REMARK  2 active torsions:
REMARK  status: ('A' for Active; 'I' for Inactive)
REMARK    1  A    between atoms: C2_2  and  N1_5 
REMARK       I    between atoms: N1_5  and  C5_7 
REMARK    2  A    between atoms: C5_7  and  S1_9 
ROOT
HETATM    1  S1  UNL     1      18.385   7.580  -1.384  1.00  0.00     0.050 SA
HETATM    2  C6  UNL     1      18.355   5.824  -1.512  1.00  0.00     0.143 C 
HETATM    3  N2  UNL     1      18.332   4.666  -1.594  1.00  0.00    -0.184 NA
ENDROOT
BRANCH   1   4
HETATM    4  C5  UNL     1      19.650   8.214  -2.435  1.00  0.00     0.294 C 
HETATM    5  N1  UNL     1      20.316   7.363  -3.314  1.00  0.00    -0.343 N 
ATOM      6  H1  UNL     1      20.039   6.381  -3.314  1.00  0.00     0.164 HD
HETATM    7  O1  UNL     1      19.944   9.420  -2.388  1.00  0.00    -0.259 OA
BRANCH   5   8
HETATM    8  C2  UNL     1      21.368   7.751  -4.226  1.00  0.00     0.022 C 
HETATM    9  C1  UNL     1      21.847   6.627  -5.095  1.00  0.00     0.037 C 
HETATM   10  C3  UNL     1      20.749   8.795  -5.154  1.00  0.00     0.037 C 
HETATM   11  C4  UNL     1      22.496   8.408  -3.513  1.00  0.00     0.037 C 
ENDBRANCH   5   8
ENDBRANCH   1   4
TORSDOF 2
ENDMDL
MODEL 5
REMARK VINA RESULT: -3.359514676      1.378      2.008
REMARK  2 active torsions:
REMARK  status: ('A' for Active; 'I' for Inactive)
REMARK    1  A    between atoms: C2_2  and  N1_5 
REMARK       I    between atoms: N1_5  and  C5_7 
REMARK    2  A    between atoms: C5_7  and  S1_9 
ROOT
HETATM    1  S1  UNL     1      18.977   7.636  -1.713  1.00  0.00     0.050 SA
HETATM    2  C6  UNL     1      18.350   6.004  -1.507  1.00  0.00     0.143 C 
HETATM    3  N2  UNL     1      17.934   4.929  -1.368  1.00  0.00    -0.184 NA
ENDROOT
BRANCH   1   4
HETATM    4  C5  UNL     1      20.347   7.593  -2.822  1.00  0.00     0.294 C 
HETATM    5  N1  UNL     1      20.465   8.557  -3.820  1.00  0.00    -0.343 N 
ATOM      6  H1  UNL     1      19.735   9.267  -3.872  1.00  0.00     0.164 HD
HETATM    7  O1  UNL     1      21.204   6.700  -2.709  1.00  0.00    -0.259 OA
BRANCH   5   8
HETATM    8  C2  UNL     1      21.533   8.637  -4.790  1.00  0.00     0.022 C 
HETATM    9  C1  UNL     1      21.531   7.505  -5.773  1.00  0.00     0.037 C 
HETATM   10  C3  UNL     1      21.277   9.915  -5.586  1.00  0.00     0.037 C 
HETATM   11  C4  UNL     1      22.860   8.786  -4.133  1.00  0.00     0.037 C 
ENDBRANCH   5   8
ENDBRANCH   1   4
TORSDOF 2
ENDMDL
