MODEL 1
REMARK VINA RESULT: -4.332581754      0.000      0.000
REMARK  3 active torsions:
REMARK  status: ('A' for Active; 'I' for Inactive)
REMARK    1  A    between atoms: C2_2  and  C3_3 
REMARK    2  A    between atoms: C7_7  and  O1_8 
REMARK    3  A    between atoms: C7_7  and  C8_10 
ROOT
HETATM    1  C8  UNL     1      20.528   9.151  -4.631  1.00  0.00    -0.052 C 
HETATM    2  C9  UNL     1      20.037   8.729  -3.601  1.00  0.00     0.016 C 
HETATM    3  C10 UNL     1      19.464   8.234  -2.402  1.00  0.00     0.152 C 
HETATM    4  N1  UNL     1      18.987   7.820  -1.431  1.00  0.00    -0.182 NA
ENDROOT
BRANCH   1   5
HETATM    5  C7  UNL     1      21.130   9.665  -5.865  1.00  0.00     0.122 C 
HETATM    6  C6  UNL     1      21.866  10.940  -5.553  1.00  0.00     0.051 C 
HETATM    7  C5  UNL     1      22.679  11.463  -6.673  1.00  0.00     0.004 C 
HETATM    8  C4  UNL     1      22.860  10.561  -7.839  1.00  0.00     0.009 C 
HETATM    9  C3  UNL     1      22.900   9.101  -7.548  1.00  0.00     0.011 C 
HETATM   10  C11 UNL     1      22.171   8.673  -6.319  1.00  0.00     0.059 C 
BRANCH   9  11
HETATM   11  C2  UNL     1      22.314   8.339  -8.688  1.00  0.00    -0.032 C 
HETATM   12  C1  UNL     1      21.968   8.922  -9.816  1.00  0.00     0.007 C 
ENDBRANCH   9  11
BRANCH   5  13
HETATM   13  O1  UNL     1      20.159   9.908  -6.802  1.00  0.00    -0.378 OA
ATOM     14  H1  UNL     1      20.438   9.573  -7.647  1.00  0.00     0.211 HD
ENDBRANCH   5  13
ENDBRANCH   1   5
TORSDOF 3
ENDMDL
MODEL 2
REMARK VINA RESULT: -4.217229936      3.387      5.562
REMARK  3 active torsions:
REMARK  status: ('A' for Active; 'I' for Inactive)
REMARK    1  A    between atoms: C2_2  and  C3_3 
REMARK    2  A    between atoms: C7_7  and  O1_8 
REMARK    3  A    between atoms: C7_7  and  C8_10 
ROOT
HETATM    1  C8  UNL     1      21.801  10.630  -4.705  1.00  0.00    -0.052 C 
HETATM    2  C9  UNL     1      22.291  11.705  -4.994  1.00  0.00     0.016 C 
HETATM    3  C10 UNL     1      22.861  12.960  -5.331  1.00  0.00     0.152 C 
HETATM    4  N1  UNL     1      23.312  13.991  -5.604  1.00  0.00    -0.182 NA
ENDROOT
BRANCH   1   5
HETATM    5  C7  UNL     1      21.221   9.331  -4.353  1.00  0.00     0.122 C 
HETATM    6  C6  UNL     1      22.159   8.242  -4.803  1.00  0.00     0.051 C 
HETATM    7  C5  UNL     1      21.785   6.887  -4.339  1.00  0.00     0.004 C 
HETATM    8  C4  UNL     1      20.712   6.809  -3.316  1.00  0.00     0.009 C 
HETATM    9  C3  UNL     1      20.630   7.941  -2.352  1.00  0.00     0.011 C 
HETATM   10  C11 UNL     1      21.160   9.245  -2.849  1.00  0.00     0.059 C 
BRANCH   9  11
HETATM   11  C2  UNL     1      19.212   8.171  -1.956  1.00  0.00    -0.032 C 
HETATM   12  C1  UNL     1      18.420   7.189  -1.581  1.00  0.00     0.007 C 
ENDBRANCH   9  11
BRANCH   5  13
HETATM   13  O1  UNL     1      20.002   9.173  -4.961  1.00  0.00    -0.378 OA
ATOM     14  H1  UNL     1      19.712   8.273  -4.869  1.00  0.00     0.211 HD
ENDBRANCH   5  13
ENDBRANCH   1   5
TORSDOF 3
ENDMDL
MODEL 3
REMARK VINA RESULT: -4.133004831      3.988      5.716
REMARK  3 active torsions:
REMARK  status: ('A' for Active; 'I' for Inactive)
REMARK    1  A    between atoms: C2_2  and  C3_3 
REMARK    2  A    between atoms: C7_7  and  O1_8 
REMARK    3  A    between atoms: C7_7  and  C8_10 
ROOT
HETATM    1  C8  UNL     1      22.462   5.744  -3.424  1.00  0.00    -0.052 C 
HETATM    2  C9  UNL     1      22.839   4.614  -3.671  1.00  0.00     0.016 C 
HETATM    3  C10 UNL     1      23.279   3.296  -3.957  1.00  0.00     0.152 C 
HETATM    4  N1  UNL     1      23.640   2.217  -4.174  1.00  0.00    -0.182 NA
ENDROOT
BRANCH   1   5
HETATM    5  C7  UNL     1      22.001   7.105  -3.138  1.00  0.00     0.122 C 
HETATM    6  C6  UNL     1      22.618   8.048  -4.137  1.00  0.00     0.051 C 
HETATM    7  C5  UNL     1      22.087   9.428  -4.079  1.00  0.00     0.004 C 
HETATM    8  C4  UNL     1      20.877   9.639  -3.245  1.00  0.00     0.009 C 
HETATM    9  C3  UNL     1      19.919   8.502  -3.166  1.00  0.00     0.011 C 
HETATM   10  C11 UNL     1      20.512   7.148  -3.375  1.00  0.00     0.059 C 
BRANCH   9  11
HETATM   11  C2  UNL     1      19.259   8.483  -1.829  1.00  0.00    -0.032 C 
HETATM   12  C1  UNL     1      18.630   7.421  -1.373  1.00  0.00     0.007 C 
ENDBRANCH   9  11
BRANCH   5  13
HETATM   13  O1  UNL     1      22.364   7.473  -1.868  1.00  0.00    -0.378 OA
ATOM     14  H1  UNL     1      21.590   7.702  -1.367  1.00  0.00     0.211 HD
ENDBRANCH   5  13
ENDBRANCH   1   5
TORSDOF 3
ENDMDL
MODEL 4
REMARK VINA RESULT: -4.094633830      3.108      5.639
REMARK  3 active torsions:
REMARK  status: ('A' for Active; 'I' for Inactive)
REMARK    1  A    between atoms: C2_2  and  C3_3 
REMARK    2  A    between atoms: C7_7  and  O1_8 
REMARK    3  A    between atoms: C7_7  and  C8_10 
ROOT
HETATM    1  C8  UNL     1      21.682   8.644  -6.320  1.00  0.00    -0.052 C 
HETATM    2  C9  UNL     1      21.769   9.017  -7.474  1.00  0.00     0.016 C 
HETATM    3  C10 UNL     1      21.869   9.451  -8.821  1.00  0.00     0.152 C 
HETATM    4  N1  UNL     1      21.935   9.800  -9.923  1.00  0.00    -0.182 NA
ENDROOT
BRANCH   1   5
HETATM    5  C7  UNL     1      21.585   8.204  -4.925  1.00  0.00     0.122 C 
HETATM    6  C6  UNL     1      22.952   8.277  -4.296  1.00  0.00     0.051 C 
HETATM    7  C5  UNL     1      22.962   8.042  -2.835  1.00  0.00     0.004 C 
HETATM    8  C4  UNL     1      21.641   8.014  -2.158  1.00  0.00     0.009 C 
HETATM    9  C3  UNL     1      20.583   8.891  -2.732  1.00  0.00     0.011 C 
HETATM   10  C11 UNL     1      20.724   9.197  -4.186  1.00  0.00     0.059 C 
BRANCH   9  11
HETATM   11  C2  UNL     1      19.245   8.261  -2.549  1.00  0.00    -0.032 C 
HETATM   12  C1  UNL     1      18.881   7.707  -1.412  1.00  0.00     0.007 C 
ENDBRANCH   9  11
BRANCH   5  13
HETATM   13  O1  UNL     1      21.115   6.918  -4.863  1.00  0.00    -0.378 OA
ATOM     14  H1  UNL     1      21.810   6.311  -5.089  1.00  0.00     0.211 HD
ENDBRANCH   5  13
ENDBRANCH   1   5
TORSDOF 3
ENDMDL
MODEL 5
REMARK VINA RESULT: -4.077995526      3.516      5.032
REMARK  3 active torsions:
REMARK  status: ('A' for Active; 'I' for Inactive)
REMARK    1  A    between atoms: C2_2  and  C3_3 
REMARK    2  A    between atoms: C7_7  and  O1_8 
REMARK    3  A    between atoms: C7_7  and  C8_10 
ROOT
HETATM    1  C8  UNL     1      21.998   5.988  -3.726  1.00  0.00    -0.052 C 
HETATM    2  C9  UNL     1      22.484   4.876  -3.801  1.00  0.00     0.016 C 
HETATM    3  C10 UNL     1      23.048   3.577  -3.889  1.00  0.00     0.152 C 
HETATM    4  N1  UNL     1      23.497   2.511  -3.950  1.00  0.00    -0.182 NA
ENDROOT
BRANCH   1   5
HETATM    5  C7  UNL     1      21.419   7.332  -3.646  1.00  0.00     0.122 C 
HETATM    6  C6  UNL     1      20.209   7.288  -2.750  1.00  0.00     0.051 C 
HETATM    7  C5  UNL     1      19.640   8.616  -2.431  1.00  0.00     0.004 C 
HETATM    8  C4  UNL     1      20.455   9.797  -2.815  1.00  0.00     0.009 C 
HETATM    9  C3  UNL     1      21.933   9.625  -2.771  1.00  0.00     0.011 C 
HETATM   10  C11 UNL     1      22.422   8.228  -2.962  1.00  0.00     0.059 C 
BRANCH   9  11
HETATM   11  C2  UNL     1      22.574  10.457  -3.830  1.00  0.00    -0.032 C 
HETATM   12  C1  UNL     1      21.877  11.022  -4.793  1.00  0.00     0.007 C 
ENDBRANCH   9  11
BRANCH   5  13
HETATM   13  O1  UNL     1      21.056   7.769  -4.894  1.00  0.00    -0.378 OA
ATOM     14  H1  UNL     1      21.440   8.622  -5.060  1.00  0.00     0.211 HD
ENDBRANCH   5  13
ENDBRANCH   1   5
TORSDOF 3
ENDMDL
