MODEL 1
REMARK VINA RESULT: -3.639230788      0.000      0.000
REMARK  1 active torsions:
REMARK  status: ('A' for Active; 'I' for Inactive)
REMARK    1  A    between atoms: S2_2  and  C1_3 
ROOT
HETATM    1  C1  UNL     1      20.254   7.556  -2.888  1.00  0.00     0.091 C 
HETATM    2  C2  UNL     1      21.659   7.584  -2.359  1.00  0.00     0.288 C 
HETATM    3  N1  UNL     1      22.390   8.619  -3.086  1.00  0.00     0.089 N 
HETATM    4  C3  UNL     1      21.962   9.941  -2.652  1.00  0.00     0.273 C 
HETATM    5  C4  UNL     1      20.465  10.048  -2.781  1.00  0.00     0.036 C 
HETATM    6  C5  UNL     1      19.949   8.864  -3.587  1.00  0.00     0.005 C 
HETATM    7  C6  UNL     1      20.734   8.849  -4.884  1.00  0.00     0.036 C 
HETATM    8  C7  UNL     1      22.161   8.471  -4.522  1.00  0.00     0.273 C 
ENDROOT
BRANCH   1   9
HETATM    9  S2  UNL     1      19.006   7.313  -1.618  1.00  0.00    -0.078 SA
HETATM   10  S1  UNL     1      18.268   5.335  -1.543  1.00  0.00    -0.013 SA
ENDBRANCH   1   9
TORSDOF 1
ENDMDL
MODEL 2
REMARK VINA RESULT: -3.559629325      1.319      2.275
REMARK  1 active torsions:
REMARK  status: ('A' for Active; 'I' for Inactive)
REMARK    1  A    between atoms: S2_2  and  C1_3 
ROOT
HETATM    1  C1  UNL     1      20.733   7.334  -2.485  1.00  0.00     0.091 C 
HETATM    2  C2  UNL     1      19.611   8.307  -2.708  1.00  0.00     0.288 C 
HETATM    3  N1  UNL     1      20.137   9.426  -3.484  1.00  0.00     0.089 N 
HETATM    4  C3  UNL     1      20.362   9.024  -4.865  1.00  0.00     0.273 C 
HETATM    5  C4  UNL     1      21.237   7.800  -4.893  1.00  0.00     0.036 C 
HETATM    6  C5  UNL     1      21.825   7.577  -3.506  1.00  0.00     0.005 C 
HETATM    7  C6  UNL     1      22.501   8.875  -3.109  1.00  0.00     0.036 C 
HETATM    8  C7  UNL     1      21.391   9.892  -2.894  1.00  0.00     0.273 C 
ENDROOT
BRANCH   1   9
HETATM    9  S2  UNL     1      20.238   5.611  -2.618  1.00  0.00    -0.078 SA
HETATM   10  S1  UNL     1      18.419   5.189  -1.629  1.00  0.00    -0.013 SA
ENDBRANCH   1   9
TORSDOF 1
ENDMDL
MODEL 3
REMARK VINA RESULT: -3.382376369      0.958      2.197
REMARK  1 active torsions:
REMARK  status: ('A' for Active; 'I' for Inactive)
REMARK    1  A    between atoms: S2_2  and  C1_3 
ROOT
HETATM    1  C1  UNL     1      20.011   8.147  -1.956  1.00  0.00     0.091 C 
HETATM    2  C2  UNL     1      20.016   9.358  -2.844  1.00  0.00     0.288 C 
HETATM    3  N1  UNL     1      21.250   9.336  -3.624  1.00  0.00     0.089 N 
HETATM    4  C3  UNL     1      21.182   8.306  -4.651  1.00  0.00     0.273 C 
HETATM    5  C4  UNL     1      20.841   6.986  -4.012  1.00  0.00     0.036 C 
HETATM    6  C5  UNL     1      20.975   7.115  -2.501  1.00  0.00     0.005 C 
HETATM    7  C6  UNL     1      22.370   7.649  -2.235  1.00  0.00     0.036 C 
HETATM    8  C7  UNL     1      22.389   9.082  -2.743  1.00  0.00     0.273 C 
ENDROOT
BRANCH   1   9
HETATM    9  S2  UNL     1      18.401   7.363  -1.807  1.00  0.00    -0.078 SA
HETATM   10  S1  UNL     1      18.513   5.262  -1.614  1.00  0.00    -0.013 SA
ENDBRANCH   1   9
TORSDOF 1
ENDMDL
MODEL 4
REMARK VINA RESULT: -3.307483176      1.772      2.069
REMARK  1 active torsions:
REMARK  status: ('A' for Active; 'I' for Inactive)
REMARK    1  A    between atoms: S2_2  and  C1_3 
ROOT
HETATM    1  C1  UNL     1      22.188   7.917  -3.616  1.00  0.00     0.091 C 
HETATM    2  C2  UNL     1      22.615   9.178  -2.922  1.00  0.00     0.288 C 
HETATM    3  N1  UNL     1      21.672  10.231  -3.287  1.00  0.00     0.089 N 
HETATM    4  C3  UNL     1      20.397  10.025  -2.615  1.00  0.00     0.273 C 
HETATM    5  C4  UNL     1      19.898   8.634  -2.904  1.00  0.00     0.036 C 
HETATM    6  C5  UNL     1      20.735   8.029  -4.023  1.00  0.00     0.005 C 
HETATM    7  C6  UNL     1      20.688   9.011  -5.178  1.00  0.00     0.036 C 
HETATM    8  C7  UNL     1      21.472  10.236  -4.736  1.00  0.00     0.273 C 
ENDROOT
BRANCH   1   9
HETATM    9  S2  UNL     1      22.359   6.439  -2.607  1.00  0.00    -0.078 SA
HETATM   10  S1  UNL     1      20.813   5.034  -2.922  1.00  0.00    -0.013 SA
ENDBRANCH   1   9
TORSDOF 1
ENDMDL
MODEL 5
REMARK VINA RESULT: -3.306851985      2.198      2.665
REMARK  1 active torsions:
REMARK  status: ('A' for Active; 'I' for Inactive)
REMARK    1  A    between atoms: S2_2  and  C1_3 
ROOT
HETATM    1  C1  UNL     1      20.659   6.753  -3.508  1.00  0.00     0.091 C 
HETATM    2  C2  UNL     1      21.428   7.244  -4.700  1.00  0.00     0.288 C 
HETATM    3  N1  UNL     1      21.709   8.663  -4.498  1.00  0.00     0.089 N 
HETATM    4  C3  UNL     1      22.738   8.836  -3.482  1.00  0.00     0.273 C 
HETATM    5  C4  UNL     1      22.326   8.112  -2.228  1.00  0.00     0.036 C 
HETATM    6  C5  UNL     1      20.865   7.702  -2.346  1.00  0.00     0.005 C 
HETATM    7  C6  UNL     1      20.088   8.961  -2.678  1.00  0.00     0.036 C 
HETATM    8  C7  UNL     1      20.488   9.356  -4.091  1.00  0.00     0.273 C 
ENDROOT
BRANCH   1   9
HETATM    9  S2  UNL     1      21.139   5.110  -2.961  1.00  0.00    -0.078 SA
HETATM   10  S1  UNL     1      22.821   4.349  -3.988  1.00  0.00    -0.013 SA
ENDBRANCH   1   9
TORSDOF 1
ENDMDL
