MODEL 1
REMARK VINA RESULT: -4.556674884      0.000      0.000
REMARK  2 active torsions:
REMARK  status: ('A' for Active; 'I' for Inactive)
REMARK    1  A    between atoms: C7_8  and  C8_9 
REMARK    2  A    between atoms: C8_9  and  O2_10 
ROOT
HETATM    1  C1  UNL     1      18.122   7.461  -1.577  1.00  0.00     0.010 C 
HETATM    2  C2  UNL     1      19.601   7.654  -1.833  1.00  0.00    -0.015 C 
HETATM    3  C3  UNL     1      20.134   6.448  -2.563  1.00  0.00     0.009 C 
HETATM    4  C4  UNL     1      21.600   6.571  -2.855  1.00  0.00    -0.009 C 
HETATM    5  C5  UNL     1      21.811   6.155  -4.313  1.00  0.00     0.031 C 
HETATM    6  C6  UNL     1      21.439   7.263  -5.231  1.00  0.00     0.169 C 
HETATM    7  O1  UNL     1      20.573   8.191  -4.711  1.00  0.00    -0.378 OA
HETATM    8  C7  UNL     1      20.983   8.809  -3.569  1.00  0.00     0.082 C 
HETATM    9  C9  UNL     1      19.784   8.923  -2.637  1.00  0.00     0.044 C 
HETATM   10  C10 UNL     1      22.042   8.040  -2.817  1.00  0.00     0.045 C 
ENDROOT
BRANCH   8  11
HETATM   11  C8  UNL     1      21.488  10.232  -3.822  1.00  0.00     0.202 C 
BRANCH  11  12
HETATM   12  O2  UNL     1      22.151  10.731  -2.712  1.00  0.00    -0.398 OA
ATOM     13  H2  UNL     1      23.045  10.415  -2.678  1.00  0.00     0.209 HD
ENDBRANCH  11  12
ENDBRANCH   8  11
TORSDOF 2
ENDMDL
MODEL 2
REMARK VINA RESULT: -4.450669518      1.275      1.456
REMARK  2 active torsions:
REMARK  status: ('A' for Active; 'I' for Inactive)
REMARK    1  A    between atoms: C7_8  and  C8_9 
REMARK    2  A    between atoms: C8_9  and  O2_10 
ROOT
HETATM    1  C1  UNL     1      18.092   5.407  -1.653  1.00  0.00     0.010 C 
HETATM    2  C2  UNL     1      19.494   5.970  -1.746  1.00  0.00    -0.015 C 
HETATM    3  C3  UNL     1      20.284   5.156  -2.739  1.00  0.00     0.009 C 
HETATM    4  C4  UNL     1      21.689   5.660  -2.887  1.00  0.00    -0.009 C 
HETATM    5  C5  UNL     1      21.996   5.722  -4.385  1.00  0.00     0.031 C 
HETATM    6  C6  UNL     1      21.395   6.939  -4.990  1.00  0.00     0.169 C 
HETATM    7  O1  UNL     1      20.342   7.482  -4.297  1.00  0.00    -0.378 OA
HETATM    8  C7  UNL     1      20.599   7.828  -3.005  1.00  0.00     0.082 C 
HETATM    9  C9  UNL     1      19.398   7.421  -2.161  1.00  0.00     0.044 C 
HETATM   10  C10 UNL     1      21.797   7.118  -2.421  1.00  0.00     0.045 C 
ENDROOT
BRANCH   8  11
HETATM   11  C8  UNL     1      20.780   9.337  -2.827  1.00  0.00     0.202 C 
BRANCH  11  12
HETATM   12  O2  UNL     1      19.587   9.943  -2.468  1.00  0.00    -0.398 OA
ATOM     13  H2  UNL     1      19.365  10.644  -3.070  1.00  0.00     0.209 HD
ENDBRANCH  11  12
ENDBRANCH   8  11
TORSDOF 2
ENDMDL
MODEL 3
REMARK VINA RESULT: -4.424238266      1.617      3.145
REMARK  2 active torsions:
REMARK  status: ('A' for Active; 'I' for Inactive)
REMARK    1  A    between atoms: C7_8  and  C8_9 
REMARK    2  A    between atoms: C8_9  and  O2_10 
ROOT
HETATM    1  C1  UNL     1      18.530   7.711  -1.233  1.00  0.00     0.010 C 
HETATM    2  C2  UNL     1      19.370   7.863  -2.483  1.00  0.00    -0.015 C 
HETATM    3  C3  UNL     1      19.862   9.285  -2.572  1.00  0.00     0.009 C 
HETATM    4  C4  UNL     1      20.709   9.511  -3.790  1.00  0.00    -0.009 C 
HETATM    5  C5  UNL     1      21.948  10.291  -3.345  1.00  0.00     0.031 C 
HETATM    6  C6  UNL     1      22.937   9.382  -2.710  1.00  0.00     0.169 C 
HETATM    7  O1  UNL     1      22.423   8.212  -2.210  1.00  0.00    -0.378 OA
HETATM    8  C7  UNL     1      21.755   7.430  -3.102  1.00  0.00     0.082 C 
HETATM    9  C9  UNL     1      20.516   6.878  -2.409  1.00  0.00     0.044 C 
HETATM   10  C10 UNL     1      21.270   8.184  -4.317  1.00  0.00     0.045 C 
ENDROOT
BRANCH   8  11
HETATM   11  C8  UNL     1      22.583   6.227  -3.561  1.00  0.00     0.202 C 
BRANCH  11  12
HETATM   12  O2  UNL     1      22.484   5.180  -2.658  1.00  0.00    -0.398 OA
ATOM     13  H2  UNL     1      21.906   4.501  -2.985  1.00  0.00     0.209 HD
ENDBRANCH  11  12
ENDBRANCH   8  11
TORSDOF 2
ENDMDL
MODEL 4
REMARK VINA RESULT: -4.250252294      2.213      3.673
REMARK  2 active torsions:
REMARK  status: ('A' for Active; 'I' for Inactive)
REMARK    1  A    between atoms: C7_8  and  C8_9 
REMARK    2  A    between atoms: C8_9  and  O2_10 
ROOT
HETATM    1  C1  UNL     1      18.491   5.303  -1.401  1.00  0.00     0.010 C 
HETATM    2  C2  UNL     1      19.325   5.857  -2.536  1.00  0.00    -0.015 C 
HETATM    3  C3  UNL     1      19.819   7.230  -2.156  1.00  0.00     0.009 C 
HETATM    4  C4  UNL     1      20.659   7.843  -3.237  1.00  0.00    -0.009 C 
HETATM    5  C5  UNL     1      21.903   8.434  -2.568  1.00  0.00     0.031 C 
HETATM    6  C6  UNL     1      22.893   7.366  -2.272  1.00  0.00     0.169 C 
HETATM    7  O1  UNL     1      22.380   6.098  -2.181  1.00  0.00    -0.378 OA
HETATM    8  C7  UNL     1      21.706   5.651  -3.277  1.00  0.00     0.082 C 
HETATM    9  C9  UNL     1      20.469   4.902  -2.796  1.00  0.00     0.044 C 
HETATM   10  C10 UNL     1      21.216   6.762  -4.174  1.00  0.00     0.045 C 
ENDROOT
BRANCH   8  11
HETATM   11  C8  UNL     1      22.529   4.666  -4.110  1.00  0.00     0.202 C 
BRANCH  11  12
HETATM   12  O2  UNL     1      22.799   3.511  -3.393  1.00  0.00    -0.398 OA
ATOM     13  H2  UNL     1      23.386   2.940  -3.874  1.00  0.00     0.209 HD
ENDBRANCH  11  12
ENDBRANCH   8  11
TORSDOF 2
ENDMDL
MODEL 5
REMARK VINA RESULT: -4.189626142      1.665      1.754
REMARK  2 active torsions:
REMARK  status: ('A' for Active; 'I' for Inactive)
REMARK    1  A    between atoms: C7_8  and  C8_9 
REMARK    2  A    between atoms: C8_9  and  O2_10 
ROOT
HETATM    1  C1  UNL     1      18.962   7.788  -1.873  1.00  0.00     0.010 C 
HETATM    2  C2  UNL     1      20.301   8.128  -2.492  1.00  0.00    -0.015 C 
HETATM    3  C3  UNL     1      21.088   6.858  -2.687  1.00  0.00     0.009 C 
HETATM    4  C4  UNL     1      22.431   7.118  -3.303  1.00  0.00    -0.009 C 
HETATM    5  C5  UNL     1      22.628   6.090  -4.419  1.00  0.00     0.031 C 
HETATM    6  C6  UNL     1      21.884   6.496  -5.639  1.00  0.00     0.169 C 
HETATM    7  O1  UNL     1      20.838   7.359  -5.431  1.00  0.00    -0.378 OA
HETATM    8  C7  UNL     1      21.152   8.530  -4.810  1.00  0.00     0.082 C 
HETATM    9  C9  UNL     1      20.051   8.840  -3.804  1.00  0.00     0.044 C 
HETATM   10  C10 UNL     1      22.444   8.469  -4.031  1.00  0.00     0.045 C 
ENDROOT
BRANCH   8  11
HETATM   11  C8  UNL     1      21.213   9.711  -5.782  1.00  0.00     0.202 C 
BRANCH  11  12
HETATM   12  O2  UNL     1      20.124   9.708  -6.638  1.00  0.00    -0.398 OA
ATOM     13  H2  UNL     1      19.552  10.446  -6.465  1.00  0.00     0.209 HD
ENDBRANCH  11  12
ENDBRANCH   8  11
TORSDOF 2
ENDMDL
