MODEL 1
REMARK VINA RESULT: -4.065306029      0.000      0.000
REMARK  1 active torsions:
REMARK  status: ('A' for Active; 'I' for Inactive)
REMARK    1  A    between atoms: C8_8  and  N1_9 
ROOT
HETATM    1  C1  UNL     1       9.513  13.969  18.470  1.00  0.00     0.017 C 
HETATM    2  C2  UNL     1      10.391  14.483  19.622  1.00  0.00    -0.020 C 
HETATM    3  C3  UNL     1      11.406  13.355  19.869  1.00  0.00     0.017 C 
HETATM    4  C4  UNL     1       9.512  14.549  20.816  1.00  0.00     0.011 C 
HETATM    5  C5  UNL     1       9.963  15.489  21.887  1.00  0.00     0.001 C 
HETATM    6  C6  UNL     1      10.061  16.869  21.222  1.00  0.00     0.002 C 
HETATM    7  C7  UNL     1      11.198  16.784  20.259  1.00  0.00     0.033 C 
HETATM    8  C8  UNL     1      11.077  15.725  19.228  1.00  0.00     0.191 C 
ENDROOT
BRANCH   8   9
HETATM    9  N1  UNL     1      10.492  16.346  18.028  1.00  0.00    -0.074 N 
ATOM     10  H13 UNL     1      10.455  15.681  17.255  1.00  0.00     0.274 HD
ATOM     11  H12 UNL     1       9.494  16.511  18.153  1.00  0.00     0.274 HD
ATOM     12  H11 UNL     1      10.972  17.202  17.751  1.00  0.00     0.274 HD
ENDBRANCH   8   9
TORSDOF 1
ENDMDL
MODEL 2
REMARK VINA RESULT: -4.034354453      1.617      3.085
REMARK  1 active torsions:
REMARK  status: ('A' for Active; 'I' for Inactive)
REMARK    1  A    between atoms: C8_8  and  N1_9 
ROOT
HETATM    1  C1  UNL     1       8.694  15.773  22.206  1.00  0.00     0.017 C 
HETATM    2  C2  UNL     1      10.121  15.819  21.639  1.00  0.00    -0.020 C 
HETATM    3  C3  UNL     1      11.027  15.915  22.877  1.00  0.00     0.017 C 
HETATM    4  C4  UNL     1      10.237  17.107  20.911  1.00  0.00     0.011 C 
HETATM    5  C5  UNL     1      11.297  17.150  19.859  1.00  0.00     0.001 C 
HETATM    6  C6  UNL     1      10.965  16.014  18.880  1.00  0.00     0.002 C 
HETATM    7  C7  UNL     1      11.195  14.744  19.629  1.00  0.00     0.033 C 
HETATM    8  C8  UNL     1      10.409  14.592  20.876  1.00  0.00     0.191 C 
ENDROOT
BRANCH   8   9
HETATM    9  N1  UNL     1       9.195  13.830  20.540  1.00  0.00    -0.074 N 
ATOM     10  H13 UNL     1       8.778  13.420  21.376  1.00  0.00     0.274 HD
ATOM     11  H12 UNL     1       8.436  14.455  20.266  1.00  0.00     0.274 HD
ATOM     12  H11 UNL     1       9.358  13.120  19.827  1.00  0.00     0.274 HD
ENDBRANCH   8   9
TORSDOF 1
ENDMDL
MODEL 3
REMARK VINA RESULT: -3.919578460      1.479      3.050
REMARK  1 active torsions:
REMARK  status: ('A' for Active; 'I' for Inactive)
REMARK    1  A    between atoms: C8_8  and  N1_9 
ROOT
HETATM    1  C1  UNL     1      11.160  15.916  22.811  1.00  0.00     0.017 C 
HETATM    2  C2  UNL     1      10.318  15.848  21.527  1.00  0.00    -0.020 C 
HETATM    3  C3  UNL     1       8.864  15.963  22.011  1.00  0.00     0.017 C 
HETATM    4  C4  UNL     1      10.493  14.476  20.989  1.00  0.00     0.011 C 
HETATM    5  C5  UNL     1      10.226  14.328  19.526  1.00  0.00     0.001 C 
HETATM    6  C6  UNL     1      11.185  15.301  18.823  1.00  0.00     0.002 C 
HETATM    7  C7  UNL     1      10.715  16.672  19.179  1.00  0.00     0.033 C 
HETATM    8  C8  UNL     1      10.660  16.966  20.631  1.00  0.00     0.191 C 
ENDROOT
BRANCH   8   9
HETATM    9  N1  UNL     1      11.925  17.624  20.994  1.00  0.00    -0.074 N 
ATOM     10  H13 UNL     1      12.495  17.800  20.167  1.00  0.00     0.274 HD
ATOM     11  H12 UNL     1      11.764  18.585  21.293  1.00  0.00     0.274 HD
ATOM     12  H11 UNL     1      12.453  17.107  21.697  1.00  0.00     0.274 HD
ENDBRANCH   8   9
TORSDOF 1
ENDMDL
MODEL 4
REMARK VINA RESULT: -3.885955456      1.686      3.515
REMARK  1 active torsions:
REMARK  status: ('A' for Active; 'I' for Inactive)
REMARK    1  A    between atoms: C8_8  and  N1_9 
ROOT
HETATM    1  C1  UNL     1       9.478  17.782  21.503  1.00  0.00     0.017 C 
HETATM    2  C2  UNL     1      10.557  16.773  21.079  1.00  0.00    -0.020 C 
HETATM    3  C3  UNL     1      11.827  17.233  21.812  1.00  0.00     0.017 C 
HETATM    4  C4  UNL     1      10.784  16.993  19.630  1.00  0.00     0.011 C 
HETATM    5  C5  UNL     1      11.363  15.829  18.893  1.00  0.00     0.001 C 
HETATM    6  C6  UNL     1      10.385  14.665  19.108  1.00  0.00     0.002 C 
HETATM    7  C7  UNL     1      10.478  14.310  20.554  1.00  0.00     0.033 C 
HETATM    8  C8  UNL     1      10.177  15.413  21.498  1.00  0.00     0.191 C 
ENDROOT
BRANCH   8   9
HETATM    9  N1  UNL     1       8.756  15.303  21.864  1.00  0.00    -0.074 N 
ATOM     10  H13 UNL     1       8.574  15.752  22.762  1.00  0.00     0.274 HD
ATOM     11  H12 UNL     1       8.178  15.891  21.264  1.00  0.00     0.274 HD
ATOM     12  H11 UNL     1       8.420  14.340  21.864  1.00  0.00     0.274 HD
ENDBRANCH   8   9
TORSDOF 1
ENDMDL
MODEL 5
REMARK VINA RESULT: -3.775423896      2.022      3.745
REMARK  1 active torsions:
REMARK  status: ('A' for Active; 'I' for Inactive)
REMARK    1  A    between atoms: C8_8  and  N1_9 
ROOT
HETATM    1  C1  UNL     1       9.437  18.135  21.643  1.00  0.00     0.017 C 
HETATM    2  C2  UNL     1      10.161  16.782  21.719  1.00  0.00    -0.020 C 
HETATM    3  C3  UNL     1      11.417  17.060  22.561  1.00  0.00     0.017 C 
HETATM    4  C4  UNL     1      10.617  16.476  20.341  1.00  0.00     0.011 C 
HETATM    5  C5  UNL     1      10.860  15.029  20.057  1.00  0.00     0.001 C 
HETATM    6  C6  UNL     1       9.532  14.315  20.348  1.00  0.00     0.002 C 
HETATM    7  C7  UNL     1       9.331  14.404  21.824  1.00  0.00     0.033 C 
HETATM    8  C8  UNL     1       9.305  15.780  22.377  1.00  0.00     0.191 C 
ENDROOT
BRANCH   8   9
HETATM    9  N1  UNL     1       7.895  16.195  22.455  1.00  0.00    -0.074 N 
ATOM     10  H13 UNL     1       7.614  16.351  23.423  1.00  0.00     0.274 HD
ATOM     11  H12 UNL     1       7.773  17.140  22.092  1.00  0.00     0.274 HD
ATOM     12  H11 UNL     1       7.263  15.542  21.992  1.00  0.00     0.274 HD
ENDBRANCH   8   9
TORSDOF 1
ENDMDL
