MODEL 1
REMARK VINA RESULT: -4.551040586      0.000      0.000
REMARK  1 active torsions:
REMARK  status: ('A' for Active; 'I' for Inactive)
REMARK    1  A    between atoms: N1_1  and  C1_5 
ROOT
HETATM    1  C1  UNL     1      10.420  14.675  21.066  1.00  0.00     0.187 C 
HETATM    2  C2  UNL     1      10.350  16.072  20.598  1.00  0.00     0.033 C 
HETATM    3  C3  UNL     1      11.032  16.405  19.338  1.00  0.00     0.007 C 
HETATM    4  C4  UNL     1      11.311  15.261  18.420  1.00  0.00    -0.014 C 
HETATM    5  C5  UNL     1      10.057  14.612  17.885  1.00  0.00     0.005 C 
HETATM    6  C6  UNL     1       9.516  13.780  18.999  1.00  0.00     0.007 C 
HETATM    7  C7  UNL     1      10.666  13.660  19.965  1.00  0.00     0.016 C 
HETATM    8  C8  UNL     1      11.909  14.106  19.230  1.00  0.00     0.011 C 
ENDROOT
BRANCH   1   9
HETATM    9  N1  UNL     1       9.115  14.310  21.636  1.00  0.00    -0.075 N 
ATOM     10  H13 UNL     1       8.827  14.935  22.389  1.00  0.00     0.274 HD
ATOM     11  H12 UNL     1       8.342  14.497  20.996  1.00  0.00     0.274 HD
ATOM     12  H11 UNL     1       9.153  13.334  21.931  1.00  0.00     0.274 HD
ENDBRANCH   1   9
TORSDOF 1
ENDMDL
MODEL 2
REMARK VINA RESULT: -3.765980676      2.551      3.565
REMARK  1 active torsions:
REMARK  status: ('A' for Active; 'I' for Inactive)
REMARK    1  A    between atoms: N1_1  and  C1_5 
ROOT
HETATM    1  C1  UNL     1       8.399  17.097  22.941  1.00  0.00     0.187 C 
HETATM    2  C2  UNL     1       9.064  17.915  21.909  1.00  0.00     0.033 C 
HETATM    3  C3  UNL     1      10.475  17.626  21.613  1.00  0.00     0.007 C 
HETATM    4  C4  UNL     1      10.964  16.271  22.005  1.00  0.00    -0.014 C 
HETATM    5  C5  UNL     1      10.294  15.155  21.240  1.00  0.00     0.005 C 
HETATM    6  C6  UNL     1       8.936  15.002  21.839  1.00  0.00     0.007 C 
HETATM    7  C7  UNL     1       9.026  15.732  23.154  1.00  0.00     0.016 C 
HETATM    8  C8  UNL     1      10.493  15.964  23.432  1.00  0.00     0.011 C 
ENDROOT
BRANCH   1   9
HETATM    9  N1  UNL     1       7.024  16.819  22.499  1.00  0.00    -0.075 N 
ATOM     10  H13 UNL     1       6.325  17.129  23.175  1.00  0.00     0.274 HD
ATOM     11  H12 UNL     1       6.736  17.411  21.720  1.00  0.00     0.274 HD
ATOM     12  H11 UNL     1       6.949  15.825  22.285  1.00  0.00     0.274 HD
ENDBRANCH   1   9
TORSDOF 1
ENDMDL
MODEL 3
REMARK VINA RESULT: -3.683761357      2.174      3.873
REMARK  1 active torsions:
REMARK  status: ('A' for Active; 'I' for Inactive)
REMARK    1  A    between atoms: N1_1  and  C1_5 
ROOT
HETATM    1  C1  UNL     1      11.087  16.259  20.698  1.00  0.00     0.187 C 
HETATM    2  C2  UNL     1      10.247  15.104  20.327  1.00  0.00     0.033 C 
HETATM    3  C3  UNL     1       9.517  14.417  21.403  1.00  0.00     0.007 C 
HETATM    4  C4  UNL     1       9.300  15.201  22.655  1.00  0.00    -0.014 C 
HETATM    5  C5  UNL     1       8.412  16.405  22.452  1.00  0.00     0.005 C 
HETATM    6  C6  UNL     1       9.258  17.433  21.778  1.00  0.00     0.007 C 
HETATM    7  C7  UNL     1      10.668  16.946  21.984  1.00  0.00     0.016 C 
HETATM    8  C8  UNL     1      10.617  15.879  23.053  1.00  0.00     0.011 C 
ENDROOT
BRANCH   1   9
HETATM    9  N1  UNL     1      10.951  17.286  19.655  1.00  0.00    -0.075 N 
ATOM     10  H13 UNL     1      11.495  18.125  19.858  1.00  0.00     0.274 HD
ATOM     11  H12 UNL     1      11.415  17.025  18.785  1.00  0.00     0.274 HD
ATOM     12  H11 UNL     1       9.959  17.486  19.526  1.00  0.00     0.274 HD
ENDBRANCH   1   9
TORSDOF 1
ENDMDL
MODEL 4
REMARK VINA RESULT: -3.678944778      1.673      2.730
REMARK  1 active torsions:
REMARK  status: ('A' for Active; 'I' for Inactive)
REMARK    1  A    between atoms: N1_1  and  C1_5 
ROOT
HETATM    1  C1  UNL     1      11.366  15.695  18.875  1.00  0.00     0.187 C 
HETATM    2  C2  UNL     1      10.224  15.351  18.005  1.00  0.00     0.033 C 
HETATM    3  C3  UNL     1       9.578  14.046  18.213  1.00  0.00     0.007 C 
HETATM    4  C4  UNL     1       9.797  13.409  19.545  1.00  0.00    -0.014 C 
HETATM    5  C5  UNL     1       9.192  14.194  20.683  1.00  0.00     0.005 C 
HETATM    6  C6  UNL     1      10.106  15.349  20.920  1.00  0.00     0.007 C 
HETATM    7  C7  UNL     1      11.377  14.968  20.206  1.00  0.00     0.016 C 
HETATM    8  C8  UNL     1      11.286  13.492  19.898  1.00  0.00     0.011 C 
ENDROOT
BRANCH   1   9
HETATM    9  N1  UNL     1      11.274  17.121  19.219  1.00  0.00    -0.075 N 
ATOM     10  H13 UNL     1      10.361  17.520  18.998  1.00  0.00     0.274 HD
ATOM     11  H12 UNL     1      11.254  17.280  20.227  1.00  0.00     0.274 HD
ATOM     12  H11 UNL     1      12.039  17.615  18.759  1.00  0.00     0.274 HD
ENDBRANCH   1   9
TORSDOF 1
ENDMDL
MODEL 5
REMARK VINA RESULT: -3.601674976      2.785      4.039
REMARK  1 active torsions:
REMARK  status: ('A' for Active; 'I' for Inactive)
REMARK    1  A    between atoms: N1_1  and  C1_5 
ROOT
HETATM    1  C1  UNL     1      10.430  17.058  20.719  1.00  0.00     0.187 C 
HETATM    2  C2  UNL     1       9.482  17.933  21.434  1.00  0.00     0.033 C 
HETATM    3  C3  UNL     1       8.469  17.292  22.286  1.00  0.00     0.007 C 
HETATM    4  C4  UNL     1       8.772  15.899  22.731  1.00  0.00    -0.014 C 
HETATM    5  C5  UNL     1       9.978  15.816  23.635  1.00  0.00     0.005 C 
HETATM    6  C6  UNL     1      11.170  15.950  22.748  1.00  0.00     0.007 C 
HETATM    7  C7  UNL     1      10.631  15.699  21.363  1.00  0.00     0.016 C 
HETATM    8  C8  UNL     1       9.260  15.086  21.527  1.00  0.00     0.011 C 
ENDROOT
BRANCH   1   9
HETATM    9  N1  UNL     1      11.756  17.691  20.743  1.00  0.00    -0.075 N 
ATOM     10  H13 UNL     1      12.248  17.606  19.853  1.00  0.00     0.274 HD
ATOM     11  H12 UNL     1      11.703  18.710  20.776  1.00  0.00     0.274 HD
ATOM     12  H11 UNL     1      12.286  17.300  21.522  1.00  0.00     0.274 HD
ENDBRANCH   1   9
TORSDOF 1
ENDMDL
