MODEL 1
REMARK VINA RESULT: -4.016408884      0.000      0.000
REMARK  1 active torsions:
REMARK  status: ('A' for Active; 'I' for Inactive)
REMARK    1  A    between atoms: C2_2  and  N1_3 
ROOT
HETATM    1  C1  UNL     1      11.359  16.591  22.150  1.00  0.00     0.046 C 
HETATM    2  C2  UNL     1      10.330  16.766  21.030  1.00  0.00     0.120 C 
HETATM    3  C3  UNL     1      10.972  16.934  19.726  1.00  0.00     0.038 C 
HETATM    4  C4  UNL     1      11.282  15.777  18.897  1.00  0.00     0.002 C 
HETATM    5  C5  UNL     1      10.330  14.631  18.893  1.00  0.00     0.000 C 
HETATM    6  C6  UNL     1      10.588  13.791  20.117  1.00  0.00     0.000 C 
HETATM    7  C7  UNL     1       9.889  14.310  21.322  1.00  0.00     0.002 C 
HETATM    8  C8  UNL     1       9.323  15.686  21.174  1.00  0.00     0.038 C 
ENDROOT
BRANCH   2   9
HETATM    9  N1  UNL     1       9.616  18.008  21.364  1.00  0.00    -0.071 N 
ATOM     10  H13 UNL     1       9.429  18.606  20.559  1.00  0.00     0.275 HD
ATOM     11  H12 UNL     1       8.642  17.865  21.631  1.00  0.00     0.275 HD
ATOM     12  H11 UNL     1      10.183  18.450  22.087  1.00  0.00     0.275 HD
ENDBRANCH   2   9
TORSDOF 1
ENDMDL
MODEL 2
REMARK VINA RESULT: -3.900936829      1.399      2.562
REMARK  1 active torsions:
REMARK  status: ('A' for Active; 'I' for Inactive)
REMARK    1  A    between atoms: C2_2  and  N1_3 
ROOT
HETATM    1  C1  UNL     1       8.818  16.859  21.990  1.00  0.00     0.046 C 
HETATM    2  C2  UNL     1       9.889  15.775  22.136  1.00  0.00     0.120 C 
HETATM    3  C3  UNL     1       9.449  14.498  21.574  1.00  0.00     0.038 C 
HETATM    4  C4  UNL     1       9.697  14.179  20.174  1.00  0.00     0.002 C 
HETATM    5  C5  UNL     1      10.974  14.635  19.557  1.00  0.00     0.000 C 
HETATM    6  C6  UNL     1      10.827  16.086  19.174  1.00  0.00     0.000 C 
HETATM    7  C7  UNL     1      11.099  17.005  20.310  1.00  0.00     0.002 C 
HETATM    8  C8  UNL     1      11.171  16.343  21.648  1.00  0.00     0.038 C 
ENDROOT
BRANCH   2   9
HETATM    9  N1  UNL     1      10.067  15.611  23.587  1.00  0.00    -0.071 N 
ATOM     10  H13 UNL     1       9.365  15.015  24.024  1.00  0.00     0.275 HD
ATOM     11  H12 UNL     1      10.876  15.046  23.843  1.00  0.00     0.275 HD
ATOM     12  H11 UNL     1      10.092  16.561  23.956  1.00  0.00     0.275 HD
ENDBRANCH   2   9
TORSDOF 1
ENDMDL
MODEL 3
REMARK VINA RESULT: -3.763750400      1.860      3.073
REMARK  1 active torsions:
REMARK  status: ('A' for Active; 'I' for Inactive)
REMARK    1  A    between atoms: C2_2  and  N1_3 
ROOT
HETATM    1  C1  UNL     1       9.687  14.715  18.278  1.00  0.00     0.046 C 
HETATM    2  C2  UNL     1      10.900  14.991  19.171  1.00  0.00     0.120 C 
HETATM    3  C3  UNL     1      11.068  16.420  19.432  1.00  0.00     0.038 C 
HETATM    4  C4  UNL     1      10.419  17.048  20.575  1.00  0.00     0.002 C 
HETATM    5  C5  UNL     1      10.308  16.273  21.842  1.00  0.00     0.000 C 
HETATM    6  C6  UNL     1       9.136  15.332  21.725  1.00  0.00     0.000 C 
HETATM    7  C7  UNL     1       9.489  14.066  21.033  1.00  0.00     0.002 C 
HETATM    8  C8  UNL     1      10.813  14.078  20.339  1.00  0.00     0.038 C 
ENDROOT
BRANCH   2   9
HETATM    9  N1  UNL     1      12.056  14.517  18.396  1.00  0.00    -0.071 N 
ATOM     10  H13 UNL     1      12.945  14.596  18.889  1.00  0.00     0.275 HD
ATOM     11  H12 UNL     1      12.082  13.506  18.268  1.00  0.00     0.275 HD
ATOM     12  H11 UNL     1      12.019  15.043  17.523  1.00  0.00     0.275 HD
ENDBRANCH   2   9
TORSDOF 1
ENDMDL
MODEL 4
REMARK VINA RESULT: -3.721808381      0.931      1.047
REMARK  1 active torsions:
REMARK  status: ('A' for Active; 'I' for Inactive)
REMARK    1  A    between atoms: C2_2  and  N1_3 
ROOT
HETATM    1  C1  UNL     1      10.781  15.833  22.803  1.00  0.00     0.046 C 
HETATM    2  C2  UNL     1       9.764  16.136  21.700  1.00  0.00     0.120 C 
HETATM    3  C3  UNL     1      10.327  17.008  20.669  1.00  0.00     0.038 C 
HETATM    4  C4  UNL     1      11.012  16.446  19.513  1.00  0.00     0.002 C 
HETATM    5  C5  UNL     1      10.495  15.176  18.930  1.00  0.00     0.000 C 
HETATM    6  C6  UNL     1      11.006  14.026  19.761  1.00  0.00     0.000 C 
HETATM    7  C7  UNL     1      10.162  13.770  20.957  1.00  0.00     0.002 C 
HETATM    8  C8  UNL     1       9.172  14.845  21.269  1.00  0.00     0.038 C 
ENDROOT
BRANCH   2   9
HETATM    9  N1  UNL     1       8.674  16.854  22.377  1.00  0.00    -0.071 N 
ATOM     10  H13 UNL     1       8.903  17.817  22.622  1.00  0.00     0.275 HD
ATOM     11  H12 UNL     1       7.884  17.073  21.771  1.00  0.00     0.275 HD
ATOM     12  H11 UNL     1       8.433  16.270  23.177  1.00  0.00     0.275 HD
ENDBRANCH   2   9
TORSDOF 1
ENDMDL
MODEL 5
REMARK VINA RESULT: -3.669909769      1.124      2.441
REMARK  1 active torsions:
REMARK  status: ('A' for Active; 'I' for Inactive)
REMARK    1  A    between atoms: C2_2  and  N1_3 
ROOT
HETATM    1  C1  UNL     1       9.825  17.597  19.912  1.00  0.00     0.046 C 
HETATM    2  C2  UNL     1      10.947  16.667  20.382  1.00  0.00     0.120 C 
HETATM    3  C3  UNL     1      10.499  15.775  21.451  1.00  0.00     0.038 C 
HETATM    4  C4  UNL     1       9.917  14.476  21.138  1.00  0.00     0.002 C 
HETATM    5  C5  UNL     1      10.465  13.712  19.984  1.00  0.00     0.000 C 
HETATM    6  C6  UNL     1       9.859  14.260  18.717  1.00  0.00     0.000 C 
HETATM    7  C7  UNL     1      10.581  15.456  18.212  1.00  0.00     0.002 C 
HETATM    8  C8  UNL     1      11.555  16.054  19.174  1.00  0.00     0.038 C 
ENDROOT
BRANCH   2   9
HETATM    9  N1  UNL     1      11.979  17.564  20.922  1.00  0.00    -0.071 N 
ATOM     10  H13 UNL     1      11.745  18.554  20.853  1.00  0.00     0.275 HD
ATOM     11  H12 UNL     1      12.062  17.534  21.938  1.00  0.00     0.275 HD
ATOM     12  H11 UNL     1      12.834  17.305  20.430  1.00  0.00     0.275 HD
ENDBRANCH   2   9
TORSDOF 1
ENDMDL
