MODEL 1
REMARK VINA RESULT: -5.099713551      0.000      0.000
REMARK  1 active torsions:
REMARK  status: ('A' for Active; 'I' for Inactive)
REMARK    1  A    between atoms: N1_1  and  C1_5 
ROOT
HETATM    1  C1  UNL     1       5.323   6.384  -0.751  1.00  0.00     0.188 C 
HETATM    2  C2  UNL     1       4.258   5.436  -0.227  1.00  0.00     0.033 C 
HETATM    3  C3  UNL     1       4.213   4.415  -1.367  1.00  0.00     0.007 C 
HETATM    4  C4  UNL     1       5.631   4.327  -1.836  1.00  0.00    -0.008 C 
HETATM    5  C5  UNL     1       6.282   3.037  -1.371  1.00  0.00     0.005 C 
HETATM    6  C6  UNL     1       7.746   3.151  -1.819  1.00  0.00     0.000 C 
HETATM    7  C7  UNL     1       8.394   4.125  -0.861  1.00  0.00     0.000 C 
HETATM    8  C8  UNL     1       7.515   5.247  -0.449  1.00  0.00     0.007 C 
HETATM    9  C9  UNL     1       6.369   5.526  -1.354  1.00  0.00     0.020 C 
ENDROOT
BRANCH   1  10
HETATM   10  N1  UNL     1       5.783   7.312   0.235  1.00  0.00    -0.075 N 
ATOM     11  H13 UNL     1       5.289   8.201   0.156  1.00  0.00     0.274 HD
ATOM     12  H12 UNL     1       5.476   7.033   1.168  1.00  0.00     0.274 HD
ATOM     13  H11 UNL     1       6.792   7.453   0.211  1.00  0.00     0.274 HD
ENDBRANCH   1  10
TORSDOF 1
ENDMDL
MODEL 2
REMARK VINA RESULT: -4.638606747      1.648      2.526
REMARK  1 active torsions:
REMARK  status: ('A' for Active; 'I' for Inactive)
REMARK    1  A    between atoms: N1_1  and  C1_5 
ROOT
HETATM    1  C1  UNL     1       4.376   5.553  -1.715  1.00  0.00     0.188 C 
HETATM    2  C2  UNL     1       5.133   6.813  -2.101  1.00  0.00     0.033 C 
HETATM    3  C3  UNL     1       6.070   6.949  -0.898  1.00  0.00     0.007 C 
HETATM    4  C4  UNL     1       6.399   5.538  -0.527  1.00  0.00    -0.008 C 
HETATM    5  C5  UNL     1       7.809   5.173  -0.956  1.00  0.00     0.005 C 
HETATM    6  C6  UNL     1       7.949   3.681  -0.621  1.00  0.00     0.000 C 
HETATM    7  C7  UNL     1       7.161   2.947  -1.683  1.00  0.00     0.000 C 
HETATM    8  C8  UNL     1       5.916   3.638  -2.101  1.00  0.00     0.007 C 
HETATM    9  C9  UNL     1       5.384   4.635  -1.135  1.00  0.00     0.020 C 
ENDROOT
BRANCH   1  10
HETATM   10  N1  UNL     1       3.600   5.014  -2.788  1.00  0.00    -0.075 N 
ATOM     11  H13 UNL     1       2.603   5.157  -2.624  1.00  0.00     0.274 HD
ATOM     12  H12 UNL     1       3.712   5.573  -3.635  1.00  0.00     0.274 HD
ATOM     13  H11 UNL     1       3.800   4.031  -2.972  1.00  0.00     0.274 HD
ENDBRANCH   1  10
TORSDOF 1
ENDMDL
MODEL 3
REMARK VINA RESULT: -4.450540621      1.612      3.177
REMARK  1 active torsions:
REMARK  status: ('A' for Active; 'I' for Inactive)
REMARK    1  A    between atoms: N1_1  and  C1_5 
ROOT
HETATM    1  C1  UNL     1       7.216   4.244  -0.627  1.00  0.00     0.188 C 
HETATM    2  C2  UNL     1       7.293   3.322  -1.833  1.00  0.00     0.033 C 
HETATM    3  C3  UNL     1       5.809   3.009  -2.035  1.00  0.00     0.007 C 
HETATM    4  C4  UNL     1       5.112   4.280  -1.663  1.00  0.00    -0.008 C 
HETATM    5  C5  UNL     1       4.615   5.013  -2.897  1.00  0.00     0.005 C 
HETATM    6  C6  UNL     1       4.042   6.334  -2.366  1.00  0.00     0.000 C 
HETATM    7  C7  UNL     1       5.240   7.192  -2.023  1.00  0.00     0.000 C 
HETATM    8  C8  UNL     1       6.381   6.439  -1.448  1.00  0.00     0.007 C 
HETATM    9  C9  UNL     1       6.042   5.117  -0.859  1.00  0.00     0.020 C 
ENDROOT
BRANCH   1  10
HETATM   10  N1  UNL     1       8.445   4.925  -0.362  1.00  0.00    -0.075 N 
ATOM     11  H13 UNL     1       9.141   4.284   0.019  1.00  0.00     0.274 HD
ATOM     12  H12 UNL     1       8.913   5.182  -1.232  1.00  0.00     0.274 HD
ATOM     13  H11 UNL     1       8.330   5.737   0.243  1.00  0.00     0.274 HD
ENDBRANCH   1  10
TORSDOF 1
ENDMDL
MODEL 4
REMARK VINA RESULT: -4.197909347      1.828      3.346
REMARK  1 active torsions:
REMARK  status: ('A' for Active; 'I' for Inactive)
REMARK    1  A    between atoms: N1_1  and  C1_5 
ROOT
HETATM    1  C1  UNL     1       6.346   4.922  -0.772  1.00  0.00     0.188 C 
HETATM    2  C2  UNL     1       6.544   3.817  -1.797  1.00  0.00     0.033 C 
HETATM    3  C3  UNL     1       5.087   3.486  -2.129  1.00  0.00     0.007 C 
HETATM    4  C4  UNL     1       4.385   4.805  -2.054  1.00  0.00    -0.008 C 
HETATM    5  C5  UNL     1       4.062   5.333  -3.441  1.00  0.00     0.005 C 
HETATM    6  C6  UNL     1       3.465   6.726  -3.203  1.00  0.00     0.000 C 
HETATM    7  C7  UNL     1       4.635   7.620  -2.854  1.00  0.00     0.000 C 
HETATM    8  C8  UNL     1       5.677   6.961  -2.030  1.00  0.00     0.007 C 
HETATM    9  C9  UNL     1       5.232   5.754  -1.284  1.00  0.00     0.020 C 
ENDROOT
BRANCH   1  10
HETATM   10  N1  UNL     1       7.552   5.628  -0.468  1.00  0.00    -0.075 N 
ATOM     11  H13 UNL     1       8.349   4.992  -0.445  1.00  0.00     0.274 HD
ATOM     12  H12 UNL     1       7.833   6.220  -1.250  1.00  0.00     0.274 HD
ATOM     13  H11 UNL     1       7.492   6.168   0.394  1.00  0.00     0.274 HD
ENDBRANCH   1  10
TORSDOF 1
ENDMDL
MODEL 5
REMARK VINA RESULT: -3.994224131      2.049      2.950
REMARK  1 active torsions:
REMARK  status: ('A' for Active; 'I' for Inactive)
REMARK    1  A    between atoms: N1_1  and  C1_5 
ROOT
HETATM    1  C1  UNL     1       3.410   5.741  -2.493  1.00  0.00     0.188 C 
HETATM    2  C2  UNL     1       4.158   7.060  -2.577  1.00  0.00     0.033 C 
HETATM    3  C3  UNL     1       4.757   7.126  -1.171  1.00  0.00     0.007 C 
HETATM    4  C4  UNL     1       5.071   5.702  -0.838  1.00  0.00    -0.008 C 
HETATM    5  C5  UNL     1       6.564   5.436  -0.924  1.00  0.00     0.005 C 
HETATM    6  C6  UNL     1       6.710   3.928  -0.681  1.00  0.00     0.000 C 
HETATM    7  C7  UNL     1       6.257   3.260  -1.961  1.00  0.00     0.000 C 
HETATM    8  C8  UNL     1       5.114   3.934  -2.624  1.00  0.00     0.007 C 
HETATM    9  C9  UNL     1       4.298   4.817  -1.750  1.00  0.00     0.020 C 
ENDROOT
BRANCH   1  10
HETATM   10  N1  UNL     1       2.959   5.269  -3.766  1.00  0.00    -0.075 N 
ATOM     11  H13 UNL     1       2.550   6.028  -4.311  1.00  0.00     0.274 HD
ATOM     12  H12 UNL     1       3.749   5.038  -4.369  1.00  0.00     0.274 HD
ATOM     13  H11 UNL     1       2.313   4.483  -3.695  1.00  0.00     0.274 HD
ENDBRANCH   1  10
TORSDOF 1
ENDMDL
