MODEL 1
REMARK VINA RESULT: -3.658094858      0.000      0.000
REMARK  0 active torsions:
REMARK  status: ('A' for Active; 'I' for Inactive)
ROOT
HETATM    1  C1  UNL     1       4.963   6.510  -2.628  1.00  0.00     0.009 C 
HETATM    2  C2  UNL     1       5.638   6.601  -1.279  1.00  0.00    -0.013 C 
HETATM    3  C3  UNL     1       4.524   6.384  -0.245  1.00  0.00     0.009 C 
HETATM    4  C4  UNL     1       4.168   4.926  -0.569  1.00  0.00    -0.010 C 
HETATM    5  C5  UNL     1       3.278   4.945  -1.806  1.00  0.00     0.009 C 
HETATM    6  C6  UNL     1       4.347   5.177  -2.881  1.00  0.00    -0.013 C 
HETATM    7  C7  UNL     1       5.274   4.019  -2.530  1.00  0.00     0.009 C 
HETATM    8  C8  UNL     1       5.457   4.289  -1.031  1.00  0.00    -0.010 C 
HETATM    9  C9  UNL     1       6.512   5.395  -0.993  1.00  0.00     0.009 C 
ENDROOT
TORSDOF 0
ENDMDL
MODEL 2
REMARK VINA RESULT: -3.639290189      0.938      2.562
REMARK  0 active torsions:
REMARK  status: ('A' for Active; 'I' for Inactive)
ROOT
HETATM    1  C1  UNL     1       3.420   4.838  -0.846  1.00  0.00     0.009 C 
HETATM    2  C2  UNL     1       4.888   4.618  -1.127  1.00  0.00    -0.013 C 
HETATM    3  C3  UNL     1       4.962   4.132  -2.581  1.00  0.00     0.009 C 
HETATM    4  C4  UNL     1       4.464   5.400  -3.290  1.00  0.00    -0.010 C 
HETATM    5  C5  UNL     1       2.945   5.416  -3.171  1.00  0.00     0.009 C 
HETATM    6  C6  UNL     1       2.812   5.884  -1.717  1.00  0.00    -0.013 C 
HETATM    7  C7  UNL     1       3.661   7.147  -1.808  1.00  0.00     0.009 C 
HETATM    8  C8  UNL     1       4.930   6.551  -2.431  1.00  0.00    -0.010 C 
HETATM    9  C9  UNL     1       5.653   5.923  -1.238  1.00  0.00     0.009 C 
ENDROOT
TORSDOF 0
ENDMDL
MODEL 3
REMARK VINA RESULT: -3.595273332      0.957      2.635
REMARK  0 active torsions:
REMARK  status: ('A' for Active; 'I' for Inactive)
ROOT
HETATM    1  C1  UNL     1       3.427   4.947  -0.749  1.00  0.00     0.009 C 
HETATM    2  C2  UNL     1       2.780   5.883  -1.743  1.00  0.00    -0.013 C 
HETATM    3  C3  UNL     1       3.662   7.140  -1.761  1.00  0.00     0.009 C 
HETATM    4  C4  UNL     1       4.944   6.533  -2.350  1.00  0.00    -0.010 C 
HETATM    5  C5  UNL     1       5.663   5.811  -1.217  1.00  0.00     0.009 C 
HETATM    6  C6  UNL     1       4.806   4.542  -1.144  1.00  0.00    -0.013 C 
HETATM    7  C7  UNL     1       4.904   4.119  -2.605  1.00  0.00     0.009 C 
HETATM    8  C8  UNL     1       4.480   5.433  -3.275  1.00  0.00    -0.010 C 
HETATM    9  C9  UNL     1       2.954   5.410  -3.173  1.00  0.00     0.009 C 
ENDROOT
TORSDOF 0
ENDMDL
MODEL 4
REMARK VINA RESULT: -3.585801222      0.834      1.082
REMARK  0 active torsions:
REMARK  status: ('A' for Active; 'I' for Inactive)
ROOT
HETATM    1  C1  UNL     1       5.174   6.877  -1.877  1.00  0.00     0.009 C 
HETATM    2  C2  UNL     1       5.515   5.928  -0.752  1.00  0.00    -0.013 C 
HETATM    3  C3  UNL     1       4.196   5.683  -0.005  1.00  0.00     0.009 C 
HETATM    4  C4  UNL     1       3.420   4.950  -1.109  1.00  0.00    -0.010 C 
HETATM    5  C5  UNL     1       2.900   6.009  -2.073  1.00  0.00     0.009 C 
HETATM    6  C6  UNL     1       4.192   6.306  -2.842  1.00  0.00    -0.013 C 
HETATM    7  C7  UNL     1       4.535   4.881  -3.264  1.00  0.00     0.009 C 
HETATM    8  C8  UNL     1       4.461   4.190  -1.896  1.00  0.00    -0.010 C 
HETATM    9  C9  UNL     1       5.807   4.527  -1.252  1.00  0.00     0.009 C 
ENDROOT
TORSDOF 0
ENDMDL
MODEL 5
REMARK VINA RESULT: -3.585313100      0.774      2.610
REMARK  0 active torsions:
REMARK  status: ('A' for Active; 'I' for Inactive)
ROOT
HETATM    1  C1  UNL     1       6.014   4.707  -1.296  1.00  0.00     0.009 C 
HETATM    2  C2  UNL     1       4.850   4.236  -2.137  1.00  0.00    -0.013 C 
HETATM    3  C3  UNL     1       3.611   4.377  -1.243  1.00  0.00     0.009 C 
HETATM    4  C4  UNL     1       3.584   5.905  -1.098  1.00  0.00    -0.010 C 
HETATM    5  C5  UNL     1       4.622   6.276  -0.045  1.00  0.00     0.009 C 
HETATM    6  C6  UNL     1       5.895   6.135  -0.887  1.00  0.00    -0.013 C 
HETATM    7  C7  UNL     1       5.504   7.052  -2.040  1.00  0.00     0.009 C 
HETATM    8  C8  UNL     1       4.141   6.443  -2.394  1.00  0.00    -0.010 C 
HETATM    9  C9  UNL     1       4.504   5.220  -3.238  1.00  0.00     0.009 C 
ENDROOT
TORSDOF 0
ENDMDL
