MODEL 1
REMARK VINA RESULT: -4.109010820      0.000      0.000
REMARK  1 active torsions:
REMARK  status: ('A' for Active; 'I' for Inactive)
REMARK    1  A    between atoms: N1_1  and  C1_5 
ROOT
HETATM    1  C1  UNL     1       4.500   5.202  -3.200  1.00  0.00     0.188 C 
HETATM    2  C2  UNL     1       4.873   6.445  -2.426  1.00  0.00     0.037 C 
HETATM    3  C3  UNL     1       5.204   5.962  -1.029  1.00  0.00    -0.012 C 
HETATM    4  C4  UNL     1       6.635   5.522  -0.906  1.00  0.00     0.005 C 
HETATM    5  C5  UNL     1       6.832   4.048  -1.064  1.00  0.00     0.001 C 
HETATM    6  C6  UNL     1       5.989   3.455  -2.180  1.00  0.00     0.007 C 
HETATM    7  C7  UNL     1       4.614   4.040  -2.239  1.00  0.00     0.016 C 
HETATM    8  C8  UNL     1       4.317   4.738  -0.907  1.00  0.00     0.011 C 
ENDROOT
BRANCH   1   9
HETATM    9  N1  UNL     1       3.120   5.247  -3.647  1.00  0.00    -0.075 N 
ATOM     10  H13 UNL     1       2.728   4.311  -3.746  1.00  0.00     0.274 HD
ATOM     11  H12 UNL     1       2.502   5.600  -2.917  1.00  0.00     0.274 HD
ATOM     12  H11 UNL     1       3.023   5.785  -4.509  1.00  0.00     0.274 HD
ENDBRANCH   1   9
TORSDOF 1
ENDMDL
MODEL 2
REMARK VINA RESULT: -3.750463833      1.949      3.098
REMARK  1 active torsions:
REMARK  status: ('A' for Active; 'I' for Inactive)
REMARK    1  A    between atoms: N1_1  and  C1_5 
ROOT
HETATM    1  C1  UNL     1       5.984   6.750  -1.074  1.00  0.00     0.188 C 
HETATM    2  C2  UNL     1       6.452   5.332  -0.837  1.00  0.00     0.037 C 
HETATM    3  C3  UNL     1       5.244   4.461  -1.117  1.00  0.00    -0.012 C 
HETATM    4  C4  UNL     1       5.118   4.119  -2.573  1.00  0.00     0.005 C 
HETATM    5  C5  UNL     1       4.187   5.012  -3.328  1.00  0.00     0.001 C 
HETATM    6  C6  UNL     1       4.328   6.474  -2.942  1.00  0.00     0.007 C 
HETATM    7  C7  UNL     1       4.528   6.667  -1.473  1.00  0.00     0.016 C 
HETATM    8  C8  UNL     1       4.103   5.387  -0.744  1.00  0.00     0.011 C 
ENDROOT
BRANCH   1   9
HETATM    9  N1  UNL     1       6.047   7.541   0.141  1.00  0.00    -0.075 N 
ATOM     10  H13 UNL     1       6.727   7.162   0.800  1.00  0.00     0.274 HD
ATOM     11  H12 UNL     1       6.479   8.449  -0.026  1.00  0.00     0.274 HD
ATOM     12  H11 UNL     1       5.126   7.641   0.571  1.00  0.00     0.274 HD
ENDBRANCH   1   9
TORSDOF 1
ENDMDL
MODEL 3
REMARK VINA RESULT: -3.664299364      2.226      3.455
REMARK  1 active torsions:
REMARK  status: ('A' for Active; 'I' for Inactive)
REMARK    1  A    between atoms: N1_1  and  C1_5 
ROOT
HETATM    1  C1  UNL     1       7.400   5.024  -1.256  1.00  0.00     0.188 C 
HETATM    2  C2  UNL     1       6.834   3.725  -1.784  1.00  0.00     0.037 C 
HETATM    3  C3  UNL     1       5.331   3.859  -1.649  1.00  0.00    -0.012 C 
HETATM    4  C4  UNL     1       4.716   4.546  -2.835  1.00  0.00     0.005 C 
HETATM    5  C5  UNL     1       4.493   6.011  -2.639  1.00  0.00     0.001 C 
HETATM    6  C6  UNL     1       5.650   6.695  -1.931  1.00  0.00     0.007 C 
HETATM    7  C7  UNL     1       6.222   5.867  -0.825  1.00  0.00     0.016 C 
HETATM    8  C8  UNL     1       5.210   4.779  -0.450  1.00  0.00     0.011 C 
ENDROOT
BRANCH   1   9
HETATM    9  N1  UNL     1       8.221   4.808  -0.079  1.00  0.00    -0.075 N 
ATOM     10  H13 UNL     1       8.533   3.839  -0.014  1.00  0.00     0.274 HD
ATOM     11  H12 UNL     1       9.129   5.260  -0.170  1.00  0.00     0.274 HD
ATOM     12  H11 UNL     1       7.741   5.103   0.772  1.00  0.00     0.274 HD
ENDBRANCH   1   9
TORSDOF 1
ENDMDL
MODEL 4
REMARK VINA RESULT: -3.610262198      1.630      2.717
REMARK  1 active torsions:
REMARK  status: ('A' for Active; 'I' for Inactive)
REMARK    1  A    between atoms: N1_1  and  C1_5 
ROOT
HETATM    1  C1  UNL     1       5.641   3.979  -1.186  1.00  0.00     0.188 C 
HETATM    2  C2  UNL     1       6.672   5.068  -1.000  1.00  0.00     0.037 C 
HETATM    3  C3  UNL     1       5.923   6.369  -1.205  1.00  0.00    -0.012 C 
HETATM    4  C4  UNL     1       5.266   6.849   0.058  1.00  0.00     0.005 C 
HETATM    5  C5  UNL     1       3.826   6.467   0.176  1.00  0.00     0.001 C 
HETATM    6  C6  UNL     1       3.553   5.044  -0.281  1.00  0.00     0.007 C 
HETATM    7  C7  UNL     1       4.333   4.669  -1.501  1.00  0.00     0.016 C 
HETATM    8  C8  UNL     1       4.837   5.949  -2.176  1.00  0.00     0.011 C 
ENDROOT
BRANCH   1   9
HETATM    9  N1  UNL     1       5.958   3.134  -2.322  1.00  0.00    -0.075 N 
ATOM     10  H13 UNL     1       6.286   2.216  -2.024  1.00  0.00     0.274 HD
ATOM     11  H12 UNL     1       5.117   2.847  -2.821  1.00  0.00     0.274 HD
ATOM     12  H11 UNL     1       6.627   3.584  -2.949  1.00  0.00     0.274 HD
ENDBRANCH   1   9
TORSDOF 1
ENDMDL
MODEL 5
REMARK VINA RESULT: -3.609273254      2.073      2.971
REMARK  1 active torsions:
REMARK  status: ('A' for Active; 'I' for Inactive)
REMARK    1  A    between atoms: N1_1  and  C1_5 
ROOT
HETATM    1  C1  UNL     1       5.346   6.476   0.092  1.00  0.00     0.188 C 
HETATM    2  C2  UNL     1       3.859   6.367  -0.154  1.00  0.00     0.037 C 
HETATM    3  C3  UNL     1       3.725   5.859  -1.575  1.00  0.00    -0.012 C 
HETATM    4  C4  UNL     1       3.792   4.360  -1.649  1.00  0.00     0.005 C 
HETATM    5  C5  UNL     1       5.150   3.830  -1.980  1.00  0.00     0.001 C 
HETATM    6  C6  UNL     1       6.264   4.565  -1.256  1.00  0.00     0.007 C 
HETATM    7  C7  UNL     1       6.031   6.041  -1.183  1.00  0.00     0.016 C 
HETATM    8  C8  UNL     1       4.973   6.425  -2.223  1.00  0.00     0.011 C 
ENDROOT
BRANCH   1   9
HETATM    9  N1  UNL     1       5.746   7.849   0.341  1.00  0.00    -0.075 N 
ATOM     10  H13 UNL     1       5.202   8.503  -0.221  1.00  0.00     0.274 HD
ATOM     11  H12 UNL     1       5.457   8.159   1.268  1.00  0.00     0.274 HD
ATOM     12  H11 UNL     1       6.748   7.979   0.200  1.00  0.00     0.274 HD
ENDBRANCH   1   9
TORSDOF 1
ENDMDL
