MODEL 1
REMARK VINA RESULT: -6.857808650      0.000      0.000
REMARK  7 active torsions:
REMARK  status: ('A' for Active; 'I' for Inactive)
REMARK    1  A    between atoms: C2_2  and  C5_5 
REMARK       I    between atoms: C5_5  and  N1_7 
REMARK    2  A    between atoms: N1_7  and  C6_9 
REMARK    3  A    between atoms: C6_9  and  C7_10 
REMARK    4  A    between atoms: C7_10  and  C8_11 
REMARK    5  A    between atoms: C8_11  and  C9_12 
REMARK    6  A    between atoms: C9_12  and  N2_13 
REMARK    7  A    between atoms: N2_13  and  S1_15 
ROOT
HETATM    1  C6  UNL     1      15.802  25.085  18.084  1.00  0.00     0.122 C 
ENDROOT
BRANCH   1   2
HETATM    2  N1  UNL     1      16.606  25.779  17.180  1.00  0.00    -0.360 N 
HETATM    3  C5  UNL     1      16.319  26.107  15.854  1.00  0.00     0.225 C 
HETATM    4  O1  UNL     1      15.407  25.462  15.314  1.00  0.00    -0.273 OA
ATOM      5  H1  UNL     1      17.514  26.084  17.530  1.00  0.00     0.162 HD
BRANCH   3   6
HETATM    6  C2  UNL     1      17.102  27.129  15.113  1.00  0.00     0.030 C 
HETATM    7  C1  UNL     1      16.118  28.025  14.401  1.00  0.00     0.024 C 
HETATM    8  C3  UNL     1      17.905  27.979  16.111  1.00  0.00     0.024 C 
HETATM    9  C4  UNL     1      18.057  26.434  14.199  1.00  0.00     0.024 C 
ENDBRANCH   3   6
ENDBRANCH   1   2
BRANCH   1  10
HETATM   10  C7  UNL     1      15.108  25.976  19.131  1.00  0.00     0.021 C 
BRANCH  10  11
HETATM   11  C8  UNL     1      16.046  26.620  19.930  1.00  0.00     0.022 C 
BRANCH  11  12
HETATM   12  C9  UNL     1      16.116  26.542  21.474  1.00  0.00     0.132 C 
BRANCH  12  13
HETATM   13  N2  UNL     1      16.640  27.858  21.689  1.00  0.00    -0.320 N 
ATOM     14  H2  UNL     1      17.587  28.140  21.437  1.00  0.00     0.172 HD
BRANCH  13  15
HETATM   15  S1  UNL     1      15.537  28.866  22.390  1.00  0.00     0.222 S 
HETATM   16  C10 UNL     1      14.333  28.701  23.527  1.00  0.00     0.185 C 
HETATM   17  O2  UNL     1      16.740  29.798  23.107  1.00  0.00    -0.206 OA
HETATM   18  O3  UNL     1      15.124  29.833  21.294  1.00  0.00    -0.206 OA
ENDBRANCH  13  15
ENDBRANCH  12  13
ENDBRANCH  11  12
ENDBRANCH  10  11
ENDBRANCH   1  10
TORSDOF 7
ENDMDL
MODEL 2
REMARK VINA RESULT: -6.843270358      0.171      1.119
REMARK  7 active torsions:
REMARK  status: ('A' for Active; 'I' for Inactive)
REMARK    1  A    between atoms: C2_2  and  C5_5 
REMARK       I    between atoms: C5_5  and  N1_7 
REMARK    2  A    between atoms: N1_7  and  C6_9 
REMARK    3  A    between atoms: C6_9  and  C7_10 
REMARK    4  A    between atoms: C7_10  and  C8_11 
REMARK    5  A    between atoms: C8_11  and  C9_12 
REMARK    6  A    between atoms: C9_12  and  N2_13 
REMARK    7  A    between atoms: N2_13  and  S1_15 
ROOT
HETATM    1  C6  UNL     1      15.722  24.971  18.201  1.00  0.00     0.122 C 
ENDROOT
BRANCH   1   2
HETATM    2  N1  UNL     1      16.560  25.677  17.340  1.00  0.00    -0.360 N 
HETATM    3  C5  UNL     1      16.303  26.075  16.027  1.00  0.00     0.225 C 
HETATM    4  O1  UNL     1      15.377  25.487  15.446  1.00  0.00    -0.273 OA
ATOM      5  H1  UNL     1      17.473  25.936  17.715  1.00  0.00     0.162 HD
BRANCH   3   6
HETATM    6  C2  UNL     1      17.129  27.103  15.344  1.00  0.00     0.030 C 
HETATM    7  C1  UNL     1      18.149  26.378  14.500  1.00  0.00     0.024 C 
HETATM    8  C3  UNL     1      16.236  27.944  14.418  1.00  0.00     0.024 C 
HETATM    9  C4  UNL     1      17.729  28.002  16.376  1.00  0.00     0.024 C 
ENDBRANCH   3   6
ENDBRANCH   1   2
BRANCH   1  10
HETATM   10  C7  UNL     1      15.004  25.842  19.247  1.00  0.00     0.021 C 
BRANCH  10  11
HETATM   11  C8  UNL     1      15.917  26.604  19.966  1.00  0.00     0.022 C 
BRANCH  11  12
HETATM   12  C9  UNL     1      16.127  26.548  21.498  1.00  0.00     0.132 C 
BRANCH  12  13
HETATM   13  N2  UNL     1      16.632  27.879  21.652  1.00  0.00    -0.320 N 
ATOM     14  H2  UNL     1      17.558  28.174  21.343  1.00  0.00     0.172 HD
BRANCH  13  15
HETATM   15  S1  UNL     1      15.546  28.882  22.385  1.00  0.00     0.222 S 
HETATM   16  C10 UNL     1      14.368  28.709  23.547  1.00  0.00     0.185 C 
HETATM   17  O2  UNL     1      16.765  29.808  23.083  1.00  0.00    -0.206 OA
HETATM   18  O3  UNL     1      15.109  29.858  21.306  1.00  0.00    -0.206 OA
ENDBRANCH  13  15
ENDBRANCH  12  13
ENDBRANCH  11  12
ENDBRANCH  10  11
ENDBRANCH   1  10
TORSDOF 7
ENDMDL
MODEL 3
REMARK VINA RESULT: -6.802257940      0.742      1.373
REMARK  7 active torsions:
REMARK  status: ('A' for Active; 'I' for Inactive)
REMARK    1  A    between atoms: C2_2  and  C5_5 
REMARK       I    between atoms: C5_5  and  N1_7 
REMARK    2  A    between atoms: N1_7  and  C6_9 
REMARK    3  A    between atoms: C6_9  and  C7_10 
REMARK    4  A    between atoms: C7_10  and  C8_11 
REMARK    5  A    between atoms: C8_11  and  C9_12 
REMARK    6  A    between atoms: C9_12  and  N2_13 
REMARK    7  A    between atoms: N2_13  and  S1_15 
ROOT
HETATM    1  C6  UNL     1      15.646  25.060  18.082  1.00  0.00     0.122 C 
ENDROOT
BRANCH   1   2
HETATM    2  N1  UNL     1      16.488  25.797  17.250  1.00  0.00    -0.360 N 
HETATM    3  C5  UNL     1      16.296  26.123  15.907  1.00  0.00     0.225 C 
HETATM    4  O1  UNL     1      15.461  25.443  15.290  1.00  0.00    -0.273 OA
ATOM      5  H1  UNL     1      17.349  26.141  17.675  1.00  0.00     0.162 HD
BRANCH   3   6
HETATM    6  C2  UNL     1      17.089  27.186  15.238  1.00  0.00     0.030 C 
HETATM    7  C1  UNL     1      17.788  27.978  16.317  1.00  0.00     0.024 C 
HETATM    8  C3  UNL     1      18.154  26.540  14.338  1.00  0.00     0.024 C 
HETATM    9  C4  UNL     1      16.175  28.005  14.387  1.00  0.00     0.024 C 
ENDBRANCH   3   6
ENDBRANCH   1   2
BRANCH   1  10
HETATM   10  C7  UNL     1      15.842  25.329  19.585  1.00  0.00     0.021 C 
BRANCH  10  11
HETATM   11  C8  UNL     1      16.292  26.626  19.800  1.00  0.00     0.022 C 
BRANCH  11  12
HETATM   12  C9  UNL     1      15.521  27.731  20.561  1.00  0.00     0.132 C 
BRANCH  12  13
HETATM   13  N2  UNL     1      16.427  27.844  21.664  1.00  0.00    -0.320 N 
ATOM     14  H2  UNL     1      17.353  27.419  21.684  1.00  0.00     0.172 HD
BRANCH  13  15
HETATM   15  S1  UNL     1      15.802  28.742  22.900  1.00  0.00     0.222 S 
HETATM   16  C10 UNL     1      14.321  28.863  23.648  1.00  0.00     0.185 C 
HETATM   17  O2  UNL     1      16.843  28.048  24.025  1.00  0.00    -0.206 OA
HETATM   18  O3  UNL     1      16.468  30.102  22.785  1.00  0.00    -0.206 OA
ENDBRANCH  13  15
ENDBRANCH  12  13
ENDBRANCH  11  12
ENDBRANCH  10  11
ENDBRANCH   1  10
TORSDOF 7
ENDMDL
MODEL 4
REMARK VINA RESULT: -6.708588599      1.147      1.408
REMARK  7 active torsions:
REMARK  status: ('A' for Active; 'I' for Inactive)
REMARK    1  A    between atoms: C2_2  and  C5_5 
REMARK       I    between atoms: C5_5  and  N1_7 
REMARK    2  A    between atoms: N1_7  and  C6_9 
REMARK    3  A    between atoms: C6_9  and  C7_10 
REMARK    4  A    between atoms: C7_10  and  C8_11 
REMARK    5  A    between atoms: C8_11  and  C9_12 
REMARK    6  A    between atoms: C9_12  and  N2_13 
REMARK    7  A    between atoms: N2_13  and  S1_15 
ROOT
HETATM    1  C6  UNL     1      15.661  25.090  18.108  1.00  0.00     0.122 C 
ENDROOT
BRANCH   1   2
HETATM    2  N1  UNL     1      16.507  25.796  17.254  1.00  0.00    -0.360 N 
HETATM    3  C5  UNL     1      16.313  26.088  15.904  1.00  0.00     0.225 C 
HETATM    4  O1  UNL     1      15.469  25.399  15.308  1.00  0.00    -0.273 OA
ATOM      5  H1  UNL     1      17.373  26.143  17.667  1.00  0.00     0.162 HD
BRANCH   3   6
HETATM    6  C2  UNL     1      17.113  27.125  15.204  1.00  0.00     0.030 C 
HETATM    7  C1  UNL     1      16.150  28.008  14.447  1.00  0.00     0.024 C 
HETATM    8  C3  UNL     1      17.853  27.986  16.240  1.00  0.00     0.024 C 
HETATM    9  C4  UNL     1      18.122  26.450  14.334  1.00  0.00     0.024 C 
ENDBRANCH   3   6
ENDBRANCH   1   2
BRANCH   1  10
HETATM   10  C7  UNL     1      15.841  25.423  19.601  1.00  0.00     0.021 C 
BRANCH  10  11
HETATM   11  C8  UNL     1      16.206  26.754  19.769  1.00  0.00     0.022 C 
BRANCH  11  12
HETATM   12  C9  UNL     1      15.520  27.760  20.724  1.00  0.00     0.132 C 
BRANCH  12  13
HETATM   13  N2  UNL     1      16.524  27.740  21.745  1.00  0.00    -0.320 N 
ATOM     14  H2  UNL     1      17.358  27.155  21.709  1.00  0.00     0.172 HD
BRANCH  13  15
HETATM   15  S1  UNL     1      16.178  28.771  22.986  1.00  0.00     0.222 S 
HETATM   16  C10 UNL     1      15.969  30.414  23.140  1.00  0.00     0.185 C 
HETATM   17  O2  UNL     1      14.665  28.077  23.235  1.00  0.00    -0.206 OA
HETATM   18  O3  UNL     1      16.892  28.195  24.197  1.00  0.00    -0.206 OA
ENDBRANCH  13  15
ENDBRANCH  12  13
ENDBRANCH  11  12
ENDBRANCH  10  11
ENDBRANCH   1  10
TORSDOF 7
ENDMDL
MODEL 5
REMARK VINA RESULT: -6.614208455      1.198      1.230
REMARK  7 active torsions:
REMARK  status: ('A' for Active; 'I' for Inactive)
REMARK    1  A    between atoms: C2_2  and  C5_5 
REMARK       I    between atoms: C5_5  and  N1_7 
REMARK    2  A    between atoms: N1_7  and  C6_9 
REMARK    3  A    between atoms: C6_9  and  C7_10 
REMARK    4  A    between atoms: C7_10  and  C8_11 
REMARK    5  A    between atoms: C8_11  and  C9_12 
REMARK    6  A    between atoms: C9_12  and  N2_13 
REMARK    7  A    between atoms: N2_13  and  S1_15 
ROOT
HETATM    1  C6  UNL     1      15.642  24.944  18.258  1.00  0.00     0.122 C 
ENDROOT
BRANCH   1   2
HETATM    2  N1  UNL     1      16.483  25.625  17.379  1.00  0.00    -0.360 N 
HETATM    3  C5  UNL     1      16.219  26.007  16.063  1.00  0.00     0.225 C 
HETATM    4  O1  UNL     1      15.279  25.424  15.500  1.00  0.00    -0.273 OA
ATOM      5  H1  UNL     1      17.403  25.875  17.742  1.00  0.00     0.162 HD
BRANCH   3   6
HETATM    6  C2  UNL     1      17.054  27.012  15.357  1.00  0.00     0.030 C 
HETATM    7  C1  UNL     1      16.133  27.844  14.499  1.00  0.00     0.024 C 
HETATM    8  C3  UNL     1      17.727  27.933  16.388  1.00  0.00     0.024 C 
HETATM    9  C4  UNL     1      18.117  26.299  14.586  1.00  0.00     0.024 C 
ENDBRANCH   3   6
ENDBRANCH   1   2
BRANCH   1  10
HETATM   10  C7  UNL     1      15.616  25.519  19.686  1.00  0.00     0.021 C 
BRANCH  10  11
HETATM   11  C8  UNL     1      15.403  26.892  19.662  1.00  0.00     0.022 C 
BRANCH  11  12
HETATM   12  C9  UNL     1      15.049  27.769  20.887  1.00  0.00     0.132 C 
BRANCH  12  13
HETATM   13  N2  UNL     1      16.370  27.839  21.436  1.00  0.00    -0.320 N 
ATOM     14  H2  UNL     1      17.218  27.653  20.901  1.00  0.00     0.172 HD
BRANCH  13  15
HETATM   15  S1  UNL     1      16.365  28.254  23.033  1.00  0.00     0.222 S 
HETATM   16  C10 UNL     1      17.345  27.946  24.342  1.00  0.00     0.185 C 
HETATM   17  O2  UNL     1      16.546  29.889  22.682  1.00  0.00    -0.206 OA
HETATM   18  O3  UNL     1      14.901  28.271  23.439  1.00  0.00    -0.206 OA
ENDBRANCH  13  15
ENDBRANCH  12  13
ENDBRANCH  11  12
ENDBRANCH  10  11
ENDBRANCH   1  10
TORSDOF 7
ENDMDL
