MODEL 1
REMARK VINA RESULT: -6.935439205      0.000      0.000
REMARK  6 active torsions:
REMARK  status: ('A' for Active; 'I' for Inactive)
REMARK       I    between atoms: C3_3  and  N1_5 
REMARK    1  A    between atoms: N1_5  and  C4_6 
REMARK    2  A    between atoms: N1_5  and  C6_8 
REMARK    3  A    between atoms: C6_8  and  C7_9 
REMARK    4  A    between atoms: C7_9  and  N2_10 
REMARK       I    between atoms: N2_10  and  C8_12 
REMARK       I    between atoms: C8_12  and  N3_14 
REMARK    5  A    between atoms: N3_14  and  C9_16 
REMARK    6  A    between atoms: C9_16  and  C11_18 
ROOT
HETATM    1  C1  UNL     1      18.558  30.436  23.698  1.00  0.00     0.022 C 
HETATM    2  C2  UNL     1      17.393  30.315  23.383  1.00  0.00    -0.016 C 
HETATM    3  C3  UNL     1      16.014  30.180  23.010  1.00  0.00     0.301 C 
HETATM    4  O1  UNL     1      15.277  31.204  23.157  1.00  0.00    -0.258 OA
HETATM    5  N1  UNL     1      15.490  28.937  22.492  1.00  0.00    -0.320 N 
ENDROOT
BRANCH   5   6
HETATM    6  C4  UNL     1      14.107  28.902  22.149  1.00  0.00     0.127 C 
HETATM    7  C5  UNL     1      13.290  28.310  23.259  1.00  0.00     0.027 C 
ENDBRANCH   5   6
BRANCH   5   8
HETATM    8  C6  UNL     1      16.394  27.870  22.323  1.00  0.00     0.087 C 
BRANCH   8   9
HETATM    9  C7  UNL     1      16.161  26.896  21.231  1.00  0.00     0.169 C 
BRANCH   9  10
HETATM   10  N2  UNL     1      16.810  27.118  19.984  1.00  0.00    -0.338 N 
HETATM   11  C8  UNL     1      16.162  26.923  18.718  1.00  0.00     0.316 C 
HETATM   12  O2  UNL     1      14.959  26.540  18.660  1.00  0.00    -0.247 OA
HETATM   13  N3  UNL     1      16.872  27.163  17.537  1.00  0.00    -0.339 N 
ATOM     14  H3  UNL     1      17.843  27.473  17.582  1.00  0.00     0.164 HD
ATOM     15  H2  UNL     1      17.782  27.429  19.990  1.00  0.00     0.164 HD
BRANCH  13  16
HETATM   16  C9  UNL     1      16.233  26.971  16.243  1.00  0.00     0.085 C 
HETATM   17  C10 UNL     1      16.460  25.542  15.800  1.00  0.00     0.032 C 
BRANCH  16  18
HETATM   18  C11 UNL     1      16.937  27.881  15.259  1.00  0.00    -0.000 C 
HETATM   19  C12 UNL     1      18.016  28.674  15.947  1.00  0.00     0.011 C 
HETATM   20  C13 UNL     1      17.596  27.036  14.167  1.00  0.00     0.011 C 
ENDBRANCH  16  18
ENDBRANCH  13  16
ENDBRANCH   9  10
ENDBRANCH   8   9
ENDBRANCH   5   8
TORSDOF 6
ENDMDL
MODEL 2
REMARK VINA RESULT: -6.755420058      0.962      2.181
REMARK  6 active torsions:
REMARK  status: ('A' for Active; 'I' for Inactive)
REMARK       I    between atoms: C3_3  and  N1_5 
REMARK    1  A    between atoms: N1_5  and  C4_6 
REMARK    2  A    between atoms: N1_5  and  C6_8 
REMARK    3  A    between atoms: C6_8  and  C7_9 
REMARK    4  A    between atoms: C7_9  and  N2_10 
REMARK       I    between atoms: N2_10  and  C8_12 
REMARK       I    between atoms: C8_12  and  N3_14 
REMARK    5  A    between atoms: N3_14  and  C9_16 
REMARK    6  A    between atoms: C9_16  and  C11_18 
ROOT
HETATM    1  C1  UNL     1      12.442  30.308  21.803  1.00  0.00     0.022 C 
HETATM    2  C2  UNL     1      13.556  30.228  22.277  1.00  0.00    -0.016 C 
HETATM    3  C3  UNL     1      14.872  30.140  22.843  1.00  0.00     0.301 C 
HETATM    4  O1  UNL     1      15.244  31.103  23.582  1.00  0.00    -0.258 OA
HETATM    5  N1  UNL     1      15.731  29.008  22.584  1.00  0.00    -0.320 N 
ENDROOT
BRANCH   5   6
HETATM    6  C4  UNL     1      17.020  29.011  23.191  1.00  0.00     0.127 C 
HETATM    7  C5  UNL     1      17.109  27.979  24.276  1.00  0.00     0.027 C 
ENDBRANCH   5   6
BRANCH   5   8
HETATM    8  C6  UNL     1      15.214  27.967  21.787  1.00  0.00     0.087 C 
BRANCH   8   9
HETATM    9  C7  UNL     1      16.141  26.941  21.253  1.00  0.00     0.169 C 
BRANCH   9  10
HETATM   10  N2  UNL     1      16.783  27.198  20.010  1.00  0.00    -0.338 N 
HETATM   11  C8  UNL     1      16.163  26.942  18.741  1.00  0.00     0.316 C 
HETATM   12  O2  UNL     1      14.992  26.467  18.677  1.00  0.00    -0.247 OA
HETATM   13  N3  UNL     1      16.863  27.221  17.563  1.00  0.00    -0.339 N 
ATOM     14  H3  UNL     1      17.806  27.605  17.612  1.00  0.00     0.164 HD
ATOM     15  H2  UNL     1      17.728  27.582  20.020  1.00  0.00     0.164 HD
BRANCH  13  16
HETATM   16  C9  UNL     1      16.251  26.967  16.265  1.00  0.00     0.085 C 
HETATM   17  C10 UNL     1      16.562  25.545  15.856  1.00  0.00     0.032 C 
BRANCH  16  18
HETATM   18  C11 UNL     1      16.917  27.895  15.271  1.00  0.00    -0.000 C 
HETATM   19  C12 UNL     1      18.030  28.667  15.926  1.00  0.00     0.011 C 
HETATM   20  C13 UNL     1      17.521  27.070  14.133  1.00  0.00     0.011 C 
ENDBRANCH  16  18
ENDBRANCH  13  16
ENDBRANCH   9  10
ENDBRANCH   8   9
ENDBRANCH   5   8
TORSDOF 6
ENDMDL
MODEL 3
REMARK VINA RESULT: -6.710770390      1.098      1.183
REMARK  6 active torsions:
REMARK  status: ('A' for Active; 'I' for Inactive)
REMARK       I    between atoms: C3_3  and  N1_5 
REMARK    1  A    between atoms: N1_5  and  C4_6 
REMARK    2  A    between atoms: N1_5  and  C6_8 
REMARK    3  A    between atoms: C6_8  and  C7_9 
REMARK    4  A    between atoms: C7_9  and  N2_10 
REMARK       I    between atoms: N2_10  and  C8_12 
REMARK       I    between atoms: C8_12  and  N3_14 
REMARK    5  A    between atoms: N3_14  and  C9_16 
REMARK    6  A    between atoms: C9_16  and  C11_18 
ROOT
HETATM    1  C1  UNL     1      17.567  27.727  24.485  1.00  0.00     0.022 C 
HETATM    2  C2  UNL     1      16.920  28.463  23.771  1.00  0.00    -0.016 C 
HETATM    3  C3  UNL     1      16.159  29.340  22.927  1.00  0.00     0.301 C 
HETATM    4  O1  UNL     1      16.367  30.585  23.059  1.00  0.00    -0.258 OA
HETATM    5  N1  UNL     1      15.202  28.828  21.973  1.00  0.00    -0.320 N 
ENDROOT
BRANCH   5   6
HETATM    6  C4  UNL     1      14.496  29.778  21.181  1.00  0.00     0.127 C 
HETATM    7  C5  UNL     1      13.103  29.985  21.697  1.00  0.00     0.027 C 
ENDBRANCH   5   6
BRANCH   5   8
HETATM    8  C6  UNL     1      15.072  27.429  21.868  1.00  0.00     0.087 C 
BRANCH   8   9
HETATM    9  C7  UNL     1      16.171  26.650  21.252  1.00  0.00     0.169 C 
BRANCH   9  10
HETATM   10  N2  UNL     1      16.723  27.120  20.027  1.00  0.00    -0.338 N 
HETATM   11  C8  UNL     1      16.174  26.789  18.743  1.00  0.00     0.316 C 
HETATM   12  O2  UNL     1      15.153  26.049  18.647  1.00  0.00    -0.247 OA
HETATM   13  N3  UNL     1      16.776  27.292  17.585  1.00  0.00    -0.339 N 
ATOM     14  H3  UNL     1      17.600  27.889  17.660  1.00  0.00     0.164 HD
ATOM     15  H2  UNL     1      17.547  27.720  20.063  1.00  0.00     0.164 HD
BRANCH  13  16
HETATM   16  C9  UNL     1      16.235  26.967  16.273  1.00  0.00     0.085 C 
HETATM   17  C10 UNL     1      16.657  25.560  15.912  1.00  0.00     0.032 C 
BRANCH  16  18
HETATM   18  C11 UNL     1      16.875  27.915  15.280  1.00  0.00    -0.000 C 
HETATM   19  C12 UNL     1      17.982  28.698  15.932  1.00  0.00     0.011 C 
HETATM   20  C13 UNL     1      17.481  27.110  14.128  1.00  0.00     0.011 C 
ENDBRANCH  16  18
ENDBRANCH  13  16
ENDBRANCH   9  10
ENDBRANCH   8   9
ENDBRANCH   5   8
TORSDOF 6
ENDMDL
MODEL 4
REMARK VINA RESULT: -6.446724329      1.150      2.269
REMARK  6 active torsions:
REMARK  status: ('A' for Active; 'I' for Inactive)
REMARK       I    between atoms: C3_3  and  N1_5 
REMARK    1  A    between atoms: N1_5  and  C4_6 
REMARK    2  A    between atoms: N1_5  and  C6_8 
REMARK    3  A    between atoms: C6_8  and  C7_9 
REMARK    4  A    between atoms: C7_9  and  N2_10 
REMARK       I    between atoms: N2_10  and  C8_12 
REMARK       I    between atoms: C8_12  and  N3_14 
REMARK    5  A    between atoms: N3_14  and  C9_16 
REMARK    6  A    between atoms: C9_16  and  C11_18 
ROOT
HETATM    1  C1  UNL     1      13.236  31.080  21.932  1.00  0.00     0.022 C 
HETATM    2  C2  UNL     1      14.319  30.826  22.415  1.00  0.00    -0.016 C 
HETATM    3  C3  UNL     1      15.601  30.534  22.991  1.00  0.00     0.301 C 
HETATM    4  O1  UNL     1      16.206  31.493  23.561  1.00  0.00    -0.258 OA
HETATM    5  N1  UNL     1      16.174  29.209  22.924  1.00  0.00    -0.320 N 
ENDROOT
BRANCH   5   6
HETATM    6  C4  UNL     1      17.451  29.017  23.526  1.00  0.00     0.127 C 
HETATM    7  C5  UNL     1      17.409  27.916  24.544  1.00  0.00     0.027 C 
ENDBRANCH   5   6
BRANCH   5   8
HETATM    8  C6  UNL     1      15.408  28.199  22.309  1.00  0.00     0.087 C 
BRANCH   8   9
HETATM    9  C7  UNL     1      16.103  27.042  21.697  1.00  0.00     0.169 C 
BRANCH   9  10
HETATM   10  N2  UNL     1      16.745  27.232  20.441  1.00  0.00    -0.338 N 
HETATM   11  C8  UNL     1      16.112  26.939  19.186  1.00  0.00     0.316 C 
HETATM   12  O2  UNL     1      14.930  26.491  19.147  1.00  0.00    -0.247 OA
HETATM   13  N3  UNL     1      16.812  27.153  17.995  1.00  0.00    -0.339 N 
ATOM     14  H3  UNL     1      17.765  27.515  18.024  1.00  0.00     0.164 HD
ATOM     15  H2  UNL     1      17.699  27.593  20.432  1.00  0.00     0.164 HD
BRANCH  13  16
HETATM   16  C9  UNL     1      16.188  26.862  16.711  1.00  0.00     0.085 C 
HETATM   17  C10 UNL     1      16.078  25.361  16.558  1.00  0.00     0.032 C 
BRANCH  16  18
HETATM   18  C11 UNL     1      17.123  27.373  15.636  1.00  0.00    -0.000 C 
HETATM   19  C12 UNL     1      16.354  27.751  14.398  1.00  0.00     0.011 C 
HETATM   20  C13 UNL     1      17.845  28.623  16.142  1.00  0.00     0.011 C 
ENDBRANCH  16  18
ENDBRANCH  13  16
ENDBRANCH   9  10
ENDBRANCH   8   9
ENDBRANCH   5   8
TORSDOF 6
ENDMDL
MODEL 5
REMARK VINA RESULT: -6.237655434      1.294      1.689
REMARK  6 active torsions:
REMARK  status: ('A' for Active; 'I' for Inactive)
REMARK       I    between atoms: C3_3  and  N1_5 
REMARK    1  A    between atoms: N1_5  and  C4_6 
REMARK    2  A    between atoms: N1_5  and  C6_8 
REMARK    3  A    between atoms: C6_8  and  C7_9 
REMARK    4  A    between atoms: C7_9  and  N2_10 
REMARK       I    between atoms: N2_10  and  C8_12 
REMARK       I    between atoms: C8_12  and  N3_14 
REMARK    5  A    between atoms: N3_14  and  C9_16 
REMARK    6  A    between atoms: C9_16  and  C11_18 
ROOT
HETATM    1  C1  UNL     1      17.570  27.789  24.420  1.00  0.00     0.022 C 
HETATM    2  C2  UNL     1      16.841  28.533  23.799  1.00  0.00    -0.016 C 
HETATM    3  C3  UNL     1      15.984  29.421  23.067  1.00  0.00     0.301 C 
HETATM    4  O1  UNL     1      16.169  30.666  23.235  1.00  0.00    -0.258 OA
HETATM    5  N1  UNL     1      14.959  28.920  22.180  1.00  0.00    -0.320 N 
ENDROOT
BRANCH   5   6
HETATM    6  C4  UNL     1      14.158  29.880  21.496  1.00  0.00     0.127 C 
HETATM    7  C5  UNL     1      12.843  30.080  22.190  1.00  0.00     0.027 C 
ENDBRANCH   5   6
BRANCH   5   8
HETATM    8  C6  UNL     1      14.858  27.523  22.024  1.00  0.00     0.087 C 
BRANCH   8   9
HETATM    9  C7  UNL     1      15.867  26.817  21.200  1.00  0.00     0.169 C 
BRANCH   9  10
HETATM   10  N2  UNL     1      16.401  27.494  20.068  1.00  0.00    -0.338 N 
HETATM   11  C8  UNL     1      16.579  26.864  18.791  1.00  0.00     0.316 C 
HETATM   12  O2  UNL     1      16.258  25.653  18.617  1.00  0.00    -0.247 OA
HETATM   13  N3  UNL     1      17.112  27.600  17.728  1.00  0.00    -0.339 N 
ATOM     14  H3  UNL     1      17.371  28.576  17.866  1.00  0.00     0.164 HD
ATOM     15  H2  UNL     1      16.672  28.473  20.169  1.00  0.00     0.164 HD
BRANCH  13  16
HETATM   16  C9  UNL     1      17.301  26.978  16.424  1.00  0.00     0.085 C 
HETATM   17  C10 UNL     1      18.317  27.786  15.647  1.00  0.00     0.032 C 
BRANCH  16  18
HETATM   18  C11 UNL     1      15.977  27.068  15.693  1.00  0.00    -0.000 C 
HETATM   19  C12 UNL     1      16.116  27.893  14.442  1.00  0.00     0.011 C 
HETATM   20  C13 UNL     1      15.527  25.664  15.284  1.00  0.00     0.011 C 
ENDBRANCH  16  18
ENDBRANCH  13  16
ENDBRANCH   9  10
ENDBRANCH   8   9
ENDBRANCH   5   8
TORSDOF 6
ENDMDL
