MODEL 1
REMARK VINA RESULT: -6.277976583      0.000      0.000
REMARK  6 active torsions:
REMARK  status: ('A' for Active; 'I' for Inactive)
REMARK    1  A    between atoms: C2_2  and  C3_3 
REMARK    2  A    between atoms: C3_3  and  N1_4 
REMARK       I    between atoms: N1_4  and  C4_6 
REMARK       I    between atoms: C4_6  and  N2_8 
REMARK    3  A    between atoms: N2_8  and  C5_10 
REMARK    4  A    between atoms: C5_10  and  C7_12 
REMARK       I    between atoms: C7_12  and  N3_14 
REMARK       I    between atoms: N3_14  and  C8_16 
REMARK    5  A    between atoms: C8_16  and  C9_18 
REMARK    6  A    between atoms: C9_18  and  N4_19 
ROOT
HETATM    1  C5  UNL     1      15.352  25.944  19.130  1.00  0.00     0.174 C 
HETATM    2  C6  UNL     1      15.359  24.565  18.467  1.00  0.00     0.042 C 
ENDROOT
BRANCH   1   3
HETATM    3  N2  UNL     1      16.551  26.661  18.705  1.00  0.00    -0.330 N 
HETATM    4  C4  UNL     1      16.752  27.106  17.386  1.00  0.00     0.316 C 
HETATM    5  N1  UNL     1      17.927  27.792  17.031  1.00  0.00    -0.343 N 
HETATM    6  O1  UNL     1      15.875  26.886  16.529  1.00  0.00    -0.247 OA
ATOM      7  H1  UNL     1      18.630  27.953  17.752  1.00  0.00     0.164 HD
ATOM      8  H2  UNL     1      17.277  26.847  19.397  1.00  0.00     0.165 HD
BRANCH   5   9
HETATM    9  C3  UNL     1      18.187  28.279  15.699  1.00  0.00     0.124 C 
BRANCH   9  10
HETATM   10  C2  UNL     1      19.073  27.381  14.877  1.00  0.00     0.015 C 
HETATM   11  C1  UNL     1      18.169  26.769  13.797  1.00  0.00     0.006 C 
ENDBRANCH   9  10
ENDBRANCH   5   9
ENDBRANCH   1   3
BRANCH   1  12
HETATM   12  C7  UNL     1      15.289  25.821  20.591  1.00  0.00     0.246 C 
HETATM   13  O2  UNL     1      15.333  24.625  21.053  1.00  0.00    -0.271 OA
HETATM   14  N3  UNL     1      15.187  26.854  21.542  1.00  0.00    -0.294 N 
HETATM   15  C8  UNL     1      15.195  28.236  21.333  1.00  0.00     0.252 C 
ATOM     16  H3  UNL     1      15.095  26.553  22.512  1.00  0.00     0.171 HD
HETATM   17  O3  UNL     1      15.300  28.692  20.185  1.00  0.00    -0.271 OA
BRANCH  15  18
HETATM   18  C9  UNL     1      15.081  29.154  22.459  1.00  0.00     0.373 C 
BRANCH  18  19
HETATM   19  N4  UNL     1      15.047  30.541  22.109  1.00  0.00     0.088 N 
HETATM   20  C10 UNL     1      15.957  31.275  22.953  1.00  0.00     0.310 C 
HETATM   21  C11 UNL     1      13.730  31.112  22.077  1.00  0.00     0.310 C 
ENDBRANCH  18  19
ENDBRANCH  15  18
ENDBRANCH   1  12
TORSDOF 6
ENDMDL
MODEL 2
REMARK VINA RESULT: -6.256074444      1.716      6.450
REMARK  6 active torsions:
REMARK  status: ('A' for Active; 'I' for Inactive)
REMARK    1  A    between atoms: C2_2  and  C3_3 
REMARK    2  A    between atoms: C3_3  and  N1_4 
REMARK       I    between atoms: N1_4  and  C4_6 
REMARK       I    between atoms: C4_6  and  N2_8 
REMARK    3  A    between atoms: N2_8  and  C5_10 
REMARK    4  A    between atoms: C5_10  and  C7_12 
REMARK       I    between atoms: C7_12  and  N3_14 
REMARK       I    between atoms: N3_14  and  C8_16 
REMARK    5  A    between atoms: C8_16  and  C9_18 
REMARK    6  A    between atoms: C9_18  and  N4_19 
ROOT
HETATM    1  C5  UNL     1      15.718  25.710  19.220  1.00  0.00     0.174 C 
HETATM    2  C6  UNL     1      15.203  24.486  19.980  1.00  0.00     0.042 C 
ENDROOT
BRANCH   1   3
HETATM    3  N2  UNL     1      14.805  26.821  19.473  1.00  0.00    -0.330 N 
HETATM    4  C4  UNL     1      15.047  27.807  20.446  1.00  0.00     0.316 C 
HETATM    5  N1  UNL     1      14.133  28.856  20.647  1.00  0.00    -0.343 N 
HETATM    6  O1  UNL     1      16.086  27.745  21.131  1.00  0.00    -0.247 OA
ATOM      7  H1  UNL     1      13.288  28.879  20.075  1.00  0.00     0.164 HD
ATOM      8  H2  UNL     1      13.951  26.884  18.918  1.00  0.00     0.165 HD
BRANCH   5   9
HETATM    9  C3  UNL     1      14.328  29.900  21.622  1.00  0.00     0.124 C 
BRANCH   9  10
HETATM   10  C2  UNL     1      13.403  29.818  22.807  1.00  0.00     0.015 C 
HETATM   11  C1  UNL     1      14.074  28.858  23.801  1.00  0.00     0.006 C 
ENDBRANCH   9  10
ENDBRANCH   5   9
ENDBRANCH   1   3
BRANCH   1  12
HETATM   12  C7  UNL     1      15.833  25.425  17.785  1.00  0.00     0.246 C 
HETATM   13  O2  UNL     1      15.257  24.352  17.381  1.00  0.00    -0.271 OA
HETATM   14  N3  UNL     1      16.498  26.184  16.803  1.00  0.00    -0.294 N 
HETATM   15  C8  UNL     1      17.139  27.418  16.941  1.00  0.00     0.252 C 
ATOM     16  H3  UNL     1      16.513  25.779  15.867  1.00  0.00     0.171 HD
HETATM   17  O3  UNL     1      17.174  27.983  18.045  1.00  0.00    -0.271 OA
BRANCH  15  18
HETATM   18  C9  UNL     1      17.773  28.054  15.794  1.00  0.00     0.373 C 
BRANCH  18  19
HETATM   19  N4  UNL     1      18.630  27.204  15.025  1.00  0.00     0.088 N 
HETATM   20  C10 UNL     1      19.969  27.736  15.028  1.00  0.00     0.310 C 
HETATM   21  C11 UNL     1      18.146  26.912  13.705  1.00  0.00     0.310 C 
ENDBRANCH  18  19
ENDBRANCH  15  18
ENDBRANCH   1  12
TORSDOF 6
ENDMDL
MODEL 3
REMARK VINA RESULT: -5.988965513      3.214      5.212
REMARK  6 active torsions:
REMARK  status: ('A' for Active; 'I' for Inactive)
REMARK    1  A    between atoms: C2_2  and  C3_3 
REMARK    2  A    between atoms: C3_3  and  N1_4 
REMARK       I    between atoms: N1_4  and  C4_6 
REMARK       I    between atoms: C4_6  and  N2_8 
REMARK    3  A    between atoms: N2_8  and  C5_10 
REMARK    4  A    between atoms: C5_10  and  C7_12 
REMARK       I    between atoms: C7_12  and  N3_14 
REMARK       I    between atoms: N3_14  and  C8_16 
REMARK    5  A    between atoms: C8_16  and  C9_18 
REMARK    6  A    between atoms: C9_18  and  N4_19 
ROOT
HETATM    1  C5  UNL     1      16.088  28.847  22.668  1.00  0.00     0.174 C 
HETATM    2  C6  UNL     1      14.848  28.534  23.509  1.00  0.00     0.042 C 
ENDROOT
BRANCH   1   3
HETATM    3  N2  UNL     1      16.464  27.636  21.943  1.00  0.00    -0.330 N 
HETATM    4  C4  UNL     1      15.724  27.129  20.860  1.00  0.00     0.316 C 
HETATM    5  N1  UNL     1      16.133  25.958  20.198  1.00  0.00    -0.343 N 
HETATM    6  O1  UNL     1      14.696  27.729  20.490  1.00  0.00    -0.247 OA
ATOM      7  H1  UNL     1      16.975  25.484  20.525  1.00  0.00     0.164 HD
ATOM      8  H2  UNL     1      17.304  27.136  22.236  1.00  0.00     0.165 HD
BRANCH   5   9
HETATM    9  C3  UNL     1      15.421  25.393  19.078  1.00  0.00     0.124 C 
BRANCH   9  10
HETATM   10  C2  UNL     1      15.067  23.939  19.244  1.00  0.00     0.015 C 
HETATM   11  C1  UNL     1      14.041  23.882  20.385  1.00  0.00     0.006 C 
ENDBRANCH   9  10
ENDBRANCH   5   9
ENDBRANCH   1   3
BRANCH   1  12
HETATM   12  C7  UNL     1      17.185  29.330  23.514  1.00  0.00     0.246 C 
HETATM   13  O2  UNL     1      17.790  28.436  24.208  1.00  0.00    -0.271 OA
HETATM   14  N3  UNL     1      17.652  30.650  23.654  1.00  0.00    -0.294 N 
HETATM   15  C8  UNL     1      17.237  31.798  22.974  1.00  0.00     0.252 C 
ATOM     16  H3  UNL     1      18.391  30.787  24.344  1.00  0.00     0.171 HD
HETATM   17  O3  UNL     1      16.341  31.728  22.120  1.00  0.00    -0.271 OA
BRANCH  15  18
HETATM   18  C9  UNL     1      17.851  33.089  23.259  1.00  0.00     0.373 C 
BRANCH  18  19
HETATM   19  N4  UNL     1      18.290  33.267  24.609  1.00  0.00     0.088 N 
HETATM   20  C10 UNL     1      17.189  33.721  25.420  1.00  0.00     0.310 C 
HETATM   21  C11 UNL     1      19.462  34.085  24.748  1.00  0.00     0.310 C 
ENDBRANCH  18  19
ENDBRANCH  15  18
ENDBRANCH   1  12
TORSDOF 6
ENDMDL
MODEL 4
REMARK VINA RESULT: -5.912616320      2.538      4.502
REMARK  6 active torsions:
REMARK  status: ('A' for Active; 'I' for Inactive)
REMARK    1  A    between atoms: C2_2  and  C3_3 
REMARK    2  A    between atoms: C3_3  and  N1_4 
REMARK       I    between atoms: N1_4  and  C4_6 
REMARK       I    between atoms: C4_6  and  N2_8 
REMARK    3  A    between atoms: N2_8  and  C5_10 
REMARK    4  A    between atoms: C5_10  and  C7_12 
REMARK       I    between atoms: C7_12  and  N3_14 
REMARK       I    between atoms: N3_14  and  C8_16 
REMARK    5  A    between atoms: C8_16  and  C9_18 
REMARK    6  A    between atoms: C9_18  and  N4_19 
ROOT
HETATM    1  C5  UNL     1      15.268  28.729  22.456  1.00  0.00     0.174 C 
HETATM    2  C6  UNL     1      14.000  28.943  23.285  1.00  0.00     0.042 C 
ENDROOT
BRANCH   1   3
HETATM    3  N2  UNL     1      15.217  27.386  21.885  1.00  0.00    -0.330 N 
HETATM    4  C4  UNL     1      15.809  27.052  20.653  1.00  0.00     0.316 C 
HETATM    5  N1  UNL     1      15.729  25.742  20.150  1.00  0.00    -0.343 N 
HETATM    6  O1  UNL     1      16.409  27.933  20.008  1.00  0.00    -0.247 OA
ATOM      7  H1  UNL     1      15.227  25.043  20.697  1.00  0.00     0.164 HD
ATOM      8  H2  UNL     1      14.728  26.655  22.403  1.00  0.00     0.165 HD
BRANCH   5   9
HETATM    9  C3  UNL     1      16.322  25.337  18.900  1.00  0.00     0.124 C 
BRANCH   9  10
HETATM   10  C2  UNL     1      15.327  25.104  17.793  1.00  0.00     0.015 C 
HETATM   11  C1  UNL     1      16.015  25.570  16.502  1.00  0.00     0.006 C 
ENDBRANCH   9  10
ENDBRANCH   5   9
ENDBRANCH   1   3
BRANCH   1  12
HETATM   12  C7  UNL     1      16.469  28.918  23.277  1.00  0.00     0.246 C 
HETATM   13  O2  UNL     1      16.918  27.867  23.860  1.00  0.00    -0.271 OA
HETATM   14  N3  UNL     1      17.184  30.110  23.501  1.00  0.00    -0.294 N 
HETATM   15  C8  UNL     1      16.970  31.373  22.943  1.00  0.00     0.252 C 
ATOM     16  H3  UNL     1      17.961  30.042  24.158  1.00  0.00     0.171 HD
HETATM   17  O3  UNL     1      16.045  31.551  22.136  1.00  0.00    -0.271 OA
BRANCH  15  18
HETATM   18  C9  UNL     1      17.829  32.494  23.301  1.00  0.00     0.373 C 
BRANCH  18  19
HETATM   19  N4  UNL     1      18.024  32.686  24.705  1.00  0.00     0.088 N 
HETATM   20  C10 UNL     1      17.160  33.740  25.173  1.00  0.00     0.310 C 
HETATM   21  C11 UNL     1      19.394  32.871  25.094  1.00  0.00     0.310 C 
ENDBRANCH  18  19
ENDBRANCH  15  18
ENDBRANCH   1  12
TORSDOF 6
ENDMDL
MODEL 5
REMARK VINA RESULT: -5.897915190      3.179      5.087
REMARK  6 active torsions:
REMARK  status: ('A' for Active; 'I' for Inactive)
REMARK    1  A    between atoms: C2_2  and  C3_3 
REMARK    2  A    between atoms: C3_3  and  N1_4 
REMARK       I    between atoms: N1_4  and  C4_6 
REMARK       I    between atoms: C4_6  and  N2_8 
REMARK    3  A    between atoms: N2_8  and  C5_10 
REMARK    4  A    between atoms: C5_10  and  C7_12 
REMARK       I    between atoms: C7_12  and  N3_14 
REMARK       I    between atoms: N3_14  and  C8_16 
REMARK    5  A    between atoms: C8_16  and  C9_18 
REMARK    6  A    between atoms: C9_18  and  N4_19 
ROOT
HETATM    1  C5  UNL     1      14.816  29.609  21.625  1.00  0.00     0.174 C 
HETATM    2  C6  UNL     1      13.533  30.422  21.809  1.00  0.00     0.042 C 
ENDROOT
BRANCH   1   3
HETATM    3  N2  UNL     1      14.442  28.240  21.278  1.00  0.00    -0.330 N 
HETATM    4  C4  UNL     1      15.216  27.424  20.434  1.00  0.00     0.316 C 
HETATM    5  N1  UNL     1      14.808  26.113  20.133  1.00  0.00    -0.343 N 
HETATM    6  O1  UNL     1      16.273  27.875  19.951  1.00  0.00    -0.247 OA
ATOM      7  H1  UNL     1      13.937  25.771  20.538  1.00  0.00     0.164 HD
ATOM      8  H2  UNL     1      13.580  27.859  21.667  1.00  0.00     0.165 HD
BRANCH   5   9
HETATM    9  C3  UNL     1      15.561  25.226  19.281  1.00  0.00     0.124 C 
BRANCH   9  10
HETATM   10  C2  UNL     1      15.050  23.810  19.260  1.00  0.00     0.015 C 
HETATM   11  C1  UNL     1      14.190  23.653  20.523  1.00  0.00     0.006 C 
ENDBRANCH   9  10
ENDBRANCH   5   9
ENDBRANCH   1   3
BRANCH   1  12
HETATM   12  C7  UNL     1      15.639  29.650  22.839  1.00  0.00     0.246 C 
HETATM   13  O2  UNL     1      15.545  28.631  23.612  1.00  0.00    -0.271 OA
HETATM   14  N3  UNL     1      16.517  30.670  23.254  1.00  0.00    -0.294 N 
HETATM   15  C8  UNL     1      16.869  31.844  22.583  1.00  0.00     0.252 C 
ATOM     16  H3  UNL     1      16.953  30.533  24.165  1.00  0.00     0.171 HD
HETATM   17  O3  UNL     1      16.384  32.096  21.469  1.00  0.00    -0.271 OA
BRANCH  15  18
HETATM   18  C9  UNL     1      17.807  32.785  23.182  1.00  0.00     0.373 C 
BRANCH  18  19
HETATM   19  N4  UNL     1      17.919  32.707  24.606  1.00  0.00     0.088 N 
HETATM   20  C10 UNL     1      17.146  33.763  25.210  1.00  0.00     0.310 C 
HETATM   21  C11 UNL     1      19.269  32.652  25.092  1.00  0.00     0.310 C 
ENDBRANCH  18  19
ENDBRANCH  15  18
ENDBRANCH   1  12
TORSDOF 6
ENDMDL
