MODEL 1
REMARK VINA RESULT: -5.888715057      0.000      0.000
REMARK  9 active torsions:
REMARK  status: ('A' for Active; 'I' for Inactive)
REMARK       I    between atoms: C2_2  and  N1_4 
REMARK    1  A    between atoms: N1_4  and  C3_6 
REMARK    2  A    between atoms: C3_6  and  C5_8 
REMARK    3  A    between atoms: C3_6  and  C9_18 
REMARK    4  A    between atoms: C5_8  and  C6_9 
REMARK    5  A    between atoms: C6_9  and  C7_10 
REMARK    6  A    between atoms: C7_10  and  C8_11 
REMARK    7  A    between atoms: C8_11  and  N2_12 
REMARK    8  A    between atoms: N2_12  and  N3_14 
REMARK    9  A    between atoms: N3_14  and  N4_15 
REMARK       I    between atoms: C9_18  and  N5_20 
ROOT
HETATM    1  C3  UNL     1      14.241  29.611  22.393  1.00  0.00     0.110 C 
HETATM    2  C4  UNL     1      13.835  29.209  23.763  1.00  0.00     0.049 C 
ENDROOT
BRANCH   1   3
HETATM    3  N1  UNL     1      14.731  28.570  21.540  1.00  0.00    -0.344 N 
HETATM    4  C2  UNL     1      15.865  27.761  21.844  1.00  0.00     0.214 C 
HETATM    5  C1  UNL     1      16.320  26.709  20.891  1.00  0.00     0.117 C 
HETATM    6  O1  UNL     1      16.548  27.860  22.895  1.00  0.00    -0.274 OA
ATOM      7  H1  UNL     1      14.240  28.397  20.662  1.00  0.00     0.163 HD
ENDBRANCH   1   3
BRANCH   1   8
HETATM    8  C5  UNL     1      15.043  30.853  22.247  1.00  0.00     0.041 C 
BRANCH   8   9
HETATM    9  C6  UNL     1      15.831  31.308  23.417  1.00  0.00     0.004 C 
BRANCH   9  10
HETATM   10  C7  UNL     1      17.156  31.873  22.874  1.00  0.00     0.022 C 
BRANCH  10  11
HETATM   11  C8  UNL     1      18.309  31.309  23.671  1.00  0.00     0.155 C 
BRANCH  11  12
HETATM   12  N2  UNL     1      18.778  30.039  23.155  1.00  0.00    -0.253 N 
ATOM     13  H2  UNL     1      18.983  29.910  22.164  1.00  0.00     0.196 HD
BRANCH  12  14
HETATM   14  N3  UNL     1      18.919  29.120  23.965  1.00  0.00    -0.249 NA
BRANCH  14  15
HETATM   15  N4  UNL     1      19.079  28.180  24.737  1.00  0.00    -0.261 N 
ATOM     16  H42 UNL     1      19.926  28.542  24.299  1.00  0.00     0.193 HD
ATOM     17  H41 UNL     1      19.173  27.397  25.385  1.00  0.00     0.193 HD
ENDBRANCH  14  15
ENDBRANCH  12  14
ENDBRANCH  11  12
ENDBRANCH  10  11
ENDBRANCH   9  10
ENDBRANCH   8   9
ENDBRANCH   1   8
BRANCH   1  18
HETATM   18  C9  UNL     1      12.893  29.998  21.747  1.00  0.00     0.251 C 
HETATM   19  O2  UNL     1      12.693  29.681  20.539  1.00  0.00    -0.270 OA
HETATM   20  N5  UNL     1      11.894  30.664  22.428  1.00  0.00    -0.301 N 
HETATM   21  C10 UNL     1      11.442  31.830  22.402  1.00  0.00     0.203 C 
ATOM     22  H5  UNL     1      11.416  30.071  23.107  1.00  0.00     0.171 HD
HETATM   23  N6  UNL     1      11.908  32.863  21.564  1.00  0.00    -0.066 NA
HETATM   24  N7  UNL     1      10.343  32.107  23.301  1.00  0.00    -0.066 NA
ENDBRANCH   1  18
TORSDOF 9
ENDMDL
MODEL 2
REMARK VINA RESULT: -5.859050862      2.885      3.964
REMARK  9 active torsions:
REMARK  status: ('A' for Active; 'I' for Inactive)
REMARK       I    between atoms: C2_2  and  N1_4 
REMARK    1  A    between atoms: N1_4  and  C3_6 
REMARK    2  A    between atoms: C3_6  and  C5_8 
REMARK    3  A    between atoms: C3_6  and  C9_18 
REMARK    4  A    between atoms: C5_8  and  C6_9 
REMARK    5  A    between atoms: C6_9  and  C7_10 
REMARK    6  A    between atoms: C7_10  and  C8_11 
REMARK    7  A    between atoms: C8_11  and  N2_12 
REMARK    8  A    between atoms: N2_12  and  N3_14 
REMARK    9  A    between atoms: N3_14  and  N4_15 
REMARK       I    between atoms: C9_18  and  N5_20 
ROOT
HETATM    1  C3  UNL     1      15.723  29.034  22.833  1.00  0.00     0.110 C 
HETATM    2  C4  UNL     1      14.558  28.461  23.553  1.00  0.00     0.049 C 
ENDROOT
BRANCH   1   3
HETATM    3  N1  UNL     1      15.822  28.734  21.436  1.00  0.00    -0.344 N 
HETATM    4  C2  UNL     1      16.023  27.421  20.918  1.00  0.00     0.214 C 
HETATM    5  C1  UNL     1      16.134  27.198  19.449  1.00  0.00     0.117 C 
HETATM    6  O1  UNL     1      16.120  26.385  21.624  1.00  0.00    -0.274 OA
ATOM      7  H1  UNL     1      15.744  29.505  20.772  1.00  0.00     0.163 HD
ENDBRANCH   1   3
BRANCH   1   8
HETATM    8  C5  UNL     1      17.049  28.963  23.498  1.00  0.00     0.041 C 
BRANCH   8   9
HETATM    9  C6  UNL     1      17.331  27.783  24.351  1.00  0.00     0.004 C 
BRANCH   9  10
HETATM   10  C7  UNL     1      18.710  28.014  24.994  1.00  0.00     0.022 C 
BRANCH  10  11
HETATM   11  C8  UNL     1      19.245  26.705  25.524  1.00  0.00     0.155 C 
BRANCH  11  12
HETATM   12  N2  UNL     1      19.253  26.647  26.972  1.00  0.00    -0.253 N 
ATOM     13  H2  UNL     1      18.463  26.264  27.492  1.00  0.00     0.196 HD
BRANCH  12  14
HETATM   14  N3  UNL     1      20.253  27.080  27.547  1.00  0.00    -0.249 NA
BRANCH  14  15
HETATM   15  N4  UNL     1      21.250  27.470  28.146  1.00  0.00    -0.261 N 
ATOM     16  H42 UNL     1      20.638  26.843  28.668  1.00  0.00     0.193 HD
ATOM     17  H41 UNL     1      22.089  27.816  28.612  1.00  0.00     0.193 HD
ENDBRANCH  14  15
ENDBRANCH  12  14
ENDBRANCH  11  12
ENDBRANCH  10  11
ENDBRANCH   9  10
ENDBRANCH   8   9
ENDBRANCH   1   8
BRANCH   1  18
HETATM   18  C9  UNL     1      15.413  30.547  22.852  1.00  0.00     0.251 C 
HETATM   19  O2  UNL     1      14.276  30.933  22.454  1.00  0.00    -0.270 OA
HETATM   20  N5  UNL     1      16.315  31.496  23.292  1.00  0.00    -0.301 N 
HETATM   21  C10 UNL     1      17.022  32.360  22.728  1.00  0.00     0.203 C 
ATOM     22  H5  UNL     1      16.430  31.491  24.305  1.00  0.00     0.171 HD
HETATM   23  N6  UNL     1      17.068  32.593  21.339  1.00  0.00    -0.066 NA
HETATM   24  N7  UNL     1      17.835  33.182  23.597  1.00  0.00    -0.066 NA
ENDBRANCH   1  18
TORSDOF 9
ENDMDL
MODEL 3
REMARK VINA RESULT: -5.501746643      4.071      5.600
REMARK  9 active torsions:
REMARK  status: ('A' for Active; 'I' for Inactive)
REMARK       I    between atoms: C2_2  and  N1_4 
REMARK    1  A    between atoms: N1_4  and  C3_6 
REMARK    2  A    between atoms: C3_6  and  C5_8 
REMARK    3  A    between atoms: C3_6  and  C9_18 
REMARK    4  A    between atoms: C5_8  and  C6_9 
REMARK    5  A    between atoms: C6_9  and  C7_10 
REMARK    6  A    between atoms: C7_10  and  C8_11 
REMARK    7  A    between atoms: C8_11  and  N2_12 
REMARK    8  A    between atoms: N2_12  and  N3_14 
REMARK    9  A    between atoms: N3_14  and  N4_15 
REMARK       I    between atoms: C9_18  and  N5_20 
ROOT
HETATM    1  C3  UNL     1      15.404  26.449  19.988  1.00  0.00     0.110 C 
HETATM    2  C4  UNL     1      14.245  27.279  19.574  1.00  0.00     0.049 C 
ENDROOT
BRANCH   1   3
HETATM    3  N1  UNL     1      15.245  25.029  19.879  1.00  0.00    -0.344 N 
HETATM    4  C2  UNL     1      14.333  24.269  20.667  1.00  0.00     0.214 C 
HETATM    5  C1  UNL     1      14.243  22.790  20.503  1.00  0.00     0.117 C 
HETATM    6  O1  UNL     1      13.559  24.758  21.529  1.00  0.00    -0.274 OA
ATOM      7  H1  UNL     1      15.820  24.533  19.197  1.00  0.00     0.163 HD
ENDBRANCH   1   3
BRANCH   1   8
HETATM    8  C5  UNL     1      16.106  26.821  21.243  1.00  0.00     0.041 C 
BRANCH   8   9
HETATM    9  C6  UNL     1      15.525  27.911  22.062  1.00  0.00     0.004 C 
BRANCH   9  10
HETATM   10  C7  UNL     1      16.403  28.043  23.320  1.00  0.00     0.022 C 
BRANCH  10  11
HETATM   11  C8  UNL     1      17.007  29.427  23.371  1.00  0.00     0.155 C 
BRANCH  11  12
HETATM   12  N2  UNL     1      18.451  29.403  23.500  1.00  0.00    -0.253 N 
ATOM     13  H2  UNL     1      19.043  30.034  22.959  1.00  0.00     0.196 HD
BRANCH  12  14
HETATM   14  N3  UNL     1      18.932  28.589  24.290  1.00  0.00    -0.249 NA
BRANCH  14  15
HETATM   15  N4  UNL     1      19.451  27.776  25.048  1.00  0.00    -0.261 N 
ATOM     16  H42 UNL     1      20.084  28.455  24.628  1.00  0.00     0.193 HD
ATOM     17  H41 UNL     1      19.846  27.083  25.685  1.00  0.00     0.193 HD
ENDBRANCH  14  15
ENDBRANCH  12  14
ENDBRANCH  11  12
ENDBRANCH  10  11
ENDBRANCH   9  10
ENDBRANCH   8   9
ENDBRANCH   1   8
BRANCH   1  18
HETATM   18  C9  UNL     1      16.451  26.777  18.901  1.00  0.00     0.251 C 
HETATM   19  O2  UNL     1      17.241  27.744  19.099  1.00  0.00    -0.270 OA
HETATM   20  N5  UNL     1      16.570  26.057  17.729  1.00  0.00    -0.301 N 
HETATM   21  C10 UNL     1      16.285  26.279  16.531  1.00  0.00     0.203 C 
ATOM     22  H5  UNL     1      16.984  25.135  17.871  1.00  0.00     0.171 HD
HETATM   23  N6  UNL     1      15.704  27.466  16.041  1.00  0.00    -0.066 NA
HETATM   24  N7  UNL     1      16.606  25.224  15.594  1.00  0.00    -0.066 NA
ENDBRANCH   1  18
TORSDOF 9
ENDMDL
MODEL 4
REMARK VINA RESULT: -5.498683146      3.958      5.990
REMARK  9 active torsions:
REMARK  status: ('A' for Active; 'I' for Inactive)
REMARK       I    between atoms: C2_2  and  N1_4 
REMARK    1  A    between atoms: N1_4  and  C3_6 
REMARK    2  A    between atoms: C3_6  and  C5_8 
REMARK    3  A    between atoms: C3_6  and  C9_18 
REMARK    4  A    between atoms: C5_8  and  C6_9 
REMARK    5  A    between atoms: C6_9  and  C7_10 
REMARK    6  A    between atoms: C7_10  and  C8_11 
REMARK    7  A    between atoms: C8_11  and  N2_12 
REMARK    8  A    between atoms: N2_12  and  N3_14 
REMARK    9  A    between atoms: N3_14  and  N4_15 
REMARK       I    between atoms: C9_18  and  N5_20 
ROOT
HETATM    1  C3  UNL     1      15.363  26.134  19.452  1.00  0.00     0.110 C 
HETATM    2  C4  UNL     1      14.112  26.789  18.994  1.00  0.00     0.049 C 
ENDROOT
BRANCH   1   3
HETATM    3  N1  UNL     1      15.469  24.724  19.218  1.00  0.00    -0.344 N 
HETATM    4  C2  UNL     1      14.630  23.751  19.834  1.00  0.00     0.214 C 
HETATM    5  C1  UNL     1      14.819  22.300  19.549  1.00  0.00     0.117 C 
HETATM    6  O1  UNL     1      13.699  24.020  20.636  1.00  0.00    -0.274 OA
ATOM      7  H1  UNL     1      16.187  24.398  18.571  1.00  0.00     0.163 HD
ENDBRANCH   1   3
BRANCH   1   8
HETATM    8  C5  UNL     1      15.883  26.500  20.794  1.00  0.00     0.041 C 
BRANCH   8   9
HETATM    9  C6  UNL     1      14.944  27.139  21.747  1.00  0.00     0.004 C 
BRANCH   9  10
HETATM   10  C7  UNL     1      15.514  28.531  22.074  1.00  0.00     0.022 C 
BRANCH  10  11
HETATM   11  C8  UNL     1      15.915  28.584  23.529  1.00  0.00     0.155 C 
BRANCH  11  12
HETATM   12  N2  UNL     1      17.319  28.290  23.734  1.00  0.00    -0.253 N 
ATOM     13  H2  UNL     1      17.622  27.414  24.161  1.00  0.00     0.196 HD
BRANCH  12  14
HETATM   14  N3  UNL     1      18.132  29.143  23.372  1.00  0.00    -0.249 NA
BRANCH  14  15
HETATM   15  N4  UNL     1      18.976  29.960  23.020  1.00  0.00    -0.261 N 
ATOM     16  H42 UNL     1      19.152  28.994  22.742  1.00  0.00     0.193 HD
ATOM     17  H41 UNL     1      19.657  30.668  22.744  1.00  0.00     0.193 HD
ENDBRANCH  14  15
ENDBRANCH  12  14
ENDBRANCH  11  12
ENDBRANCH  10  11
ENDBRANCH   9  10
ENDBRANCH   8   9
ENDBRANCH   1   8
BRANCH   1  18
HETATM   18  C9  UNL     1      16.421  26.735  18.500  1.00  0.00     0.251 C 
HETATM   19  O2  UNL     1      17.038  27.775  18.868  1.00  0.00    -0.270 OA
HETATM   20  N5  UNL     1      16.729  26.184  17.273  1.00  0.00    -0.301 N 
HETATM   21  C10 UNL     1      16.498  26.503  16.086  1.00  0.00     0.203 C 
ATOM     22  H5  UNL     1      17.268  25.321  17.351  1.00  0.00     0.171 HD
HETATM   23  N6  UNL     1      15.777  27.644  15.677  1.00  0.00    -0.066 NA
HETATM   24  N7  UNL     1      17.040  25.624  15.072  1.00  0.00    -0.066 NA
ENDBRANCH   1  18
TORSDOF 9
ENDMDL
MODEL 5
REMARK VINA RESULT: -5.432510809      1.104      1.295
REMARK  9 active torsions:
REMARK  status: ('A' for Active; 'I' for Inactive)
REMARK       I    between atoms: C2_2  and  N1_4 
REMARK    1  A    between atoms: N1_4  and  C3_6 
REMARK    2  A    between atoms: C3_6  and  C5_8 
REMARK    3  A    between atoms: C3_6  and  C9_18 
REMARK    4  A    between atoms: C5_8  and  C6_9 
REMARK    5  A    between atoms: C6_9  and  C7_10 
REMARK    6  A    between atoms: C7_10  and  C8_11 
REMARK    7  A    between atoms: C8_11  and  N2_12 
REMARK    8  A    between atoms: N2_12  and  N3_14 
REMARK    9  A    between atoms: N3_14  and  N4_15 
REMARK       I    between atoms: C9_18  and  N5_20 
ROOT
HETATM    1  C3  UNL     1      14.230  30.284  22.442  1.00  0.00     0.110 C 
HETATM    2  C4  UNL     1      13.734  30.075  23.825  1.00  0.00     0.049 C 
ENDROOT
BRANCH   1   3
HETATM    3  N1  UNL     1      14.353  29.114  21.623  1.00  0.00    -0.344 N 
HETATM    4  C2  UNL     1      15.457  28.215  21.685  1.00  0.00     0.214 C 
HETATM    5  C1  UNL     1      15.516  27.029  20.783  1.00  0.00     0.117 C 
HETATM    6  O1  UNL     1      16.432  28.338  22.469  1.00  0.00    -0.274 OA
ATOM      7  H1  UNL     1      13.607  28.913  20.957  1.00  0.00     0.163 HD
ENDBRANCH   1   3
BRANCH   1   8
HETATM    8  C5  UNL     1      15.382  31.201  22.253  1.00  0.00     0.041 C 
BRANCH   8   9
HETATM    9  C6  UNL     1      16.154  31.597  23.454  1.00  0.00     0.004 C 
BRANCH   9  10
HETATM   10  C7  UNL     1      17.520  32.109  22.962  1.00  0.00     0.022 C 
BRANCH  10  11
HETATM   11  C8  UNL     1      18.624  31.396  23.707  1.00  0.00     0.155 C 
BRANCH  11  12
HETATM   12  N2  UNL     1      18.931  30.096  23.144  1.00  0.00    -0.253 N 
ATOM     13  H2  UNL     1      19.144  29.982  22.153  1.00  0.00     0.196 HD
BRANCH  12  14
HETATM   14  N3  UNL     1      18.923  29.133  23.914  1.00  0.00    -0.249 NA
BRANCH  14  15
HETATM   15  N4  UNL     1      18.957  28.189  24.696  1.00  0.00    -0.261 N 
ATOM     16  H42 UNL     1      18.081  28.710  24.671  1.00  0.00     0.193 HD
ATOM     17  H41 UNL     1      19.024  27.396  25.336  1.00  0.00     0.193 HD
ENDBRANCH  14  15
ENDBRANCH  12  14
ENDBRANCH  11  12
ENDBRANCH  10  11
ENDBRANCH   9  10
ENDBRANCH   8   9
ENDBRANCH   1   8
BRANCH   1  18
HETATM   18  C9  UNL     1      13.066  31.058  21.785  1.00  0.00     0.251 C 
HETATM   19  O2  UNL     1      13.259  32.262  21.448  1.00  0.00    -0.270 OA
HETATM   20  N5  UNL     1      11.829  30.495  21.540  1.00  0.00    -0.301 N 
HETATM   21  C10 UNL     1      10.695  30.615  22.053  1.00  0.00     0.203 C 
ATOM     22  H5  UNL     1      11.844  29.830  20.767  1.00  0.00     0.171 HD
HETATM   23  N6  UNL     1      10.378  31.461  23.136  1.00  0.00    -0.066 NA
HETATM   24  N7  UNL     1       9.639  29.826  21.456  1.00  0.00    -0.066 NA
ENDBRANCH   1  18
TORSDOF 9
ENDMDL
