MODEL 1
REMARK VINA RESULT: -5.642363767      0.000      0.000
REMARK  6 active torsions:
REMARK  status: ('A' for Active; 'I' for Inactive)
REMARK    1  A    between atoms: C2_2  and  N1_3 
REMARK       I    between atoms: N1_3  and  C3_5 
REMARK    2  A    between atoms: C3_5  and  C4_7 
REMARK    3  A    between atoms: C4_7  and  N2_8 
REMARK    4  A    between atoms: N2_8  and  S1_10 
REMARK    5  A    between atoms: S1_10  and  N3_13 
REMARK    6  A    between atoms: N3_13  and  C6_15 
ROOT
HETATM    1  N2  UNL     1      15.138  25.656  19.497  1.00  0.00    -0.290 N 
HETATM    2  C5  UNL     1      14.254  24.784  20.179  1.00  0.00     0.165 C 
ENDROOT
BRANCH   1   3
HETATM    3  C4  UNL     1      16.100  25.043  18.652  1.00  0.00     0.238 C 
BRANCH   3   4
HETATM    4  C3  UNL     1      16.001  25.456  17.232  1.00  0.00     0.236 C 
HETATM    5  N1  UNL     1      16.732  26.587  16.808  1.00  0.00    -0.360 N 
ATOM      6  H1  UNL     1      17.313  27.104  17.468  1.00  0.00     0.162 HD
HETATM    7  O1  UNL     1      15.293  24.834  16.408  1.00  0.00    -0.272 OA
BRANCH   5   8
HETATM    8  C2  UNL     1      16.647  27.005  15.425  1.00  0.00     0.118 C 
HETATM    9  C1  UNL     1      17.786  26.463  14.605  1.00  0.00     0.026 C 
ENDBRANCH   5   8
ENDBRANCH   3   4
ENDBRANCH   1   3
BRANCH   1  10
HETATM   10  S1  UNL     1      15.662  27.010  20.359  1.00  0.00     0.317 S 
HETATM   11  O2  UNL     1      16.757  27.690  19.551  1.00  0.00    -0.183 OA
HETATM   12  O3  UNL     1      16.335  26.539  21.630  1.00  0.00    -0.183 OA
BRANCH  10  13
HETATM   13  N3  UNL     1      14.448  28.117  20.782  1.00  0.00    -0.299 N 
ATOM     14  H3  UNL     1      13.625  28.283  20.201  1.00  0.00     0.174 HD
BRANCH  13  15
HETATM   15  C6  UNL     1      14.673  28.802  22.027  1.00  0.00     0.086 C 
HETATM   16  C7  UNL     1      14.421  30.281  21.776  1.00  0.00     0.032 C 
HETATM   17  C8  UNL     1      13.647  28.384  23.088  1.00  0.00     0.032 C 
ENDBRANCH  13  15
ENDBRANCH  10  13
ENDBRANCH   1  10
TORSDOF 6
ENDMDL
MODEL 2
REMARK VINA RESULT: -5.577261768      1.315      1.604
REMARK  6 active torsions:
REMARK  status: ('A' for Active; 'I' for Inactive)
REMARK    1  A    between atoms: C2_2  and  N1_3 
REMARK       I    between atoms: N1_3  and  C3_5 
REMARK    2  A    between atoms: C3_5  and  C4_7 
REMARK    3  A    between atoms: C4_7  and  N2_8 
REMARK    4  A    between atoms: N2_8  and  S1_10 
REMARK    5  A    between atoms: S1_10  and  N3_13 
REMARK    6  A    between atoms: N3_13  and  C6_15 
ROOT
HETATM    1  N2  UNL     1      14.868  25.693  19.732  1.00  0.00    -0.290 N 
HETATM    2  C5  UNL     1      14.076  24.759  20.446  1.00  0.00     0.165 C 
ENDROOT
BRANCH   1   3
HETATM    3  C4  UNL     1      15.965  25.161  19.006  1.00  0.00     0.238 C 
BRANCH   3   4
HETATM    4  C3  UNL     1      15.999  25.576  17.583  1.00  0.00     0.236 C 
HETATM    5  N1  UNL     1      16.660  26.778  17.248  1.00  0.00    -0.360 N 
ATOM      6  H1  UNL     1      17.102  27.344  17.974  1.00  0.00     0.162 HD
HETATM    7  O1  UNL     1      15.463  24.895  16.680  1.00  0.00    -0.272 OA
BRANCH   5   8
HETATM    8  C2  UNL     1      16.704  27.199  15.865  1.00  0.00     0.118 C 
HETATM    9  C1  UNL     1      17.722  28.284  15.641  1.00  0.00     0.026 C 
ENDBRANCH   5   8
ENDBRANCH   3   4
ENDBRANCH   1   3
BRANCH   1  10
HETATM   10  S1  UNL     1      15.127  27.181  20.485  1.00  0.00     0.317 S 
HETATM   11  O2  UNL     1      14.023  28.131  20.047  1.00  0.00    -0.183 OA
HETATM   12  O3  UNL     1      16.408  27.777  19.944  1.00  0.00    -0.183 OA
BRANCH  10  13
HETATM   13  N3  UNL     1      15.241  27.129  22.178  1.00  0.00    -0.299 N 
ATOM     14  H3  UNL     1      15.108  26.271  22.714  1.00  0.00     0.174 HD
BRANCH  13  15
HETATM   15  C6  UNL     1      15.542  28.394  22.794  1.00  0.00     0.086 C 
HETATM   16  C7  UNL     1      14.323  28.794  23.613  1.00  0.00     0.032 C 
HETATM   17  C8  UNL     1      16.691  28.266  23.802  1.00  0.00     0.032 C 
ENDBRANCH  13  15
ENDBRANCH  10  13
ENDBRANCH   1  10
TORSDOF 6
ENDMDL
MODEL 3
REMARK VINA RESULT: -5.309137479      1.732      6.151
REMARK  6 active torsions:
REMARK  status: ('A' for Active; 'I' for Inactive)
REMARK    1  A    between atoms: C2_2  and  N1_3 
REMARK       I    between atoms: N1_3  and  C3_5 
REMARK    2  A    between atoms: C3_5  and  C4_7 
REMARK    3  A    between atoms: C4_7  and  N2_8 
REMARK    4  A    between atoms: N2_8  and  S1_10 
REMARK    5  A    between atoms: S1_10  and  N3_13 
REMARK    6  A    between atoms: N3_13  and  C6_15 
ROOT
HETATM    1  N2  UNL     1      15.842  26.802  18.078  1.00  0.00    -0.290 N 
HETATM    2  C5  UNL     1      17.061  27.337  18.563  1.00  0.00     0.165 C 
ENDROOT
BRANCH   1   3
HETATM    3  C4  UNL     1      14.964  26.256  19.050  1.00  0.00     0.238 C 
BRANCH   3   4
HETATM    4  C3  UNL     1      15.207  26.756  20.424  1.00  0.00     0.236 C 
HETATM    5  N1  UNL     1      14.603  27.971  20.815  1.00  0.00    -0.360 N 
ATOM      6  H1  UNL     1      14.015  28.488  20.162  1.00  0.00     0.162 HD
HETATM    7  O1  UNL     1      15.926  26.134  21.239  1.00  0.00    -0.272 OA
BRANCH   5   8
HETATM    8  C2  UNL     1      14.829  28.474  22.153  1.00  0.00     0.118 C 
HETATM    9  C1  UNL     1      13.643  28.239  23.048  1.00  0.00     0.026 C 
ENDBRANCH   5   8
ENDBRANCH   3   4
ENDBRANCH   1   3
BRANCH   1  10
HETATM   10  S1  UNL     1      15.923  25.980  16.605  1.00  0.00     0.317 S 
HETATM   11  O2  UNL     1      14.844  26.541  15.691  1.00  0.00    -0.183 OA
HETATM   12  O3  UNL     1      15.539  24.535  16.840  1.00  0.00    -0.183 OA
BRANCH  10  13
HETATM   13  N3  UNL     1      17.437  26.007  15.840  1.00  0.00    -0.299 N 
ATOM     14  H3  UNL     1      18.167  25.321  16.034  1.00  0.00     0.174 HD
BRANCH  13  15
HETATM   15  C6  UNL     1      17.608  27.078  14.894  1.00  0.00     0.086 C 
HETATM   16  C7  UNL     1      18.685  27.998  15.449  1.00  0.00     0.032 C 
HETATM   17  C8  UNL     1      18.156  26.562  13.558  1.00  0.00     0.032 C 
ENDBRANCH  13  15
ENDBRANCH  10  13
ENDBRANCH   1  10
TORSDOF 6
ENDMDL
MODEL 4
REMARK VINA RESULT: -5.296712616      0.996      1.075
REMARK  6 active torsions:
REMARK  status: ('A' for Active; 'I' for Inactive)
REMARK    1  A    between atoms: C2_2  and  N1_3 
REMARK       I    between atoms: N1_3  and  C3_5 
REMARK    2  A    between atoms: C3_5  and  C4_7 
REMARK    3  A    between atoms: C4_7  and  N2_8 
REMARK    4  A    between atoms: N2_8  and  S1_10 
REMARK    5  A    between atoms: S1_10  and  N3_13 
REMARK    6  A    between atoms: N3_13  and  C6_15 
ROOT
HETATM    1  N2  UNL     1      14.971  25.765  20.002  1.00  0.00    -0.290 N 
HETATM    2  C5  UNL     1      13.998  24.880  20.529  1.00  0.00     0.165 C 
ENDROOT
BRANCH   1   3
HETATM    3  C4  UNL     1      16.012  25.173  19.240  1.00  0.00     0.238 C 
BRANCH   3   4
HETATM    4  C3  UNL     1      16.030  25.597  17.819  1.00  0.00     0.236 C 
HETATM    5  N1  UNL     1      16.695  26.796  17.483  1.00  0.00    -0.360 N 
ATOM      6  H1  UNL     1      17.151  27.353  18.206  1.00  0.00     0.162 HD
HETATM    7  O1  UNL     1      15.476  24.925  16.920  1.00  0.00    -0.272 OA
BRANCH   5   8
HETATM    8  C2  UNL     1      16.723  27.226  16.102  1.00  0.00     0.118 C 
HETATM    9  C1  UNL     1      17.758  28.292  15.867  1.00  0.00     0.026 C 
ENDBRANCH   5   8
ENDBRANCH   3   4
ENDBRANCH   1   3
BRANCH   1  10
HETATM   10  S1  UNL     1      15.419  27.057  20.993  1.00  0.00     0.317 S 
HETATM   11  O2  UNL     1      16.054  28.126  20.117  1.00  0.00    -0.183 OA
HETATM   12  O3  UNL     1      16.520  26.591  21.922  1.00  0.00    -0.183 OA
BRANCH  10  13
HETATM   13  N3  UNL     1      14.172  27.713  21.938  1.00  0.00    -0.299 N 
ATOM     14  H3  UNL     1      13.466  27.138  22.399  1.00  0.00     0.174 HD
BRANCH  13  15
HETATM   15  C6  UNL     1      14.190  29.148  22.035  1.00  0.00     0.086 C 
HETATM   16  C7  UNL     1      12.742  29.612  22.100  1.00  0.00     0.032 C 
HETATM   17  C8  UNL     1      14.829  29.612  23.351  1.00  0.00     0.032 C 
ENDBRANCH  13  15
ENDBRANCH  10  13
ENDBRANCH   1  10
TORSDOF 6
ENDMDL
MODEL 5
REMARK VINA RESULT: -5.279980384      2.014      5.997
REMARK  6 active torsions:
REMARK  status: ('A' for Active; 'I' for Inactive)
REMARK    1  A    between atoms: C2_2  and  N1_3 
REMARK       I    between atoms: N1_3  and  C3_5 
REMARK    2  A    between atoms: C3_5  and  C4_7 
REMARK    3  A    between atoms: C4_7  and  N2_8 
REMARK    4  A    between atoms: N2_8  and  S1_10 
REMARK    5  A    between atoms: S1_10  and  N3_13 
REMARK    6  A    between atoms: N3_13  and  C6_15 
ROOT
HETATM    1  N2  UNL     1      16.330  25.885  18.503  1.00  0.00    -0.290 N 
HETATM    2  C5  UNL     1      15.523  25.052  19.317  1.00  0.00     0.165 C 
ENDROOT
BRANCH   1   3
HETATM    3  C4  UNL     1      16.621  27.175  19.017  1.00  0.00     0.238 C 
BRANCH   3   4
HETATM    4  C3  UNL     1      15.858  27.518  20.241  1.00  0.00     0.236 C 
HETATM    5  N1  UNL     1      16.569  27.705  21.447  1.00  0.00    -0.360 N 
ATOM      6  H1  UNL     1      17.584  27.604  21.468  1.00  0.00     0.162 HD
HETATM    7  O1  UNL     1      14.613  27.646  20.233  1.00  0.00    -0.272 OA
BRANCH   5   8
HETATM    8  C2  UNL     1      15.841  28.040  22.651  1.00  0.00     0.118 C 
HETATM    9  C1  UNL     1      16.755  28.177  23.838  1.00  0.00     0.026 C 
ENDBRANCH   5   8
ENDBRANCH   3   4
ENDBRANCH   1   3
BRANCH   1  10
HETATM   10  S1  UNL     1      16.056  25.792  16.839  1.00  0.00     0.317 S 
HETATM   11  O2  UNL     1      15.056  26.876  16.464  1.00  0.00    -0.183 OA
HETATM   12  O3  UNL     1      15.359  24.482  16.539  1.00  0.00    -0.183 OA
BRANCH  10  13
HETATM   13  N3  UNL     1      17.444  25.888  15.868  1.00  0.00    -0.299 N 
ATOM     14  H3  UNL     1      18.195  25.199  15.908  1.00  0.00     0.174 HD
BRANCH  13  15
HETATM   15  C6  UNL     1      17.475  27.023  14.984  1.00  0.00     0.086 C 
HETATM   16  C7  UNL     1      18.359  28.075  15.637  1.00  0.00     0.032 C 
HETATM   17  C8  UNL     1      18.160  26.678  13.655  1.00  0.00     0.032 C 
ENDBRANCH  13  15
ENDBRANCH  10  13
ENDBRANCH   1  10
TORSDOF 6
ENDMDL
