MODEL 1
REMARK VINA RESULT: -3.781302984      0.000      0.000
REMARK  1 active torsions:
REMARK  status: ('A' for Active; 'I' for Inactive)
REMARK    1  A    between atoms: N1_1  and  C1_5 
ROOT
HETATM    1  C1  UNL     1     -46.443 -29.947 -18.361  1.00  0.00     0.209 C 
HETATM    2  C2  UNL     1     -46.086 -30.821 -17.149  1.00  0.00     0.061 C 
HETATM    3  C3  UNL     1     -46.931 -32.041 -17.479  1.00  0.00     0.169 C 
HETATM    4  O1  UNL     1     -47.944 -31.633 -18.303  1.00  0.00    -0.389 OA
HETATM    5  C4  UNL     1     -47.916 -30.279 -18.448  1.00  0.00     0.200 C 
ENDROOT
BRANCH   1   6
HETATM    6  N1  UNL     1     -46.173 -28.569 -18.136  1.00  0.00    -0.073 N 
ATOM      7  H13 UNL     1     -46.473 -28.003 -18.930  1.00  0.00     0.274 HD
ATOM      8  H12 UNL     1     -46.790 -28.187 -17.419  1.00  0.00     0.274 HD
ATOM      9  H11 UNL     1     -45.194 -28.396 -17.909  1.00  0.00     0.274 HD
ENDBRANCH   1   6
TORSDOF 1
ENDMDL
MODEL 2
REMARK VINA RESULT: -3.756350516      1.203      1.391
REMARK  1 active torsions:
REMARK  status: ('A' for Active; 'I' for Inactive)
REMARK    1  A    between atoms: N1_1  and  C1_5 
ROOT
HETATM    1  C1  UNL     1     -46.538 -29.870 -17.066  1.00  0.00     0.209 C 
HETATM    2  C2  UNL     1     -47.569 -30.953 -16.711  1.00  0.00     0.061 C 
HETATM    3  C3  UNL     1     -47.067 -32.065 -17.616  1.00  0.00     0.169 C 
HETATM    4  O1  UNL     1     -46.361 -31.485 -18.635  1.00  0.00    -0.389 OA
HETATM    5  C4  UNL     1     -46.448 -30.128 -18.553  1.00  0.00     0.200 C 
ENDROOT
BRANCH   1   6
HETATM    6  N1  UNL     1     -46.985 -28.563 -16.731  1.00  0.00    -0.073 N 
ATOM      7  H13 UNL     1     -46.566 -28.244 -15.857  1.00  0.00     0.274 HD
ATOM      8  H12 UNL     1     -46.591 -27.867 -17.365  1.00  0.00     0.274 HD
ATOM      9  H11 UNL     1     -48.002 -28.495 -16.698  1.00  0.00     0.274 HD
ENDBRANCH   1   6
TORSDOF 1
ENDMDL
MODEL 3
REMARK VINA RESULT: -3.651045649      1.891      2.397
REMARK  1 active torsions:
REMARK  status: ('A' for Active; 'I' for Inactive)
REMARK    1  A    between atoms: N1_1  and  C1_5 
ROOT
HETATM    1  C1  UNL     1     -48.057 -30.657 -17.205  1.00  0.00     0.209 C 
HETATM    2  C2  UNL     1     -47.099 -29.487 -17.478  1.00  0.00     0.061 C 
HETATM    3  C3  UNL     1     -46.333 -30.076 -18.651  1.00  0.00     0.169 C 
HETATM    4  O1  UNL     1     -46.441 -31.438 -18.576  1.00  0.00    -0.389 OA
HETATM    5  C4  UNL     1     -47.087 -31.796 -17.432  1.00  0.00     0.200 C 
ENDROOT
BRANCH   1   6
HETATM    6  N1  UNL     1     -48.605 -30.618 -15.895  1.00  0.00    -0.073 N 
ATOM      7  H13 UNL     1     -48.727 -31.558 -15.519  1.00  0.00     0.274 HD
ATOM      8  H12 UNL     1     -47.926 -30.259 -15.223  1.00  0.00     0.274 HD
ATOM      9  H11 UNL     1     -49.477 -30.090 -15.852  1.00  0.00     0.274 HD
ENDBRANCH   1   6
TORSDOF 1
ENDMDL
MODEL 4
REMARK VINA RESULT: -3.475594081      1.754      2.069
REMARK  1 active torsions:
REMARK  status: ('A' for Active; 'I' for Inactive)
REMARK    1  A    between atoms: N1_1  and  C1_5 
ROOT
HETATM    1  C1  UNL     1     -47.604 -30.241 -18.000  1.00  0.00     0.209 C 
HETATM    2  C2  UNL     1     -47.526 -31.694 -17.504  1.00  0.00     0.061 C 
HETATM    3  C3  UNL     1     -46.192 -31.626 -16.780  1.00  0.00     0.169 C 
HETATM    4  O1  UNL     1     -45.480 -30.588 -17.318  1.00  0.00    -0.389 OA
HETATM    5  C4  UNL     1     -46.151 -30.056 -18.377  1.00  0.00     0.200 C 
ENDROOT
BRANCH   1   6
HETATM    6  N1  UNL     1     -48.508 -30.085 -19.086  1.00  0.00    -0.073 N 
ATOM      7  H13 UNL     1     -48.084 -30.392 -19.963  1.00  0.00     0.274 HD
ATOM      8  H12 UNL     1     -49.272 -30.759 -19.029  1.00  0.00     0.274 HD
ATOM      9  H11 UNL     1     -48.864 -29.133 -19.164  1.00  0.00     0.274 HD
ENDBRANCH   1   6
TORSDOF 1
ENDMDL
MODEL 5
REMARK VINA RESULT: -3.420656898      1.444      1.879
REMARK  1 active torsions:
REMARK  status: ('A' for Active; 'I' for Inactive)
REMARK    1  A    between atoms: N1_1  and  C1_5 
ROOT
HETATM    1  C1  UNL     1     -47.169 -29.286 -17.339  1.00  0.00     0.209 C 
HETATM    2  C2  UNL     1     -47.789 -30.442 -18.140  1.00  0.00     0.061 C 
HETATM    3  C3  UNL     1     -46.858 -31.560 -17.701  1.00  0.00     0.169 C 
HETATM    4  O1  UNL     1     -45.685 -30.988 -17.292  1.00  0.00    -0.389 OA
HETATM    5  C4  UNL     1     -45.711 -29.646 -17.523  1.00  0.00     0.200 C 
ENDROOT
BRANCH   1   6
HETATM    6  N1  UNL     1     -47.520 -28.012 -17.862  1.00  0.00    -0.073 N 
ATOM      7  H13 UNL     1     -48.433 -27.714 -17.520  1.00  0.00     0.274 HD
ATOM      8  H12 UNL     1     -46.943 -27.276 -17.455  1.00  0.00     0.274 HD
ATOM      9  H11 UNL     1     -47.483 -27.985 -18.881  1.00  0.00     0.274 HD
ENDBRANCH   1   6
TORSDOF 1
ENDMDL
