MODEL 1
REMARK VINA RESULT: -4.068595041      0.000      0.000
REMARK  1 active torsions:
REMARK  status: ('A' for Active; 'I' for Inactive)
REMARK    1  A    between atoms: C2_2  and  C3_3 
ROOT
HETATM    1  C3  UNL     1     -45.883 -29.020 -16.848  1.00  0.00     0.113 A 
HETATM    2  C4  UNL     1     -47.036 -28.113 -16.728  1.00  0.00     0.078 A 
HETATM    3  N1  UNL     1     -47.433 -28.250 -17.941  1.00  0.00    -0.358 N 
ATOM      4  H1  UNL     1     -48.206 -27.867 -18.486  1.00  0.00     0.166 HD
HETATM    5  C5  UNL     1     -46.375 -29.143 -18.220  1.00  0.00     0.087 A 
HETATM    6  N2  UNL     1     -46.071 -29.768 -19.330  1.00  0.00    -0.388 N 
ATOM      7  H21 UNL     1     -46.414 -29.853 -20.287  1.00  0.00     0.157 HD
ATOM      8  H22 UNL     1     -45.307 -30.413 -19.531  1.00  0.00     0.157 HD
ENDROOT
BRANCH   1   9
HETATM    9  C2  UNL     1     -44.582 -28.286 -16.750  1.00  0.00    -0.020 C 
HETATM   10  C1  UNL     1     -44.352 -27.457 -15.756  1.00  0.00     0.008 C 
ENDBRANCH   1   9
TORSDOF 1
ENDMDL
MODEL 2
REMARK VINA RESULT: -4.036807785      2.056      2.992
REMARK  1 active torsions:
REMARK  status: ('A' for Active; 'I' for Inactive)
REMARK    1  A    between atoms: C2_2  and  C3_3 
ROOT
HETATM    1  C3  UNL     1     -46.379 -30.653 -17.902  1.00  0.00     0.113 A 
HETATM    2  C4  UNL     1     -47.678 -30.106 -18.325  1.00  0.00     0.078 A 
HETATM    3  N1  UNL     1     -47.386 -28.879 -18.088  1.00  0.00    -0.358 N 
ATOM      4  H1  UNL     1     -47.887 -27.996 -18.181  1.00  0.00     0.166 HD
HETATM    5  C5  UNL     1     -46.093 -29.240 -17.648  1.00  0.00     0.087 A 
HETATM    6  N2  UNL     1     -45.114 -28.491 -17.207  1.00  0.00    -0.388 N 
ATOM      7  H21 UNL     1     -44.915 -27.507 -17.030  1.00  0.00     0.157 HD
ATOM      8  H22 UNL     1     -44.180 -28.752 -16.890  1.00  0.00     0.157 HD
ENDROOT
BRANCH   1   9
HETATM    9  C2  UNL     1     -46.496 -31.466 -16.651  1.00  0.00    -0.020 C 
HETATM   10  C1  UNL     1     -47.675 -31.795 -16.171  1.00  0.00     0.008 C 
ENDBRANCH   1   9
TORSDOF 1
ENDMDL
MODEL 3
REMARK VINA RESULT: -3.975262130      1.959      3.192
REMARK  1 active torsions:
REMARK  status: ('A' for Active; 'I' for Inactive)
REMARK    1  A    between atoms: C2_2  and  C3_3 
ROOT
HETATM    1  C3  UNL     1     -46.058 -30.224 -17.176  1.00  0.00     0.113 A 
HETATM    2  C4  UNL     1     -46.345 -30.158 -18.618  1.00  0.00     0.078 A 
HETATM    3  N1  UNL     1     -47.290 -29.295 -18.522  1.00  0.00    -0.358 N 
ATOM      4  H1  UNL     1     -47.904 -28.832 -19.192  1.00  0.00     0.166 HD
HETATM    5  C5  UNL     1     -47.141 -29.241 -17.118  1.00  0.00     0.087 A 
HETATM    6  N2  UNL     1     -47.793 -28.535 -16.229  1.00  0.00    -0.388 N 
ATOM      7  H21 UNL     1     -48.548 -27.851 -16.189  1.00  0.00     0.157 HD
ATOM      8  H22 UNL     1     -47.685 -28.497 -15.215  1.00  0.00     0.157 HD
ENDROOT
BRANCH   1   9
HETATM    9  C2  UNL     1     -46.432 -31.550 -16.591  1.00  0.00    -0.020 C 
HETATM   10  C1  UNL     1     -47.670 -31.796 -16.221  1.00  0.00     0.008 C 
ENDBRANCH   1   9
TORSDOF 1
ENDMDL
MODEL 4
REMARK VINA RESULT: -3.975204947      2.050      3.279
REMARK  1 active torsions:
REMARK  status: ('A' for Active; 'I' for Inactive)
REMARK    1  A    between atoms: C2_2  and  C3_3 
ROOT
HETATM    1  C3  UNL     1     -47.174 -30.097 -16.813  1.00  0.00     0.113 A 
HETATM    2  C4  UNL     1     -46.710 -30.852 -17.988  1.00  0.00     0.078 A 
HETATM    3  N1  UNL     1     -46.746 -29.859 -18.802  1.00  0.00    -0.358 N 
ATOM      4  H1  UNL     1     -46.533 -29.741 -19.792  1.00  0.00     0.166 HD
HETATM    5  C5  UNL     1     -47.198 -28.997 -17.778  1.00  0.00     0.087 A 
HETATM    6  N2  UNL     1     -47.488 -27.721 -17.820  1.00  0.00    -0.388 N 
ATOM      7  H21 UNL     1     -47.505 -26.954 -18.492  1.00  0.00     0.157 HD
ATOM      8  H22 UNL     1     -47.815 -27.098 -17.081  1.00  0.00     0.157 HD
ENDROOT
BRANCH   1   9
HETATM    9  C2  UNL     1     -48.539 -30.528 -16.375  1.00  0.00    -0.020 C 
HETATM   10  C1  UNL     1     -49.180 -29.872 -15.433  1.00  0.00     0.008 C 
ENDBRANCH   1   9
TORSDOF 1
ENDMDL
MODEL 5
REMARK VINA RESULT: -3.853773283      1.967      3.199
REMARK  1 active torsions:
REMARK  status: ('A' for Active; 'I' for Inactive)
REMARK    1  A    between atoms: C2_2  and  C3_3 
ROOT
HETATM    1  C3  UNL     1     -46.258 -30.276 -17.207  1.00  0.00     0.113 A 
HETATM    2  C4  UNL     1     -46.288 -30.130 -18.671  1.00  0.00     0.078 A 
HETATM    3  N1  UNL     1     -46.062 -28.866 -18.679  1.00  0.00    -0.358 N 
ATOM      4  H1  UNL     1     -45.964 -28.164 -19.413  1.00  0.00     0.166 HD
HETATM    5  C5  UNL     1     -46.003 -28.837 -17.269  1.00  0.00     0.087 A 
HETATM    6  N2  UNL     1     -45.792 -27.832 -16.456  1.00  0.00    -0.388 N 
ATOM      7  H21 UNL     1     -45.614 -26.828 -16.498  1.00  0.00     0.157 HD
ATOM      8  H22 UNL     1     -45.749 -27.810 -15.437  1.00  0.00     0.157 HD
ENDROOT
BRANCH   1   9
HETATM    9  C2  UNL     1     -47.606 -30.614 -16.651  1.00  0.00    -0.020 C 
HETATM   10  C1  UNL     1     -47.822 -31.775 -16.074  1.00  0.00     0.008 C 
ENDBRANCH   1   9
TORSDOF 1
ENDMDL
