MODEL 1
REMARK VINA RESULT: -3.748893005      0.000      0.000
REMARK  2 active torsions:
REMARK  status: ('A' for Active; 'I' for Inactive)
REMARK    1  A    between atoms: N1_1  and  C1_5 
REMARK    2  A    between atoms: C1_5  and  C2_6 
ROOT
HETATM    1  C1  UNL     1     -46.066 -28.980 -17.957  1.00  0.00     0.261 C 
ENDROOT
BRANCH   1   2
HETATM    2  N1  UNL     1     -47.303 -28.266 -17.969  1.00  0.00    -0.077 N 
ATOM      3  H13 UNL     1     -48.071 -28.882 -18.235  1.00  0.00     0.274 HD
ATOM      4  H12 UNL     1     -47.592 -28.034 -17.019  1.00  0.00     0.274 HD
ATOM      5  H11 UNL     1     -47.291 -27.432 -18.555  1.00  0.00     0.274 HD
ENDBRANCH   1   2
BRANCH   1   6
HETATM    6  C2  UNL     1     -46.201 -30.418 -17.550  1.00  0.00     0.148 C 
HETATM    7  C3  UNL     1     -47.566 -30.802 -17.017  1.00  0.00     0.059 C 
HETATM    8  C4  UNL     1     -47.075 -32.119 -17.634  1.00  0.00     0.170 C 
HETATM    9  O1  UNL     1     -46.441 -31.310 -18.604  1.00  0.00    -0.384 OA
ENDBRANCH   1   6
TORSDOF 2
ENDMDL
MODEL 2
REMARK VINA RESULT: -3.573754859      1.858      2.704
REMARK  2 active torsions:
REMARK  status: ('A' for Active; 'I' for Inactive)
REMARK    1  A    between atoms: N1_1  and  C1_5 
REMARK    2  A    between atoms: C1_5  and  C2_6 
ROOT
HETATM    1  C1  UNL     1     -47.170 -31.963 -17.378  1.00  0.00     0.261 C 
ENDROOT
BRANCH   1   2
HETATM    2  N1  UNL     1     -47.780 -31.907 -16.087  1.00  0.00    -0.077 N 
ATOM      3  H13 UNL     1     -48.336 -31.057 -15.989  1.00  0.00     0.274 HD
ATOM      4  H12 UNL     1     -48.519 -32.605 -16.009  1.00  0.00     0.274 HD
ATOM      5  H11 UNL     1     -47.119 -31.995 -15.316  1.00  0.00     0.274 HD
ENDBRANCH   1   2
BRANCH   1   6
HETATM    6  C2  UNL     1     -46.956 -30.617 -18.005  1.00  0.00     0.148 C 
HETATM    7  C3  UNL     1     -45.994 -29.714 -17.259  1.00  0.00     0.059 C 
HETATM    8  C4  UNL     1     -45.820 -29.247 -18.711  1.00  0.00     0.170 C 
HETATM    9  O1  UNL     1     -46.039 -30.597 -19.064  1.00  0.00    -0.384 OA
ENDBRANCH   1   6
TORSDOF 2
ENDMDL
MODEL 3
REMARK VINA RESULT: -3.545809420      1.229      1.229
REMARK  2 active torsions:
REMARK  status: ('A' for Active; 'I' for Inactive)
REMARK    1  A    between atoms: N1_1  and  C1_5 
REMARK    2  A    between atoms: C1_5  and  C2_6 
ROOT
HETATM    1  C1  UNL     1     -45.860 -29.061 -17.393  1.00  0.00     0.261 C 
ENDROOT
BRANCH   1   2
HETATM    2  N1  UNL     1     -44.731 -28.600 -16.649  1.00  0.00    -0.077 N 
ATOM      3  H13 UNL     1     -44.767 -27.587 -16.531  1.00  0.00     0.274 HD
ATOM      4  H12 UNL     1     -44.802 -28.888 -15.674  1.00  0.00     0.274 HD
ATOM      5  H11 UNL     1     -43.834 -28.883 -17.045  1.00  0.00     0.274 HD
ENDBRANCH   1   2
BRANCH   1   6
HETATM    6  C2  UNL     1     -46.079 -30.542 -17.304  1.00  0.00     0.148 C 
HETATM    7  C3  UNL     1     -47.434 -30.953 -16.764  1.00  0.00     0.059 C 
HETATM    8  C4  UNL     1     -47.084 -32.124 -17.693  1.00  0.00     0.170 C 
HETATM    9  O1  UNL     1     -46.452 -31.158 -18.507  1.00  0.00    -0.384 OA
ENDBRANCH   1   6
TORSDOF 2
ENDMDL
MODEL 4
REMARK VINA RESULT: -3.334404499      2.061      3.210
REMARK  2 active torsions:
REMARK  status: ('A' for Active; 'I' for Inactive)
REMARK    1  A    between atoms: N1_1  and  C1_5 
REMARK    2  A    between atoms: C1_5  and  C2_6 
ROOT
HETATM    1  C1  UNL     1     -46.412 -29.942 -18.008  1.00  0.00     0.261 C 
ENDROOT
BRANCH   1   2
HETATM    2  N1  UNL     1     -47.644 -29.845 -18.726  1.00  0.00    -0.077 N 
ATOM      3  H13 UNL     1     -47.581 -30.338 -19.616  1.00  0.00     0.274 HD
ATOM      4  H12 UNL     1     -48.368 -30.401 -18.273  1.00  0.00     0.274 HD
ATOM      5  H11 UNL     1     -47.962 -28.886 -18.868  1.00  0.00     0.274 HD
ENDBRANCH   1   2
BRANCH   1   6
HETATM    6  C2  UNL     1     -45.761 -28.617 -17.741  1.00  0.00     0.148 C 
HETATM    7  C3  UNL     1     -44.803 -28.604 -16.567  1.00  0.00     0.059 C 
HETATM    8  C4  UNL     1     -44.213 -27.521 -17.480  1.00  0.00     0.170 C 
HETATM    9  O1  UNL     1     -44.656 -28.327 -18.553  1.00  0.00    -0.384 OA
ENDBRANCH   1   6
TORSDOF 2
ENDMDL
MODEL 5
REMARK VINA RESULT: -3.318180002      1.438      1.595
REMARK  2 active torsions:
REMARK  status: ('A' for Active; 'I' for Inactive)
REMARK    1  A    between atoms: N1_1  and  C1_5 
REMARK    2  A    between atoms: C1_5  and  C2_6 
ROOT
HETATM    1  C1  UNL     1     -46.354 -30.067 -18.592  1.00  0.00     0.261 C 
ENDROOT
BRANCH   1   2
HETATM    2  N1  UNL     1     -46.647 -28.712 -18.247  1.00  0.00    -0.077 N 
ATOM      3  H13 UNL     1     -45.993 -28.076 -18.704  1.00  0.00     0.274 HD
ATOM      4  H12 UNL     1     -47.516 -28.409 -18.687  1.00  0.00     0.274 HD
ATOM      5  H11 UNL     1     -46.673 -28.540 -17.242  1.00  0.00     0.274 HD
ENDBRANCH   1   2
BRANCH   1   6
HETATM    6  C2  UNL     1     -47.116 -31.075 -17.782  1.00  0.00     0.148 C 
HETATM    7  C3  UNL     1     -46.327 -31.712 -16.655  1.00  0.00     0.059 C 
HETATM    8  C4  UNL     1     -47.763 -31.757 -16.114  1.00  0.00     0.170 C 
HETATM    9  O1  UNL     1     -47.950 -30.533 -16.795  1.00  0.00    -0.384 OA
ENDBRANCH   1   6
TORSDOF 2
ENDMDL
