MODEL 1
REMARK VINA RESULT: -4.271609129      0.000      0.000
REMARK  2 active torsions:
REMARK  status: ('A' for Active; 'I' for Inactive)
REMARK    1  A    between atoms: C2_2  and  C3_3 
REMARK    2  A    between atoms: C5_6  and  N1_7 
ROOT
HETATM    1  C3  UNL     1     -19.101  -8.017   9.445  1.00  0.00     0.176 C 
HETATM    2  O1  UNL     1     -18.678  -7.013  10.286  1.00  0.00    -0.378 OA
HETATM    3  C4  UNL     1     -18.675  -7.922  11.338  1.00  0.00     0.204 C 
HETATM    4  C5  UNL     1     -19.576  -8.871  10.605  1.00  0.00     0.239 C 
ENDROOT
BRANCH   4   5
HETATM    5  N1  UNL     1     -19.131 -10.223  10.489  1.00  0.00    -0.070 N 
ATOM      6  H13 UNL     1     -19.115 -10.526   9.515  1.00  0.00     0.274 HD
ATOM      7  H12 UNL     1     -18.136 -10.305  10.699  1.00  0.00     0.274 HD
ATOM      8  H11 UNL     1     -19.686 -10.857  11.064  1.00  0.00     0.274 HD
ENDBRANCH   4   5
BRANCH   1   9
HETATM    9  C2  UNL     1     -20.181  -7.608   8.506  1.00  0.00    -0.003 C 
HETATM   10  C1  UNL     1     -20.808  -6.464   8.760  1.00  0.00     0.009 C 
ENDBRANCH   1   9
TORSDOF 2
ENDMDL
MODEL 2
REMARK VINA RESULT: -4.181928906      1.906      2.253
REMARK  2 active torsions:
REMARK  status: ('A' for Active; 'I' for Inactive)
REMARK    1  A    between atoms: C2_2  and  C3_3 
REMARK    2  A    between atoms: C5_6  and  N1_7 
ROOT
HETATM    1  C3  UNL     1     -20.128  -7.058   8.758  1.00  0.00     0.176 C 
HETATM    2  O1  UNL     1     -18.789  -6.840   8.988  1.00  0.00    -0.378 OA
HETATM    3  C4  UNL     1     -18.525  -8.141   8.576  1.00  0.00     0.204 C 
HETATM    4  C5  UNL     1     -19.948  -8.564   8.787  1.00  0.00     0.239 C 
ENDROOT
BRANCH   4   5
HETATM    5  N1  UNL     1     -20.602  -9.200   7.687  1.00  0.00    -0.070 N 
ATOM      6  H13 UNL     1     -21.397  -9.758   8.000  1.00  0.00     0.274 HD
ATOM      7  H12 UNL     1     -21.100  -8.522   7.110  1.00  0.00     0.274 HD
ATOM      8  H11 UNL     1     -19.955  -9.758   7.130  1.00  0.00     0.274 HD
ENDBRANCH   4   5
BRANCH   1   9
HETATM    9  C2  UNL     1     -21.021  -6.530   9.825  1.00  0.00    -0.003 C 
HETATM   10  C1  UNL     1     -21.167  -7.269  10.919  1.00  0.00     0.009 C 
ENDBRANCH   1   9
TORSDOF 2
ENDMDL
MODEL 3
REMARK VINA RESULT: -4.144522175      1.413      1.429
REMARK  2 active torsions:
REMARK  status: ('A' for Active; 'I' for Inactive)
REMARK    1  A    between atoms: C2_2  and  C3_3 
REMARK    2  A    between atoms: C5_6  and  N1_7 
ROOT
HETATM    1  C3  UNL     1     -19.567  -8.106  10.000  1.00  0.00     0.176 C 
HETATM    2  O1  UNL     1     -18.299  -7.707  10.356  1.00  0.00    -0.378 OA
HETATM    3  C4  UNL     1     -18.759  -7.456  11.643  1.00  0.00     0.204 C 
HETATM    4  C5  UNL     1     -20.188  -7.397  11.189  1.00  0.00     0.239 C 
ENDROOT
BRANCH   4   5
HETATM    5  N1  UNL     1     -21.118  -8.232  11.880  1.00  0.00    -0.070 N 
ATOM      6  H13 UNL     1     -22.002  -8.299  11.375  1.00  0.00     0.274 HD
ATOM      7  H12 UNL     1     -20.837  -9.212  11.842  1.00  0.00     0.274 HD
ATOM      8  H11 UNL     1     -21.264  -7.925  12.842  1.00  0.00     0.274 HD
ENDBRANCH   4   5
BRANCH   1   9
HETATM    9  C2  UNL     1     -20.017  -7.589   8.679  1.00  0.00    -0.003 C 
HETATM   10  C1  UNL     1     -20.748  -6.479   8.676  1.00  0.00     0.009 C 
ENDBRANCH   1   9
TORSDOF 2
ENDMDL
MODEL 4
REMARK VINA RESULT: -4.131122023      1.815      2.293
REMARK  2 active torsions:
REMARK  status: ('A' for Active; 'I' for Inactive)
REMARK    1  A    between atoms: C2_2  and  C3_3 
REMARK    2  A    between atoms: C5_6  and  N1_7 
ROOT
HETATM    1  C3  UNL     1     -18.817  -8.279   8.707  1.00  0.00     0.176 C 
HETATM    2  O1  UNL     1     -19.563  -7.185   8.333  1.00  0.00    -0.378 OA
HETATM    3  C4  UNL     1     -19.584  -6.769   9.660  1.00  0.00     0.204 C 
HETATM    4  C5  UNL     1     -19.229  -8.137  10.160  1.00  0.00     0.239 C 
ENDROOT
BRANCH   4   5
HETATM    5  N1  UNL     1     -18.110  -8.231  11.042  1.00  0.00    -0.070 N 
ATOM      6  H13 UNL     1     -17.229  -8.188  10.530  1.00  0.00     0.274 HD
ATOM      7  H12 UNL     1     -18.009  -7.385  11.605  1.00  0.00     0.274 HD
ATOM      8  H11 UNL     1     -18.156  -9.064  11.630  1.00  0.00     0.274 HD
ENDBRANCH   4   5
BRANCH   1   9
HETATM    9  C2  UNL     1     -19.250  -9.554   8.072  1.00  0.00    -0.003 C 
HETATM   10  C1  UNL     1     -20.075 -10.331   8.766  1.00  0.00     0.009 C 
ENDBRANCH   1   9
TORSDOF 2
ENDMDL
MODEL 5
REMARK VINA RESULT: -4.038601610      1.767      2.169
REMARK  2 active torsions:
REMARK  status: ('A' for Active; 'I' for Inactive)
REMARK    1  A    between atoms: C2_2  and  C3_3 
REMARK    2  A    between atoms: C5_6  and  N1_7 
ROOT
HETATM    1  C3  UNL     1     -19.148  -8.029   9.421  1.00  0.00     0.176 C 
HETATM    2  O1  UNL     1     -18.797  -6.853   8.799  1.00  0.00    -0.378 OA
HETATM    3  C4  UNL     1     -19.673  -6.171   9.637  1.00  0.00     0.204 C 
HETATM    4  C5  UNL     1     -20.423  -7.425   9.978  1.00  0.00     0.239 C 
ENDROOT
BRANCH   4   5
HETATM    5  N1  UNL     1     -20.590  -7.720  11.365  1.00  0.00    -0.070 N 
ATOM      6  H13 UNL     1     -20.264  -8.661  11.587  1.00  0.00     0.274 HD
ATOM      7  H12 UNL     1     -19.937  -7.185  11.939  1.00  0.00     0.274 HD
ATOM      8  H11 UNL     1     -21.553  -7.580  11.671  1.00  0.00     0.274 HD
ENDBRANCH   4   5
BRANCH   1   9
HETATM    9  C2  UNL     1     -19.369  -9.166   8.486  1.00  0.00    -0.003 C 
HETATM   10  C1  UNL     1     -20.446  -9.115   7.709  1.00  0.00     0.009 C 
ENDBRANCH   1   9
TORSDOF 2
ENDMDL
