MODEL 1
REMARK VINA RESULT: -4.038922336      0.000      0.000
REMARK  3 active torsions:
REMARK  status: ('A' for Active; 'I' for Inactive)
REMARK    1  A    between atoms: N1_1  and  O1_4 
REMARK    2  A    between atoms: O1_4  and  N2_5 
REMARK    3  A    between atoms: C1_7  and  C2_8 
ROOT
HETATM    1  N2  UNL     1     -19.390  -7.126   9.476  1.00  0.00    -0.257 N 
ATOM      2  H2  UNL     1     -20.139  -6.449   9.334  1.00  0.00     0.195 HD
HETATM    3  C1  UNL     1     -19.351  -7.799  10.585  1.00  0.00     0.094 C 
ENDROOT
BRANCH   1   4
HETATM    4  O1  UNL     1     -18.469  -7.295   8.506  1.00  0.00    -0.165 OA
BRANCH   4   5
HETATM    5  N1  UNL     1     -17.709  -8.420   8.381  1.00  0.00    -0.286 N 
ATOM      6  H12 UNL     1     -17.619  -8.822   7.448  1.00  0.00     0.186 HD
ATOM      7  H11 UNL     1     -17.235  -8.867   9.166  1.00  0.00     0.186 HD
ENDBRANCH   4   5
ENDBRANCH   1   4
BRANCH   3   8
HETATM    8  C2  UNL     1     -20.371  -7.599  11.640  1.00  0.00     0.026 A 
HETATM    9  C3  UNL     1     -21.575  -8.490  11.601  1.00  0.00     0.010 A 
HETATM   10  C4  UNL     1     -21.688  -7.037  11.198  1.00  0.00     0.010 A 
ENDBRANCH   3   8
TORSDOF 3
ENDMDL
MODEL 2
REMARK VINA RESULT: -3.868176457      2.249      2.936
REMARK  3 active torsions:
REMARK  status: ('A' for Active; 'I' for Inactive)
REMARK    1  A    between atoms: N1_1  and  O1_4 
REMARK    2  A    between atoms: O1_4  and  N2_5 
REMARK    3  A    between atoms: C1_7  and  C2_8 
ROOT
HETATM    1  N2  UNL     1     -18.688  -8.254   8.953  1.00  0.00    -0.257 N 
ATOM      2  H2  UNL     1     -17.810  -8.764   8.855  1.00  0.00     0.195 HD
HETATM    3  C1  UNL     1     -19.785  -8.920   9.141  1.00  0.00     0.094 C 
ENDROOT
BRANCH   1   4
HETATM    4  O1  UNL     1     -18.673  -6.907   8.884  1.00  0.00    -0.165 OA
BRANCH   4   5
HETATM    5  N1  UNL     1     -19.604  -6.115   9.488  1.00  0.00    -0.286 N 
ATOM      6  H12 UNL     1     -20.522  -6.524   9.665  1.00  0.00     0.186 HD
ATOM      7  H11 UNL     1     -19.424  -5.150   9.765  1.00  0.00     0.186 HD
ENDBRANCH   4   5
ENDBRANCH   1   4
BRANCH   3   8
HETATM    8  C2  UNL     1     -19.782 -10.399   9.215  1.00  0.00     0.026 A 
HETATM    9  C3  UNL     1     -20.967 -11.052   9.857  1.00  0.00     0.010 A 
HETATM   10  C4  UNL     1     -19.640 -10.999  10.582  1.00  0.00     0.010 A 
ENDBRANCH   3   8
TORSDOF 3
ENDMDL
MODEL 3
REMARK VINA RESULT: -3.855789650      2.773      3.473
REMARK  3 active torsions:
REMARK  status: ('A' for Active; 'I' for Inactive)
REMARK    1  A    between atoms: N1_1  and  O1_4 
REMARK    2  A    between atoms: O1_4  and  N2_5 
REMARK    3  A    between atoms: C1_7  and  C2_8 
ROOT
HETATM    1  N2  UNL     1     -18.613  -8.470   9.686  1.00  0.00    -0.257 N 
ATOM      2  H2  UNL     1     -18.075  -8.501   8.820  1.00  0.00     0.195 HD
HETATM    3  C1  UNL     1     -19.705  -9.165   9.773  1.00  0.00     0.094 C 
ENDROOT
BRANCH   1   4
HETATM    4  O1  UNL     1     -18.168  -7.709  10.705  1.00  0.00    -0.165 OA
BRANCH   4   5
HETATM    5  N1  UNL     1     -18.943  -7.351  11.768  1.00  0.00    -0.286 N 
ATOM      6  H12 UNL     1     -19.172  -6.362  11.868  1.00  0.00     0.186 HD
ATOM      7  H11 UNL     1     -19.297  -8.018  12.455  1.00  0.00     0.186 HD
ENDBRANCH   4   5
ENDBRANCH   1   4
BRANCH   3   8
HETATM    8  C2  UNL     1     -20.179  -9.996   8.642  1.00  0.00     0.026 A 
HETATM    9  C3  UNL     1     -19.327 -10.020   7.410  1.00  0.00     0.010 A 
HETATM   10  C4  UNL     1     -20.636  -9.261   7.418  1.00  0.00     0.010 A 
ENDBRANCH   3   8
TORSDOF 3
ENDMDL
MODEL 4
REMARK VINA RESULT: -3.813622511      3.012      3.456
REMARK  3 active torsions:
REMARK  status: ('A' for Active; 'I' for Inactive)
REMARK    1  A    between atoms: N1_1  and  O1_4 
REMARK    2  A    between atoms: O1_4  and  N2_5 
REMARK    3  A    between atoms: C1_7  and  C2_8 
ROOT
HETATM    1  N2  UNL     1     -18.889  -8.947   9.219  1.00  0.00    -0.257 N 
ATOM      2  H2  UNL     1     -18.481  -9.100   8.297  1.00  0.00     0.195 HD
HETATM    3  C1  UNL     1     -19.866  -9.707   9.609  1.00  0.00     0.094 C 
ENDROOT
BRANCH   1   4
HETATM    4  O1  UNL     1     -18.397  -7.962   9.997  1.00  0.00    -0.165 OA
BRANCH   4   5
HETATM    5  N1  UNL     1     -18.001  -8.153  11.287  1.00  0.00    -0.286 N 
ATOM      6  H12 UNL     1     -18.333  -7.483  11.982  1.00  0.00     0.186 HD
ATOM      7  H11 UNL     1     -17.398  -8.921  11.582  1.00  0.00     0.186 HD
ENDBRANCH   4   5
ENDBRANCH   1   4
BRANCH   3   8
HETATM    8  C2  UNL     1     -20.394 -10.785   8.740  1.00  0.00     0.026 A 
HETATM    9  C3  UNL     1     -21.754 -11.319   9.068  1.00  0.00     0.010 A 
HETATM   10  C4  UNL     1     -20.520 -12.143   9.363  1.00  0.00     0.010 A 
ENDBRANCH   3   8
TORSDOF 3
ENDMDL
MODEL 5
REMARK VINA RESULT: -3.804455580      1.900      2.311
REMARK  3 active torsions:
REMARK  status: ('A' for Active; 'I' for Inactive)
REMARK    1  A    between atoms: N1_1  and  O1_4 
REMARK    2  A    between atoms: O1_4  and  N2_5 
REMARK    3  A    between atoms: C1_7  and  C2_8 
ROOT
HETATM    1  N2  UNL     1     -19.957  -7.296  11.432  1.00  0.00    -0.257 N 
ATOM      2  H2  UNL     1     -20.413  -6.420  11.687  1.00  0.00     0.195 HD
HETATM    3  C1  UNL     1     -20.650  -8.392  11.437  1.00  0.00     0.094 C 
ENDROOT
BRANCH   1   4
HETATM    4  O1  UNL     1     -18.650  -7.279  11.101  1.00  0.00    -0.165 OA
BRANCH   4   5
HETATM    5  N1  UNL     1     -17.838  -8.371  11.197  1.00  0.00    -0.286 N 
ATOM      6  H12 UNL     1     -17.998  -9.005  11.979  1.00  0.00     0.186 HD
ATOM      7  H11 UNL     1     -17.092  -8.575  10.531  1.00  0.00     0.186 HD
ENDBRANCH   4   5
ENDBRANCH   1   4
BRANCH   3   8
HETATM    8  C2  UNL     1     -22.085  -8.391  11.805  1.00  0.00     0.026 A 
HETATM    9  C3  UNL     1     -22.452  -9.002  13.123  1.00  0.00     0.010 A 
HETATM   10  C4  UNL     1     -22.769  -9.726  11.833  1.00  0.00     0.010 A 
ENDBRANCH   3   8
TORSDOF 3
ENDMDL
