MODEL 1
REMARK VINA RESULT: -3.812817183      0.000      0.000
REMARK  1 active torsions:
REMARK  status: ('A' for Active; 'I' for Inactive)
REMARK    1  A    between atoms: C2_2  and  N1_3 
ROOT
HETATM    1  N1  UNL     1     -20.052  -7.758   8.495  1.00  0.00    -0.366 N 
HETATM    2  C3  UNL     1     -20.596  -8.801   7.662  1.00  0.00     0.151 C 
HETATM    3  C4  UNL     1     -19.793  -9.988   8.217  1.00  0.00     0.254 C 
HETATM    4  N2  UNL     1     -18.465  -9.399   8.133  1.00  0.00    -0.058 N 
ATOM      5  H21 UNL     1     -18.073  -9.329   7.194  1.00  0.00     0.279 HD
ATOM      6  H22 UNL     1     -17.704  -9.971   8.501  1.00  0.00     0.279 HD
HETATM    7  C5  UNL     1     -18.694  -8.116   8.828  1.00  0.00     0.356 C 
ENDROOT
BRANCH   1   8
HETATM    8  C2  UNL     1     -20.722  -6.595   8.913  1.00  0.00     0.077 C 
HETATM    9  C1  UNL     1     -21.155  -6.485  10.178  1.00  0.00     0.029 C 
ENDBRANCH   1   8
TORSDOF 1
ENDMDL
MODEL 2
REMARK VINA RESULT: -3.674629866      1.545      1.736
REMARK  1 active torsions:
REMARK  status: ('A' for Active; 'I' for Inactive)
REMARK    1  A    between atoms: C2_2  and  N1_3 
ROOT
HETATM    1  N1  UNL     1     -19.467  -8.546   9.245  1.00  0.00    -0.366 N 
HETATM    2  C3  UNL     1     -19.417  -9.644   8.314  1.00  0.00     0.151 C 
HETATM    3  C4  UNL     1     -20.136 -10.706   9.162  1.00  0.00     0.254 C 
HETATM    4  N2  UNL     1     -19.360 -10.555  10.384  1.00  0.00    -0.058 N 
ATOM      5  H21 UNL     1     -18.417 -10.941  10.359  1.00  0.00     0.279 HD
ATOM      6  H22 UNL     1     -19.664 -11.125  11.174  1.00  0.00     0.279 HD
HETATM    7  C5  UNL     1     -19.448  -9.093  10.581  1.00  0.00     0.356 C 
ENDROOT
BRANCH   1   8
HETATM    8  C2  UNL     1     -19.525  -7.180   8.917  1.00  0.00     0.077 C 
HETATM    9  C1  UNL     1     -20.709  -6.552   8.856  1.00  0.00     0.029 C 
ENDBRANCH   1   8
TORSDOF 1
ENDMDL
MODEL 3
REMARK VINA RESULT: -3.600632183      1.901      2.548
REMARK  1 active torsions:
REMARK  status: ('A' for Active; 'I' for Inactive)
REMARK    1  A    between atoms: C2_2  and  N1_3 
ROOT
HETATM    1  N1  UNL     1     -20.167  -9.230  10.205  1.00  0.00    -0.366 N 
HETATM    2  C3  UNL     1     -19.169  -8.199  10.330  1.00  0.00     0.151 C 
HETATM    3  C4  UNL     1     -18.907  -7.941   8.837  1.00  0.00     0.254 C 
HETATM    4  N2  UNL     1     -18.699  -9.320   8.421  1.00  0.00    -0.058 N 
ATOM      5  H21 UNL     1     -17.810  -9.735   8.700  1.00  0.00     0.279 HD
ATOM      6  H22 UNL     1     -18.551  -9.462   7.422  1.00  0.00     0.279 HD
HETATM    7  C5  UNL     1     -19.907  -9.958   8.985  1.00  0.00     0.356 C 
ENDROOT
BRANCH   1   8
HETATM    8  C2  UNL     1     -21.214  -9.487  11.107  1.00  0.00     0.077 C 
HETATM    9  C1  UNL     1     -21.766  -8.481  11.803  1.00  0.00     0.029 C 
ENDBRANCH   1   8
TORSDOF 1
ENDMDL
MODEL 4
REMARK VINA RESULT: -3.586015677      1.268      1.553
REMARK  1 active torsions:
REMARK  status: ('A' for Active; 'I' for Inactive)
REMARK    1  A    between atoms: C2_2  and  N1_3 
ROOT
HETATM    1  N1  UNL     1     -19.740  -7.847   9.637  1.00  0.00    -0.366 N 
HETATM    2  C3  UNL     1     -18.717  -8.125   8.660  1.00  0.00     0.151 C 
HETATM    3  C4  UNL     1     -19.193  -9.515   8.209  1.00  0.00     0.254 C 
HETATM    4  N2  UNL     1     -19.341 -10.121   9.523  1.00  0.00    -0.058 N 
ATOM      5  H21 UNL     1     -18.471 -10.364   9.997  1.00  0.00     0.279 HD
ATOM      6  H22 UNL     1     -19.711 -11.072   9.532  1.00  0.00     0.279 HD
HETATM    7  C5  UNL     1     -20.174  -9.104  10.198  1.00  0.00     0.356 C 
ENDROOT
BRANCH   1   8
HETATM    8  C2  UNL     1     -20.234  -6.578   9.984  1.00  0.00     0.077 C 
HETATM    9  C1  UNL     1     -21.412  -6.464  10.618  1.00  0.00     0.029 C 
ENDBRANCH   1   8
TORSDOF 1
ENDMDL
MODEL 5
REMARK VINA RESULT: -3.527406681      1.192      3.225
REMARK  1 active torsions:
REMARK  status: ('A' for Active; 'I' for Inactive)
REMARK    1  A    between atoms: C2_2  and  N1_3 
ROOT
HETATM    1  N1  UNL     1     -19.980  -8.033   8.677  1.00  0.00    -0.366 N 
HETATM    2  C3  UNL     1     -18.965  -8.147   9.694  1.00  0.00     0.151 C 
HETATM    3  C4  UNL     1     -19.531  -7.140  10.707  1.00  0.00     0.254 C 
HETATM    4  N2  UNL     1     -19.740  -6.024   9.796  1.00  0.00    -0.058 N 
ATOM      5  H21 UNL     1     -18.897  -5.536   9.495  1.00  0.00     0.279 HD
ATOM      6  H22 UNL     1     -20.178  -5.197  10.203  1.00  0.00     0.279 HD
HETATM    7  C5  UNL     1     -20.509  -6.691   8.724  1.00  0.00     0.356 C 
ENDROOT
BRANCH   1   8
HETATM    8  C2  UNL     1     -20.388  -9.047   7.792  1.00  0.00     0.077 C 
HETATM    9  C1  UNL     1     -19.536 -10.026   7.451  1.00  0.00     0.029 C 
ENDBRANCH   1   8
TORSDOF 1
ENDMDL
