MODEL 1
REMARK VINA RESULT: -4.164294273      0.000      0.000
REMARK  1 active torsions:
REMARK  status: ('A' for Active; 'I' for Inactive)
REMARK    1  A    between atoms: C1_4  and  C2_5 
ROOT
HETATM    1  C2  UNL     1     -20.061  -8.059  10.465  1.00  0.00     0.223 C 
HETATM    2  C3  UNL     1     -20.943  -6.855  10.243  1.00  0.00     0.040 C 
HETATM    3  C4  UNL     1     -20.485  -6.409   8.848  1.00  0.00     0.030 C 
HETATM    4  C5  UNL     1     -20.435  -7.808   8.212  1.00  0.00     0.233 C 
HETATM    5  N2  UNL     1     -19.542  -8.452   9.173  1.00  0.00    -0.066 N 
ATOM      6  H21 UNL     1     -19.453  -9.461   9.049  1.00  0.00     0.278 HD
ATOM      7  H22 UNL     1     -18.555  -8.234   9.036  1.00  0.00     0.278 HD
ENDROOT
BRANCH   1   8
HETATM    8  C1  UNL     1     -18.898  -7.695  11.323  1.00  0.00     0.085 C 
HETATM    9  N1  UNL     1     -17.798  -8.321  11.337  1.00  0.00    -0.409 N 
ATOM     10  H12 UNL     1     -17.718  -9.124  10.714  1.00  0.00     0.155 HD
ATOM     11  H11 UNL     1     -17.002  -8.072  11.924  1.00  0.00     0.155 HD
ENDBRANCH   1   8
TORSDOF 1
ENDMDL
MODEL 2
REMARK VINA RESULT: -3.949041463      1.333      2.846
REMARK  1 active torsions:
REMARK  status: ('A' for Active; 'I' for Inactive)
REMARK    1  A    between atoms: C1_4  and  C2_5 
ROOT
HETATM    1  C2  UNL     1     -19.027  -7.971   9.023  1.00  0.00     0.223 C 
HETATM    2  C3  UNL     1     -20.128  -6.955   9.203  1.00  0.00     0.040 C 
HETATM    3  C4  UNL     1     -20.547  -7.231  10.653  1.00  0.00     0.030 C 
HETATM    4  C5  UNL     1     -19.130  -7.360  11.235  1.00  0.00     0.233 C 
HETATM    5  N2  UNL     1     -18.623  -8.402  10.344  1.00  0.00    -0.066 N 
ATOM      6  H21 UNL     1     -17.623  -8.580  10.437  1.00  0.00     0.278 HD
ATOM      7  H22 UNL     1     -18.929  -9.344  10.588  1.00  0.00     0.278 HD
ENDROOT
BRANCH   1   8
HETATM    8  C1  UNL     1     -19.543  -9.168   8.300  1.00  0.00     0.085 C 
HETATM    9  N1  UNL     1     -20.522  -9.151   7.498  1.00  0.00    -0.409 N 
ATOM     10  H12 UNL     1     -20.978  -8.251   7.349  1.00  0.00     0.155 HD
ATOM     11  H11 UNL     1     -20.875  -9.970   7.004  1.00  0.00     0.155 HD
ENDBRANCH   1   8
TORSDOF 1
ENDMDL
MODEL 3
REMARK VINA RESULT: -3.927207611      1.321      2.612
REMARK  1 active torsions:
REMARK  status: ('A' for Active; 'I' for Inactive)
REMARK    1  A    between atoms: C1_4  and  C2_5 
ROOT
HETATM    1  C2  UNL     1     -19.021  -7.981   9.385  1.00  0.00     0.223 C 
HETATM    2  C3  UNL     1     -20.179  -7.068   9.705  1.00  0.00     0.040 C 
HETATM    3  C4  UNL     1     -20.382  -7.362  11.197  1.00  0.00     0.030 C 
HETATM    4  C5  UNL     1     -18.896  -7.354  11.592  1.00  0.00     0.233 C 
HETATM    5  N2  UNL     1     -18.413  -8.356  10.644  1.00  0.00    -0.066 N 
ATOM      6  H21 UNL     1     -17.397  -8.440  10.607  1.00  0.00     0.278 HD
ATOM      7  H22 UNL     1     -18.596  -9.319  10.926  1.00  0.00     0.278 HD
ENDROOT
BRANCH   1   8
HETATM    8  C1  UNL     1     -19.512  -9.230   8.736  1.00  0.00     0.085 C 
HETATM    9  N1  UNL     1     -19.464 -10.377   9.268  1.00  0.00    -0.409 N 
ATOM     10  H12 UNL     1     -19.060 -10.434  10.202  1.00  0.00     0.155 HD
ATOM     11  H11 UNL     1     -19.800 -11.231   8.823  1.00  0.00     0.155 HD
ENDBRANCH   1   8
TORSDOF 1
ENDMDL
MODEL 4
REMARK VINA RESULT: -3.894486344      1.484      2.087
REMARK  1 active torsions:
REMARK  status: ('A' for Active; 'I' for Inactive)
REMARK    1  A    between atoms: C1_4  and  C2_5 
ROOT
HETATM    1  C2  UNL     1     -19.318  -8.335   9.273  1.00  0.00     0.223 C 
HETATM    2  C3  UNL     1     -20.254  -7.717   8.264  1.00  0.00     0.040 C 
HETATM    3  C4  UNL     1     -20.938  -6.641   9.119  1.00  0.00     0.030 C 
HETATM    4  C5  UNL     1     -19.672  -6.134   9.827  1.00  0.00     0.233 C 
HETATM    5  N2  UNL     1     -19.205  -7.406  10.376  1.00  0.00    -0.066 N 
ATOM      6  H21 UNL     1     -18.275  -7.364  10.793  1.00  0.00     0.278 HD
ATOM      7  H22 UNL     1     -19.695  -7.700  11.221  1.00  0.00     0.278 HD
ENDROOT
BRANCH   1   8
HETATM    8  C1  UNL     1     -19.899  -9.598   9.809  1.00  0.00     0.085 C 
HETATM    9  N1  UNL     1     -19.251 -10.454  10.480  1.00  0.00    -0.409 N 
ATOM     10  H12 UNL     1     -18.268 -10.250  10.657  1.00  0.00     0.155 HD
ATOM     11  H11 UNL     1     -19.649 -11.318  10.848  1.00  0.00     0.155 HD
ENDBRANCH   1   8
TORSDOF 1
ENDMDL
MODEL 5
REMARK VINA RESULT: -3.811216178      1.474      2.351
REMARK  1 active torsions:
REMARK  status: ('A' for Active; 'I' for Inactive)
REMARK    1  A    between atoms: C1_4  and  C2_5 
ROOT
HETATM    1  C2  UNL     1     -19.173  -7.702   9.929  1.00  0.00     0.223 C 
HETATM    2  C3  UNL     1     -19.768  -6.317   9.915  1.00  0.00     0.040 C 
HETATM    3  C4  UNL     1     -21.213  -6.613  10.339  1.00  0.00     0.030 C 
HETATM    4  C5  UNL     1     -20.876  -7.601  11.467  1.00  0.00     0.233 C 
HETATM    5  N2  UNL     1     -20.066  -8.543  10.697  1.00  0.00    -0.066 N 
ATOM      6  H21 UNL     1     -19.592  -9.246  11.264  1.00  0.00     0.278 HD
ATOM      7  H22 UNL     1     -20.609  -9.198  10.135  1.00  0.00     0.278 HD
ENDROOT
BRANCH   1   8
HETATM    8  C1  UNL     1     -19.117  -8.255   8.546  1.00  0.00     0.085 C 
HETATM    9  N1  UNL     1     -18.643  -9.390   8.249  1.00  0.00    -0.409 N 
ATOM     10  H12 UNL     1     -18.279  -9.951   9.018  1.00  0.00     0.155 HD
ATOM     11  H11 UNL     1     -18.605  -9.768   7.302  1.00  0.00     0.155 HD
ENDBRANCH   1   8
TORSDOF 1
ENDMDL
