MODEL 1
REMARK VINA RESULT: -4.116154925      0.000      0.000
REMARK  3 active torsions:
REMARK  status: ('A' for Active; 'I' for Inactive)
REMARK    1  A    between atoms: C2_2  and  O1_3 
REMARK    2  A    between atoms: O1_3  and  C3_4 
REMARK    3  A    between atoms: C5_6  and  N1_7 
ROOT
HETATM    1  C3  UNL     1     -20.650  -6.941   8.939  1.00  0.00     0.131 C 
HETATM    2  C4  UNL     1     -20.716  -7.789  10.211  1.00  0.00     0.065 C 
HETATM    3  C5  UNL     1     -19.227  -7.446  10.369  1.00  0.00     0.188 C 
HETATM    4  C6  UNL     1     -19.585  -6.124   9.679  1.00  0.00     0.065 C 
ENDROOT
BRANCH   3   5
HETATM    5  N1  UNL     1     -18.808  -7.231  11.718  1.00  0.00    -0.075 N 
ATOM      6  H13 UNL     1     -19.535  -7.531  12.368  1.00  0.00     0.274 HD
ATOM      7  H12 UNL     1     -18.067  -7.885  11.969  1.00  0.00     0.274 HD
ATOM      8  H11 UNL     1     -18.520  -6.274  11.924  1.00  0.00     0.274 HD
ENDBRANCH   3   5
BRANCH   1   9
HETATM    9  O1  UNL     1     -20.044  -7.677   7.904  1.00  0.00    -0.358 OA
BRANCH   9  10
HETATM   10  C2  UNL     1     -20.439  -8.957   7.555  1.00  0.00     0.125 C 
HETATM   11  C1  UNL     1     -19.573  -9.932   7.497  1.00  0.00     0.037 C 
ENDBRANCH   9  10
ENDBRANCH   1   9
TORSDOF 3
ENDMDL
MODEL 2
REMARK VINA RESULT: -3.954390804      2.334      3.362
REMARK  3 active torsions:
REMARK  status: ('A' for Active; 'I' for Inactive)
REMARK    1  A    between atoms: C2_2  and  O1_3 
REMARK    2  A    between atoms: O1_3  and  C3_4 
REMARK    3  A    between atoms: C5_6  and  N1_7 
ROOT
HETATM    1  C3  UNL     1     -20.122  -7.241  10.936  1.00  0.00     0.131 C 
HETATM    2  C4  UNL     1     -18.854  -8.097  10.908  1.00  0.00     0.065 C 
HETATM    3  C5  UNL     1     -19.184  -8.317   9.424  1.00  0.00     0.188 C 
HETATM    4  C6  UNL     1     -19.789  -6.909   9.477  1.00  0.00     0.065 C 
ENDROOT
BRANCH   3   5
HETATM    5  N1  UNL     1     -18.043  -8.359   8.563  1.00  0.00    -0.075 N 
ATOM      6  H13 UNL     1     -18.241  -7.875   7.687  1.00  0.00     0.274 HD
ATOM      7  H12 UNL     1     -17.300  -7.763   8.928  1.00  0.00     0.274 HD
ATOM      8  H11 UNL     1     -17.687  -9.297   8.379  1.00  0.00     0.274 HD
ENDBRANCH   3   5
BRANCH   1   9
HETATM    9  O1  UNL     1     -21.258  -8.071  10.984  1.00  0.00    -0.358 OA
BRANCH   9  10
HETATM   10  C2  UNL     1     -21.767  -8.589  12.162  1.00  0.00     0.125 C 
HETATM   11  C1  UNL     1     -22.916  -9.208  12.178  1.00  0.00     0.037 C 
ENDBRANCH   9  10
ENDBRANCH   1   9
TORSDOF 3
ENDMDL
MODEL 3
REMARK VINA RESULT: -3.844259685      2.322      3.573
REMARK  3 active torsions:
REMARK  status: ('A' for Active; 'I' for Inactive)
REMARK    1  A    between atoms: C2_2  and  O1_3 
REMARK    2  A    between atoms: O1_3  and  C3_4 
REMARK    3  A    between atoms: C5_6  and  N1_7 
ROOT
HETATM    1  C3  UNL     1     -19.157  -8.772   8.465  1.00  0.00     0.131 C 
HETATM    2  C4  UNL     1     -19.576  -9.625   9.664  1.00  0.00     0.065 C 
HETATM    3  C5  UNL     1     -20.501 -10.345   8.672  1.00  0.00     0.188 C 
HETATM    4  C6  UNL     1     -19.423 -10.027   7.628  1.00  0.00     0.065 C 
ENDROOT
BRANCH   3   5
HETATM    5  N1  UNL     1     -20.616 -11.754   8.886  1.00  0.00    -0.075 N 
ATOM      6  H13 UNL     1     -21.228 -11.944   9.680  1.00  0.00     0.274 HD
ATOM      7  H12 UNL     1     -21.161 -12.183   8.138  1.00  0.00     0.274 HD
ATOM      8  H11 UNL     1     -19.726 -12.239   8.999  1.00  0.00     0.274 HD
ENDBRANCH   3   5
BRANCH   1   9
HETATM    9  O1  UNL     1     -20.147  -7.807   8.196  1.00  0.00    -0.358 OA
BRANCH   9  10
HETATM   10  C2  UNL     1     -20.244  -6.611   8.887  1.00  0.00     0.125 C 
HETATM   11  C1  UNL     1     -21.054  -6.491   9.904  1.00  0.00     0.037 C 
ENDBRANCH   9  10
ENDBRANCH   1   9
TORSDOF 3
ENDMDL
MODEL 4
REMARK VINA RESULT: -3.770876777      2.497      3.392
REMARK  3 active torsions:
REMARK  status: ('A' for Active; 'I' for Inactive)
REMARK    1  A    between atoms: C2_2  and  O1_3 
REMARK    2  A    between atoms: O1_3  and  C3_4 
REMARK    3  A    between atoms: C5_6  and  N1_7 
ROOT
HETATM    1  C3  UNL     1     -20.924  -8.026  11.670  1.00  0.00     0.131 C 
HETATM    2  C4  UNL     1     -19.501  -7.562  11.351  1.00  0.00     0.065 C 
HETATM    3  C5  UNL     1     -20.081  -7.121   9.999  1.00  0.00     0.188 C 
HETATM    4  C6  UNL     1     -21.377  -6.867  10.778  1.00  0.00     0.065 C 
ENDROOT
BRANCH   3   5
HETATM    5  N1  UNL     1     -19.534  -5.903   9.489  1.00  0.00    -0.075 N 
ATOM      6  H13 UNL     1     -20.282  -5.255   9.241  1.00  0.00     0.274 HD
ATOM      7  H12 UNL     1     -19.086  -5.374  10.236  1.00  0.00     0.274 HD
ATOM      8  H11 UNL     1     -18.893  -6.023   8.705  1.00  0.00     0.274 HD
ENDBRANCH   3   5
BRANCH   1   9
HETATM    9  O1  UNL     1     -21.184  -9.249  11.024  1.00  0.00    -0.358 OA
BRANCH   9  10
HETATM   10  C2  UNL     1     -22.018 -10.221  11.550  1.00  0.00     0.125 C 
HETATM   11  C1  UNL     1     -23.181  -9.903  12.052  1.00  0.00     0.037 C 
ENDBRANCH   9  10
ENDBRANCH   1   9
TORSDOF 3
ENDMDL
MODEL 5
REMARK VINA RESULT: -3.740417979      2.502      3.437
REMARK  3 active torsions:
REMARK  status: ('A' for Active; 'I' for Inactive)
REMARK    1  A    between atoms: C2_2  and  O1_3 
REMARK    2  A    between atoms: O1_3  and  C3_4 
REMARK    3  A    between atoms: C5_6  and  N1_7 
ROOT
HETATM    1  C3  UNL     1     -20.543  -9.329   9.374  1.00  0.00     0.131 C 
HETATM    2  C4  UNL     1     -20.101 -10.746   9.000  1.00  0.00     0.065 C 
HETATM    3  C5  UNL     1     -19.581 -10.831  10.443  1.00  0.00     0.188 C 
HETATM    4  C6  UNL     1     -20.742  -9.889  10.786  1.00  0.00     0.065 C 
ENDROOT
BRANCH   3   5
HETATM    5  N1  UNL     1     -19.750 -12.109  11.059  1.00  0.00    -0.075 N 
ATOM      6  H13 UNL     1     -20.589 -12.116  11.640  1.00  0.00     0.274 HD
ATOM      7  H12 UNL     1     -20.014 -12.807  10.364  1.00  0.00     0.274 HD
ATOM      8  H11 UNL     1     -18.944 -12.430  11.596  1.00  0.00     0.274 HD
ENDBRANCH   3   5
BRANCH   1   9
HETATM    9  O1  UNL     1     -19.433  -8.463   9.362  1.00  0.00    -0.358 OA
BRANCH   9  10
HETATM   10  C2  UNL     1     -19.547  -7.091   9.224  1.00  0.00     0.125 C 
HETATM   11  C1  UNL     1     -20.662  -6.550   8.815  1.00  0.00     0.037 C 
ENDBRANCH   9  10
ENDBRANCH   1   9
TORSDOF 3
ENDMDL
