MODEL 1
REMARK VINA RESULT: -4.962905283      0.000      0.000
REMARK  2 active torsions:
REMARK  status: ('A' for Active; 'I' for Inactive)
REMARK    1  A    between atoms: O1_3  and  N1_4 
REMARK    2  A    between atoms: N1_4  and  C3_5 
ROOT
HETATM    1  C1  UNL     1     -19.106  -9.827   7.776  1.00  0.00     0.046 C 
HETATM    2  C2  UNL     1     -18.713  -8.728   8.109  1.00  0.00     0.068 C 
HETATM    3  O1  UNL     1     -18.260  -7.494   8.468  1.00  0.00    -0.193 OA
ENDROOT
BRANCH   3   4
HETATM    4  N1  UNL     1     -18.973  -6.631   9.230  1.00  0.00    -0.079 NA
BRANCH   4   5
HETATM    5  C3  UNL     1     -20.020  -7.349   9.891  1.00  0.00     0.108 C 
HETATM    6  C4  UNL     1     -19.822  -7.547  11.391  1.00  0.00     0.024 C 
HETATM    7  C5  UNL     1     -21.350  -7.426  11.500  1.00  0.00     0.003 C 
HETATM    8  C6  UNL     1     -21.238  -6.509  10.274  1.00  0.00     0.024 C 
ENDBRANCH   4   5
ENDBRANCH   3   4
TORSDOF 2
ENDMDL
MODEL 2
REMARK VINA RESULT: -4.852359303      1.002      1.522
REMARK  2 active torsions:
REMARK  status: ('A' for Active; 'I' for Inactive)
REMARK    1  A    between atoms: O1_3  and  N1_4 
REMARK    2  A    between atoms: N1_4  and  C3_5 
ROOT
HETATM    1  C1  UNL     1     -19.873 -10.552   8.254  1.00  0.00     0.046 C 
HETATM    2  C2  UNL     1     -19.638  -9.377   8.065  1.00  0.00     0.068 C 
HETATM    3  O1  UNL     1     -19.389  -8.056   7.842  1.00  0.00    -0.193 OA
ENDROOT
BRANCH   3   4
HETATM    4  N1  UNL     1     -18.661  -7.281   8.681  1.00  0.00    -0.079 NA
BRANCH   4   5
HETATM    5  C3  UNL     1     -19.554  -6.515   9.498  1.00  0.00     0.108 C 
HETATM    6  C4  UNL     1     -21.008  -6.508   9.037  1.00  0.00     0.024 C 
HETATM    7  C5  UNL     1     -21.369  -6.450  10.529  1.00  0.00     0.003 C 
HETATM    8  C6  UNL     1     -20.067  -7.235  10.744  1.00  0.00     0.024 C 
ENDBRANCH   4   5
ENDBRANCH   3   4
TORSDOF 2
ENDMDL
MODEL 3
REMARK VINA RESULT: -4.831238999      1.055      1.261
REMARK  2 active torsions:
REMARK  status: ('A' for Active; 'I' for Inactive)
REMARK    1  A    between atoms: O1_3  and  N1_4 
REMARK    2  A    between atoms: N1_4  and  C3_5 
ROOT
HETATM    1  C1  UNL     1     -19.991 -10.724   8.157  1.00  0.00     0.046 C 
HETATM    2  C2  UNL     1     -19.253  -9.772   8.017  1.00  0.00     0.068 C 
HETATM    3  O1  UNL     1     -18.419  -8.708   7.843  1.00  0.00    -0.193 OA
ENDROOT
BRANCH   3   4
HETATM    4  N1  UNL     1     -18.497  -7.572   8.576  1.00  0.00    -0.079 NA
BRANCH   4   5
HETATM    5  C3  UNL     1     -19.743  -7.558   9.281  1.00  0.00     0.108 C 
HETATM    6  C4  UNL     1     -19.709  -6.872  10.643  1.00  0.00     0.024 C 
HETATM    7  C5  UNL     1     -21.149  -6.431  10.337  1.00  0.00     0.003 C 
HETATM    8  C6  UNL     1     -20.707  -6.447   8.867  1.00  0.00     0.024 C 
ENDBRANCH   4   5
ENDBRANCH   3   4
TORSDOF 2
ENDMDL
MODEL 4
REMARK VINA RESULT: -4.821045945      1.239      3.468
REMARK  2 active torsions:
REMARK  status: ('A' for Active; 'I' for Inactive)
REMARK    1  A    between atoms: O1_3  and  N1_4 
REMARK    2  A    between atoms: N1_4  and  C3_5 
ROOT
HETATM    1  C1  UNL     1     -21.098  -6.314  10.332  1.00  0.00     0.046 C 
HETATM    2  C2  UNL     1     -20.083  -6.436   9.680  1.00  0.00     0.068 C 
HETATM    3  O1  UNL     1     -18.936  -6.556   8.953  1.00  0.00    -0.193 OA
ENDROOT
BRANCH   3   4
HETATM    4  N1  UNL     1     -18.438  -7.744   8.536  1.00  0.00    -0.079 NA
BRANCH   4   5
HETATM    5  C3  UNL     1     -19.509  -8.691   8.446  1.00  0.00     0.108 C 
HETATM    6  C4  UNL     1     -19.262  -9.859   7.497  1.00  0.00     0.024 C 
HETATM    7  C5  UNL     1     -20.084 -10.698   8.487  1.00  0.00     0.003 C 
HETATM    8  C6  UNL     1     -19.538  -9.741   9.556  1.00  0.00     0.024 C 
ENDBRANCH   4   5
ENDBRANCH   3   4
TORSDOF 2
ENDMDL
MODEL 5
REMARK VINA RESULT: -4.505478493      1.182      3.597
REMARK  2 active torsions:
REMARK  status: ('A' for Active; 'I' for Inactive)
REMARK    1  A    between atoms: O1_3  and  N1_4 
REMARK    2  A    between atoms: N1_4  and  C3_5 
ROOT
HETATM    1  C1  UNL     1     -21.418  -6.496  10.719  1.00  0.00     0.046 C 
HETATM    2  C2  UNL     1     -20.335  -6.435  10.177  1.00  0.00     0.068 C 
HETATM    3  O1  UNL     1     -19.111  -6.358   9.582  1.00  0.00    -0.193 OA
ENDROOT
BRANCH   3   4
HETATM    4  N1  UNL     1     -18.711  -7.185   8.587  1.00  0.00    -0.079 NA
BRANCH   4   5
HETATM    5  C3  UNL     1     -19.442  -8.413   8.682  1.00  0.00     0.108 C 
HETATM    6  C4  UNL     1     -20.557  -8.583   7.656  1.00  0.00     0.024 C 
HETATM    7  C5  UNL     1     -20.209 -10.079   7.683  1.00  0.00     0.003 C 
HETATM    8  C6  UNL     1     -18.781  -9.611   8.001  1.00  0.00     0.024 C 
ENDBRANCH   4   5
ENDBRANCH   3   4
TORSDOF 2
ENDMDL
