MODEL 1
REMARK VINA RESULT: -3.801627338      0.000      0.000
REMARK  1 active torsions:
REMARK  status: ('A' for Active; 'I' for Inactive)
REMARK    1  A    between atoms: N1_1  and  C1_4 
ROOT
HETATM    1  C1  UNL     1      27.500  50.047  50.893  1.00  0.00     0.691 A 
HETATM    2  N2  UNL     1      26.432  49.230  50.864  1.00  0.00    -0.186 N 
ATOM      3  H2  UNL     1      25.453  49.515  50.865  1.00  0.00     0.185 HD
HETATM    4  C2  UNL     1      26.891  47.972  50.832  1.00  0.00     0.215 A 
HETATM    5  N3  UNL     1      28.221  48.030  50.843  1.00  0.00    -0.281 N 
ATOM      6  H3  UNL     1      28.850  47.227  50.826  1.00  0.00     0.188 HD
HETATM    7  N4  UNL     1      28.590  49.279  50.880  1.00  0.00    -0.132 N 
ATOM      8  H4  UNL     1      29.554  49.615  50.895  1.00  0.00     0.205 HD
ENDROOT
BRANCH   1   9
HETATM    9  N1  UNL     1      27.436  51.354  50.930  1.00  0.00    -0.233 N 
ATOM     10  H12 UNL     1      27.172  51.947  51.716  1.00  0.00     0.174 HD
ATOM     11  H11 UNL     1      27.649  51.966  50.142  1.00  0.00     0.174 HD
ENDBRANCH   1   9
TORSDOF 1
ENDMDL
MODEL 2
REMARK VINA RESULT: -3.754542003      0.740      1.466
REMARK  1 active torsions:
REMARK  status: ('A' for Active; 'I' for Inactive)
REMARK    1  A    between atoms: N1_1  and  C1_4 
ROOT
HETATM    1  C1  UNL     1      27.450  50.057  50.886  1.00  0.00     0.691 A 
HETATM    2  N2  UNL     1      28.552  49.288  50.855  1.00  0.00    -0.186 N 
ATOM      3  H2  UNL     1      29.518  49.615  50.871  1.00  0.00     0.185 HD
HETATM    4  C2  UNL     1      28.149  48.012  50.801  1.00  0.00     0.215 A 
HETATM    5  N3  UNL     1      26.818  48.012  50.798  1.00  0.00    -0.281 N 
ATOM      6  H3  UNL     1      26.225  47.183  50.762  1.00  0.00     0.188 HD
HETATM    7  N4  UNL     1      26.394  49.243  50.850  1.00  0.00    -0.132 N 
ATOM      8  H4  UNL     1      25.417  49.536  50.861  1.00  0.00     0.205 HD
ENDROOT
BRANCH   1   9
HETATM    9  N1  UNL     1      27.457  51.365  50.941  1.00  0.00    -0.233 N 
ATOM     10  H12 UNL     1      27.806  51.959  51.692  1.00  0.00     0.174 HD
ATOM     11  H11 UNL     1      27.099  51.977  50.208  1.00  0.00     0.174 HD
ENDBRANCH   1   9
TORSDOF 1
ENDMDL
MODEL 3
REMARK VINA RESULT: -3.621483883      1.270      1.726
REMARK  1 active torsions:
REMARK  status: ('A' for Active; 'I' for Inactive)
REMARK    1  A    between atoms: N1_1  and  C1_4 
ROOT
HETATM    1  C1  UNL     1      27.738  48.599  50.629  1.00  0.00     0.691 A 
HETATM    2  N2  UNL     1      26.421  48.754  50.849  1.00  0.00    -0.186 N 
ATOM      3  H2  UNL     1      25.969  49.571  51.260  1.00  0.00     0.185 HD
HETATM    4  C2  UNL     1      25.810  47.638  50.430  1.00  0.00     0.215 A 
HETATM    5  N3  UNL     1      26.750  46.819  49.963  1.00  0.00    -0.281 N 
ATOM      6  H3  UNL     1      26.587  45.889  49.575  1.00  0.00     0.188 HD
HETATM    7  N4  UNL     1      27.913  47.395  50.081  1.00  0.00    -0.132 N 
ATOM      8  H4  UNL     1      28.808  46.993  49.801  1.00  0.00     0.205 HD
ENDROOT
BRANCH   1   9
HETATM    9  N1  UNL     1      28.651  49.492  50.916  1.00  0.00    -0.233 N 
ATOM     10  H12 UNL     1      28.833  50.377  50.443  1.00  0.00     0.174 HD
ATOM     11  H11 UNL     1      29.322  49.411  51.681  1.00  0.00     0.174 HD
ENDBRANCH   1   9
TORSDOF 1
ENDMDL
MODEL 4
REMARK VINA RESULT: -3.596855930      1.628      2.577
REMARK  1 active torsions:
REMARK  status: ('A' for Active; 'I' for Inactive)
REMARK    1  A    between atoms: N1_1  and  C1_4 
ROOT
HETATM    1  C1  UNL     1      25.874  47.943  50.367  1.00  0.00     0.691 A 
HETATM    2  N2  UNL     1      26.683  48.876  50.901  1.00  0.00    -0.186 N 
ATOM      3  H2  UNL     1      26.390  49.747  51.343  1.00  0.00     0.185 HD
HETATM    4  C2  UNL     1      27.943  48.452  50.744  1.00  0.00     0.215 A 
HETATM    5  N3  UNL     1      27.895  47.275  50.123  1.00  0.00    -0.281 N 
ATOM      6  H3  UNL     1      28.703  46.707  49.866  1.00  0.00     0.188 HD
HETATM    7  N4  UNL     1      26.650  46.966  49.895  1.00  0.00    -0.132 N 
ATOM      8  H4  UNL     1      26.322  46.118  49.432  1.00  0.00     0.205 HD
ENDROOT
BRANCH   1   9
HETATM    9  N1  UNL     1      24.568  48.020  50.338  1.00  0.00    -0.233 N 
ATOM     10  H12 UNL     1      23.894  47.418  50.809  1.00  0.00     0.174 HD
ATOM     11  H11 UNL     1      24.040  48.720  49.816  1.00  0.00     0.174 HD
ENDBRANCH   1   9
TORSDOF 1
ENDMDL
MODEL 5
REMARK VINA RESULT: -3.555333515      1.206      1.990
REMARK  1 active torsions:
REMARK  status: ('A' for Active; 'I' for Inactive)
REMARK    1  A    between atoms: N1_1  and  C1_4 
ROOT
HETATM    1  C1  UNL     1      27.704  48.859  50.719  1.00  0.00     0.691 A 
HETATM    2  N2  UNL     1      27.645  47.562  50.371  1.00  0.00    -0.186 N 
ATOM      3  H2  UNL     1      28.439  46.945  50.203  1.00  0.00     0.185 HD
HETATM    4  C2  UNL     1      26.351  47.229  50.284  1.00  0.00     0.215 A 
HETATM    5  N3  UNL     1      25.637  48.314  50.577  1.00  0.00    -0.281 N 
ATOM      6  H3  UNL     1      24.618  48.367  50.593  1.00  0.00     0.188 HD
HETATM    7  N4  UNL     1      26.450  49.298  50.840  1.00  0.00    -0.132 N 
ATOM      8  H4  UNL     1      26.174  50.246  51.096  1.00  0.00     0.205 HD
ENDROOT
BRANCH   1   9
HETATM    9  N1  UNL     1      28.813  49.532  50.897  1.00  0.00    -0.233 N 
ATOM     10  H12 UNL     1      29.533  49.378  51.602  1.00  0.00     0.174 HD
ATOM     11  H11 UNL     1      29.105  50.327  50.330  1.00  0.00     0.174 HD
ENDBRANCH   1   9
TORSDOF 1
ENDMDL
