MODEL 1
REMARK VINA RESULT: -4.185289733      0.000      0.000
REMARK  1 active torsions:
REMARK  status: ('A' for Active; 'I' for Inactive)
REMARK    1  A    between atoms: N2_4  and  C1_6 
ROOT
HETATM    1  C1  UNL     1      27.344  49.647  50.918  1.00  0.00     0.099 A 
HETATM    2  N3  UNL     1      26.376  48.839  50.869  1.00  0.00    -0.358 N 
ATOM      3  H3  UNL     1      25.384  48.979  50.673  1.00  0.00     0.166 HD
HETATM    4  C2  UNL     1      27.108  47.692  51.171  1.00  0.00     0.070 A 
HETATM    5  C3  UNL     1      28.280  48.598  51.242  1.00  0.00     0.122 A 
ENDROOT
BRANCH   1   6
HETATM    6  N2  UNL     1      27.387  51.097  50.707  1.00  0.00    -0.295 N 
HETATM    7  N1  UNL     1      28.235  51.759  51.385  1.00  0.00    -0.344 N 
ATOM      8  H12 UNL     1      28.853  51.285  52.045  1.00  0.00     0.176 HD
ATOM      9  H11 UNL     1      28.265  52.768  51.239  1.00  0.00     0.176 HD
ATOM     10  H2  UNL     1      26.763  51.556  50.045  1.00  0.00     0.187 HD
ENDBRANCH   1   6
TORSDOF 1
ENDMDL
MODEL 2
REMARK VINA RESULT: -4.072139790      1.027      1.163
REMARK  1 active torsions:
REMARK  status: ('A' for Active; 'I' for Inactive)
REMARK    1  A    between atoms: N2_4  and  C1_6 
ROOT
HETATM    1  C1  UNL     1      27.486  49.576  50.945  1.00  0.00     0.099 A 
HETATM    2  N3  UNL     1      28.502  48.875  51.212  1.00  0.00    -0.358 N 
ATOM      3  H3  UNL     1      29.483  49.124  51.341  1.00  0.00     0.166 HD
HETATM    4  C2  UNL     1      27.842  47.649  51.271  1.00  0.00     0.070 A 
HETATM    5  C3  UNL     1      26.616  48.425  50.958  1.00  0.00     0.122 A 
ENDROOT
BRANCH   1   6
HETATM    6  N2  UNL     1      27.355  51.018  50.723  1.00  0.00    -0.295 N 
HETATM    7  N1  UNL     1      28.166  51.779  51.340  1.00  0.00    -0.344 N 
ATOM      8  H12 UNL     1      28.873  51.385  51.961  1.00  0.00     0.176 HD
ATOM      9  H11 UNL     1      28.074  52.783  51.186  1.00  0.00     0.176 HD
ATOM     10  H2  UNL     1      26.642  51.397  50.100  1.00  0.00     0.187 HD
ENDBRANCH   1   6
TORSDOF 1
ENDMDL
MODEL 3
REMARK VINA RESULT: -3.973187692      1.132      1.309
REMARK  1 active torsions:
REMARK  status: ('A' for Active; 'I' for Inactive)
REMARK    1  A    between atoms: N2_4  and  C1_6 
ROOT
HETATM    1  C1  UNL     1      28.304  49.066  51.331  1.00  0.00     0.099 A 
HETATM    2  N3  UNL     1      27.966  48.258  50.421  1.00  0.00    -0.358 N 
ATOM      3  H3  UNL     1      27.698  48.405  49.448  1.00  0.00     0.166 HD
HETATM    4  C2  UNL     1      28.080  47.098  51.186  1.00  0.00     0.070 A 
HETATM    5  C3  UNL     1      28.483  48.003  52.290  1.00  0.00     0.122 A 
ENDROOT
BRANCH   1   6
HETATM    6  N2  UNL     1      28.432  50.525  51.309  1.00  0.00    -0.295 N 
HETATM    7  N1  UNL     1      27.440  51.191  50.873  1.00  0.00    -0.344 N 
ATOM      8  H12 UNL     1      26.597  50.713  50.554  1.00  0.00     0.176 HD
ATOM      9  H11 UNL     1      27.530  52.207  50.857  1.00  0.00     0.176 HD
ATOM     10  H2  UNL     1      29.281  50.989  51.631  1.00  0.00     0.187 HD
ENDBRANCH   1   6
TORSDOF 1
ENDMDL
MODEL 4
REMARK VINA RESULT: -3.799002242      1.376      1.745
REMARK  1 active torsions:
REMARK  status: ('A' for Active; 'I' for Inactive)
REMARK    1  A    between atoms: N2_4  and  C1_6 
ROOT
HETATM    1  C1  UNL     1      27.613  48.278  50.787  1.00  0.00     0.099 A 
HETATM    2  N3  UNL     1      27.828  47.289  50.033  1.00  0.00    -0.358 N 
ATOM      3  H3  UNL     1      28.456  47.165  49.239  1.00  0.00     0.166 HD
HETATM    4  C2  UNL     1      26.926  46.420  50.645  1.00  0.00     0.070 A 
HETATM    5  C3  UNL     1      26.633  47.552  51.559  1.00  0.00     0.122 A 
ENDROOT
BRANCH   1   6
HETATM    6  N2  UNL     1      28.197  49.622  50.787  1.00  0.00    -0.295 N 
HETATM    7  N1  UNL     1      27.394  50.607  50.763  1.00  0.00    -0.344 N 
ATOM      8  H12 UNL     1      26.385  50.451  50.745  1.00  0.00     0.176 HD
ATOM      9  H11 UNL     1      27.801  51.542  50.763  1.00  0.00     0.176 HD
ATOM     10  H2  UNL     1      29.207  49.762  50.805  1.00  0.00     0.187 HD
ENDBRANCH   1   6
TORSDOF 1
ENDMDL
MODEL 5
REMARK VINA RESULT: -3.585643632      2.363      2.969
REMARK  1 active torsions:
REMARK  status: ('A' for Active; 'I' for Inactive)
REMARK    1  A    between atoms: N2_4  and  C1_6 
ROOT
HETATM    1  C1  UNL     1      26.857  47.608  50.876  1.00  0.00     0.099 A 
HETATM    2  N3  UNL     1      27.487  46.873  50.067  1.00  0.00    -0.358 N 
ATOM      3  H3  UNL     1      27.425  46.770  49.054  1.00  0.00     0.166 HD
HETATM    4  C2  UNL     1      28.297  46.247  51.013  1.00  0.00     0.070 A 
HETATM    5  C3  UNL     1      27.586  47.088  52.008  1.00  0.00     0.122 A 
ENDROOT
BRANCH   1   6
HETATM    6  N2  UNL     1      25.796  48.591  50.643  1.00  0.00    -0.295 N 
HETATM    7  N1  UNL     1      24.665  48.149  50.264  1.00  0.00    -0.344 N 
ATOM      8  H12 UNL     1      24.520  47.147  50.132  1.00  0.00     0.176 HD
ATOM      9  H11 UNL     1      23.926  48.833  50.102  1.00  0.00     0.176 HD
ATOM     10  H2  UNL     1      25.956  49.589  50.780  1.00  0.00     0.187 HD
ENDBRANCH   1   6
TORSDOF 1
ENDMDL
