MODEL 1
REMARK VINA RESULT: -4.135853112      0.000      0.000
REMARK  1 active torsions:
REMARK  status: ('A' for Active; 'I' for Inactive)
REMARK    1  A    between atoms: N1_1  and  C1_4 
ROOT
HETATM    1  C1  UNL     1      27.343  49.691  50.932  1.00  0.00     0.114 A 
HETATM    2  C2  UNL     1      28.482  49.062  51.393  1.00  0.00     0.135 A 
HETATM    3  N2  UNL     1      28.497  47.756  51.744  1.00  0.00    -0.371 N 
ATOM      4  H2  UNL     1      29.361  47.331  52.080  1.00  0.00     0.164 HD
HETATM    5  C3  UNL     1      27.378  47.014  51.653  1.00  0.00     0.104 A 
HETATM    6  C4  UNL     1      26.236  47.642  51.193  1.00  0.00     0.106 A 
HETATM    7  N3  UNL     1      26.234  48.944  50.845  1.00  0.00    -0.350 N 
ATOM      8  H3  UNL     1      25.370  49.371  50.508  1.00  0.00     0.166 HD
ENDROOT
BRANCH   1   9
HETATM    9  N1  UNL     1      27.331  50.947  50.595  1.00  0.00    -0.384 N 
ATOM     10  H12 UNL     1      27.518  51.677  51.283  1.00  0.00     0.157 HD
ATOM     11  H11 UNL     1      27.138  51.253  49.641  1.00  0.00     0.157 HD
ENDBRANCH   1   9
TORSDOF 1
ENDMDL
MODEL 2
REMARK VINA RESULT: -3.851191820      1.079      2.312
REMARK  1 active torsions:
REMARK  status: ('A' for Active; 'I' for Inactive)
REMARK    1  A    between atoms: N1_1  and  C1_4 
ROOT
HETATM    1  C1  UNL     1      25.909  48.117  50.907  1.00  0.00     0.114 A 
HETATM    2  C2  UNL     1      26.353  47.051  51.664  1.00  0.00     0.135 A 
HETATM    3  N2  UNL     1      27.589  47.017  52.211  1.00  0.00    -0.371 N 
ATOM      4  H2  UNL     1      27.877  46.210  52.764  1.00  0.00     0.164 HD
HETATM    5  C3  UNL     1      28.442  48.042  52.030  1.00  0.00     0.104 A 
HETATM    6  C4  UNL     1      28.000  49.109  51.272  1.00  0.00     0.106 A 
HETATM    7  N3  UNL     1      26.765  49.132  50.732  1.00  0.00    -0.350 N 
ATOM      8  H3  UNL     1      26.475  49.940  50.180  1.00  0.00     0.166 HD
ENDROOT
BRANCH   1   9
HETATM    9  N1  UNL     1      24.719  48.148  50.383  1.00  0.00    -0.384 N 
ATOM     10  H12 UNL     1      23.895  47.916  50.939  1.00  0.00     0.157 HD
ATOM     11  H11 UNL     1      24.560  48.401  49.408  1.00  0.00     0.157 HD
ENDBRANCH   1   9
TORSDOF 1
ENDMDL
MODEL 3
REMARK VINA RESULT: -3.763936894      1.088      1.811
REMARK  1 active torsions:
REMARK  status: ('A' for Active; 'I' for Inactive)
REMARK    1  A    between atoms: N1_1  and  C1_4 
ROOT
HETATM    1  C1  UNL     1      27.392  49.268  51.046  1.00  0.00     0.114 A 
HETATM    2  C2  UNL     1      26.363  48.356  50.922  1.00  0.00     0.135 A 
HETATM    3  N2  UNL     1      26.468  47.081  51.360  1.00  0.00    -0.371 N 
ATOM      4  H2  UNL     1      25.682  46.439  51.248  1.00  0.00     0.164 HD
HETATM    5  C3  UNL     1      27.603  46.653  51.943  1.00  0.00     0.104 A 
HETATM    6  C4  UNL     1      28.634  47.564  52.068  1.00  0.00     0.106 A 
HETATM    7  N3  UNL     1      28.517  48.833  51.627  1.00  0.00    -0.350 N 
ATOM      8  H3  UNL     1      29.302  49.475  51.739  1.00  0.00     0.166 HD
ENDROOT
BRANCH   1   9
HETATM    9  N1  UNL     1      27.287  50.494  50.625  1.00  0.00    -0.384 N 
ATOM     10  H12 UNL     1      26.434  50.822  50.171  1.00  0.00     0.157 HD
ATOM     11  H11 UNL     1      28.043  51.171  50.728  1.00  0.00     0.157 HD
ENDBRANCH   1   9
TORSDOF 1
ENDMDL
MODEL 4
REMARK VINA RESULT: -3.743709346      1.489      2.172
REMARK  1 active torsions:
REMARK  status: ('A' for Active; 'I' for Inactive)
REMARK    1  A    between atoms: N1_1  and  C1_4 
ROOT
HETATM    1  C1  UNL     1      27.564  48.443  51.074  1.00  0.00     0.114 A 
HETATM    2  C2  UNL     1      27.357  47.341  50.269  1.00  0.00     0.135 A 
HETATM    3  N2  UNL     1      27.984  46.162  50.481  1.00  0.00    -0.371 N 
ATOM      4  H2  UNL     1      27.802  45.372  49.862  1.00  0.00     0.164 HD
HETATM    5  C3  UNL     1      28.848  46.024  51.503  1.00  0.00     0.104 A 
HETATM    6  C4  UNL     1      29.058  47.126  52.309  1.00  0.00     0.106 A 
HETATM    7  N3  UNL     1      28.426  48.297  52.089  1.00  0.00    -0.350 N 
ATOM      8  H3  UNL     1      28.607  49.087  52.708  1.00  0.00     0.166 HD
ENDROOT
BRANCH   1   9
HETATM    9  N1  UNL     1      26.959  49.576  50.869  1.00  0.00    -0.384 N 
ATOM     10  H12 UNL     1      27.185  50.152  50.057  1.00  0.00     0.157 HD
ATOM     11  H11 UNL     1      26.243  49.933  51.502  1.00  0.00     0.157 HD
ENDBRANCH   1   9
TORSDOF 1
ENDMDL
MODEL 5
REMARK VINA RESULT: -3.702425103      1.357      2.087
REMARK  1 active torsions:
REMARK  status: ('A' for Active; 'I' for Inactive)
REMARK    1  A    between atoms: N1_1  and  C1_4 
ROOT
HETATM    1  C1  UNL     1      26.167  48.129  50.987  1.00  0.00     0.114 A 
HETATM    2  C2  UNL     1      27.186  49.051  50.862  1.00  0.00     0.135 A 
HETATM    3  N2  UNL     1      28.374  48.906  51.491  1.00  0.00    -0.371 N 
ATOM      4  H2  UNL     1      29.101  49.612  51.371  1.00  0.00     0.164 HD
HETATM    5  C3  UNL     1      28.604  47.836  52.274  1.00  0.00     0.104 A 
HETATM    6  C4  UNL     1      27.585  46.912  52.401  1.00  0.00     0.106 A 
HETATM    7  N3  UNL     1      26.404  47.067  51.768  1.00  0.00    -0.350 N 
ATOM      8  H3  UNL     1      25.677  46.361  51.886  1.00  0.00     0.166 HD
ENDROOT
BRANCH   1   9
HETATM    9  N1  UNL     1      25.025  48.270  50.380  1.00  0.00    -0.384 N 
ATOM     10  H12 UNL     1      24.504  49.145  50.440  1.00  0.00     0.157 HD
ATOM     11  H11 UNL     1      24.606  47.523  49.826  1.00  0.00     0.157 HD
ENDBRANCH   1   9
TORSDOF 1
ENDMDL
