MODEL 1
REMARK VINA RESULT: -3.910978319      0.000      0.000
REMARK  1 active torsions:
REMARK  status: ('A' for Active; 'I' for Inactive)
REMARK    1  A    between atoms: N2_3  and  C2_5 
ROOT
HETATM    1  N1  UNL     1      29.180  49.098  51.045  1.00  0.00    -0.172 NA
HETATM    2  C1  UNL     1      28.017  49.006  50.993  1.00  0.00     0.177 C 
HETATM    3  N2  UNL     1      26.624  48.895  50.925  1.00  0.00    -0.324 N 
ATOM      4  H2  UNL     1      26.051  49.710  51.144  1.00  0.00     0.172 HD
ENDROOT
BRANCH   3   5
HETATM    5  C2  UNL     1      25.966  47.648  50.551  1.00  0.00     0.092 A 
HETATM    6  C3  UNL     1      24.875  47.116  51.430  1.00  0.00     0.028 A 
HETATM    7  C4  UNL     1      24.585  47.656  50.022  1.00  0.00     0.028 A 
ENDBRANCH   3   5
TORSDOF 1
ENDMDL
MODEL 2
REMARK VINA RESULT: -3.651800352      3.924      4.886
REMARK  1 active torsions:
REMARK  status: ('A' for Active; 'I' for Inactive)
REMARK    1  A    between atoms: N2_3  and  C2_5 
ROOT
HETATM    1  N1  UNL     1      24.808  42.595  49.020  1.00  0.00    -0.172 NA
HETATM    2  C1  UNL     1      24.848  43.488  49.773  1.00  0.00     0.177 C 
HETATM    3  N2  UNL     1      24.900  44.561  50.669  1.00  0.00    -0.324 N 
ATOM      4  H2  UNL     1      25.610  44.562  51.400  1.00  0.00     0.172 HD
ENDROOT
BRANCH   3   5
HETATM    5  C2  UNL     1      23.966  45.679  50.588  1.00  0.00     0.092 A 
HETATM    6  C3  UNL     1      23.201  46.070  51.816  1.00  0.00     0.028 A 
HETATM    7  C4  UNL     1      24.290  46.976  51.221  1.00  0.00     0.028 A 
ENDBRANCH   3   5
TORSDOF 1
ENDMDL
MODEL 3
REMARK VINA RESULT: -3.619608571      1.140      1.140
REMARK  1 active torsions:
REMARK  status: ('A' for Active; 'I' for Inactive)
REMARK    1  A    between atoms: N2_3  and  C2_5 
ROOT
HETATM    1  N1  UNL     1      28.906  48.707  51.321  1.00  0.00    -0.172 NA
HETATM    2  C1  UNL     1      28.233  47.989  50.689  1.00  0.00     0.177 C 
HETATM    3  N2  UNL     1      27.430  47.125  49.937  1.00  0.00    -0.324 N 
ATOM      4  H2  UNL     1      27.783  46.769  49.049  1.00  0.00     0.172 HD
ENDROOT
BRANCH   3   5
HETATM    5  C2  UNL     1      26.103  46.718  50.386  1.00  0.00     0.092 A 
HETATM    6  C3  UNL     1      25.510  47.390  51.587  1.00  0.00     0.028 A 
HETATM    7  C4  UNL     1      24.935  47.602  50.178  1.00  0.00     0.028 A 
ENDBRANCH   3   5
TORSDOF 1
ENDMDL
MODEL 4
REMARK VINA RESULT: -3.610241132      2.608      3.263
REMARK  1 active torsions:
REMARK  status: ('A' for Active; 'I' for Inactive)
REMARK    1  A    between atoms: N2_3  and  C2_5 
ROOT
HETATM    1  N1  UNL     1      29.241  49.221  51.107  1.00  0.00    -0.172 NA
HETATM    2  C1  UNL     1      28.405  48.476  51.443  1.00  0.00     0.177 C 
HETATM    3  N2  UNL     1      27.406  47.581  51.840  1.00  0.00    -0.324 N 
ATOM      4  H2  UNL     1      26.428  47.838  51.702  1.00  0.00     0.172 HD
ENDROOT
BRANCH   3   5
HETATM    5  C2  UNL     1      27.721  46.292  52.445  1.00  0.00     0.092 A 
HETATM    6  C3  UNL     1      29.050  45.664  52.154  1.00  0.00     0.028 A 
HETATM    7  C4  UNL     1      28.698  46.198  53.551  1.00  0.00     0.028 A 
ENDBRANCH   3   5
TORSDOF 1
ENDMDL
MODEL 5
REMARK VINA RESULT: -3.595275213      2.880      3.345
REMARK  1 active torsions:
REMARK  status: ('A' for Active; 'I' for Inactive)
REMARK    1  A    between atoms: N2_3  and  C2_5 
ROOT
HETATM    1  N1  UNL     1      30.169  45.402  50.884  1.00  0.00    -0.172 NA
HETATM    2  C1  UNL     1      29.401  45.687  51.718  1.00  0.00     0.177 C 
HETATM    3  N2  UNL     1      28.486  46.032  52.718  1.00  0.00    -0.324 N 
ATOM      4  H2  UNL     1      28.352  45.399  53.506  1.00  0.00     0.172 HD
ENDROOT
BRANCH   3   5
HETATM    5  C2  UNL     1      27.718  47.271  52.667  1.00  0.00     0.092 A 
HETATM    6  C3  UNL     1      27.776  48.106  51.424  1.00  0.00     0.028 A 
HETATM    7  C4  UNL     1      26.496  47.365  51.839  1.00  0.00     0.028 A 
ENDBRANCH   3   5
TORSDOF 1
ENDMDL
