MODEL 1
REMARK VINA RESULT: -3.930876969      0.000      0.000
REMARK  2 active torsions:
REMARK  status: ('A' for Active; 'I' for Inactive)
REMARK    1  A    between atoms: N1_1  and  C1_5 
REMARK    2  A    between atoms: C1_5  and  C2_6 
ROOT
HETATM    1  C2  UNL     1      28.078  48.228  51.644  1.00  0.00     0.001 A 
HETATM    2  C3  UNL     1      26.768  48.023  51.291  1.00  0.00     0.117 A 
HETATM    3  N2  UNL     1      26.344  49.172  50.758  1.00  0.00    -0.312 N 
ATOM      4  H2  UNL     1      25.401  49.323  50.400  1.00  0.00     0.186 HD
HETATM    5  N3  UNL     1      27.289  50.084  50.749  1.00  0.00    -0.312 N 
ATOM      6  H3  UNL     1      27.211  51.037  50.395  1.00  0.00     0.186 HD
HETATM    7  C4  UNL     1      28.369  49.526  51.292  1.00  0.00     0.117 A 
ENDROOT
BRANCH   1   8
HETATM    8  C1  UNL     1      28.998  47.231  52.286  1.00  0.00     0.271 C 
BRANCH   8   9
HETATM    9  N1  UNL     1      28.512  46.909  53.590  1.00  0.00    -0.075 N 
ATOM     10  H13 UNL     1      27.693  46.302  53.558  1.00  0.00     0.274 HD
ATOM     11  H12 UNL     1      29.140  46.279  54.091  1.00  0.00     0.274 HD
ATOM     12  H11 UNL     1      28.336  47.770  54.108  1.00  0.00     0.274 HD
ENDBRANCH   8   9
ENDBRANCH   1   8
TORSDOF 2
ENDMDL
MODEL 2
REMARK VINA RESULT: -3.897009705      1.838      2.945
REMARK  2 active torsions:
REMARK  status: ('A' for Active; 'I' for Inactive)
REMARK    1  A    between atoms: N1_1  and  C1_5 
REMARK    2  A    between atoms: C1_5  and  C2_6 
ROOT
HETATM    1  C2  UNL     1      27.421  48.246  50.833  1.00  0.00     0.001 A 
HETATM    2  C3  UNL     1      26.062  48.086  50.726  1.00  0.00     0.117 A 
HETATM    3  N2  UNL     1      25.866  46.814  50.369  1.00  0.00    -0.312 N 
ATOM      4  H2  UNL     1      24.948  46.400  50.212  1.00  0.00     0.186 HD
HETATM    5  N3  UNL     1      26.999  46.162  50.243  1.00  0.00    -0.312 N 
ATOM      6  H3  UNL     1      27.111  45.183  49.980  1.00  0.00     0.186 HD
HETATM    7  C4  UNL     1      27.974  47.025  50.524  1.00  0.00     0.117 A 
ENDROOT
BRANCH   1   8
HETATM    8  C1  UNL     1      28.147  49.504  51.211  1.00  0.00     0.271 C 
BRANCH   8   9
HETATM    9  N1  UNL     1      27.393  50.636  50.774  1.00  0.00    -0.075 N 
ATOM     10  H13 UNL     1      26.426  50.395  50.557  1.00  0.00     0.274 HD
ATOM     11  H12 UNL     1      27.213  51.295  51.531  1.00  0.00     0.274 HD
ATOM     12  H11 UNL     1      27.868  51.075  49.985  1.00  0.00     0.274 HD
ENDBRANCH   8   9
ENDBRANCH   1   8
TORSDOF 2
ENDMDL
MODEL 3
REMARK VINA RESULT: -3.884307856      1.842      3.035
REMARK  2 active torsions:
REMARK  status: ('A' for Active; 'I' for Inactive)
REMARK    1  A    between atoms: N1_1  and  C1_5 
REMARK    2  A    between atoms: C1_5  and  C2_6 
ROOT
HETATM    1  C2  UNL     1      27.418  48.248  50.827  1.00  0.00     0.001 A 
HETATM    2  C3  UNL     1      27.983  47.038  50.508  1.00  0.00     0.117 A 
HETATM    3  N2  UNL     1      26.966  46.215  50.240  1.00  0.00    -0.312 N 
ATOM      4  H2  UNL     1      27.078  45.238  49.970  1.00  0.00     0.186 HD
HETATM    5  N3  UNL     1      25.805  46.815  50.366  1.00  0.00    -0.312 N 
ATOM      6  H3  UNL     1      24.886  46.400  50.215  1.00  0.00     0.186 HD
HETATM    7  C4  UNL     1      26.058  48.072  50.728  1.00  0.00     0.117 A 
ENDROOT
BRANCH   1   8
HETATM    8  C1  UNL     1      28.148  49.503  51.207  1.00  0.00     0.271 C 
BRANCH   8   9
HETATM    9  N1  UNL     1      27.395  50.639  50.777  1.00  0.00    -0.075 N 
ATOM     10  H13 UNL     1      26.708  50.399  50.062  1.00  0.00     0.274 HD
ATOM     11  H12 UNL     1      26.749  50.967  51.495  1.00  0.00     0.274 HD
ATOM     12  H11 UNL     1      28.034  51.372  50.468  1.00  0.00     0.274 HD
ENDBRANCH   8   9
ENDBRANCH   1   8
TORSDOF 2
ENDMDL
MODEL 4
REMARK VINA RESULT: -3.837067271      0.939      1.655
REMARK  2 active torsions:
REMARK  status: ('A' for Active; 'I' for Inactive)
REMARK    1  A    between atoms: N1_1  and  C1_5 
REMARK    2  A    between atoms: C1_5  and  C2_6 
ROOT
HETATM    1  C2  UNL     1      28.089  47.959  51.778  1.00  0.00     0.001 A 
HETATM    2  C3  UNL     1      28.266  49.233  51.299  1.00  0.00     0.117 A 
HETATM    3  N2  UNL     1      27.084  49.609  50.803  1.00  0.00    -0.312 N 
ATOM      4  H2  UNL     1      26.907  50.517  50.374  1.00  0.00     0.186 HD
HETATM    5  N3  UNL     1      26.178  48.668  50.933  1.00  0.00    -0.312 N 
ATOM      6  H3  UNL     1      25.205  48.715  50.633  1.00  0.00     0.186 HD
HETATM    7  C4  UNL     1      26.775  47.638  51.531  1.00  0.00     0.117 A 
ENDROOT
BRANCH   1   8
HETATM    8  C1  UNL     1      29.129  47.098  52.434  1.00  0.00     0.271 C 
BRANCH   8   9
HETATM    9  N1  UNL     1      29.251  45.869  51.715  1.00  0.00    -0.075 N 
ATOM     10  H13 UNL     1      29.305  45.062  52.337  1.00  0.00     0.274 HD
ATOM     11  H12 UNL     1      28.389  45.621  51.228  1.00  0.00     0.274 HD
ATOM     12  H11 UNL     1      30.050  45.925  51.083  1.00  0.00     0.274 HD
ENDBRANCH   8   9
ENDBRANCH   1   8
TORSDOF 2
ENDMDL
MODEL 5
REMARK VINA RESULT: -3.826835577      1.723      1.805
REMARK  2 active torsions:
REMARK  status: ('A' for Active; 'I' for Inactive)
REMARK    1  A    between atoms: N1_1  and  C1_5 
REMARK    2  A    between atoms: C1_5  and  C2_6 
ROOT
HETATM    1  C2  UNL     1      27.796  48.317  51.191  1.00  0.00     0.001 A 
HETATM    2  C3  UNL     1      26.779  49.118  50.732  1.00  0.00     0.117 A 
HETATM    3  N2  UNL     1      27.243  50.369  50.781  1.00  0.00    -0.312 N 
ATOM      4  H2  UNL     1      26.706  51.189  50.499  1.00  0.00     0.186 HD
HETATM    5  N3  UNL     1      28.474  50.416  51.235  1.00  0.00    -0.312 N 
ATOM      6  H3  UNL     1      29.043  51.253  51.364  1.00  0.00     0.186 HD
HETATM    7  C4  UNL     1      28.837  49.162  51.496  1.00  0.00     0.117 A 
ENDROOT
BRANCH   1   8
HETATM    8  C1  UNL     1      27.765  46.823  51.328  1.00  0.00     0.271 C 
BRANCH   8   9
HETATM    9  N1  UNL     1      27.233  46.247  50.134  1.00  0.00    -0.075 N 
ATOM     10  H13 UNL     1      26.437  46.774  49.773  1.00  0.00     0.274 HD
ATOM     11  H12 UNL     1      27.859  46.365  49.337  1.00  0.00     0.274 HD
ATOM     12  H11 UNL     1      27.004  45.268  50.303  1.00  0.00     0.274 HD
ENDBRANCH   8   9
ENDBRANCH   1   8
TORSDOF 2
ENDMDL
