MODEL 1
REMARK VINA RESULT: -3.826104101      0.000      0.000
REMARK  2 active torsions:
REMARK  status: ('A' for Active; 'I' for Inactive)
REMARK    1  A    between atoms: N1_1  and  C1_5 
REMARK    2  A    between atoms: C1_5  and  C2_6 
ROOT
HETATM    1  C2  UNL     1      27.427  48.253  51.573  1.00  0.00     0.125 C 
HETATM    2  C3  UNL     1      27.842  46.890  51.151  1.00  0.00     0.147 C 
HETATM    3  N2  UNL     1      26.942  46.547  50.068  1.00  0.00    -0.384 N 
ATOM      4  H2  UNL     1      27.084  45.782  49.408  1.00  0.00     0.160 HD
HETATM    5  C4  UNL     1      25.934  47.351  50.063  1.00  0.00     0.171 C 
HETATM    6  N3  UNL     1      26.036  48.306  51.116  1.00  0.00    -0.379 N 
ATOM      7  H3  UNL     1      25.292  48.903  51.478  1.00  0.00     0.160 HD
ENDROOT
BRANCH   1   8
HETATM    8  C1  UNL     1      28.182  49.369  50.919  1.00  0.00     0.256 C 
BRANCH   8   9
HETATM    9  N1  UNL     1      27.395  50.554  50.795  1.00  0.00    -0.077 N 
ATOM     10  H13 UNL     1      27.861  51.245  50.206  1.00  0.00     0.274 HD
ATOM     11  H12 UNL     1      26.566  50.388  50.225  1.00  0.00     0.274 HD
ATOM     12  H11 UNL     1      27.147  50.949  51.701  1.00  0.00     0.274 HD
ENDBRANCH   8   9
ENDBRANCH   1   8
TORSDOF 2
ENDMDL
MODEL 2
REMARK VINA RESULT: -3.778512187      1.225      1.693
REMARK  2 active torsions:
REMARK  status: ('A' for Active; 'I' for Inactive)
REMARK    1  A    between atoms: N1_1  and  C1_5 
REMARK    2  A    between atoms: C1_5  and  C2_6 
ROOT
HETATM    1  C2  UNL     1      26.981  48.188  50.674  1.00  0.00     0.125 C 
HETATM    2  C3  UNL     1      26.425  47.429  51.825  1.00  0.00     0.147 C 
HETATM    3  N2  UNL     1      27.325  46.305  51.997  1.00  0.00    -0.384 N 
ATOM      4  H2  UNL     1      27.368  45.711  52.825  1.00  0.00     0.160 HD
HETATM    5  C4  UNL     1      28.063  46.169  50.949  1.00  0.00     0.171 C 
HETATM    6  N3  UNL     1      27.753  47.159  49.973  1.00  0.00    -0.379 N 
ATOM      7  H3  UNL     1      28.016  47.153  48.986  1.00  0.00     0.160 HD
ENDROOT
BRANCH   1   8
HETATM    8  C1  UNL     1      27.908  49.303  51.047  1.00  0.00     0.256 C 
BRANCH   8   9
HETATM    9  N1  UNL     1      27.352  50.587  50.761  1.00  0.00    -0.077 N 
ATOM     10  H13 UNL     1      26.528  50.768  51.334  1.00  0.00     0.274 HD
ATOM     11  H12 UNL     1      27.956  51.334  51.104  1.00  0.00     0.274 HD
ATOM     12  H11 UNL     1      27.146  50.706  49.769  1.00  0.00     0.274 HD
ENDBRANCH   8   9
ENDBRANCH   1   8
TORSDOF 2
ENDMDL
MODEL 3
REMARK VINA RESULT: -3.742590254      1.403      1.946
REMARK  2 active torsions:
REMARK  status: ('A' for Active; 'I' for Inactive)
REMARK    1  A    between atoms: N1_1  and  C1_5 
REMARK    2  A    between atoms: C1_5  and  C2_6 
ROOT
HETATM    1  C2  UNL     1      28.047  48.667  50.815  1.00  0.00     0.125 C 
HETATM    2  C3  UNL     1      26.658  48.142  50.750  1.00  0.00     0.147 C 
HETATM    3  N2  UNL     1      26.481  47.410  51.989  1.00  0.00    -0.384 N 
ATOM      4  H2  UNL     1      25.583  47.111  52.369  1.00  0.00     0.160 HD
HETATM    5  C4  UNL     1      27.627  47.193  52.538  1.00  0.00     0.171 C 
HETATM    6  N3  UNL     1      28.683  47.739  51.753  1.00  0.00    -0.379 N 
ATOM      7  H3  UNL     1      29.678  47.527  51.829  1.00  0.00     0.160 HD
ENDROOT
BRANCH   1   8
HETATM    8  C1  UNL     1      28.169  50.054  51.366  1.00  0.00     0.256 C 
BRANCH   8   9
HETATM    9  N1  UNL     1      27.321  50.982  50.687  1.00  0.00    -0.077 N 
ATOM     10  H13 UNL     1      26.847  50.540  49.899  1.00  0.00     0.274 HD
ATOM     11  H12 UNL     1      26.507  51.219  51.254  1.00  0.00     0.274 HD
ATOM     12  H11 UNL     1      27.822  51.819  50.394  1.00  0.00     0.274 HD
ENDBRANCH   8   9
ENDBRANCH   1   8
TORSDOF 2
ENDMDL
MODEL 4
REMARK VINA RESULT: -3.606309740      1.415      2.417
REMARK  2 active torsions:
REMARK  status: ('A' for Active; 'I' for Inactive)
REMARK    1  A    between atoms: N1_1  and  C1_5 
REMARK    2  A    between atoms: C1_5  and  C2_6 
ROOT
HETATM    1  C2  UNL     1      27.942  47.451  50.856  1.00  0.00     0.125 C 
HETATM    2  C3  UNL     1      27.383  48.823  50.985  1.00  0.00     0.147 C 
HETATM    3  N2  UNL     1      25.963  48.668  50.737  1.00  0.00    -0.384 N 
ATOM      4  H2  UNL     1      25.250  49.363  50.961  1.00  0.00     0.160 HD
HETATM    5  C4  UNL     1      25.734  47.523  50.191  1.00  0.00     0.171 C 
HETATM    6  N3  UNL     1      26.943  46.791  50.012  1.00  0.00    -0.379 N 
ATOM      7  H3  UNL     1      27.084  45.973  49.418  1.00  0.00     0.160 HD
ENDROOT
BRANCH   1   8
HETATM    8  C1  UNL     1      28.049  46.694  52.143  1.00  0.00     0.256 C 
BRANCH   8   9
HETATM    9  N1  UNL     1      28.573  47.497  53.201  1.00  0.00    -0.077 N 
ATOM     10  H13 UNL     1      28.753  48.451  52.886  1.00  0.00     0.274 HD
ATOM     11  H12 UNL     1      27.860  47.691  53.905  1.00  0.00     0.274 HD
ATOM     12  H11 UNL     1      29.405  47.085  53.623  1.00  0.00     0.274 HD
ENDBRANCH   8   9
ENDBRANCH   1   8
TORSDOF 2
ENDMDL
MODEL 5
REMARK VINA RESULT: -3.552076670      1.249      2.937
REMARK  2 active torsions:
REMARK  status: ('A' for Active; 'I' for Inactive)
REMARK    1  A    between atoms: N1_1  and  C1_5 
REMARK    2  A    between atoms: C1_5  and  C2_6 
ROOT
HETATM    1  C2  UNL     1      27.501  47.257  51.889  1.00  0.00     0.125 C 
HETATM    2  C3  UNL     1      26.182  47.840  51.528  1.00  0.00     0.147 C 
HETATM    3  N2  UNL     1      26.500  49.049  50.793  1.00  0.00    -0.384 N 
ATOM      4  H2  UNL     1      25.844  49.571  50.213  1.00  0.00     0.160 HD
HETATM    5  C4  UNL     1      27.735  49.366  50.983  1.00  0.00     0.171 C 
HETATM    6  N3  UNL     1      28.377  48.431  51.845  1.00  0.00    -0.379 N 
ATOM      7  H3  UNL     1      29.265  48.554  52.333  1.00  0.00     0.160 HD
ENDROOT
BRANCH   1   8
HETATM    8  C1  UNL     1      28.024  46.240  50.924  1.00  0.00     0.256 C 
BRANCH   8   9
HETATM    9  N1  UNL     1      26.986  45.663  50.131  1.00  0.00    -0.077 N 
ATOM     10  H13 UNL     1      26.066  45.868  50.522  1.00  0.00     0.274 HD
ATOM     11  H12 UNL     1      26.893  46.147  49.238  1.00  0.00     0.274 HD
ATOM     12  H11 UNL     1      27.114  44.661  49.996  1.00  0.00     0.274 HD
ENDBRANCH   8   9
ENDBRANCH   1   8
TORSDOF 2
ENDMDL
