MODEL 1
REMARK VINA RESULT: -8.109831248      0.000      0.000
REMARK  7 active torsions:
REMARK  status: ('A' for Active; 'I' for Inactive)
REMARK    1  A    between atoms: C2_2  and  C3_3 
REMARK    2  A    between atoms: C3_3  and  C4_4 
REMARK    3  A    between atoms: N1_7  and  N2_9 
REMARK    4  A    between atoms: N2_9  and  C7_11 
REMARK    5  A    between atoms: C8_14  and  N4_15 
REMARK    6  A    between atoms: C9_20  and  N6_21 
REMARK    7  A    between atoms: N6_21  and  N7_23 
ROOT
HETATM    1  C7  UNL     1     -49.014 -29.136  -7.167  1.00  0.00     0.726 A 
HETATM    2  N3  UNL     1     -49.145 -30.228  -7.941  1.00  0.00    -0.020 N 
ATOM      3  H3  UNL     1     -49.955 -30.830  -7.793  1.00  0.00     0.203 HD
HETATM    4  C8  UNL     1     -48.265 -30.567  -8.899  1.00  0.00     0.705 A 
HETATM    5  N5  UNL     1     -47.201 -29.766  -9.085  1.00  0.00    -0.020 N 
ATOM      6  H5  UNL     1     -46.511 -29.991  -9.803  1.00  0.00     0.203 HD
HETATM    7  C9  UNL     1     -47.048 -28.669  -8.323  1.00  0.00     0.725 A 
HETATM    8  N8  UNL     1     -47.951 -28.346  -7.362  1.00  0.00    -0.018 N 
ATOM      9  H8  UNL     1     -47.820 -27.510  -6.793  1.00  0.00     0.203 HD
ENDROOT
BRANCH   1  10
HETATM   10  N2  UNL     1     -49.911 -28.862  -6.250  1.00  0.00    -0.131 N 
ATOM     11  H2  UNL     1     -50.437 -27.990  -6.305  1.00  0.00     0.205 HD
BRANCH  10  12
HETATM   12  N1  UNL     1     -50.156 -29.749  -5.199  1.00  0.00    -0.295 N 
HETATM   13  C2  UNL     1     -51.227 -30.450  -5.103  1.00  0.00     0.001 C 
HETATM   14  C1  UNL     1     -52.260 -30.317  -6.153  1.00  0.00     0.065 C 
ATOM     15  H1  UNL     1     -49.447 -29.845  -4.471  1.00  0.00     0.186 HD
BRANCH  13  16
HETATM   16  C3  UNL     1     -51.367 -31.356  -3.937  1.00  0.00     0.057 C 
BRANCH  16  17
HETATM   17  C4  UNL     1     -52.456 -32.387  -4.164  1.00  0.00    -0.017 C 
HETATM   18  C5  UNL     1     -51.774 -33.658  -4.638  1.00  0.00     0.010 C 
HETATM   19  C6  UNL     1     -53.196 -32.726  -2.900  1.00  0.00     0.010 C 
ENDBRANCH  16  17
ENDBRANCH  13  16
ENDBRANCH  10  12
ENDBRANCH   1  10
BRANCH   4  20
HETATM   20  N4  UNL     1     -48.426 -31.634  -9.628  1.00  0.00    -0.234 N 
ATOM     21  H42 UNL     1     -49.045 -31.620 -10.440  1.00  0.00     0.174 HD
ATOM     22  H41 UNL     1     -47.944 -32.507  -9.414  1.00  0.00     0.174 HD
ENDBRANCH   4  20
BRANCH   7  23
HETATM   23  N6  UNL     1     -46.010 -27.894  -8.510  1.00  0.00    -0.133 N 
ATOM     24  H6  UNL     1     -46.136 -26.907  -8.734  1.00  0.00     0.205 HD
BRANCH  23  25
HETATM   25  N7  UNL     1     -44.730 -28.435  -8.399  1.00  0.00    -0.310 N 
HETATM   26  C10 UNL     1     -44.345 -28.998  -7.123  1.00  0.00     0.169 C 
HETATM   27  C11 UNL     1     -42.867 -28.864  -6.853  1.00  0.00     0.189 C 
HETATM   28  O1  UNL     1     -42.075 -29.075  -7.952  1.00  0.00    -0.388 OA
HETATM   29  C12 UNL     1     -42.731 -29.522  -9.070  1.00  0.00     0.189 C 
HETATM   30  C13 UNL     1     -43.757 -28.478  -9.466  1.00  0.00     0.169 C 
ENDBRANCH  23  25
ENDBRANCH   7  23
TORSDOF 7
ENDMDL
MODEL 2
REMARK VINA RESULT: -8.075401876      0.657      1.204
REMARK  7 active torsions:
REMARK  status: ('A' for Active; 'I' for Inactive)
REMARK    1  A    between atoms: C2_2  and  C3_3 
REMARK    2  A    between atoms: C3_3  and  C4_4 
REMARK    3  A    between atoms: N1_7  and  N2_9 
REMARK    4  A    between atoms: N2_9  and  C7_11 
REMARK    5  A    between atoms: C8_14  and  N4_15 
REMARK    6  A    between atoms: C9_20  and  N6_21 
REMARK    7  A    between atoms: N6_21  and  N7_23 
ROOT
HETATM    1  C7  UNL     1     -48.952 -29.068  -7.009  1.00  0.00     0.726 A 
HETATM    2  N3  UNL     1     -49.067 -30.020  -7.952  1.00  0.00    -0.020 N 
ATOM      3  H3  UNL     1     -49.930 -30.562  -7.988  1.00  0.00     0.203 HD
HETATM    4  C8  UNL     1     -48.104 -30.295  -8.849  1.00  0.00     0.705 A 
HETATM    5  N5  UNL     1     -46.970 -29.575  -8.792  1.00  0.00    -0.020 N 
ATOM      6  H5  UNL     1     -46.216 -29.754  -9.456  1.00  0.00     0.203 HD
HETATM    7  C9  UNL     1     -46.832 -28.618  -7.857  1.00  0.00     0.725 A 
HETATM    8  N8  UNL     1     -47.818 -28.358  -6.962  1.00  0.00    -0.018 N 
ATOM      9  H8  UNL     1     -47.697 -27.628  -6.260  1.00  0.00     0.203 HD
ENDROOT
BRANCH   1  10
HETATM   10  N2  UNL     1     -49.932 -28.850  -6.164  1.00  0.00    -0.131 N 
ATOM     11  H2  UNL     1     -50.516 -28.022  -6.274  1.00  0.00     0.205 HD
BRANCH  10  12
HETATM   12  N1  UNL     1     -50.184 -29.738  -5.116  1.00  0.00    -0.295 N 
HETATM   13  C2  UNL     1     -51.232 -30.479  -5.056  1.00  0.00     0.001 C 
HETATM   14  C1  UNL     1     -52.225 -30.394  -6.149  1.00  0.00     0.065 C 
ATOM     15  H1  UNL     1     -49.503 -29.801  -4.359  1.00  0.00     0.186 HD
BRANCH  13  16
HETATM   16  C3  UNL     1     -51.384 -31.380  -3.890  1.00  0.00     0.057 C 
BRANCH  16  17
HETATM   17  C4  UNL     1     -52.472 -32.411  -4.123  1.00  0.00    -0.017 C 
HETATM   18  C5  UNL     1     -51.794 -33.668  -4.635  1.00  0.00     0.010 C 
HETATM   19  C6  UNL     1     -53.193 -32.780  -2.857  1.00  0.00     0.010 C 
ENDBRANCH  16  17
ENDBRANCH  13  16
ENDBRANCH  10  12
ENDBRANCH   1  10
BRANCH   4  20
HETATM   20  N4  UNL     1     -48.253 -31.226  -9.747  1.00  0.00    -0.234 N 
ATOM     21  H42 UNL     1     -49.012 -31.174 -10.427  1.00  0.00     0.174 HD
ATOM     22  H41 UNL     1     -47.622 -32.025  -9.799  1.00  0.00     0.174 HD
ENDBRANCH   4  20
BRANCH   7  23
HETATM   23  N6  UNL     1     -45.725 -27.920  -7.808  1.00  0.00    -0.133 N 
ATOM     24  H6  UNL     1     -45.725 -26.933  -8.063  1.00  0.00     0.205 HD
BRANCH  23  25
HETATM   25  N7  UNL     1     -44.547 -28.546  -7.403  1.00  0.00    -0.310 N 
HETATM   26  C10 UNL     1     -43.397 -28.448  -8.276  1.00  0.00     0.169 C 
HETATM   27  C11 UNL     1     -42.499 -29.656  -8.190  1.00  0.00     0.189 C 
HETATM   28  O1  UNL     1     -42.344 -30.151  -6.921  1.00  0.00    -0.388 OA
HETATM   29  C12 UNL     1     -42.894 -29.387  -5.923  1.00  0.00     0.189 C 
HETATM   30  C13 UNL     1     -44.386 -29.287  -6.173  1.00  0.00     0.169 C 
ENDBRANCH  23  25
ENDBRANCH   7  23
TORSDOF 7
ENDMDL
MODEL 3
REMARK VINA RESULT: -7.965450653      2.198      3.087
REMARK  7 active torsions:
REMARK  status: ('A' for Active; 'I' for Inactive)
REMARK    1  A    between atoms: C2_2  and  C3_3 
REMARK    2  A    between atoms: C3_3  and  C4_4 
REMARK    3  A    between atoms: N1_7  and  N2_9 
REMARK    4  A    between atoms: N2_9  and  C7_11 
REMARK    5  A    between atoms: C8_14  and  N4_15 
REMARK    6  A    between atoms: C9_20  and  N6_21 
REMARK    7  A    between atoms: N6_21  and  N7_23 
ROOT
HETATM    1  C7  UNL     1     -47.951 -28.541  -5.875  1.00  0.00     0.726 A 
HETATM    2  N3  UNL     1     -48.070 -27.633  -6.859  1.00  0.00    -0.020 N 
ATOM      3  H3  UNL     1     -48.942 -27.108  -6.928  1.00  0.00     0.203 HD
HETATM    4  C8  UNL     1     -47.102 -27.381  -7.758  1.00  0.00     0.705 A 
HETATM    5  N5  UNL     1     -45.957 -28.080  -7.658  1.00  0.00    -0.020 N 
ATOM      6  H5  UNL     1     -45.199 -27.918  -8.321  1.00  0.00     0.203 HD
HETATM    7  C9  UNL     1     -45.815 -28.994  -6.682  1.00  0.00     0.725 A 
HETATM    8  N8  UNL     1     -46.807 -29.230  -5.786  1.00  0.00    -0.018 N 
ATOM      9  H8  UNL     1     -46.681 -29.926  -5.051  1.00  0.00     0.203 HD
ENDROOT
BRANCH   1  10
HETATM   10  N2  UNL     1     -48.935 -28.736  -5.030  1.00  0.00    -0.131 N 
ATOM     11  H2  UNL     1     -48.744 -28.743  -4.029  1.00  0.00     0.205 HD
BRANCH  10  12
HETATM   12  N1  UNL     1     -50.241 -28.936  -5.485  1.00  0.00    -0.295 N 
HETATM   13  C2  UNL     1     -50.787 -30.095  -5.573  1.00  0.00     0.001 C 
HETATM   14  C1  UNL     1     -50.001 -31.284  -5.175  1.00  0.00     0.065 C 
ATOM     15  H1  UNL     1     -50.788 -28.121  -5.761  1.00  0.00     0.186 HD
BRANCH  13  16
HETATM   16  C3  UNL     1     -52.180 -30.175  -6.071  1.00  0.00     0.057 C 
BRANCH  16  17
HETATM   17  C4  UNL     1     -52.231 -30.125  -7.586  1.00  0.00    -0.017 C 
HETATM   18  C5  UNL     1     -52.528 -28.689  -7.976  1.00  0.00     0.010 C 
HETATM   19  C6  UNL     1     -50.917 -30.493  -8.216  1.00  0.00     0.010 C 
ENDBRANCH  16  17
ENDBRANCH  13  16
ENDBRANCH  10  12
ENDBRANCH   1  10
BRANCH   4  20
HETATM   20  N4  UNL     1     -47.257 -26.494  -8.698  1.00  0.00    -0.234 N 
ATOM     21  H42 UNL     1     -46.926 -26.679  -9.646  1.00  0.00     0.174 HD
ATOM     22  H41 UNL     1     -47.708 -25.597  -8.520  1.00  0.00     0.174 HD
ENDBRANCH   4  20
BRANCH   7  23
HETATM   23  N6  UNL     1     -44.697 -29.670  -6.591  1.00  0.00    -0.133 N 
ATOM     24  H6  UNL     1     -44.431 -30.111  -5.710  1.00  0.00     0.205 HD
BRANCH  23  25
HETATM   25  N7  UNL     1     -43.877 -29.779  -7.712  1.00  0.00    -0.310 N 
HETATM   26  C10 UNL     1     -42.598 -29.101  -7.680  1.00  0.00     0.169 C 
HETATM   27  C11 UNL     1     -42.150 -28.642  -9.044  1.00  0.00     0.189 C 
HETATM   28  O1  UNL     1     -42.418 -29.533 -10.052  1.00  0.00    -0.388 OA
HETATM   29  C12 UNL     1     -42.901 -30.750  -9.644  1.00  0.00     0.189 C 
HETATM   30  C13 UNL     1     -44.206 -30.518  -8.908  1.00  0.00     0.169 C 
ENDBRANCH  23  25
ENDBRANCH   7  23
TORSDOF 7
ENDMDL
MODEL 4
REMARK VINA RESULT: -7.961400083      1.510      2.222
REMARK  7 active torsions:
REMARK  status: ('A' for Active; 'I' for Inactive)
REMARK    1  A    between atoms: C2_2  and  C3_3 
REMARK    2  A    between atoms: C3_3  and  C4_4 
REMARK    3  A    between atoms: N1_7  and  N2_9 
REMARK    4  A    between atoms: N2_9  and  C7_11 
REMARK    5  A    between atoms: C8_14  and  N4_15 
REMARK    6  A    between atoms: C9_20  and  N6_21 
REMARK    7  A    between atoms: N6_21  and  N7_23 
ROOT
HETATM    1  C7  UNL     1     -48.588 -29.743  -7.400  1.00  0.00     0.726 A 
HETATM    2  N3  UNL     1     -48.211 -29.915  -6.122  1.00  0.00    -0.020 N 
ATOM      3  H3  UNL     1     -48.850 -30.399  -5.491  1.00  0.00     0.203 HD
HETATM    4  C8  UNL     1     -47.037 -29.481  -5.630  1.00  0.00     0.705 A 
HETATM    5  N5  UNL     1     -46.203 -28.842  -6.470  1.00  0.00    -0.020 N 
ATOM      6  H5  UNL     1     -45.303 -28.498  -6.134  1.00  0.00     0.203 HD
HETATM    7  C9  UNL     1     -46.559 -28.658  -7.753  1.00  0.00     0.725 A 
HETATM    8  N8  UNL     1     -47.750 -29.106  -8.228  1.00  0.00    -0.018 N 
ATOM      9  H8  UNL     1     -48.003 -28.958  -9.204  1.00  0.00     0.203 HD
ENDROOT
BRANCH   1  10
HETATM   10  N2  UNL     1     -49.749 -30.192  -7.816  1.00  0.00    -0.131 N 
ATOM     11  H2  UNL     1     -50.040 -30.018  -8.777  1.00  0.00     0.205 HD
BRANCH  10  12
HETATM   12  N1  UNL     1     -50.590 -30.906  -6.958  1.00  0.00    -0.295 N 
HETATM   13  C2  UNL     1     -51.755 -30.493  -6.609  1.00  0.00     0.001 C 
HETATM   14  C1  UNL     1     -52.238 -29.199  -7.137  1.00  0.00     0.065 C 
ATOM     15  H1  UNL     1     -50.262 -31.799  -6.591  1.00  0.00     0.186 HD
BRANCH  13  16
HETATM   16  C3  UNL     1     -52.551 -31.343  -5.692  1.00  0.00     0.057 C 
BRANCH  16  17
HETATM   17  C4  UNL     1     -51.658 -32.189  -4.804  1.00  0.00    -0.017 C 
HETATM   18  C5  UNL     1     -51.149 -31.287  -3.695  1.00  0.00     0.010 C 
HETATM   19  C6  UNL     1     -52.405 -33.318  -4.151  1.00  0.00     0.010 C 
ENDBRANCH  16  17
ENDBRANCH  13  16
ENDBRANCH  10  12
ENDBRANCH   1  10
BRANCH   4  20
HETATM   20  N4  UNL     1     -46.708 -29.666  -4.384  1.00  0.00    -0.234 N 
ATOM     21  H42 UNL     1     -47.396 -29.540  -3.641  1.00  0.00     0.174 HD
ATOM     22  H41 UNL     1     -45.764 -29.941  -4.114  1.00  0.00     0.174 HD
ENDBRANCH   4  20
BRANCH   7  23
HETATM   23  N6  UNL     1     -45.742 -28.036  -8.566  1.00  0.00    -0.133 N 
ATOM     24  H6  UNL     1     -45.990 -27.124  -8.949  1.00  0.00     0.205 HD
BRANCH  23  25
HETATM   25  N7  UNL     1     -44.530 -28.637  -8.900  1.00  0.00    -0.310 N 
HETATM   26  C10 UNL     1     -43.328 -28.119  -8.284  1.00  0.00     0.169 C 
HETATM   27  C11 UNL     1     -42.116 -28.256  -9.170  1.00  0.00     0.189 C 
HETATM   28  O1  UNL     1     -42.063 -29.434  -9.870  1.00  0.00    -0.388 OA
HETATM   29  C12 UNL     1     -43.024 -30.355  -9.539  1.00  0.00     0.189 C 
HETATM   30  C13 UNL     1     -44.382 -29.742  -9.818  1.00  0.00     0.169 C 
ENDBRANCH  23  25
ENDBRANCH   7  23
TORSDOF 7
ENDMDL
MODEL 5
REMARK VINA RESULT: -7.944198874      0.933      1.494
REMARK  7 active torsions:
REMARK  status: ('A' for Active; 'I' for Inactive)
REMARK    1  A    between atoms: C2_2  and  C3_3 
REMARK    2  A    between atoms: C3_3  and  C4_4 
REMARK    3  A    between atoms: N1_7  and  N2_9 
REMARK    4  A    between atoms: N2_9  and  C7_11 
REMARK    5  A    between atoms: C8_14  and  N4_15 
REMARK    6  A    between atoms: C9_20  and  N6_21 
REMARK    7  A    between atoms: N6_21  and  N7_23 
ROOT
HETATM    1  C7  UNL     1     -49.088 -29.328  -7.566  1.00  0.00     0.726 A 
HETATM    2  N3  UNL     1     -49.067 -30.340  -8.450  1.00  0.00    -0.020 N 
ATOM      3  H3  UNL     1     -49.901 -30.921  -8.539  1.00  0.00     0.203 HD
HETATM    4  C8  UNL     1     -48.005 -30.628  -9.223  1.00  0.00     0.705 A 
HETATM    5  N5  UNL     1     -46.910 -29.857  -9.097  1.00  0.00    -0.020 N 
ATOM      6  H5  UNL     1     -46.084 -30.043  -9.665  1.00  0.00     0.203 HD
HETATM    7  C9  UNL     1     -46.908 -28.839  -8.218  1.00  0.00     0.725 A 
HETATM    8  N8  UNL     1     -47.992 -28.567  -7.449  1.00  0.00    -0.018 N 
ATOM      9  H8  UNL     1     -47.973 -27.790  -6.788  1.00  0.00     0.203 HD
ENDROOT
BRANCH   1  10
HETATM   10  N2  UNL     1     -50.159 -29.101  -6.842  1.00  0.00    -0.131 N 
ATOM     11  H2  UNL     1     -50.613 -28.189  -6.888  1.00  0.00     0.205 HD
BRANCH  10  12
HETATM   12  N1  UNL     1     -50.685 -30.092  -6.010  1.00  0.00    -0.295 N 
HETATM   13  C2  UNL     1     -50.508 -30.111  -4.738  1.00  0.00     0.001 C 
HETATM   14  C1  UNL     1     -49.709 -29.033  -4.115  1.00  0.00     0.065 C 
ATOM     15  H1  UNL     1     -51.237 -30.838  -6.433  1.00  0.00     0.186 HD
BRANCH  13  16
HETATM   16  C3  UNL     1     -51.119 -31.218  -3.965  1.00  0.00     0.057 C 
BRANCH  16  17
HETATM   17  C4  UNL     1     -52.039 -32.058  -4.831  1.00  0.00    -0.017 C 
HETATM   18  C5  UNL     1     -51.833 -33.506  -4.426  1.00  0.00     0.010 C 
HETATM   19  C6  UNL     1     -53.490 -31.736  -4.605  1.00  0.00     0.010 C 
ENDBRANCH  16  17
ENDBRANCH  13  16
ENDBRANCH  10  12
ENDBRANCH   1  10
BRANCH   4  20
HETATM   20  N4  UNL     1     -48.023 -31.619 -10.068  1.00  0.00    -0.234 N 
ATOM     21  H42 UNL     1     -47.769 -32.560  -9.769  1.00  0.00     0.174 HD
ATOM     22  H41 UNL     1     -48.291 -31.486 -11.043  1.00  0.00     0.174 HD
ENDBRANCH   4  20
BRANCH   7  23
HETATM   23  N6  UNL     1     -45.839 -28.092  -8.101  1.00  0.00    -0.133 N 
ATOM     24  H6  UNL     1     -45.876 -27.098  -8.327  1.00  0.00     0.205 HD
BRANCH  23  25
HETATM   25  N7  UNL     1     -44.650 -28.673  -7.663  1.00  0.00    -0.310 N 
HETATM   26  C10 UNL     1     -43.498 -28.590  -8.535  1.00  0.00     0.169 C 
HETATM   27  C11 UNL     1     -42.575 -29.773  -8.391  1.00  0.00     0.189 C 
HETATM   28  O1  UNL     1     -42.416 -30.207  -7.100  1.00  0.00    -0.388 OA
HETATM   29  C12 UNL     1     -42.987 -29.411  -6.140  1.00  0.00     0.189 C 
HETATM   30  C13 UNL     1     -44.480 -29.353  -6.401  1.00  0.00     0.169 C 
ENDBRANCH  23  25
ENDBRANCH   7  23
TORSDOF 7
ENDMDL
