MODEL 1
REMARK VINA RESULT: -8.227345764      0.000      0.000
REMARK  7 active torsions:
REMARK  status: ('A' for Active; 'I' for Inactive)
REMARK    1  A    between atoms: C4_4  and  N1_5 
REMARK    2  A    between atoms: N1_5  and  C5_7 
REMARK    3  A    between atoms: C5_7  and  C6_8 
REMARK    4  A    between atoms: C6_8  and  N2_9 
REMARK    5  A    between atoms: C9_14  and  N4_15 
REMARK    6  A    between atoms: N4_15  and  C10_17 
REMARK    7  A    between atoms: C12_21  and  N6_22 
ROOT
HETATM    1  C1  UNL     1     -48.346 -32.277  -9.110  1.00  0.00     0.069 C 
HETATM    2  C2  UNL     1     -48.343 -30.963  -8.438  1.00  0.00     0.026 A 
HETATM    3  C3  UNL     1     -47.360 -29.998  -8.691  1.00  0.00     0.073 A 
HETATM    4  C4  UNL     1     -47.362 -28.772  -8.062  1.00  0.00     0.119 A 
HETATM    5  N3  UNL     1     -48.363 -28.536  -7.180  1.00  0.00    -0.177 N 
ATOM      6  H3  UNL     1     -48.395 -27.639  -6.696  1.00  0.00     0.186 HD
HETATM    7  C9  UNL     1     -49.316 -29.448  -6.923  1.00  0.00     0.684 A 
HETATM    8  N9  UNL     1     -49.304 -30.639  -7.543  1.00  0.00    -0.196 N 
ATOM      9  H9  UNL     1     -50.038 -31.316  -7.334  1.00  0.00     0.184 HD
ENDROOT
BRANCH   7  10
HETATM   10  N4  UNL     1     -50.257 -29.208  -6.081  1.00  0.00    -0.187 N 
ATOM     11  H4  UNL     1     -50.526 -28.234  -5.936  1.00  0.00     0.184 HD
BRANCH  10  12
HETATM   12  C10 UNL     1     -50.944 -30.196  -5.343  1.00  0.00     0.106 A 
HETATM   13  C11 UNL     1     -50.602 -30.464  -4.045  1.00  0.00     0.139 A 
HETATM   14  N5  UNL     1     -51.256 -31.415  -3.318  1.00  0.00    -0.200 N 
HETATM   15  C12 UNL     1     -52.255 -32.103  -3.883  1.00  0.00     0.677 A 
ATOM     16  H5  UNL     1     -50.986 -31.599  -2.352  1.00  0.00     0.183 HD
HETATM   17  N7  UNL     1     -52.581 -31.832  -5.154  1.00  0.00    -0.177 N 
HETATM   18  C13 UNL     1     -51.975 -30.907  -5.925  1.00  0.00     0.160 A 
ATOM     19  H7  UNL     1     -53.345 -32.365  -5.569  1.00  0.00     0.185 HD
HETATM   20  N8  UNL     1     -52.384 -30.681  -7.267  1.00  0.00    -0.080 NA
BRANCH  15  21
HETATM   21  N6  UNL     1     -52.890 -33.020  -3.193  1.00  0.00    -0.234 N 
ATOM     22  H62 UNL     1     -52.644 -33.224  -2.225  1.00  0.00     0.174 HD
ATOM     23  H61 UNL     1     -53.650 -33.547  -3.625  1.00  0.00     0.174 HD
ENDBRANCH  15  21
ENDBRANCH  10  12
ENDBRANCH   7  10
BRANCH   4  24
HETATM   24  N1  UNL     1     -46.450 -27.894  -8.309  1.00  0.00    -0.371 N 
ATOM     25  H1  UNL     1     -46.715 -26.912  -8.400  1.00  0.00     0.161 HD
BRANCH  24  26
HETATM   26  C5  UNL     1     -45.071 -28.264  -8.459  1.00  0.00     0.165 C 
BRANCH  26  27
HETATM   27  C6  UNL     1     -44.315 -28.268  -7.160  1.00  0.00     0.076 C 
BRANCH  27  28
HETATM   28  N2  UNL     1     -43.240 -29.141  -7.049  1.00  0.00    -0.400 N 
HETATM   29  C7  UNL     1     -43.165 -30.023  -5.953  1.00  0.00     0.148 C 
HETATM   30  C8  UNL     1     -42.491 -29.481  -8.199  1.00  0.00     0.148 C 
ENDBRANCH  27  28
ENDBRANCH  26  27
ENDBRANCH  24  26
ENDBRANCH   4  24
TORSDOF 7
ENDMDL
MODEL 2
REMARK VINA RESULT: -8.221504560      0.960      1.177
REMARK  7 active torsions:
REMARK  status: ('A' for Active; 'I' for Inactive)
REMARK    1  A    between atoms: C4_4  and  N1_5 
REMARK    2  A    between atoms: N1_5  and  C5_7 
REMARK    3  A    between atoms: C5_7  and  C6_8 
REMARK    4  A    between atoms: C6_8  and  N2_9 
REMARK    5  A    between atoms: C9_14  and  N4_15 
REMARK    6  A    between atoms: N4_15  and  C10_17 
REMARK    7  A    between atoms: C12_21  and  N6_22 
ROOT
HETATM    1  C1  UNL     1     -48.211 -31.854  -9.315  1.00  0.00     0.069 C 
HETATM    2  C2  UNL     1     -48.227 -30.665  -8.439  1.00  0.00     0.026 A 
HETATM    3  C3  UNL     1     -47.162 -29.757  -8.395  1.00  0.00     0.073 A 
HETATM    4  C4  UNL     1     -47.182 -28.649  -7.577  1.00  0.00     0.119 A 
HETATM    5  N3  UNL     1     -48.284 -28.474  -6.807  1.00  0.00    -0.177 N 
ATOM      6  H3  UNL     1     -48.331 -27.664  -6.189  1.00  0.00     0.186 HD
HETATM    7  C9  UNL     1     -49.316 -29.333  -6.834  1.00  0.00     0.684 A 
HETATM    8  N9  UNL     1     -49.286 -30.409  -7.637  1.00  0.00    -0.196 N 
ATOM      9  H9  UNL     1     -50.080 -31.048  -7.643  1.00  0.00     0.184 HD
ENDROOT
BRANCH   7  10
HETATM   10  N4  UNL     1     -50.352 -29.152  -6.095  1.00  0.00    -0.187 N 
ATOM     11  H4  UNL     1     -50.734 -28.207  -6.038  1.00  0.00     0.184 HD
BRANCH  10  12
HETATM   12  C10 UNL     1     -50.998 -30.167  -5.358  1.00  0.00     0.106 A 
HETATM   13  C11 UNL     1     -50.643 -30.426  -4.061  1.00  0.00     0.139 A 
HETATM   14  N5  UNL     1     -51.258 -31.403  -3.335  1.00  0.00    -0.200 N 
HETATM   15  C12 UNL     1     -52.230 -32.128  -3.899  1.00  0.00     0.677 A 
ATOM     16  H5  UNL     1     -50.979 -31.579  -2.370  1.00  0.00     0.183 HD
HETATM   17  N7  UNL     1     -52.570 -31.866  -5.169  1.00  0.00    -0.177 N 
HETATM   18  C13 UNL     1     -52.003 -30.916  -5.939  1.00  0.00     0.160 A 
ATOM     19  H7  UNL     1     -53.314 -32.428  -5.583  1.00  0.00     0.185 HD
HETATM   20  N8  UNL     1     -52.423 -30.704  -7.280  1.00  0.00    -0.080 NA
BRANCH  15  21
HETATM   21  N6  UNL     1     -52.828 -33.070  -3.210  1.00  0.00    -0.234 N 
ATOM     22  H62 UNL     1     -52.367 -33.530  -2.426  1.00  0.00     0.174 HD
ATOM     23  H61 UNL     1     -53.776 -33.357  -3.456  1.00  0.00     0.174 HD
ENDBRANCH  15  21
ENDBRANCH  10  12
ENDBRANCH   7  10
BRANCH   4  24
HETATM   24  N1  UNL     1     -46.194 -27.820  -7.551  1.00  0.00    -0.371 N 
ATOM     25  H1  UNL     1     -46.364 -26.835  -7.756  1.00  0.00     0.161 HD
BRANCH  24  26
HETATM   26  C5  UNL     1     -44.860 -28.251  -7.241  1.00  0.00     0.165 C 
BRANCH  26  27
HETATM   27  C6  UNL     1     -44.578 -28.286  -5.765  1.00  0.00     0.076 C 
BRANCH  27  28
HETATM   28  N2  UNL     1     -44.655 -29.520  -5.130  1.00  0.00    -0.400 N 
HETATM   29  C7  UNL     1     -45.800 -29.848  -4.378  1.00  0.00     0.148 C 
HETATM   30  C8  UNL     1     -43.853 -30.592  -5.581  1.00  0.00     0.148 C 
ENDBRANCH  27  28
ENDBRANCH  26  27
ENDBRANCH  24  26
ENDBRANCH   4  24
TORSDOF 7
ENDMDL
MODEL 3
REMARK VINA RESULT: -8.181303518      0.909      1.106
REMARK  7 active torsions:
REMARK  status: ('A' for Active; 'I' for Inactive)
REMARK    1  A    between atoms: C4_4  and  N1_5 
REMARK    2  A    between atoms: N1_5  and  C5_7 
REMARK    3  A    between atoms: C5_7  and  C6_8 
REMARK    4  A    between atoms: C6_8  and  N2_9 
REMARK    5  A    between atoms: C9_14  and  N4_15 
REMARK    6  A    between atoms: N4_15  and  C10_17 
REMARK    7  A    between atoms: C12_21  and  N6_22 
ROOT
HETATM    1  C1  UNL     1     -48.159 -31.523  -9.525  1.00  0.00     0.069 C 
HETATM    2  C2  UNL     1     -48.143 -30.480  -8.480  1.00  0.00     0.026 A 
HETATM    3  C3  UNL     1     -47.012 -29.692  -8.230  1.00  0.00     0.073 A 
HETATM    4  C4  UNL     1     -47.002 -28.719  -7.255  1.00  0.00     0.119 A 
HETATM    5  N3  UNL     1     -48.142 -28.555  -6.540  1.00  0.00    -0.177 N 
ATOM      6  H3  UNL     1     -48.169 -27.844  -5.809  1.00  0.00     0.186 HD
HETATM    7  C9  UNL     1     -49.237 -29.300  -6.764  1.00  0.00     0.684 A 
HETATM    8  N9  UNL     1     -49.235 -30.245  -7.718  1.00  0.00    -0.196 N 
ATOM      9  H9  UNL     1     -50.078 -30.799  -7.872  1.00  0.00     0.184 HD
ENDROOT
BRANCH   7  10
HETATM   10  N4  UNL     1     -50.309 -29.132  -6.074  1.00  0.00    -0.187 N 
ATOM     11  H4  UNL     1     -50.713 -28.195  -6.047  1.00  0.00     0.184 HD
BRANCH  10  12
HETATM   12  C10 UNL     1     -50.965 -30.151  -5.351  1.00  0.00     0.106 A 
HETATM   13  C11 UNL     1     -50.631 -30.413  -4.049  1.00  0.00     0.139 A 
HETATM   14  N5  UNL     1     -51.255 -31.393  -3.336  1.00  0.00    -0.200 N 
HETATM   15  C12 UNL     1     -52.216 -32.119  -3.918  1.00  0.00     0.677 A 
ATOM     16  H5  UNL     1     -50.991 -31.572  -2.367  1.00  0.00     0.183 HD
HETATM   17  N7  UNL     1     -52.535 -31.854  -5.193  1.00  0.00    -0.177 N 
HETATM   18  C13 UNL     1     -51.958 -30.901  -5.950  1.00  0.00     0.160 A 
ATOM     19  H7  UNL     1     -53.271 -32.416  -5.621  1.00  0.00     0.185 HD
HETATM   20  N8  UNL     1     -52.356 -30.685  -7.297  1.00  0.00    -0.080 NA
BRANCH  15  21
HETATM   21  N6  UNL     1     -52.823 -33.065  -3.243  1.00  0.00    -0.234 N 
ATOM     22  H62 UNL     1     -53.746 -32.918  -2.833  1.00  0.00     0.174 HD
ATOM     23  H61 UNL     1     -52.371 -33.971  -3.116  1.00  0.00     0.174 HD
ENDBRANCH  15  21
ENDBRANCH  10  12
ENDBRANCH   7  10
BRANCH   4  24
HETATM   24  N1  UNL     1     -45.953 -28.000  -7.040  1.00  0.00    -0.371 N 
ATOM     25  H1  UNL     1     -46.015 -26.986  -7.141  1.00  0.00     0.161 HD
BRANCH  24  26
HETATM   26  C5  UNL     1     -44.701 -28.592  -6.662  1.00  0.00     0.165 C 
BRANCH  26  27
HETATM   27  C6  UNL     1     -43.571 -28.221  -7.580  1.00  0.00     0.076 C 
BRANCH  27  28
HETATM   28  N2  UNL     1     -43.473 -28.910  -8.783  1.00  0.00    -0.400 N 
HETATM   29  C7  UNL     1     -43.341 -30.313  -8.776  1.00  0.00     0.148 C 
HETATM   30  C8  UNL     1     -43.950 -28.316  -9.972  1.00  0.00     0.148 C 
ENDBRANCH  27  28
ENDBRANCH  26  27
ENDBRANCH  24  26
ENDBRANCH   4  24
TORSDOF 7
ENDMDL
MODEL 4
REMARK VINA RESULT: -8.102677175      1.547      2.166
REMARK  7 active torsions:
REMARK  status: ('A' for Active; 'I' for Inactive)
REMARK    1  A    between atoms: C4_4  and  N1_5 
REMARK    2  A    between atoms: N1_5  and  C5_7 
REMARK    3  A    between atoms: C5_7  and  C6_8 
REMARK    4  A    between atoms: C6_8  and  N2_9 
REMARK    5  A    between atoms: C9_14  and  N4_15 
REMARK    6  A    between atoms: N4_15  and  C10_17 
REMARK    7  A    between atoms: C12_21  and  N6_22 
ROOT
HETATM    1  C1  UNL     1     -45.847 -29.739  -4.150  1.00  0.00     0.069 C 
HETATM    2  C2  UNL     1     -46.803 -29.555  -5.260  1.00  0.00     0.026 A 
HETATM    3  C3  UNL     1     -46.385 -29.435  -6.592  1.00  0.00     0.073 A 
HETATM    4  C4  UNL     1     -47.280 -29.264  -7.624  1.00  0.00     0.119 A 
HETATM    5  N3  UNL     1     -48.595 -29.215  -7.296  1.00  0.00    -0.177 N 
ATOM      6  H3  UNL     1     -49.285 -29.089  -8.036  1.00  0.00     0.186 HD
HETATM    7  C9  UNL     1     -49.016 -29.329  -6.025  1.00  0.00     0.684 A 
HETATM    8  N9  UNL     1     -48.134 -29.496  -5.027  1.00  0.00    -0.196 N 
ATOM      9  H9  UNL     1     -48.476 -29.581  -4.070  1.00  0.00     0.184 HD
ENDROOT
BRANCH   7  10
HETATM   10  N4  UNL     1     -50.267 -29.278  -5.732  1.00  0.00    -0.187 N 
ATOM     11  H4  UNL     1     -50.774 -28.423  -5.962  1.00  0.00     0.184 HD
BRANCH  10  12
HETATM   12  C10 UNL     1     -50.988 -30.322  -5.114  1.00  0.00     0.106 A 
HETATM   13  C11 UNL     1     -50.756 -30.656  -3.807  1.00  0.00     0.139 A 
HETATM   14  N5  UNL     1     -51.444 -31.662  -3.195  1.00  0.00    -0.200 N 
HETATM   15  C12 UNL     1     -52.368 -32.341  -3.885  1.00  0.00     0.677 A 
ATOM     16  H5  UNL     1     -51.256 -31.895  -2.220  1.00  0.00     0.183 HD
HETATM   17  N7  UNL     1     -52.588 -32.005  -5.163  1.00  0.00    -0.177 N 
HETATM   18  C13 UNL     1     -51.943 -31.023  -5.825  1.00  0.00     0.160 A 
ATOM     19  H7  UNL     1     -53.297 -32.532  -5.674  1.00  0.00     0.185 HD
HETATM   20  N8  UNL     1     -52.237 -30.732  -7.184  1.00  0.00    -0.080 NA
BRANCH  15  21
HETATM   21  N6  UNL     1     -53.036 -33.310  -3.306  1.00  0.00    -0.234 N 
ATOM     22  H62 UNL     1     -52.561 -34.052  -2.794  1.00  0.00     0.174 HD
ATOM     23  H61 UNL     1     -54.055 -33.332  -3.364  1.00  0.00     0.174 HD
ENDBRANCH  15  21
ENDBRANCH  10  12
ENDBRANCH   7  10
BRANCH   4  24
HETATM   24  N1  UNL     1     -46.879 -29.158  -8.846  1.00  0.00    -0.371 N 
ATOM     25  H1  UNL     1     -47.470 -28.677  -9.525  1.00  0.00     0.161 HD
BRANCH  24  26
HETATM   26  C5  UNL     1     -45.621 -29.702  -9.273  1.00  0.00     0.165 C 
BRANCH  26  27
HETATM   27  C6  UNL     1     -44.583 -28.649  -9.542  1.00  0.00     0.076 C 
BRANCH  27  28
HETATM   28  N2  UNL     1     -43.255 -29.055  -9.579  1.00  0.00    -0.400 N 
HETATM   29  C7  UNL     1     -42.259 -28.244  -9.002  1.00  0.00     0.148 C 
HETATM   30  C8  UNL     1     -42.945 -30.422  -9.760  1.00  0.00     0.148 C 
ENDBRANCH  27  28
ENDBRANCH  26  27
ENDBRANCH  24  26
ENDBRANCH   4  24
TORSDOF 7
ENDMDL
MODEL 5
REMARK VINA RESULT: -7.989038284      1.682      2.308
REMARK  7 active torsions:
REMARK  status: ('A' for Active; 'I' for Inactive)
REMARK    1  A    between atoms: C4_4  and  N1_5 
REMARK    2  A    between atoms: N1_5  and  C5_7 
REMARK    3  A    between atoms: C5_7  and  C6_8 
REMARK    4  A    between atoms: C6_8  and  N2_9 
REMARK    5  A    between atoms: C9_14  and  N4_15 
REMARK    6  A    between atoms: N4_15  and  C10_17 
REMARK    7  A    between atoms: C12_21  and  N6_22 
ROOT
HETATM    1  C1  UNL     1     -46.185 -29.713  -4.302  1.00  0.00     0.069 C 
HETATM    2  C2  UNL     1     -46.652 -29.551  -5.693  1.00  0.00     0.026 A 
HETATM    3  C3  UNL     1     -45.965 -28.758  -6.622  1.00  0.00     0.073 A 
HETATM    4  C4  UNL     1     -46.403 -28.610  -7.919  1.00  0.00     0.119 A 
HETATM    5  N3  UNL     1     -47.538 -29.267  -8.263  1.00  0.00    -0.177 N 
ATOM      6  H3  UNL     1     -47.891 -29.179  -9.216  1.00  0.00     0.186 HD
HETATM    7  C9  UNL     1     -48.211 -30.032  -7.387  1.00  0.00     0.684 A 
HETATM    8  N9  UNL     1     -47.774 -30.170  -6.125  1.00  0.00    -0.196 N 
ATOM      9  H9  UNL     1     -48.300 -30.756  -5.478  1.00  0.00     0.184 HD
ENDROOT
BRANCH   7  10
HETATM   10  N4  UNL     1     -49.287 -30.647  -7.731  1.00  0.00    -0.187 N 
ATOM     11  H4  UNL     1     -49.330 -31.036  -8.673  1.00  0.00     0.184 HD
BRANCH  10  12
HETATM   12  C10 UNL     1     -50.412 -30.820  -6.896  1.00  0.00     0.106 A 
HETATM   13  C11 UNL     1     -50.407 -31.760  -5.900  1.00  0.00     0.139 A 
HETATM   14  N5  UNL     1     -51.485 -31.940  -5.085  1.00  0.00    -0.200 N 
HETATM   15  C12 UNL     1     -52.575 -31.183  -5.259  1.00  0.00     0.677 A 
ATOM     16  H5  UNL     1     -51.461 -32.645  -4.349  1.00  0.00     0.183 HD
HETATM   17  N7  UNL     1     -52.568 -30.267  -6.236  1.00  0.00    -0.177 N 
HETATM   18  C13 UNL     1     -51.537 -30.040  -7.074  1.00  0.00     0.160 A 
ATOM     19  H7  UNL     1     -53.407 -29.698  -6.355  1.00  0.00     0.185 HD
HETATM   20  N8  UNL     1     -51.613 -29.046  -8.087  1.00  0.00    -0.080 NA
BRANCH  15  21
HETATM   21  N6  UNL     1     -53.617 -31.348  -4.481  1.00  0.00    -0.234 N 
ATOM     22  H62 UNL     1     -53.702 -32.159  -3.868  1.00  0.00     0.174 HD
ATOM     23  H61 UNL     1     -54.367 -30.656  -4.481  1.00  0.00     0.174 HD
ENDBRANCH  15  21
ENDBRANCH  10  12
ENDBRANCH   7  10
BRANCH   4  24
HETATM   24  N1  UNL     1     -45.757 -27.879  -8.763  1.00  0.00    -0.371 N 
ATOM     25  H1  UNL     1     -45.908 -26.870  -8.766  1.00  0.00     0.161 HD
BRANCH  24  26
HETATM   26  C5  UNL     1     -44.830 -28.452  -9.698  1.00  0.00     0.165 C 
BRANCH  26  27
HETATM   27  C6  UNL     1     -43.401 -28.371  -9.240  1.00  0.00     0.076 C 
BRANCH  27  28
HETATM   28  N2  UNL     1     -42.785 -29.556  -8.858  1.00  0.00    -0.400 N 
HETATM   29  C7  UNL     1     -42.498 -29.789  -7.498  1.00  0.00     0.148 C 
HETATM   30  C8  UNL     1     -42.855 -30.687  -9.702  1.00  0.00     0.148 C 
ENDBRANCH  27  28
ENDBRANCH  26  27
ENDBRANCH  24  26
ENDBRANCH   4  24
TORSDOF 7
ENDMDL
