MODEL 1
REMARK VINA RESULT: -8.381324724      0.000      0.000
REMARK  6 active torsions:
REMARK  status: ('A' for Active; 'I' for Inactive)
REMARK    1  A    between atoms: C3_3  and  C4_4 
REMARK    2  A    between atoms: C4_4  and  N1_5 
REMARK    3  A    between atoms: C7_10  and  N3_11 
REMARK    4  A    between atoms: N3_11  and  C8_13 
REMARK    5  A    between atoms: C8_13  and  C9_14 
REMARK    6  A    between atoms: C9_14  and  N4_15 
ROOT
HETATM    1  C1  UNL     1     -52.805 -32.495  -3.978  1.00  0.00     0.112 C 
HETATM    2  C2  UNL     1     -52.560 -31.588  -5.094  1.00  0.00    -0.109 C 
HETATM    3  C3  UNL     1     -52.334 -30.848  -6.033  1.00  0.00    -0.087 C 
ENDROOT
BRANCH   3   4
HETATM    4  C4  UNL     1     -52.038 -29.980  -7.167  1.00  0.00     0.225 C 
BRANCH   4   5
HETATM    5  N1  UNL     1     -50.610 -29.917  -7.345  1.00  0.00    -0.316 N 
HETATM    6  C5  UNL     1     -49.735 -29.274  -6.571  1.00  0.00     0.186 A 
HETATM    7  N2  UNL     1     -48.472 -29.454  -7.042  1.00  0.00    -0.346 N 
HETATM    8  C6  UNL     1     -48.514 -30.219  -8.131  1.00  0.00     0.123 A 
ATOM      9  H2  UNL     1     -47.625 -29.065  -6.627  1.00  0.00     0.167 HD
HETATM   10  C7  UNL     1     -47.566 -30.703  -9.009  1.00  0.00     0.151 A 
HETATM   11  C15 UNL     1     -49.868 -30.505  -8.313  1.00  0.00     0.155 A 
HETATM   12  N6  UNL     1     -47.999 -31.450 -10.035  1.00  0.00    -0.174 N 
HETATM   13  C14 UNL     1     -49.333 -31.716 -10.192  1.00  0.00     0.679 A 
ATOM     14  H6  UNL     1     -47.328 -31.825 -10.705  1.00  0.00     0.186 HD
HETATM   15  N7  UNL     1     -49.678 -32.438 -11.193  1.00  0.00    -0.234 N 
HETATM   16  N8  UNL     1     -50.260 -31.249  -9.341  1.00  0.00    -0.174 N 
ATOM     17  H72 UNL     1     -48.974 -32.793 -11.840  1.00  0.00     0.174 HD
ATOM     18  H71 UNL     1     -50.672 -32.636 -11.310  1.00  0.00     0.174 HD
ATOM     19  H8  UNL     1     -51.248 -31.463  -9.480  1.00  0.00     0.186 HD
BRANCH  10  20
HETATM   20  N3  UNL     1     -46.330 -30.455  -8.836  1.00  0.00    -0.352 N 
ATOM     21  H3  UNL     1     -45.864 -31.096  -8.193  1.00  0.00     0.166 HD
BRANCH  20  22
HETATM   22  C8  UNL     1     -45.495 -29.470  -9.362  1.00  0.00     0.092 C 
BRANCH  22  23
HETATM   23  C9  UNL     1     -45.304 -28.266  -8.522  1.00  0.00     0.317 C 
BRANCH  23  24
HETATM   24  N4  UNL     1     -44.452 -28.384  -7.384  1.00  0.00     0.096 N 
HETATM   25  C10 UNL     1     -45.235 -28.651  -6.181  1.00  0.00     0.300 C 
HETATM   26  C11 UNL     1     -44.391 -28.927  -4.992  1.00  0.00     0.262 C 
HETATM   27  N5  UNL     1     -43.760 -30.232  -5.263  1.00  0.00    -0.072 N 
HETATM   28  C12 UNL     1     -42.862 -30.021  -6.345  1.00  0.00     0.262 C 
ATOM     29  H52 UNL     1     -43.318 -30.647  -4.443  1.00  0.00     0.277 HD
ATOM     30  H51 UNL     1     -44.433 -30.980  -5.434  1.00  0.00     0.277 HD
HETATM   31  C13 UNL     1     -43.324 -29.239  -7.507  1.00  0.00     0.300 C 
ENDBRANCH  23  24
ENDBRANCH  22  23
ENDBRANCH  20  22
ENDBRANCH  10  20
ENDBRANCH   4   5
ENDBRANCH   3   4
TORSDOF 6
ENDMDL
MODEL 2
REMARK VINA RESULT: -8.225231712      2.217      7.103
REMARK  6 active torsions:
REMARK  status: ('A' for Active; 'I' for Inactive)
REMARK    1  A    between atoms: C3_3  and  C4_4 
REMARK    2  A    between atoms: C4_4  and  N1_5 
REMARK    3  A    between atoms: C7_10  and  N3_11 
REMARK    4  A    between atoms: N3_11  and  C8_13 
REMARK    5  A    between atoms: C8_13  and  C9_14 
REMARK    6  A    between atoms: C9_14  and  N4_15 
ROOT
HETATM    1  C1  UNL     1     -42.791 -30.831 -10.112  1.00  0.00     0.112 C 
HETATM    2  C2  UNL     1     -42.862 -30.173  -8.811  1.00  0.00    -0.109 C 
HETATM    3  C3  UNL     1     -42.900 -29.608  -7.735  1.00  0.00    -0.087 C 
ENDROOT
BRANCH   3   4
HETATM    4  C4  UNL     1     -42.919 -28.913  -6.452  1.00  0.00     0.225 C 
BRANCH   4   5
HETATM    5  N1  UNL     1     -44.212 -29.096  -5.844  1.00  0.00    -0.316 N 
HETATM    6  C5  UNL     1     -44.484 -29.779  -4.731  1.00  0.00     0.186 A 
HETATM    7  N2  UNL     1     -45.814 -29.716  -4.456  1.00  0.00    -0.346 N 
HETATM    8  C6  UNL     1     -46.422 -28.988  -5.392  1.00  0.00     0.123 A 
ATOM      9  H2  UNL     1     -46.274 -30.156  -3.659  1.00  0.00     0.167 HD
HETATM   10  C7  UNL     1     -47.729 -28.612  -5.624  1.00  0.00     0.151 A 
HETATM   11  C15 UNL     1     -45.402 -28.603  -6.262  1.00  0.00     0.155 A 
HETATM   12  N6  UNL     1     -47.972 -27.869  -6.714  1.00  0.00    -0.174 N 
HETATM   13  C14 UNL     1     -46.954 -27.505  -7.553  1.00  0.00     0.679 A 
ATOM     14  H6  UNL     1     -48.926 -27.573  -6.920  1.00  0.00     0.186 HD
HETATM   15  N7  UNL     1     -47.257 -26.792  -8.575  1.00  0.00    -0.234 N 
HETATM   16  N8  UNL     1     -45.680 -27.866  -7.331  1.00  0.00    -0.174 N 
ATOM     17  H72 UNL     1     -48.224 -26.517  -8.744  1.00  0.00     0.174 HD
ATOM     18  H71 UNL     1     -46.498 -26.520  -9.201  1.00  0.00     0.174 HD
ATOM     19  H8  UNL     1     -44.940 -27.580  -7.972  1.00  0.00     0.186 HD
BRANCH  10  20
HETATM   20  N3  UNL     1     -48.657 -28.951  -4.823  1.00  0.00    -0.352 N 
ATOM     21  H3  UNL     1     -49.071 -28.170  -4.312  1.00  0.00     0.166 HD
BRANCH  20  22
HETATM   22  C8  UNL     1     -49.215 -30.192  -4.514  1.00  0.00     0.092 C 
BRANCH  22  23
HETATM   23  C9  UNL     1     -50.682 -30.301  -4.673  1.00  0.00     0.317 C 
BRANCH  23  24
HETATM   24  N4  UNL     1     -51.196 -30.410  -6.000  1.00  0.00     0.096 N 
HETATM   25  C10 UNL     1     -51.770 -29.140  -6.435  1.00  0.00     0.300 C 
HETATM   26  C11 UNL     1     -52.189 -29.153  -7.859  1.00  0.00     0.262 C 
HETATM   27  N5  UNL     1     -50.933 -29.219  -8.628  1.00  0.00    -0.072 N 
HETATM   28  C12 UNL     1     -50.376 -30.502  -8.368  1.00  0.00     0.262 C 
ATOM     29  H52 UNL     1     -51.054 -29.023  -9.621  1.00  0.00     0.277 HD
ATOM     30  H51 UNL     1     -50.293 -28.451  -8.426  1.00  0.00     0.277 HD
HETATM   31  C13 UNL     1     -50.343 -30.992  -6.977  1.00  0.00     0.300 C 
ENDBRANCH  23  24
ENDBRANCH  22  23
ENDBRANCH  20  22
ENDBRANCH  10  20
ENDBRANCH   4   5
ENDBRANCH   3   4
TORSDOF 6
ENDMDL
MODEL 3
REMARK VINA RESULT: -8.071381773      2.638      7.506
REMARK  6 active torsions:
REMARK  status: ('A' for Active; 'I' for Inactive)
REMARK    1  A    between atoms: C3_3  and  C4_4 
REMARK    2  A    between atoms: C4_4  and  N1_5 
REMARK    3  A    between atoms: C7_10  and  N3_11 
REMARK    4  A    between atoms: N3_11  and  C8_13 
REMARK    5  A    between atoms: C8_13  and  C9_14 
REMARK    6  A    between atoms: C9_14  and  N4_15 
ROOT
HETATM    1  C1  UNL     1     -42.837 -30.636 -10.132  1.00  0.00     0.112 C 
HETATM    2  C2  UNL     1     -42.841 -30.006  -8.816  1.00  0.00    -0.109 C 
HETATM    3  C3  UNL     1     -42.858 -29.503  -7.709  1.00  0.00    -0.087 C 
ENDROOT
BRANCH   3   4
HETATM    4  C4  UNL     1     -42.895 -28.925  -6.370  1.00  0.00     0.225 C 
BRANCH   4   5
HETATM    5  N1  UNL     1     -44.221 -29.083  -5.831  1.00  0.00    -0.316 N 
HETATM    6  C5  UNL     1     -44.565 -29.759  -4.734  1.00  0.00     0.186 A 
HETATM    7  N2  UNL     1     -45.906 -29.671  -4.531  1.00  0.00    -0.346 N 
HETATM    8  C6  UNL     1     -46.450 -28.934  -5.498  1.00  0.00     0.123 A 
ATOM      9  H2  UNL     1     -46.416 -30.102  -3.759  1.00  0.00     0.167 HD
HETATM   10  C7  UNL     1     -47.736 -28.535  -5.800  1.00  0.00     0.151 A 
HETATM   11  C15 UNL     1     -45.378 -28.569  -6.313  1.00  0.00     0.155 A 
HETATM   12  N6  UNL     1     -47.907 -27.789  -6.902  1.00  0.00    -0.174 N 
HETATM   13  C14 UNL     1     -46.838 -27.445  -7.686  1.00  0.00     0.679 A 
ATOM     14  H6  UNL     1     -48.843 -27.475  -7.159  1.00  0.00     0.186 HD
HETATM   15  N7  UNL     1     -47.073 -26.729  -8.723  1.00  0.00    -0.234 N 
HETATM   16  N8  UNL     1     -45.585 -27.829  -7.396  1.00  0.00    -0.174 N 
ATOM     17  H72 UNL     1     -48.025 -26.436  -8.943  1.00  0.00     0.174 HD
ATOM     18  H71 UNL     1     -46.277 -26.472  -9.307  1.00  0.00     0.174 HD
ATOM     19  H8  UNL     1     -44.807 -27.557  -7.996  1.00  0.00     0.186 HD
BRANCH  10  20
HETATM   20  N3  UNL     1     -48.712 -28.855  -5.050  1.00  0.00    -0.352 N 
ATOM     21  H3  UNL     1     -49.017 -28.109  -4.424  1.00  0.00     0.166 HD
BRANCH  20  22
HETATM   22  C8  UNL     1     -49.442 -30.037  -4.924  1.00  0.00     0.092 C 
BRANCH  22  23
HETATM   23  C9  UNL     1     -50.370 -30.347  -6.034  1.00  0.00     0.317 C 
BRANCH  23  24
HETATM   24  N4  UNL     1     -51.391 -31.314  -5.790  1.00  0.00     0.096 N 
HETATM   25  C10 UNL     1     -50.936 -32.306  -4.820  1.00  0.00     0.300 C 
HETATM   26  C11 UNL     1     -52.006 -33.253  -4.418  1.00  0.00     0.262 C 
HETATM   27  N5  UNL     1     -52.959 -32.447  -3.633  1.00  0.00    -0.072 N 
HETATM   28  C12 UNL     1     -53.558 -31.539  -4.550  1.00  0.00     0.262 C 
ATOM     29  H52 UNL     1     -53.635 -33.008  -3.116  1.00  0.00     0.277 HD
ATOM     30  H51 UNL     1     -52.534 -31.988  -2.827  1.00  0.00     0.277 HD
HETATM   31  C13 UNL     1     -52.693 -30.823  -5.506  1.00  0.00     0.300 C 
ENDBRANCH  23  24
ENDBRANCH  22  23
ENDBRANCH  20  22
ENDBRANCH  10  20
ENDBRANCH   4   5
ENDBRANCH   3   4
TORSDOF 6
ENDMDL
MODEL 4
REMARK VINA RESULT: -7.985582899      1.810      6.788
REMARK  6 active torsions:
REMARK  status: ('A' for Active; 'I' for Inactive)
REMARK    1  A    between atoms: C3_3  and  C4_4 
REMARK    2  A    between atoms: C4_4  and  N1_5 
REMARK    3  A    between atoms: C7_10  and  N3_11 
REMARK    4  A    between atoms: N3_11  and  C8_13 
REMARK    5  A    between atoms: C8_13  and  C9_14 
REMARK    6  A    between atoms: C9_14  and  N4_15 
ROOT
HETATM    1  C1  UNL     1     -42.890 -30.621 -10.006  1.00  0.00     0.112 C 
HETATM    2  C2  UNL     1     -42.944 -30.087  -8.649  1.00  0.00    -0.109 C 
HETATM    3  C3  UNL     1     -42.986 -29.615  -7.528  1.00  0.00    -0.087 C 
ENDROOT
BRANCH   3   4
HETATM    4  C4  UNL     1     -43.031 -29.021  -6.197  1.00  0.00     0.225 C 
BRANCH   4   5
HETATM    5  N1  UNL     1     -44.367 -29.150  -5.674  1.00  0.00    -0.316 N 
HETATM    6  C5  UNL     1     -44.737 -29.818  -4.581  1.00  0.00     0.186 A 
HETATM    7  N2  UNL     1     -46.079 -29.701  -4.393  1.00  0.00    -0.346 N 
HETATM    8  C6  UNL     1     -46.595 -28.954  -5.367  1.00  0.00     0.123 A 
ATOM      9  H2  UNL     1     -46.607 -30.121  -3.627  1.00  0.00     0.167 HD
HETATM   10  C7  UNL     1     -47.868 -28.527  -5.685  1.00  0.00     0.151 A 
HETATM   11  C15 UNL     1     -45.506 -28.612  -6.169  1.00  0.00     0.155 A 
HETATM   12  N6  UNL     1     -48.011 -27.779  -6.789  1.00  0.00    -0.174 N 
HETATM   13  C14 UNL     1     -46.926 -27.458  -7.560  1.00  0.00     0.679 A 
ATOM     14  H6  UNL     1     -48.936 -27.446  -7.057  1.00  0.00     0.186 HD
HETATM   15  N7  UNL     1     -47.133 -26.738  -8.600  1.00  0.00    -0.234 N 
HETATM   16  N8  UNL     1     -45.685 -27.869  -7.255  1.00  0.00    -0.174 N 
ATOM     17  H72 UNL     1     -48.075 -26.425  -8.832  1.00  0.00     0.174 HD
ATOM     18  H71 UNL     1     -46.325 -26.498  -9.175  1.00  0.00     0.174 HD
ATOM     19  H8  UNL     1     -44.893 -27.614  -7.846  1.00  0.00     0.186 HD
BRANCH  10  20
HETATM   20  N3  UNL     1     -48.860 -28.826  -4.946  1.00  0.00    -0.352 N 
ATOM     21  H3  UNL     1     -49.083 -28.120  -4.244  1.00  0.00     0.166 HD
BRANCH  20  22
HETATM   22  C8  UNL     1     -49.698 -29.941  -4.918  1.00  0.00     0.092 C 
BRANCH  22  23
HETATM   23  C9  UNL     1     -50.675 -30.045  -6.025  1.00  0.00     0.317 C 
BRANCH  23  24
HETATM   24  N4  UNL     1     -50.391 -30.978  -7.067  1.00  0.00     0.096 N 
HETATM   25  C10 UNL     1     -50.684 -30.395  -8.373  1.00  0.00     0.300 C 
HETATM   26  C11 UNL     1     -50.273 -31.267  -9.501  1.00  0.00     0.262 C 
HETATM   27  N5  UNL     1     -48.798 -31.265  -9.469  1.00  0.00    -0.072 N 
HETATM   28  C12 UNL     1     -48.426 -31.954  -8.282  1.00  0.00     0.262 C 
ATOM     29  H52 UNL     1     -48.374 -31.652 -10.313  1.00  0.00     0.277 HD
ATOM     30  H51 UNL     1     -48.392 -30.333  -9.542  1.00  0.00     0.277 HD
HETATM   31  C13 UNL     1     -49.130 -31.630  -7.026  1.00  0.00     0.300 C 
ENDBRANCH  23  24
ENDBRANCH  22  23
ENDBRANCH  20  22
ENDBRANCH  10  20
ENDBRANCH   4   5
ENDBRANCH   3   4
TORSDOF 6
ENDMDL
MODEL 5
REMARK VINA RESULT: -7.958864085      1.898      4.063
REMARK  6 active torsions:
REMARK  status: ('A' for Active; 'I' for Inactive)
REMARK    1  A    between atoms: C3_3  and  C4_4 
REMARK    2  A    between atoms: C4_4  and  N1_5 
REMARK    3  A    between atoms: C7_10  and  N3_11 
REMARK    4  A    between atoms: N3_11  and  C8_13 
REMARK    5  A    between atoms: C8_13  and  C9_14 
REMARK    6  A    between atoms: C9_14  and  N4_15 
ROOT
HETATM    1  C1  UNL     1     -50.080 -36.105 -10.575  1.00  0.00     0.112 C 
HETATM    2  C2  UNL     1     -49.972 -34.650 -10.564  1.00  0.00    -0.109 C 
HETATM    3  C3  UNL     1     -49.910 -33.435 -10.565  1.00  0.00    -0.087 C 
ENDROOT
BRANCH   3   4
HETATM    4  C4  UNL     1     -49.865 -31.977 -10.576  1.00  0.00     0.225 C 
BRANCH   4   5
HETATM    5  N1  UNL     1     -49.434 -31.514  -9.282  1.00  0.00    -0.316 N 
HETATM    6  C5  UNL     1     -48.305 -31.840  -8.652  1.00  0.00     0.186 A 
HETATM    7  N2  UNL     1     -48.233 -31.194  -7.457  1.00  0.00    -0.346 N 
HETATM    8  C6  UNL     1     -49.320 -30.440  -7.300  1.00  0.00     0.123 A 
ATOM      9  H2  UNL     1     -47.468 -31.274  -6.787  1.00  0.00     0.167 HD
HETATM   10  C7  UNL     1     -49.778 -29.603  -6.303  1.00  0.00     0.151 A 
HETATM   11  C15 UNL     1     -50.070 -30.650  -8.457  1.00  0.00     0.155 A 
HETATM   12  N6  UNL     1     -50.965 -29.009  -6.493  1.00  0.00    -0.174 N 
HETATM   13  C14 UNL     1     -51.683 -29.232  -7.638  1.00  0.00     0.679 A 
ATOM     14  H6  UNL     1     -51.338 -28.384  -5.778  1.00  0.00     0.186 HD
HETATM   15  N7  UNL     1     -52.809 -28.631  -7.756  1.00  0.00    -0.234 N 
HETATM   16  N8  UNL     1     -51.242 -30.044  -8.611  1.00  0.00    -0.174 N 
ATOM     17  H72 UNL     1     -53.144 -28.014  -7.016  1.00  0.00     0.174 HD
ATOM     18  H71 UNL     1     -53.344 -28.797  -8.608  1.00  0.00     0.174 HD
ATOM     19  H8  UNL     1     -51.796 -30.192  -9.455  1.00  0.00     0.186 HD
BRANCH  10  20
HETATM   20  N3  UNL     1     -49.088 -29.399  -5.253  1.00  0.00    -0.352 N 
ATOM     21  H3  UNL     1     -49.476 -29.825  -4.411  1.00  0.00     0.166 HD
BRANCH  20  22
HETATM   22  C8  UNL     1     -47.898 -28.702  -5.042  1.00  0.00     0.092 C 
BRANCH  22  23
HETATM   23  C9  UNL     1     -46.730 -29.519  -4.645  1.00  0.00     0.317 C 
BRANCH  23  24
HETATM   24  N4  UNL     1     -45.655 -29.628  -5.578  1.00  0.00     0.096 N 
HETATM   25  C10 UNL     1     -45.699 -28.533  -6.543  1.00  0.00     0.300 C 
HETATM   26  C11 UNL     1     -44.523 -28.514  -7.449  1.00  0.00     0.262 C 
HETATM   27  N5  UNL     1     -43.383 -28.144  -6.590  1.00  0.00    -0.072 N 
HETATM   28  C12 UNL     1     -43.181 -29.238  -5.704  1.00  0.00     0.262 C 
ATOM     29  H52 UNL     1     -42.547 -27.887  -7.115  1.00  0.00     0.277 HD
ATOM     30  H51 UNL     1     -43.509 -27.252  -6.112  1.00  0.00     0.277 HD
HETATM   31  C13 UNL     1     -44.356 -29.842  -5.046  1.00  0.00     0.300 C 
ENDBRANCH  23  24
ENDBRANCH  22  23
ENDBRANCH  20  22
ENDBRANCH  10  20
ENDBRANCH   4   5
ENDBRANCH   3   4
TORSDOF 6
ENDMDL
