MODEL 1
REMARK VINA RESULT: -8.227947067      0.000      0.000
REMARK  7 active torsions:
REMARK  status: ('A' for Active; 'I' for Inactive)
REMARK    1  A    between atoms: C3_3  and  N1_4 
REMARK    2  A    between atoms: C6_9  and  N3_10 
REMARK    3  A    between atoms: N3_10  and  C7_12 
REMARK    4  A    between atoms: C7_12  and  C8_13 
REMARK    5  A    between atoms: C8_13  and  N4_14 
REMARK    6  A    between atoms: C11_17  and  N5_18 
REMARK    7  A    between atoms: C14_26  and  N7_27 
ROOT
HETATM    1  C1  UNL     1     -44.010 -30.451  -5.288  1.00  0.00     0.014 C 
HETATM    2  C2  UNL     1     -44.371 -30.464  -6.437  1.00  0.00    -0.096 C 
HETATM    3  C3  UNL     1     -44.829 -30.469  -7.829  1.00  0.00     0.243 C 
ENDROOT
BRANCH   3   4
HETATM    4  N1  UNL     1     -46.180 -29.965  -7.960  1.00  0.00    -0.264 N 
HETATM    5  N2  UNL     1     -46.562 -28.725  -7.759  1.00  0.00    -0.306 N 
HETATM    6  C4  UNL     1     -47.883 -28.595  -7.968  1.00  0.00     0.126 A 
ATOM      7  H2  UNL     1     -45.940 -27.964  -7.483  1.00  0.00     0.186 HD
HETATM    8  C5  UNL     1     -48.375 -29.831  -8.323  1.00  0.00     0.071 A 
HETATM    9  C6  UNL     1     -49.642 -30.291  -8.649  1.00  0.00     0.132 A 
HETATM   10  C15 UNL     1     -47.268 -30.672  -8.307  1.00  0.00     0.154 A 
HETATM   11  N6  UNL     1     -49.793 -31.592  -8.957  1.00  0.00    -0.176 N 
HETATM   12  C14 UNL     1     -48.712 -32.418  -8.943  1.00  0.00     0.679 A 
ATOM     13  H6  UNL     1     -50.713 -31.958  -9.199  1.00  0.00     0.186 HD
HETATM   14  N8  UNL     1     -47.487 -31.963  -8.626  1.00  0.00    -0.174 N 
ATOM     15  H8  UNL     1     -46.701 -32.613  -8.627  1.00  0.00     0.186 HD
BRANCH   9  16
HETATM   16  N3  UNL     1     -50.591 -29.435  -8.633  1.00  0.00    -0.373 N 
ATOM     17  H3  UNL     1     -50.553 -28.671  -9.307  1.00  0.00     0.161 HD
BRANCH  16  18
HETATM   18  C7  UNL     1     -51.715 -29.475  -7.723  1.00  0.00     0.151 C 
BRANCH  18  19
HETATM   19  C8  UNL     1     -51.214 -29.115  -6.357  1.00  0.00     0.292 C 
BRANCH  19  20
HETATM   20  N4  UNL     1     -51.678 -30.013  -5.321  1.00  0.00     0.090 N 
HETATM   21  C9  UNL     1     -52.602 -30.942  -5.955  1.00  0.00     0.274 C 
HETATM   22  C10 UNL     1     -53.251 -31.773  -4.870  1.00  0.00     0.063 C 
HETATM   23  C11 UNL     1     -52.126 -32.594  -4.233  1.00  0.00     0.186 C 
HETATM   24  C12 UNL     1     -51.188 -31.593  -3.595  1.00  0.00     0.063 C 
HETATM   25  C13 UNL     1     -50.614 -30.710  -4.674  1.00  0.00     0.274 C 
BRANCH  23  26
HETATM   26  N5  UNL     1     -52.721 -33.463  -3.238  1.00  0.00    -0.075 N 
ATOM     27  H53 UNL     1     -52.296 -33.359  -2.317  1.00  0.00     0.274 HD
ATOM     28  H52 UNL     1     -53.668 -33.183  -2.982  1.00  0.00     0.274 HD
ATOM     29  H51 UNL     1     -52.672 -34.419  -3.590  1.00  0.00     0.274 HD
ENDBRANCH  23  26
ENDBRANCH  19  20
ENDBRANCH  18  19
ENDBRANCH  16  18
ENDBRANCH   9  16
BRANCH  12  30
HETATM   30  N7  UNL     1     -48.866 -33.663  -9.240  1.00  0.00    -0.234 N 
ATOM     31  H72 UNL     1     -49.601 -34.199  -8.779  1.00  0.00     0.174 HD
ATOM     32  H71 UNL     1     -48.251 -34.090  -9.932  1.00  0.00     0.174 HD
ENDBRANCH  12  30
ENDBRANCH   3   4
TORSDOF 7
ENDMDL
MODEL 2
REMARK VINA RESULT: -8.193909522      1.955      6.577
REMARK  7 active torsions:
REMARK  status: ('A' for Active; 'I' for Inactive)
REMARK    1  A    between atoms: C3_3  and  N1_4 
REMARK    2  A    between atoms: C6_9  and  N3_10 
REMARK    3  A    between atoms: N3_10  and  C7_12 
REMARK    4  A    between atoms: C7_12  and  C8_13 
REMARK    5  A    between atoms: C8_13  and  N4_14 
REMARK    6  A    between atoms: C11_17  and  N5_18 
REMARK    7  A    between atoms: C14_26  and  N7_27 
ROOT
HETATM    1  C1  UNL     1     -52.686 -34.166  -3.641  1.00  0.00     0.014 C 
HETATM    2  C2  UNL     1     -52.759 -33.018  -3.999  1.00  0.00    -0.096 C 
HETATM    3  C3  UNL     1     -52.830 -31.625  -4.446  1.00  0.00     0.243 C 
ENDROOT
BRANCH   3   4
HETATM    4  N1  UNL     1     -51.674 -31.246  -5.233  1.00  0.00    -0.264 N 
HETATM    5  N2  UNL     1     -50.447 -31.677  -5.054  1.00  0.00    -0.306 N 
HETATM    6  C4  UNL     1     -49.615 -31.128  -5.957  1.00  0.00     0.126 A 
ATOM      7  H2  UNL     1     -50.163 -32.337  -4.330  1.00  0.00     0.186 HD
HETATM    8  C5  UNL     1     -50.360 -30.295  -6.761  1.00  0.00     0.071 A 
HETATM    9  C6  UNL     1     -50.043 -29.483  -7.840  1.00  0.00     0.132 A 
HETATM   10  C15 UNL     1     -51.657 -30.396  -6.273  1.00  0.00     0.154 A 
HETATM   11  N6  UNL     1     -51.027 -28.775  -8.422  1.00  0.00    -0.176 N 
HETATM   12  C14 UNL     1     -52.298 -28.872  -7.947  1.00  0.00     0.679 A 
ATOM     13  H6  UNL     1     -50.823 -28.169  -9.216  1.00  0.00     0.186 HD
HETATM   14  N8  UNL     1     -52.598 -29.662  -6.901  1.00  0.00    -0.174 N 
ATOM     15  H8  UNL     1     -53.562 -29.708  -6.574  1.00  0.00     0.186 HD
BRANCH   9  16
HETATM   16  N3  UNL     1     -48.819 -29.463  -8.209  1.00  0.00    -0.373 N 
ATOM     17  H3  UNL     1     -48.418 -30.327  -8.572  1.00  0.00     0.161 HD
BRANCH  16  18
HETATM   18  C7  UNL     1     -47.964 -28.298  -8.147  1.00  0.00     0.151 C 
BRANCH  18  19
HETATM   19  C8  UNL     1     -47.548 -28.109  -6.719  1.00  0.00     0.292 C 
BRANCH  19  20
HETATM   20  N4  UNL     1     -46.156 -28.424  -6.480  1.00  0.00     0.090 N 
HETATM   21  C9  UNL     1     -46.125 -29.744  -5.865  1.00  0.00     0.274 C 
HETATM   22  C10 UNL     1     -44.703 -30.025  -5.429  1.00  0.00     0.063 C 
HETATM   23  C11 UNL     1     -43.869 -30.088  -6.712  1.00  0.00     0.186 C 
HETATM   24  C12 UNL     1     -43.936 -28.705  -7.322  1.00  0.00     0.063 C 
HETATM   25  C13 UNL     1     -45.369 -28.396  -7.671  1.00  0.00     0.274 C 
BRANCH  23  26
HETATM   26  N5  UNL     1     -42.512 -30.434  -6.342  1.00  0.00    -0.075 N 
ATOM     27  H53 UNL     1     -42.459 -30.930  -5.453  1.00  0.00     0.274 HD
ATOM     28  H52 UNL     1     -42.116 -31.167  -6.930  1.00  0.00     0.274 HD
ATOM     29  H51 UNL     1     -41.959 -29.577  -6.351  1.00  0.00     0.274 HD
ENDBRANCH  23  26
ENDBRANCH  19  20
ENDBRANCH  18  19
ENDBRANCH  16  18
ENDBRANCH   9  16
BRANCH  12  30
HETATM   30  N7  UNL     1     -53.236 -28.191  -8.512  1.00  0.00    -0.234 N 
ATOM     31  H72 UNL     1     -54.073 -28.670  -8.841  1.00  0.00     0.174 HD
ATOM     32  H71 UNL     1     -53.123 -27.183  -8.620  1.00  0.00     0.174 HD
ENDBRANCH  12  30
ENDBRANCH   3   4
TORSDOF 7
ENDMDL
MODEL 3
REMARK VINA RESULT: -8.082371594      2.293      4.293
REMARK  7 active torsions:
REMARK  status: ('A' for Active; 'I' for Inactive)
REMARK    1  A    between atoms: C3_3  and  N1_4 
REMARK    2  A    between atoms: C6_9  and  N3_10 
REMARK    3  A    between atoms: N3_10  and  C7_12 
REMARK    4  A    between atoms: C7_12  and  C8_13 
REMARK    5  A    between atoms: C8_13  and  N4_14 
REMARK    6  A    between atoms: C11_17  and  N5_18 
REMARK    7  A    between atoms: C14_26  and  N7_27 
ROOT
HETATM    1  C1  UNL     1     -43.178 -30.422  -9.228  1.00  0.00     0.014 C 
HETATM    2  C2  UNL     1     -43.075 -29.893  -8.151  1.00  0.00    -0.096 C 
HETATM    3  C3  UNL     1     -42.971 -29.256  -6.836  1.00  0.00     0.243 C 
ENDROOT
BRANCH   3   4
HETATM    4  N1  UNL     1     -44.227 -29.282  -6.117  1.00  0.00    -0.264 N 
HETATM    5  N2  UNL     1     -44.453 -29.902  -4.982  1.00  0.00    -0.306 N 
HETATM    6  C4  UNL     1     -45.725 -29.724  -4.587  1.00  0.00     0.126 A 
ATOM      7  H2  UNL     1     -43.757 -30.446  -4.470  1.00  0.00     0.186 HD
HETATM    8  C5  UNL     1     -46.351 -28.940  -5.530  1.00  0.00     0.071 A 
HETATM    9  C6  UNL     1     -47.640 -28.442  -5.648  1.00  0.00     0.132 A 
HETATM   10  C15 UNL     1     -45.372 -28.680  -6.482  1.00  0.00     0.154 A 
HETATM   11  N6  UNL     1     -47.941 -27.688  -6.720  1.00  0.00    -0.176 N 
HETATM   12  C14 UNL     1     -46.986 -27.431  -7.654  1.00  0.00     0.679 A 
ATOM     13  H6  UNL     1     -48.882 -27.310  -6.833  1.00  0.00     0.186 HD
HETATM   14  N8  UNL     1     -45.738 -27.917  -7.532  1.00  0.00    -0.174 N 
ATOM     15  H8  UNL     1     -45.049 -27.703  -8.253  1.00  0.00     0.186 HD
BRANCH   9  16
HETATM   16  N3  UNL     1     -48.463 -28.741  -4.716  1.00  0.00    -0.373 N 
ATOM     17  H3  UNL     1     -48.131 -28.685  -3.754  1.00  0.00     0.161 HD
BRANCH  16  18
HETATM   18  C7  UNL     1     -49.832 -29.152  -4.934  1.00  0.00     0.151 C 
BRANCH  18  19
HETATM   19  C8  UNL     1     -49.865 -30.651  -4.947  1.00  0.00     0.292 C 
BRANCH  19  20
HETATM   20  N4  UNL     1     -50.053 -31.209  -6.269  1.00  0.00     0.090 N 
HETATM   21  C9  UNL     1     -50.768 -30.208  -7.049  1.00  0.00     0.274 C 
HETATM   22  C10 UNL     1     -51.147 -30.829  -8.375  1.00  0.00     0.063 C 
HETATM   23  C11 UNL     1     -49.831 -31.131  -9.097  1.00  0.00     0.186 C 
HETATM   24  C12 UNL     1     -49.120 -32.165  -8.252  1.00  0.00     0.063 C 
HETATM   25  C13 UNL     1     -48.824 -31.568  -6.900  1.00  0.00     0.274 C 
BRANCH  23  26
HETATM   26  N5  UNL     1     -50.154 -31.656 -10.407  1.00  0.00    -0.075 N 
ATOM     27  H53 UNL     1     -49.875 -31.032 -11.164  1.00  0.00     0.274 HD
ATOM     28  H52 UNL     1     -49.573 -32.453 -10.669  1.00  0.00     0.274 HD
ATOM     29  H51 UNL     1     -51.151 -31.873 -10.420  1.00  0.00     0.274 HD
ENDBRANCH  23  26
ENDBRANCH  19  20
ENDBRANCH  18  19
ENDBRANCH  16  18
ENDBRANCH   9  16
BRANCH  12  30
HETATM   30  N7  UNL     1     -47.284 -26.706  -8.677  1.00  0.00    -0.234 N 
ATOM     31  H72 UNL     1     -48.217 -26.775  -9.083  1.00  0.00     0.174 HD
ATOM     32  H71 UNL     1     -46.581 -26.076  -9.063  1.00  0.00     0.174 HD
ENDBRANCH  12  30
ENDBRANCH   3   4
TORSDOF 7
ENDMDL
MODEL 4
REMARK VINA RESULT: -8.022079486      2.059      6.521
REMARK  7 active torsions:
REMARK  status: ('A' for Active; 'I' for Inactive)
REMARK    1  A    between atoms: C3_3  and  N1_4 
REMARK    2  A    between atoms: C6_9  and  N3_10 
REMARK    3  A    between atoms: N3_10  and  C7_12 
REMARK    4  A    between atoms: C7_12  and  C8_13 
REMARK    5  A    between atoms: C8_13  and  N4_14 
REMARK    6  A    between atoms: C11_17  and  N5_18 
REMARK    7  A    between atoms: C14_26  and  N7_27 
ROOT
HETATM    1  C1  UNL     1     -52.276 -33.767  -4.241  1.00  0.00     0.014 C 
HETATM    2  C2  UNL     1     -51.963 -32.626  -4.012  1.00  0.00    -0.096 C 
HETATM    3  C3  UNL     1     -51.571 -31.239  -3.751  1.00  0.00     0.243 C 
ENDROOT
BRANCH   3   4
HETATM    4  N1  UNL     1     -50.571 -30.771  -4.687  1.00  0.00    -0.264 N 
HETATM    5  N2  UNL     1     -49.270 -30.820  -4.512  1.00  0.00    -0.306 N 
HETATM    6  C4  UNL     1     -48.628 -30.302  -5.574  1.00  0.00     0.126 A 
ATOM      7  H2  UNL     1     -48.810 -31.200  -3.684  1.00  0.00     0.186 HD
HETATM    8  C5  UNL     1     -49.581 -29.896  -6.482  1.00  0.00     0.071 A 
HETATM    9  C6  UNL     1     -49.507 -29.302  -7.734  1.00  0.00     0.132 A 
HETATM   10  C15 UNL     1     -50.796 -30.209  -5.886  1.00  0.00     0.154 A 
HETATM   11  N6  UNL     1     -50.654 -29.025  -8.380  1.00  0.00    -0.176 N 
HETATM   12  C14 UNL     1     -51.846 -29.330  -7.800  1.00  0.00     0.679 A 
ATOM     13  H6  UNL     1     -50.630 -28.587  -9.301  1.00  0.00     0.186 HD
HETATM   14  N8  UNL     1     -51.908 -29.905  -6.586  1.00  0.00    -0.174 N 
ATOM     15  H8  UNL     1     -52.820 -30.119  -6.184  1.00  0.00     0.186 HD
BRANCH   9  16
HETATM   16  N3  UNL     1     -48.339 -29.057  -8.190  1.00  0.00    -0.373 N 
ATOM     17  H3  UNL     1     -47.777 -29.847  -8.505  1.00  0.00     0.161 HD
BRANCH  16  18
HETATM   18  C7  UNL     1     -47.760 -27.735  -8.290  1.00  0.00     0.151 C 
BRANCH  18  19
HETATM   19  C8  UNL     1     -46.828 -27.553  -7.130  1.00  0.00     0.292 C 
BRANCH  19  20
HETATM   20  N4  UNL     1     -45.817 -28.584  -7.039  1.00  0.00     0.090 N 
HETATM   21  C9  UNL     1     -44.843 -28.309  -8.087  1.00  0.00     0.274 C 
HETATM   22  C10 UNL     1     -43.875 -29.470  -8.145  1.00  0.00     0.063 C 
HETATM   23  C11 UNL     1     -43.132 -29.471  -6.806  1.00  0.00     0.186 C 
HETATM   24  C12 UNL     1     -44.178 -29.751  -5.748  1.00  0.00     0.063 C 
HETATM   25  C13 UNL     1     -45.189 -28.633  -5.758  1.00  0.00     0.274 C 
BRANCH  23  26
HETATM   26  N5  UNL     1     -42.138 -30.524  -6.851  1.00  0.00    -0.075 N 
ATOM     27  H53 UNL     1     -42.536 -31.434  -7.081  1.00  0.00     0.274 HD
ATOM     28  H52 UNL     1     -41.512 -30.444  -7.653  1.00  0.00     0.274 HD
ATOM     29  H51 UNL     1     -41.641 -30.523  -5.960  1.00  0.00     0.274 HD
ENDBRANCH  23  26
ENDBRANCH  19  20
ENDBRANCH  18  19
ENDBRANCH  16  18
ENDBRANCH   9  16
BRANCH  12  30
HETATM   30  N7  UNL     1     -52.939 -29.060  -8.428  1.00  0.00    -0.234 N 
ATOM     31  H72 UNL     1     -52.920 -28.954  -9.441  1.00  0.00     0.174 HD
ATOM     32  H71 UNL     1     -53.805 -28.958  -7.899  1.00  0.00     0.174 HD
ENDBRANCH  12  30
ENDBRANCH   3   4
TORSDOF 7
ENDMDL
MODEL 5
REMARK VINA RESULT: -7.976441252      2.365      3.320
REMARK  7 active torsions:
REMARK  status: ('A' for Active; 'I' for Inactive)
REMARK    1  A    between atoms: C3_3  and  N1_4 
REMARK    2  A    between atoms: C6_9  and  N3_10 
REMARK    3  A    between atoms: N3_10  and  C7_12 
REMARK    4  A    between atoms: C7_12  and  C8_13 
REMARK    5  A    between atoms: C8_13  and  N4_14 
REMARK    6  A    between atoms: C11_17  and  N5_18 
REMARK    7  A    between atoms: C14_26  and  N7_27 
ROOT
HETATM    1  C1  UNL     1     -42.635 -30.061  -8.007  1.00  0.00     0.014 C 
HETATM    2  C2  UNL     1     -42.966 -29.578  -6.954  1.00  0.00    -0.096 C 
HETATM    3  C3  UNL     1     -43.389 -28.998  -5.677  1.00  0.00     0.243 C 
ENDROOT
BRANCH   3   4
HETATM    4  N1  UNL     1     -44.805 -29.180  -5.439  1.00  0.00    -0.264 N 
HETATM    5  N2  UNL     1     -45.339 -29.902  -4.481  1.00  0.00    -0.306 N 
HETATM    6  C4  UNL     1     -46.681 -29.856  -4.542  1.00  0.00     0.126 A 
ATOM      7  H2  UNL     1     -44.807 -30.426  -3.785  1.00  0.00     0.186 HD
HETATM    8  C5  UNL     1     -47.025 -29.055  -5.609  1.00  0.00     0.071 A 
HETATM    9  C6  UNL     1     -48.241 -28.654  -6.142  1.00  0.00     0.132 A 
HETATM   10  C15 UNL     1     -45.812 -28.646  -6.150  1.00  0.00     0.154 A 
HETATM   11  N6  UNL     1     -48.234 -27.846  -7.217  1.00  0.00    -0.176 N 
HETATM   12  C14 UNL     1     -47.049 -27.443  -7.751  1.00  0.00     0.679 A 
ATOM     13  H6  UNL     1     -49.113 -27.537  -7.632  1.00  0.00     0.186 HD
HETATM   14  N8  UNL     1     -45.875 -27.836  -7.227  1.00  0.00    -0.174 N 
ATOM     15  H8  UNL     1     -45.008 -27.513  -7.655  1.00  0.00     0.186 HD
BRANCH   9  16
HETATM   16  N3  UNL     1     -49.296 -29.089  -5.567  1.00  0.00    -0.373 N 
ATOM     17  H3  UNL     1     -49.202 -29.471  -4.627  1.00  0.00     0.161 HD
BRANCH  16  18
HETATM   18  C7  UNL     1     -50.616 -29.075  -6.159  1.00  0.00     0.151 C 
BRANCH  18  19
HETATM   19  C8  UNL     1     -50.822 -30.389  -6.851  1.00  0.00     0.292 C 
BRANCH  19  20
HETATM   20  N4  UNL     1     -51.631 -31.317  -6.090  1.00  0.00     0.090 N 
HETATM   21  C9  UNL     1     -50.712 -32.106  -5.280  1.00  0.00     0.274 C 
HETATM   22  C10 UNL     1     -51.503 -33.211  -4.615  1.00  0.00     0.063 C 
HETATM   23  C11 UNL     1     -52.487 -32.519  -3.666  1.00  0.00     0.186 C 
HETATM   24  C12 UNL     1     -53.413 -31.707  -4.545  1.00  0.00     0.063 C 
HETATM   25  C13 UNL     1     -52.603 -30.665  -5.273  1.00  0.00     0.274 C 
BRANCH  23  26
HETATM   26  N5  UNL     1     -53.211 -33.549  -2.950  1.00  0.00    -0.075 N 
ATOM     27  H53 UNL     1     -54.177 -33.643  -3.263  1.00  0.00     0.274 HD
ATOM     28  H52 UNL     1     -52.899 -34.491  -3.188  1.00  0.00     0.274 HD
ATOM     29  H51 UNL     1     -53.136 -33.347  -1.953  1.00  0.00     0.274 HD
ENDBRANCH  23  26
ENDBRANCH  19  20
ENDBRANCH  18  19
ENDBRANCH  16  18
ENDBRANCH   9  16
BRANCH  12  30
HETATM   30  N7  UNL     1     -47.053 -26.668  -8.781  1.00  0.00    -0.234 N 
ATOM     31  H72 UNL     1     -47.264 -27.059  -9.699  1.00  0.00     0.174 HD
ATOM     32  H71 UNL     1     -46.846 -25.677  -8.660  1.00  0.00     0.174 HD
ENDBRANCH  12  30
ENDBRANCH   3   4
TORSDOF 7
ENDMDL
