MODEL 1
REMARK VINA RESULT: -7.636109676      0.000      0.000
REMARK  7 active torsions:
REMARK  status: ('A' for Active; 'I' for Inactive)
REMARK    1  A    between atoms: C2_2  and  C3_3 
REMARK    2  A    between atoms: C3_3  and  N1_4 
REMARK    3  A    between atoms: N1_4  and  C4_6 
REMARK    4  A    between atoms: C5_9  and  N3_10 
REMARK    5  A    between atoms: C10_21  and  N7_22 
REMARK    6  A    between atoms: N7_22  and  C11_24 
REMARK    7  A    between atoms: C13_28  and  N9_29 
ROOT
HETATM    1  C4  UNL     1     -48.859 -29.815  -7.771  1.00  0.00     0.135 A 
HETATM    2  N2  UNL     1     -49.310 -30.973  -8.274  1.00  0.00    -0.174 N 
ATOM      3  H2  UNL     1     -50.231 -31.306  -7.989  1.00  0.00     0.186 HD
HETATM    4  C5  UNL     1     -48.594 -31.715  -9.142  1.00  0.00     0.706 A 
HETATM    5  N5  UNL     1     -47.381 -31.262  -9.510  1.00  0.00    -0.173 N 
ATOM      6  H5  UNL     1     -46.838 -31.821 -10.167  1.00  0.00     0.186 HD
HETATM    7  C9  UNL     1     -46.850 -30.130  -9.067  1.00  0.00     0.154 A 
HETATM    8  N6  UNL     1     -45.634 -29.721  -9.465  1.00  0.00    -0.175 N 
ATOM      9  H6  UNL     1     -45.104 -30.292 -10.122  1.00  0.00     0.186 HD
HETATM   10  C10 UNL     1     -45.111 -28.589  -9.018  1.00  0.00     0.681 A 
HETATM   11  N8  UNL     1     -45.833 -27.843  -8.142  1.00  0.00    -0.176 N 
ATOM     12  H8  UNL     1     -45.434 -26.971  -7.795  1.00  0.00     0.186 HD
HETATM   13  C13 UNL     1     -47.050 -28.208  -7.717  1.00  0.00     0.132 A 
HETATM   14  C14 UNL     1     -47.615 -29.382  -8.169  1.00  0.00     0.097 A 
ENDROOT
BRANCH   4  15
HETATM   15  N3  UNL     1     -49.114 -32.942  -9.652  1.00  0.00    -0.098 N 
HETATM   16  C6  UNL     1     -49.943 -33.050 -10.727  1.00  0.00     0.136 A 
HETATM   17  C7  UNL     1     -50.242 -34.377 -10.934  1.00  0.00     0.038 A 
HETATM   18  C8  UNL     1     -49.574 -35.075  -9.952  1.00  0.00     0.110 A 
HETATM   19  N4  UNL     1     -48.924 -34.171  -9.226  1.00  0.00    -0.291 N 
ATOM     20  H4  UNL     1     -48.341 -34.406  -8.423  1.00  0.00     0.187 HD
ENDBRANCH   4  15
BRANCH   1  21
HETATM   21  N1  UNL     1     -49.517 -29.090  -6.945  1.00  0.00    -0.371 N 
ATOM     22  H1  UNL     1     -49.198 -28.131  -6.807  1.00  0.00     0.161 HD
BRANCH  21  23
HETATM   23  C3  UNL     1     -50.665 -29.515  -6.197  1.00  0.00     0.147 C 
BRANCH  23  24
HETATM   24  C2  UNL     1     -50.239 -29.702  -4.782  1.00  0.00    -0.018 C 
HETATM   25  C1  UNL     1     -50.554 -30.778  -4.079  1.00  0.00     0.008 C 
ENDBRANCH  23  24
ENDBRANCH  21  23
ENDBRANCH   1  21
BRANCH  13  26
HETATM   26  N9  UNL     1     -47.736 -27.506  -6.890  1.00  0.00    -0.384 N 
ATOM     27  H92 UNL     1     -48.278 -26.731  -7.273  1.00  0.00     0.157 HD
ATOM     28  H91 UNL     1     -47.755 -27.697  -5.888  1.00  0.00     0.157 HD
ENDBRANCH  13  26
BRANCH  10  29
HETATM   29  N7  UNL     1     -43.948 -28.231  -9.419  1.00  0.00    -0.226 N 
ATOM     30  H7  UNL     1     -43.809 -27.983 -10.398  1.00  0.00     0.177 HD
BRANCH  29  31
HETATM   31  C11 UNL     1     -42.828 -28.175  -8.505  1.00  0.00     0.133 C 
HETATM   32  C12 UNL     1     -42.487 -29.576  -8.027  1.00  0.00     0.027 C 
ENDBRANCH  29  31
ENDBRANCH  10  29
TORSDOF 7
ENDMDL
MODEL 2
REMARK VINA RESULT: -7.621140537      1.073      1.350
REMARK  7 active torsions:
REMARK  status: ('A' for Active; 'I' for Inactive)
REMARK    1  A    between atoms: C2_2  and  C3_3 
REMARK    2  A    between atoms: C3_3  and  N1_4 
REMARK    3  A    between atoms: N1_4  and  C4_6 
REMARK    4  A    between atoms: C5_9  and  N3_10 
REMARK    5  A    between atoms: C10_21  and  N7_22 
REMARK    6  A    between atoms: N7_22  and  C11_24 
REMARK    7  A    between atoms: C13_28  and  N9_29 
ROOT
HETATM    1  C4  UNL     1     -48.788 -31.015  -7.031  1.00  0.00     0.135 A 
HETATM    2  N2  UNL     1     -49.218 -32.093  -7.703  1.00  0.00    -0.174 N 
ATOM      3  H2  UNL     1     -49.953 -32.667  -7.290  1.00  0.00     0.186 HD
HETATM    4  C5  UNL     1     -48.717 -32.448  -8.902  1.00  0.00     0.706 A 
HETATM    5  N5  UNL     1     -47.749 -31.680  -9.435  1.00  0.00    -0.173 N 
ATOM      6  H5  UNL     1     -47.369 -31.947 -10.343  1.00  0.00     0.186 HD
HETATM    7  C9  UNL     1     -47.258 -30.597  -8.848  1.00  0.00     0.154 A 
HETATM    8  N6  UNL     1     -46.291 -29.864  -9.421  1.00  0.00    -0.175 N 
ATOM      9  H6  UNL     1     -45.922 -30.144 -10.330  1.00  0.00     0.186 HD
HETATM   10  C10 UNL     1     -45.807 -28.783  -8.828  1.00  0.00     0.681 A 
HETATM   11  N8  UNL     1     -46.311 -28.426  -7.619  1.00  0.00    -0.176 N 
ATOM     12  H8  UNL     1     -45.941 -27.595  -7.158  1.00  0.00     0.186 HD
HETATM   13  C13 UNL     1     -47.277 -29.125  -7.007  1.00  0.00     0.132 A 
HETATM   14  C14 UNL     1     -47.797 -30.253  -7.605  1.00  0.00     0.097 A 
ENDROOT
BRANCH   4  15
HETATM   15  N3  UNL     1     -49.206 -33.605  -9.581  1.00  0.00    -0.098 N 
HETATM   16  C6  UNL     1     -49.971 -33.582 -10.707  1.00  0.00     0.136 A 
HETATM   17  C7  UNL     1     -50.256 -34.874 -11.084  1.00  0.00     0.038 A 
HETATM   18  C8  UNL     1     -49.645 -35.686 -10.155  1.00  0.00     0.110 A 
HETATM   19  N4  UNL     1     -49.039 -34.877  -9.292  1.00  0.00    -0.291 N 
ATOM     20  H4  UNL     1     -48.503 -35.207  -8.489  1.00  0.00     0.187 HD
ENDBRANCH   4  15
BRANCH   1  21
HETATM   21  N1  UNL     1     -49.245 -30.655  -5.891  1.00  0.00    -0.371 N 
ATOM     22  H1  UNL     1     -48.567 -30.367  -5.185  1.00  0.00     0.161 HD
BRANCH  21  23
HETATM   23  C3  UNL     1     -50.631 -30.621  -5.522  1.00  0.00     0.147 C 
BRANCH  23  24
HETATM   24  C2  UNL     1     -51.266 -29.488  -6.251  1.00  0.00    -0.018 C 
HETATM   25  C1  UNL     1     -52.151 -29.670  -7.218  1.00  0.00     0.008 C 
ENDBRANCH  23  24
ENDBRANCH  21  23
ENDBRANCH   1  21
BRANCH  13  26
HETATM   26  N9  UNL     1     -47.758 -28.792  -5.865  1.00  0.00    -0.384 N 
ATOM     27  H92 UNL     1     -48.761 -28.611  -5.815  1.00  0.00     0.157 HD
ATOM     28  H91 UNL     1     -47.181 -28.706  -5.028  1.00  0.00     0.157 HD
ENDBRANCH  13  26
BRANCH  10  29
HETATM   29  N7  UNL     1     -44.883 -28.108  -9.406  1.00  0.00    -0.226 N 
ATOM     30  H7  UNL     1     -45.031 -27.118  -9.599  1.00  0.00     0.177 HD
BRANCH  29  31
HETATM   31  C11 UNL     1     -43.633 -28.729  -9.787  1.00  0.00     0.133 C 
HETATM   32  C12 UNL     1     -42.537 -28.307  -8.823  1.00  0.00     0.027 C 
ENDBRANCH  29  31
ENDBRANCH  10  29
TORSDOF 7
ENDMDL
MODEL 3
REMARK VINA RESULT: -7.462010346      1.368      5.653
REMARK  7 active torsions:
REMARK  status: ('A' for Active; 'I' for Inactive)
REMARK    1  A    between atoms: C2_2  and  C3_3 
REMARK    2  A    between atoms: C3_3  and  N1_4 
REMARK    3  A    between atoms: N1_4  and  C4_6 
REMARK    4  A    between atoms: C5_9  and  N3_10 
REMARK    5  A    between atoms: C10_21  and  N7_22 
REMARK    6  A    between atoms: N7_22  and  C11_24 
REMARK    7  A    between atoms: C13_28  and  N9_29 
ROOT
HETATM    1  C4  UNL     1     -48.152 -29.448  -7.546  1.00  0.00     0.135 A 
HETATM    2  N2  UNL     1     -46.831 -29.220  -7.509  1.00  0.00    -0.174 N 
ATOM      3  H2  UNL     1     -46.465 -28.567  -6.815  1.00  0.00     0.186 HD
HETATM    4  C5  UNL     1     -45.967 -29.819  -8.351  1.00  0.00     0.706 A 
HETATM    5  N5  UNL     1     -46.465 -30.678  -9.260  1.00  0.00    -0.173 N 
ATOM      6  H5  UNL     1     -45.812 -31.134  -9.898  1.00  0.00     0.186 HD
HETATM    7  C9  UNL     1     -47.753 -30.968  -9.375  1.00  0.00     0.154 A 
HETATM    8  N6  UNL     1     -48.201 -31.833 -10.299  1.00  0.00    -0.175 N 
ATOM      9  H6  UNL     1     -47.535 -32.280 -10.930  1.00  0.00     0.186 HD
HETATM   10  C10 UNL     1     -49.490 -32.116 -10.408  1.00  0.00     0.681 A 
HETATM   11  N8  UNL     1     -50.360 -31.511  -9.559  1.00  0.00    -0.176 N 
ATOM     12  H8  UNL     1     -51.353 -31.726  -9.639  1.00  0.00     0.186 HD
HETATM   13  C13 UNL     1     -49.963 -30.642  -8.620  1.00  0.00     0.132 A 
HETATM   14  C14 UNL     1     -48.626 -30.331  -8.488  1.00  0.00     0.097 A 
ENDROOT
BRANCH   4  15
HETATM   15  N3  UNL     1     -44.568 -29.547  -8.274  1.00  0.00    -0.098 N 
HETATM   16  C6  UNL     1     -43.957 -28.457  -8.816  1.00  0.00     0.136 A 
HETATM   17  C7  UNL     1     -42.608 -28.519  -8.549  1.00  0.00     0.038 A 
HETATM   18  C8  UNL     1     -42.415 -29.678  -7.830  1.00  0.00     0.110 A 
HETATM   19  N4  UNL     1     -43.611 -30.242  -7.700  1.00  0.00    -0.291 N 
ATOM     20  H4  UNL     1     -43.771 -31.121  -7.207  1.00  0.00     0.187 HD
ENDBRANCH   4  15
BRANCH   1  21
HETATM   21  N1  UNL     1     -48.996 -28.891  -6.759  1.00  0.00    -0.371 N 
ATOM     22  H1  UNL     1     -49.847 -28.514  -7.176  1.00  0.00     0.161 HD
BRANCH  21  23
HETATM   23  C3  UNL     1     -48.844 -28.754  -5.339  1.00  0.00     0.147 C 
BRANCH  23  24
HETATM   24  C2  UNL     1     -49.106 -30.086  -4.726  1.00  0.00    -0.018 C 
HETATM   25  C1  UNL     1     -50.288 -30.424  -4.235  1.00  0.00     0.008 C 
ENDBRANCH  23  24
ENDBRANCH  21  23
ENDBRANCH   1  21
BRANCH  13  26
HETATM   26  N9  UNL     1     -50.781 -30.067  -7.815  1.00  0.00    -0.384 N 
ATOM     27  H92 UNL     1     -51.560 -30.625  -7.464  1.00  0.00     0.157 HD
ATOM     28  H91 UNL     1     -50.677 -29.095  -7.524  1.00  0.00     0.157 HD
ENDBRANCH  13  26
BRANCH  10  29
HETATM   29  N7  UNL     1     -49.879 -32.947 -11.303  1.00  0.00    -0.226 N 
ATOM     30  H7  UNL     1     -49.960 -32.639 -12.271  1.00  0.00     0.177 HD
BRANCH  29  31
HETATM   31  C11 UNL     1     -50.206 -34.314 -10.960  1.00  0.00     0.133 C 
HETATM   32  C12 UNL     1     -50.032 -35.203 -12.181  1.00  0.00     0.027 C 
ENDBRANCH  29  31
ENDBRANCH  10  29
TORSDOF 7
ENDMDL
MODEL 4
REMARK VINA RESULT: -7.440685662      1.720      5.539
REMARK  7 active torsions:
REMARK  status: ('A' for Active; 'I' for Inactive)
REMARK    1  A    between atoms: C2_2  and  C3_3 
REMARK    2  A    between atoms: C3_3  and  N1_4 
REMARK    3  A    between atoms: N1_4  and  C4_6 
REMARK    4  A    between atoms: C5_9  and  N3_10 
REMARK    5  A    between atoms: C10_21  and  N7_22 
REMARK    6  A    between atoms: N7_22  and  C11_24 
REMARK    7  A    between atoms: C13_28  and  N9_29 
ROOT
HETATM    1  C4  UNL     1     -48.654 -29.798  -7.393  1.00  0.00     0.135 A 
HETATM    2  N2  UNL     1     -47.369 -29.531  -7.114  1.00  0.00    -0.174 N 
ATOM      3  H2  UNL     1     -47.153 -28.961  -6.296  1.00  0.00     0.186 HD
HETATM    4  C5  UNL     1     -46.352 -29.986  -7.872  1.00  0.00     0.706 A 
HETATM    5  N5  UNL     1     -46.653 -30.738  -8.947  1.00  0.00    -0.173 N 
ATOM      6  H5  UNL     1     -45.885 -31.084  -9.521  1.00  0.00     0.186 HD
HETATM    7  C9  UNL     1     -47.890 -31.055  -9.304  1.00  0.00     0.154 A 
HETATM    8  N6  UNL     1     -48.139 -31.809 -10.387  1.00  0.00    -0.175 N 
ATOM      9  H6  UNL     1     -47.359 -32.147 -10.951  1.00  0.00     0.186 HD
HETATM   10  C10 UNL     1     -49.377 -32.121 -10.737  1.00  0.00     0.681 A 
HETATM   11  N8  UNL     1     -50.402 -31.661  -9.973  1.00  0.00    -0.176 N 
ATOM     12  H8  UNL     1     -51.357 -31.898 -10.239  1.00  0.00     0.186 HD
HETATM   13  C13 UNL     1     -50.205 -30.907  -8.883  1.00  0.00     0.132 A 
HETATM   14  C14 UNL     1     -48.924 -30.569  -8.500  1.00  0.00     0.097 A 
ENDROOT
BRANCH   4  15
HETATM   15  N3  UNL     1     -45.000 -29.677  -7.537  1.00  0.00    -0.098 N 
HETATM   16  C6  UNL     1     -44.537 -28.432  -7.239  1.00  0.00     0.136 A 
HETATM   17  C7  UNL     1     -43.190 -28.505  -6.966  1.00  0.00     0.038 A 
HETATM   18  C8  UNL     1     -42.845 -29.831  -7.107  1.00  0.00     0.110 A 
HETATM   19  N4  UNL     1     -43.958 -30.474  -7.446  1.00  0.00    -0.291 N 
ATOM     20  H4  UNL     1     -44.000 -31.479  -7.617  1.00  0.00     0.187 HD
ENDBRANCH   4  15
BRANCH   1  21
HETATM   21  N1  UNL     1     -49.639 -29.378  -6.691  1.00  0.00    -0.371 N 
ATOM     22  H1  UNL     1     -50.491 -29.118  -7.189  1.00  0.00     0.161 HD
BRANCH  21  23
HETATM   23  C3  UNL     1     -49.646 -29.243  -5.263  1.00  0.00     0.147 C 
BRANCH  23  24
HETATM   24  C2  UNL     1     -49.789 -30.606  -4.681  1.00  0.00    -0.018 C 
HETATM   25  C1  UNL     1     -50.868 -30.987  -4.015  1.00  0.00     0.008 C 
ENDBRANCH  23  24
ENDBRANCH  21  23
ENDBRANCH   1  21
BRANCH  13  26
HETATM   26  N9  UNL     1     -51.169 -30.469  -8.158  1.00  0.00    -0.384 N 
ATOM     27  H92 UNL     1     -52.059 -30.966  -8.216  1.00  0.00     0.157 HD
ATOM     28  H91 UNL     1     -51.074 -29.662  -7.542  1.00  0.00     0.157 HD
ENDBRANCH  13  26
BRANCH  10  29
HETATM   29  N7  UNL     1     -49.575 -32.842 -11.777  1.00  0.00    -0.226 N 
ATOM     30  H7  UNL     1     -49.921 -33.795 -11.669  1.00  0.00     0.177 HD
BRANCH  29  31
HETATM   31  C11 UNL     1     -49.316 -32.326 -13.104  1.00  0.00     0.133 C 
HETATM   32  C12 UNL     1     -49.282 -33.472 -14.101  1.00  0.00     0.027 C 
ENDBRANCH  29  31
ENDBRANCH  10  29
TORSDOF 7
ENDMDL
MODEL 5
REMARK VINA RESULT: -7.425647973      1.847      5.554
REMARK  7 active torsions:
REMARK  status: ('A' for Active; 'I' for Inactive)
REMARK    1  A    between atoms: C2_2  and  C3_3 
REMARK    2  A    between atoms: C3_3  and  N1_4 
REMARK    3  A    between atoms: N1_4  and  C4_6 
REMARK    4  A    between atoms: C5_9  and  N3_10 
REMARK    5  A    between atoms: C10_21  and  N7_22 
REMARK    6  A    between atoms: N7_22  and  C11_24 
REMARK    7  A    between atoms: C13_28  and  N9_29 
ROOT
HETATM    1  C4  UNL     1     -48.626 -29.634  -6.684  1.00  0.00     0.135 A 
HETATM    2  N2  UNL     1     -47.347 -29.509  -6.302  1.00  0.00    -0.174 N 
ATOM      3  H2  UNL     1     -47.139 -28.995  -5.445  1.00  0.00     0.186 HD
HETATM    4  C5  UNL     1     -46.325 -30.035  -7.005  1.00  0.00     0.706 A 
HETATM    5  N5  UNL     1     -46.616 -30.710  -8.132  1.00  0.00    -0.173 N 
ATOM      6  H5  UNL     1     -45.843 -31.110  -8.665  1.00  0.00     0.186 HD
HETATM    7  C9  UNL     1     -47.847 -30.887  -8.591  1.00  0.00     0.154 A 
HETATM    8  N6  UNL     1     -48.085 -31.569  -9.722  1.00  0.00    -0.175 N 
ATOM      9  H6  UNL     1     -47.302 -31.963 -10.244  1.00  0.00     0.186 HD
HETATM   10  C10 UNL     1     -49.319 -31.741 -10.174  1.00  0.00     0.681 A 
HETATM   11  N8  UNL     1     -50.348 -31.209  -9.465  1.00  0.00    -0.176 N 
ATOM     12  H8  UNL     1     -51.299 -31.338  -9.809  1.00  0.00     0.186 HD
HETATM   13  C13 UNL     1     -50.161 -30.521  -8.330  1.00  0.00     0.132 A 
HETATM   14  C14 UNL     1     -48.886 -30.330  -7.841  1.00  0.00     0.097 A 
ENDROOT
BRANCH   4  15
HETATM   15  N3  UNL     1     -44.978 -29.877  -6.559  1.00  0.00    -0.098 N 
HETATM   16  C6  UNL     1     -44.543 -28.890  -5.729  1.00  0.00     0.136 A 
HETATM   17  C7  UNL     1     -43.193 -29.046  -5.513  1.00  0.00     0.038 A 
HETATM   18  C8  UNL     1     -42.817 -30.156  -6.236  1.00  0.00     0.110 A 
HETATM   19  N4  UNL     1     -43.917 -30.604  -6.833  1.00  0.00    -0.291 N 
ATOM     20  H4  UNL     1     -43.935 -31.424  -7.440  1.00  0.00     0.187 HD
ENDBRANCH   4  15
BRANCH   1  21
HETATM   21  N1  UNL     1     -49.616 -29.144  -6.036  1.00  0.00    -0.371 N 
ATOM     22  H1  UNL     1     -50.296 -28.596  -6.564  1.00  0.00     0.161 HD
BRANCH  21  23
HETATM   23  C3  UNL     1     -49.850 -29.300  -4.629  1.00  0.00     0.147 C 
BRANCH  23  24
HETATM   24  C2  UNL     1     -50.037 -30.754  -4.361  1.00  0.00    -0.018 C 
HETATM   25  C1  UNL     1     -51.175 -31.254  -3.907  1.00  0.00     0.008 C 
ENDBRANCH  23  24
ENDBRANCH  21  23
ENDBRANCH   1  21
BRANCH  13  26
HETATM   26  N9  UNL     1     -51.131 -30.017  -7.657  1.00  0.00    -0.384 N 
ATOM     27  H92 UNL     1     -51.958 -30.598  -7.524  1.00  0.00     0.157 HD
ATOM     28  H91 UNL     1     -51.097 -29.077  -7.261  1.00  0.00     0.157 HD
ENDBRANCH  13  26
BRANCH  10  29
HETATM   29  N7  UNL     1     -49.507 -32.398 -11.258  1.00  0.00    -0.226 N 
ATOM     30  H7  UNL     1     -49.146 -32.029 -12.137  1.00  0.00     0.177 HD
BRANCH  29  31
HETATM   31  C11 UNL     1     -50.224 -33.655 -11.254  1.00  0.00     0.133 C 
HETATM   32  C12 UNL     1     -49.614 -34.587 -10.220  1.00  0.00     0.027 C 
ENDBRANCH  29  31
ENDBRANCH  10  29
TORSDOF 7
ENDMDL
