MODEL 1
REMARK VINA RESULT: -9.250497090      0.000      0.000
REMARK  7 active torsions:
REMARK  status: ('A' for Active; 'I' for Inactive)
REMARK    1  A    between atoms: O1_1  and  C1_3 
REMARK    2  A    between atoms: C1_3  and  C6_17 
REMARK    3  A    between atoms: N1_4  and  C2_6 
REMARK    4  A    between atoms: C4_8  and  C5_9 
REMARK    5  A    between atoms: C6_17  and  O2_18 
REMARK    6  A    between atoms: C6_17  and  C7_20 
REMARK    7  A    between atoms: C6_17  and  C8_29 
ROOT
HETATM    1  C1  UNL     1      30.041  44.578   7.509  1.00  0.00     0.163 C 
HETATM    2  N1  UNL     1      29.719  44.657   6.192  1.00  0.00    -0.323 N 
ATOM      3  H1  UNL     1      29.335  43.800   5.795  1.00  0.00     0.169 HD
ENDROOT
BRANCH   1   4
HETATM    4  O1  UNL     1      31.296  44.040   7.639  1.00  0.00    -0.347 OA
ATOM      5  H1  UNL     1      31.553  44.058   8.552  1.00  0.00     0.219 HD
ENDBRANCH   1   4
BRANCH   1   6
HETATM    6  C6  UNL     1      29.533  44.853   8.816  1.00  0.00     0.213 C 
BRANCH   6   7
HETATM    7  O2  UNL     1      30.656  45.337   9.614  1.00  0.00    -0.372 OA
ATOM      8  H2  UNL     1      30.751  46.263   9.422  1.00  0.00     0.211 HD
ENDBRANCH   6   7
BRANCH   6   9
HETATM    9  C7  UNL     1      28.688  46.090   8.732  1.00  0.00     0.159 A 
HETATM   10  N4  UNL     1      29.273  47.329   8.739  1.00  0.00    -0.269 N 
HETATM   11  N5  UNL     1      28.295  48.209   8.676  1.00  0.00    -0.227 N 
ATOM     12  H4  UNL     1      30.272  47.531   8.783  1.00  0.00     0.190 HD
HETATM   13  N6  UNL     1      27.143  47.612   8.635  1.00  0.00    -0.227 N 
ATOM     14  H5  UNL     1      28.424  49.221   8.662  1.00  0.00     0.210 HD
HETATM   15  N7  UNL     1      27.396  46.315   8.667  1.00  0.00    -0.269 N 
ATOM     16  H6  UNL     1      26.226  48.056   8.588  1.00  0.00     0.210 HD
ATOM     17  H7  UNL     1      26.683  45.586   8.643  1.00  0.00     0.190 HD
ENDBRANCH   6   9
BRANCH   6  18
HETATM   18  C8  UNL     1      28.919  43.807   9.614  1.00  0.00     0.228 C 
HETATM   19 CL1  UNL     1      30.239  42.762  10.308  1.00  0.00    -0.104 Cl
HETATM   20 CL2  UNL     1      28.008  42.690   8.532  1.00  0.00    -0.104 Cl
ENDBRANCH   6  18
ENDBRANCH   1   6
BRANCH   2  21
HETATM   21  C2  UNL     1      29.820  45.629   5.370  1.00  0.00     0.123 A 
HETATM   22  C3  UNL     1      29.541  46.968   5.651  1.00  0.00     0.085 A 
HETATM   23  C4  UNL     1      29.818  47.688   4.549  1.00  0.00     0.135 A 
HETATM   24  N2  UNL     1      30.258  46.859   3.576  1.00  0.00    -0.295 N 
HETATM   25  N3  UNL     1      30.256  45.612   4.079  1.00  0.00    -0.285 N 
ATOM     26  H2  UNL     1      30.541  47.129   2.633  1.00  0.00     0.187 HD
ATOM     27  H3  UNL     1      30.538  44.775   3.569  1.00  0.00     0.188 HD
BRANCH  23  28
HETATM   28  C5  UNL     1      29.671  49.139   4.293  1.00  0.00     0.434 C 
HETATM   29  F1  UNL     1      28.562  49.317   3.441  1.00  0.00    -0.165 F 
HETATM   30  F2  UNL     1      30.737  49.658   3.603  1.00  0.00    -0.165 F 
HETATM   31  F3  UNL     1      29.445  49.856   5.464  1.00  0.00    -0.165 F 
ENDBRANCH  23  28
ENDBRANCH   2  21
TORSDOF 7
ENDMDL
MODEL 2
REMARK VINA RESULT: -8.918699841      1.303      1.722
REMARK  7 active torsions:
REMARK  status: ('A' for Active; 'I' for Inactive)
REMARK    1  A    between atoms: O1_1  and  C1_3 
REMARK    2  A    between atoms: C1_3  and  C6_17 
REMARK    3  A    between atoms: N1_4  and  C2_6 
REMARK    4  A    between atoms: C4_8  and  C5_9 
REMARK    5  A    between atoms: C6_17  and  O2_18 
REMARK    6  A    between atoms: C6_17  and  C7_20 
REMARK    7  A    between atoms: C6_17  and  C8_29 
ROOT
HETATM    1  C1  UNL     1      30.175  44.918   7.668  1.00  0.00     0.163 C 
HETATM    2  N1  UNL     1      29.716  44.943   6.390  1.00  0.00    -0.323 N 
ATOM      3  H1  UNL     1      29.215  44.103   6.101  1.00  0.00     0.169 HD
ENDROOT
BRANCH   1   4
HETATM    4  O1  UNL     1      31.384  44.272   7.703  1.00  0.00    -0.347 OA
ATOM      5  H1  UNL     1      31.283  43.396   7.351  1.00  0.00     0.219 HD
ENDBRANCH   1   4
BRANCH   1   6
HETATM    6  C6  UNL     1      29.844  45.325   8.997  1.00  0.00     0.213 C 
BRANCH   6   7
HETATM    7  O2  UNL     1      30.764  44.632   9.894  1.00  0.00    -0.372 OA
ATOM      8  H2  UNL     1      30.247  44.305  10.621  1.00  0.00     0.211 HD
ENDBRANCH   6   7
BRANCH   6   9
HETATM    9  C7  UNL     1      30.294  46.746   9.170  1.00  0.00     0.159 A 
HETATM   10  N4  UNL     1      31.126  47.088  10.204  1.00  0.00    -0.269 N 
HETATM   11  N5  UNL     1      31.328  48.386  10.113  1.00  0.00    -0.227 N 
ATOM     12  H4  UNL     1      31.514  46.459  10.906  1.00  0.00     0.190 HD
HETATM   13  N6  UNL     1      30.681  48.881   9.103  1.00  0.00    -0.227 N 
ATOM     14  H5  UNL     1      31.912  48.929  10.749  1.00  0.00     0.210 HD
HETATM   15  N7  UNL     1      30.054  47.868   8.531  1.00  0.00    -0.269 N 
ATOM     16  H6  UNL     1      30.660  49.858   8.809  1.00  0.00     0.210 HD
ATOM     17  H7  UNL     1      29.462  47.947   7.703  1.00  0.00     0.190 HD
ENDBRANCH   6   9
BRANCH   6  18
HETATM   18  C8  UNL     1      28.521  45.085   9.544  1.00  0.00     0.228 C 
HETATM   19 CL1  UNL     1      28.072  43.349   9.222  1.00  0.00    -0.104 Cl
HETATM   20 CL2  UNL     1      27.307  46.027   8.602  1.00  0.00    -0.104 Cl
ENDBRANCH   6  18
ENDBRANCH   1   6
BRANCH   2  21
HETATM   21  C2  UNL     1      29.810  45.846   5.492  1.00  0.00     0.123 A 
HETATM   22  C3  UNL     1      29.551  47.205   5.671  1.00  0.00     0.085 A 
HETATM   23  C4  UNL     1      29.812  47.834   4.510  1.00  0.00     0.135 A 
HETATM   24  N2  UNL     1      30.224  46.924   3.597  1.00  0.00    -0.295 N 
HETATM   25  N3  UNL     1      30.218  45.722   4.198  1.00  0.00    -0.285 N 
ATOM     26  H2  UNL     1      30.489  47.116   2.631  1.00  0.00     0.187 HD
ATOM     27  H3  UNL     1      30.482  44.844   3.750  1.00  0.00     0.188 HD
BRANCH  23  28
HETATM   28  C5  UNL     1      29.674  49.260   4.143  1.00  0.00     0.434 C 
HETATM   29  F1  UNL     1      28.567  49.379   3.278  1.00  0.00    -0.165 F 
HETATM   30  F2  UNL     1      30.744  49.718   3.416  1.00  0.00    -0.165 F 
HETATM   31  F3  UNL     1      29.451  50.067   5.254  1.00  0.00    -0.165 F 
ENDBRANCH  23  28
ENDBRANCH   2  21
TORSDOF 7
ENDMDL
MODEL 3
REMARK VINA RESULT: -8.782084202      2.365      3.463
REMARK  7 active torsions:
REMARK  status: ('A' for Active; 'I' for Inactive)
REMARK    1  A    between atoms: O1_1  and  C1_3 
REMARK    2  A    between atoms: C1_3  and  C6_17 
REMARK    3  A    between atoms: N1_4  and  C2_6 
REMARK    4  A    between atoms: C4_8  and  C5_9 
REMARK    5  A    between atoms: C6_17  and  O2_18 
REMARK    6  A    between atoms: C6_17  and  C7_20 
REMARK    7  A    between atoms: C6_17  and  C8_29 
ROOT
HETATM    1  C1  UNL     1      29.420  45.731   8.337  1.00  0.00     0.163 C 
HETATM    2  N1  UNL     1      29.777  47.041   8.350  1.00  0.00    -0.323 N 
ATOM      3  H1  UNL     1      30.221  47.354   9.213  1.00  0.00     0.169 HD
ENDROOT
BRANCH   1   4
HETATM    4  O1  UNL     1      28.193  45.589   8.934  1.00  0.00    -0.347 OA
ATOM      5  H1  UNL     1      27.571  45.260   8.298  1.00  0.00     0.219 HD
ENDBRANCH   1   4
BRANCH   1   6
HETATM    6  C6  UNL     1      29.870  44.440   7.924  1.00  0.00     0.213 C 
BRANCH   6   7
HETATM    7  O2  UNL     1      30.975  44.074   8.804  1.00  0.00    -0.372 OA
ATOM      8  H2  UNL     1      31.248  43.199   8.556  1.00  0.00     0.211 HD
ENDBRANCH   6   7
BRANCH   6   9
HETATM    9  C7  UNL     1      28.833  43.436   8.336  1.00  0.00     0.159 A 
HETATM   10  N4  UNL     1      28.936  42.788   9.538  1.00  0.00    -0.269 N 
HETATM   11  N5  UNL     1      27.910  41.965   9.614  1.00  0.00    -0.227 N 
ATOM     12  H4  UNL     1      29.666  42.918  10.239  1.00  0.00     0.190 HD
HETATM   13  N6  UNL     1      27.177  42.048   8.547  1.00  0.00    -0.227 N 
ATOM     14  H5  UNL     1      27.719  41.348  10.403  1.00  0.00     0.210 HD
HETATM   15  N7  UNL     1      27.749  42.954   7.772  1.00  0.00    -0.269 N 
ATOM     16  H6  UNL     1      26.328  41.520   8.346  1.00  0.00     0.210 HD
ATOM     17  H7  UNL     1      27.396  43.240   6.859  1.00  0.00     0.190 HD
ENDBRANCH   6   9
BRANCH   6  18
HETATM   18  C8  UNL     1      30.363  44.216   6.577  1.00  0.00     0.228 C 
HETATM   19 CL1  UNL     1      29.047  44.665   5.401  1.00  0.00    -0.104 Cl
HETATM   20 CL2  UNL     1      30.594  42.449   6.312  1.00  0.00    -0.104 Cl
ENDBRANCH   6  18
ENDBRANCH   1   6
BRANCH   2  21
HETATM   21  C2  UNL     1      29.648  47.946   7.457  1.00  0.00     0.123 A 
HETATM   22  C3  UNL     1      29.855  47.776   6.087  1.00  0.00     0.085 A 
HETATM   23  C4  UNL     1      29.568  48.941   5.478  1.00  0.00     0.135 A 
HETATM   24  N2  UNL     1      29.190  49.847   6.409  1.00  0.00    -0.295 N 
HETATM   25  N3  UNL     1      29.242  49.238   7.606  1.00  0.00    -0.285 N 
ATOM     26  H2  UNL     1      28.916  50.814   6.234  1.00  0.00     0.187 HD
ATOM     27  H3  UNL     1      29.012  49.679   8.496  1.00  0.00     0.188 HD
BRANCH  23  28
HETATM   28  C5  UNL     1      29.650  49.318   4.049  1.00  0.00     0.434 C 
HETATM   29  F1  UNL     1      30.578  48.457   3.428  1.00  0.00    -0.165 F 
HETATM   30  F2  UNL     1      30.160  50.578   3.870  1.00  0.00    -0.165 F 
HETATM   31  F3  UNL     1      28.426  49.184   3.401  1.00  0.00    -0.165 F 
ENDBRANCH  23  28
ENDBRANCH   2  21
TORSDOF 7
ENDMDL
MODEL 4
REMARK VINA RESULT: -8.608926837      0.979      1.316
REMARK  7 active torsions:
REMARK  status: ('A' for Active; 'I' for Inactive)
REMARK    1  A    between atoms: O1_1  and  C1_3 
REMARK    2  A    between atoms: C1_3  and  C6_17 
REMARK    3  A    between atoms: N1_4  and  C2_6 
REMARK    4  A    between atoms: C4_8  and  C5_9 
REMARK    5  A    between atoms: C6_17  and  O2_18 
REMARK    6  A    between atoms: C6_17  and  C7_20 
REMARK    7  A    between atoms: C6_17  and  C8_29 
ROOT
HETATM    1  C1  UNL     1      29.684  44.029   6.995  1.00  0.00     0.163 C 
HETATM    2  N1  UNL     1      29.239  44.461   5.786  1.00  0.00    -0.323 N 
ATOM      3  H1  UNL     1      28.540  43.861   5.350  1.00  0.00     0.169 HD
ENDROOT
BRANCH   1   4
HETATM    4  O1  UNL     1      30.690  43.116   6.808  1.00  0.00    -0.347 OA
ATOM      5  H1  UNL     1      30.705  42.846   5.898  1.00  0.00     0.219 HD
ENDBRANCH   1   4
BRANCH   1   6
HETATM    6  C6  UNL     1      29.474  44.185   8.399  1.00  0.00     0.213 C 
BRANCH   6   7
HETATM    7  O2  UNL     1      30.667  43.673   9.066  1.00  0.00    -0.372 OA
ATOM      8  H2  UNL     1      30.530  42.742   9.200  1.00  0.00     0.211 HD
ENDBRANCH   6   7
BRANCH   6   9
HETATM    9  C7  UNL     1      29.573  45.648   8.720  1.00  0.00     0.159 A 
HETATM   10  N4  UNL     1      28.490  46.469   8.546  1.00  0.00    -0.269 N 
HETATM   11  N5  UNL     1      28.878  47.682   8.884  1.00  0.00    -0.227 N 
ATOM     12  H4  UNL     1      27.565  46.195   8.218  1.00  0.00     0.190 HD
HETATM   13  N6  UNL     1      30.122  47.680   9.252  1.00  0.00    -0.227 N 
ATOM     14  H5  UNL     1      28.282  48.509   8.860  1.00  0.00     0.210 HD
HETATM   15  N7  UNL     1      30.537  46.429   9.151  1.00  0.00    -0.269 N 
ATOM     16  H6  UNL     1      30.670  48.484   9.559  1.00  0.00     0.210 HD
ATOM     17  H7  UNL     1      31.480  46.112   9.378  1.00  0.00     0.190 HD
ENDBRANCH   6   9
BRANCH   6  18
HETATM   18  C8  UNL     1      28.356  43.539   9.064  1.00  0.00     0.228 C 
HETATM   19 CL1  UNL     1      28.277  44.147  10.779  1.00  0.00    -0.104 Cl
HETATM   20 CL2  UNL     1      28.705  41.781   9.244  1.00  0.00    -0.104 Cl
ENDBRANCH   6  18
ENDBRANCH   1   6
BRANCH   2  21
HETATM   21  C2  UNL     1      29.554  45.496   5.107  1.00  0.00     0.123 A 
HETATM   22  C3  UNL     1      29.172  46.807   5.395  1.00  0.00     0.085 A 
HETATM   23  C4  UNL     1      29.743  47.615   4.482  1.00  0.00     0.135 A 
HETATM   24  N2  UNL     1      30.471  46.866   3.622  1.00  0.00    -0.295 N 
HETATM   25  N3  UNL     1      30.350  45.583   4.006  1.00  0.00    -0.285 N 
ATOM     26  H2  UNL     1      31.012  47.211   2.829  1.00  0.00     0.187 HD
ATOM     27  H3  UNL     1      30.791  44.790   3.539  1.00  0.00     0.188 HD
BRANCH  23  28
HETATM   28  C5  UNL     1      29.643  49.080   4.306  1.00  0.00     0.434 C 
HETATM   29  F1  UNL     1      28.549  49.339   3.455  1.00  0.00    -0.165 F 
HETATM   30  F2  UNL     1      30.731  49.604   3.655  1.00  0.00    -0.165 F 
HETATM   31  F3  UNL     1      29.425  49.738   5.512  1.00  0.00    -0.165 F 
ENDBRANCH  23  28
ENDBRANCH   2  21
TORSDOF 7
ENDMDL
MODEL 5
REMARK VINA RESULT: -8.525511577      1.792      3.334
REMARK  7 active torsions:
REMARK  status: ('A' for Active; 'I' for Inactive)
REMARK    1  A    between atoms: O1_1  and  C1_3 
REMARK    2  A    between atoms: C1_3  and  C6_17 
REMARK    3  A    between atoms: N1_4  and  C2_6 
REMARK    4  A    between atoms: C4_8  and  C5_9 
REMARK    5  A    between atoms: C6_17  and  O2_18 
REMARK    6  A    between atoms: C6_17  and  C7_20 
REMARK    7  A    between atoms: C6_17  and  C8_29 
ROOT
HETATM    1  C1  UNL     1      28.659  45.949   8.649  1.00  0.00     0.163 C 
HETATM    2  N1  UNL     1      29.306  47.139   8.548  1.00  0.00    -0.323 N 
ATOM      3  H1  UNL     1      29.717  47.476   9.418  1.00  0.00     0.169 HD
ENDROOT
BRANCH   1   4
HETATM    4  O1  UNL     1      27.378  46.165   9.087  1.00  0.00    -0.347 OA
ATOM      5  H1  UNL     1      26.778  45.635   8.576  1.00  0.00     0.219 HD
ENDBRANCH   1   4
BRANCH   1   6
HETATM    6  C6  UNL     1      28.840  44.543   8.465  1.00  0.00     0.213 C 
BRANCH   6   7
HETATM    7  O2  UNL     1      27.544  43.996   8.078  1.00  0.00    -0.372 OA
ATOM      8  H2  UNL     1      27.715  43.249   7.518  1.00  0.00     0.211 HD
ENDBRANCH   6   7
BRANCH   6   9
HETATM    9  C7  UNL     1      29.624  44.341   7.201  1.00  0.00     0.159 A 
HETATM   10  N4  UNL     1      28.978  44.223   5.998  1.00  0.00    -0.269 N 
HETATM   11  N5  UNL     1      29.910  44.036   5.086  1.00  0.00    -0.227 N 
ATOM     12  H4  UNL     1      27.972  44.271   5.840  1.00  0.00     0.190 HD
HETATM   13  N6  UNL     1      31.088  44.024   5.630  1.00  0.00    -0.227 N 
ATOM     14  H5  UNL     1      29.730  43.916   4.089  1.00  0.00     0.210 HD
HETATM   15  N7  UNL     1      30.901  44.215   6.925  1.00  0.00    -0.269 N 
ATOM     16  H6  UNL     1      31.980  43.893   5.153  1.00  0.00     0.210 HD
ATOM     17  H7  UNL     1      31.650  44.258   7.616  1.00  0.00     0.190 HD
ENDBRANCH   6   9
BRANCH   6  18
HETATM   18  C8  UNL     1      29.303  43.701   9.553  1.00  0.00     0.228 C 
HETATM   19 CL1  UNL     1      29.017  41.961   9.096  1.00  0.00    -0.104 Cl
HETATM   20 CL2  UNL     1      28.244  43.949  10.990  1.00  0.00    -0.104 Cl
ENDBRANCH   6  18
ENDBRANCH   1   6
BRANCH   2  21
HETATM   21  C2  UNL     1      29.483  47.904   7.541  1.00  0.00     0.123 A 
HETATM   22  C3  UNL     1      29.526  47.500   6.206  1.00  0.00     0.085 A 
HETATM   23  C4  UNL     1      29.676  48.599   5.444  1.00  0.00     0.135 A 
HETATM   24  N2  UNL     1      29.734  49.687   6.245  1.00  0.00    -0.295 N 
HETATM   25  N3  UNL     1      29.619  49.259   7.514  1.00  0.00    -0.285 N 
ATOM     26  H2  UNL     1      29.846  50.655   5.941  1.00  0.00     0.187 HD
ATOM     27  H3  UNL     1      29.631  49.862   8.337  1.00  0.00     0.188 HD
BRANCH  23  28
HETATM   28  C5  UNL     1      29.811  48.734   3.977  1.00  0.00     0.434 C 
HETATM   29  F1  UNL     1      30.368  47.537   3.483  1.00  0.00    -0.165 F 
HETATM   30  F2  UNL     1      30.703  49.714   3.623  1.00  0.00    -0.165 F 
HETATM   31  F3  UNL     1      28.583  48.936   3.355  1.00  0.00    -0.165 F 
ENDBRANCH  23  28
ENDBRANCH   2  21
TORSDOF 7
ENDMDL
