MODEL 1
REMARK VINA RESULT: -4.012240635      0.000      0.000
REMARK  5 active torsions:
REMARK  status: ('A' for Active; 'I' for Inactive)
REMARK    1  A    between atoms: O1_2  and  C2_3 
REMARK       I    between atoms: C2_3  and  N1_5 
REMARK       I    between atoms: N1_5  and  C3_7 
REMARK       I    between atoms: C3_7  and  N3_11 
REMARK       I    between atoms: N4_13  and  C4_15 
REMARK       I    between atoms: C4_15  and  N5_17 
REMARK    2  A    between atoms: N5_17  and  N6_18 
REMARK    3  A    between atoms: N5_17  and  C6_23 
REMARK    4  A    between atoms: C6_23  and  C7_25 
REMARK    5  A    between atoms: C6_23  and  C8_27 
ROOT
HETATM    1  C2  UNL     1      32.517  49.172  12.971  1.00  0.00     0.378 C 
HETATM    2  O2  UNL     1      32.134  47.988  12.793  1.00  0.00    -0.238 OA
HETATM    3  N1  UNL     1      32.832  50.008  11.861  1.00  0.00    -0.134 N 
ATOM      4  H1  UNL     1      33.143  50.967  12.020  1.00  0.00     0.189 HD
HETATM    5  C3  UNL     1      32.717  49.517  10.546  1.00  0.00     0.695 C 
HETATM    6  N2  UNL     1      33.000  50.266   9.530  1.00  0.00    -0.233 N 
ATOM      7  H21 UNL     1      32.917  49.910   8.579  1.00  0.00     0.174 HD
ATOM      8  H22 UNL     1      33.308  51.218   9.727  1.00  0.00     0.174 HD
HETATM    9  N3  UNL     1      32.283  48.178  10.270  1.00  0.00    -0.128 N 
ATOM     10  H3  UNL     1      32.931  47.391  10.319  1.00  0.00     0.205 HD
HETATM   11  N4  UNL     1      31.081  48.011   9.967  1.00  0.00    -0.236 N 
ATOM     12  H4  UNL     1      30.466  48.824   9.930  1.00  0.00     0.192 HD
HETATM   13  C4  UNL     1      30.549  46.739   9.676  1.00  0.00     0.358 C 
HETATM   14  O3  UNL     1      31.105  45.791  10.361  1.00  0.00    -0.243 OA
HETATM   15  N5  UNL     1      29.535  46.400   8.774  1.00  0.00    -0.202 N 
ENDROOT
BRANCH  15  16
HETATM   16  N6  UNL     1      29.206  45.022   8.707  1.00  0.00    -0.268 N 
HETATM   17  C5  UNL     1      29.869  44.163   8.076  1.00  0.00     0.216 C 
HETATM   18  N7  UNL     1      31.033  44.516   7.363  1.00  0.00    -0.065 NA
HETATM   19  N8  UNL     1      29.459  42.812   8.069  1.00  0.00    -0.065 NA
ATOM     20  H6  UNL     1      28.373  44.708   9.206  1.00  0.00     0.189 HD
ENDBRANCH  15  16
BRANCH  15  21
HETATM   21  C6  UNL     1      28.854  47.349   7.950  1.00  0.00     0.256 C 
HETATM   22 CL1  UNL     1      27.061  47.240   8.300  1.00  0.00    -0.081 Cl
BRANCH  21  23
HETATM   23  C7  UNL     1      29.199  48.779   8.303  1.00  0.00     0.281 C 
HETATM   24  F1  UNL     1      30.182  49.317   7.481  1.00  0.00    -0.251 F 
ENDBRANCH  21  23
BRANCH  21  25
HETATM   25  C8  UNL     1      28.954  47.155   6.482  1.00  0.00     0.431 C 
HETATM   26  F2  UNL     1      28.295  46.013   6.042  1.00  0.00    -0.167 F 
HETATM   27  F3  UNL     1      28.177  48.197   5.910  1.00  0.00    -0.167 F 
HETATM   28  F4  UNL     1      30.195  47.324   5.990  1.00  0.00    -0.167 F 
ENDBRANCH  21  25
ENDBRANCH  15  21
BRANCH   1  29
HETATM   29  O1  UNL     1      32.615  49.613  14.279  1.00  0.00    -0.308 OA
HETATM   30  C1  UNL     1      33.872  49.644  14.926  1.00  0.00     0.215 C 
ENDBRANCH   1  29
TORSDOF 5
ENDMDL
MODEL 2
REMARK VINA RESULT: -3.865427789      4.615      5.881
REMARK  5 active torsions:
REMARK  status: ('A' for Active; 'I' for Inactive)
REMARK    1  A    between atoms: O1_2  and  C2_3 
REMARK       I    between atoms: C2_3  and  N1_5 
REMARK       I    between atoms: N1_5  and  C3_7 
REMARK       I    between atoms: C3_7  and  N3_11 
REMARK       I    between atoms: N4_13  and  C4_15 
REMARK       I    between atoms: C4_15  and  N5_17 
REMARK    2  A    between atoms: N5_17  and  N6_18 
REMARK    3  A    between atoms: N5_17  and  C6_23 
REMARK    4  A    between atoms: C6_23  and  C7_25 
REMARK    5  A    between atoms: C6_23  and  C8_27 
ROOT
HETATM    1  C2  UNL     1      29.884  49.343   4.608  1.00  0.00     0.378 C 
HETATM    2  O2  UNL     1      30.458  48.236   4.448  1.00  0.00    -0.238 OA
HETATM    3  N1  UNL     1      28.677  49.433   5.358  1.00  0.00    -0.134 N 
ATOM      4  H1  UNL     1      28.220  50.337   5.479  1.00  0.00     0.189 HD
HETATM    5  C3  UNL     1      28.110  48.279   5.934  1.00  0.00     0.695 C 
HETATM    6  N2  UNL     1      27.014  48.348   6.617  1.00  0.00    -0.233 N 
ATOM      7  H21 UNL     1      26.604  47.512   7.034  1.00  0.00     0.174 HD
ATOM      8  H22 UNL     1      26.585  49.268   6.717  1.00  0.00     0.174 HD
HETATM    9  N3  UNL     1      28.713  46.985   5.794  1.00  0.00    -0.128 N 
ATOM     10  H3  UNL     1      28.569  46.423   4.955  1.00  0.00     0.205 HD
HETATM   11  N4  UNL     1      29.420  46.573   6.739  1.00  0.00    -0.236 N 
ATOM     12  H4  UNL     1      29.539  47.166   7.561  1.00  0.00     0.192 HD
HETATM   13  C4  UNL     1      30.058  45.317   6.708  1.00  0.00     0.358 C 
HETATM   14  O3  UNL     1      30.434  44.972   5.517  1.00  0.00    -0.243 OA
HETATM   15  N5  UNL     1      30.322  44.442   7.767  1.00  0.00    -0.202 N 
ENDROOT
BRANCH  15  16
HETATM   16  N6  UNL     1      30.996  43.243   7.422  1.00  0.00    -0.268 N 
HETATM   17  C5  UNL     1      30.472  42.285   6.803  1.00  0.00     0.216 C 
HETATM   18  N7  UNL     1      29.124  42.333   6.388  1.00  0.00    -0.065 NA
HETATM   19  N8  UNL     1      31.227  41.130   6.505  1.00  0.00    -0.065 NA
ATOM     20  H6  UNL     1      31.975  43.153   7.695  1.00  0.00     0.189 HD
ENDBRANCH  15  16
BRANCH  15  21
HETATM   21  C6  UNL     1      29.948  44.699   9.122  1.00  0.00     0.256 C 
HETATM   22 CL1  UNL     1      30.635  43.370  10.176  1.00  0.00    -0.081 Cl
BRANCH  21  23
HETATM   23  C7  UNL     1      30.584  45.956   9.673  1.00  0.00     0.281 C 
HETATM   24  F1  UNL     1      29.888  47.109   9.330  1.00  0.00    -0.251 F 
ENDBRANCH  21  23
BRANCH  21  25
HETATM   25  C8  UNL     1      28.495  44.695   9.427  1.00  0.00     0.431 C 
HETATM   26  F2  UNL     1      27.825  45.786   8.887  1.00  0.00    -0.167 F 
HETATM   27  F3  UNL     1      27.957  43.609   8.687  1.00  0.00    -0.167 F 
HETATM   28  F4  UNL     1      28.206  44.426  10.713  1.00  0.00    -0.167 F 
ENDBRANCH  21  25
ENDBRANCH  15  21
BRANCH   1  29
HETATM   29  O1  UNL     1      30.477  50.450   4.026  1.00  0.00    -0.308 OA
HETATM   30  C1  UNL     1      31.438  50.284   3.001  1.00  0.00     0.215 C 
ENDBRANCH   1  29
TORSDOF 5
ENDMDL
MODEL 3
REMARK VINA RESULT: -3.772373773      1.003      1.273
REMARK  5 active torsions:
REMARK  status: ('A' for Active; 'I' for Inactive)
REMARK    1  A    between atoms: O1_2  and  C2_3 
REMARK       I    between atoms: C2_3  and  N1_5 
REMARK       I    between atoms: N1_5  and  C3_7 
REMARK       I    between atoms: C3_7  and  N3_11 
REMARK       I    between atoms: N4_13  and  C4_15 
REMARK       I    between atoms: C4_15  and  N5_17 
REMARK    2  A    between atoms: N5_17  and  N6_18 
REMARK    3  A    between atoms: N5_17  and  C6_23 
REMARK    4  A    between atoms: C6_23  and  C7_25 
REMARK    5  A    between atoms: C6_23  and  C8_27 
ROOT
HETATM    1  C2  UNL     1      32.186  49.124  12.701  1.00  0.00     0.378 C 
HETATM    2  O2  UNL     1      31.889  47.908  12.584  1.00  0.00    -0.238 OA
HETATM    3  N1  UNL     1      32.437  49.924  11.550  1.00  0.00    -0.134 N 
ATOM      4  H1  UNL     1      32.679  50.909  11.659  1.00  0.00     0.189 HD
HETATM    5  C3  UNL     1      32.352  49.361  10.261  1.00  0.00     0.695 C 
HETATM    6  N2  UNL     1      32.578  50.077   9.208  1.00  0.00    -0.233 N 
ATOM      7  H21 UNL     1      32.517  49.670   8.275  1.00  0.00     0.174 HD
ATOM      8  H22 UNL     1      32.818  51.058   9.355  1.00  0.00     0.174 HD
HETATM    9  N3  UNL     1      32.016  47.983  10.054  1.00  0.00    -0.128 N 
ATOM     10  H3  UNL     1      32.718  47.248  10.137  1.00  0.00     0.205 HD
HETATM   11  N4  UNL     1      30.828  47.716   9.768  1.00  0.00    -0.236 N 
ATOM     12  H4  UNL     1      30.155  48.479   9.695  1.00  0.00     0.192 HD
HETATM   13  C4  UNL     1      30.387  46.396   9.543  1.00  0.00     0.358 C 
HETATM   14  O3  UNL     1      31.012  45.526  10.271  1.00  0.00    -0.243 OA
HETATM   15  N5  UNL     1      29.397  45.941   8.666  1.00  0.00    -0.202 N 
ENDROOT
BRANCH  15  16
HETATM   16  N6  UNL     1      29.168  44.542   8.669  1.00  0.00    -0.268 N 
HETATM   17  C5  UNL     1      29.854  43.707   8.031  1.00  0.00     0.216 C 
HETATM   18  N7  UNL     1      30.946  44.114   7.235  1.00  0.00    -0.065 NA
HETATM   19  N8  UNL     1      29.546  42.331   8.097  1.00  0.00    -0.065 NA
ATOM     20  H6  UNL     1      28.391  44.189   9.229  1.00  0.00     0.189 HD
ENDBRANCH  15  16
BRANCH  15  21
HETATM   21  C6  UNL     1      28.647  46.797   7.802  1.00  0.00     0.256 C 
HETATM   22 CL1  UNL     1      27.465  45.772   6.852  1.00  0.00    -0.081 Cl
BRANCH  21  23
HETATM   23  C7  UNL     1      27.758  47.756   8.561  1.00  0.00     0.281 C 
HETATM   24  F1  UNL     1      26.559  47.179   8.963  1.00  0.00    -0.251 F 
ENDBRANCH  21  23
BRANCH  21  25
HETATM   25  C8  UNL     1      29.410  47.533   6.762  1.00  0.00     0.431 C 
HETATM   26  F2  UNL     1      30.175  46.697   5.959  1.00  0.00    -0.167 F 
HETATM   27  F3  UNL     1      28.434  48.021   5.853  1.00  0.00    -0.167 F 
HETATM   28  F4  UNL     1      30.047  48.626   7.221  1.00  0.00    -0.167 F 
ENDBRANCH  21  25
ENDBRANCH  15  21
BRANCH   1  29
HETATM   29  O1  UNL     1      32.256  49.635  13.986  1.00  0.00    -0.308 OA
HETATM   30  C1  UNL     1      33.486  49.630  14.685  1.00  0.00     0.215 C 
ENDBRANCH   1  29
TORSDOF 5
ENDMDL
MODEL 4
REMARK VINA RESULT: -3.688930637      4.006      5.807
REMARK  5 active torsions:
REMARK  status: ('A' for Active; 'I' for Inactive)
REMARK    1  A    between atoms: O1_2  and  C2_3 
REMARK       I    between atoms: C2_3  and  N1_5 
REMARK       I    between atoms: N1_5  and  C3_7 
REMARK       I    between atoms: C3_7  and  N3_11 
REMARK       I    between atoms: N4_13  and  C4_15 
REMARK       I    between atoms: C4_15  and  N5_17 
REMARK    2  A    between atoms: N5_17  and  N6_18 
REMARK    3  A    between atoms: N5_17  and  C6_23 
REMARK    4  A    between atoms: C6_23  and  C7_25 
REMARK    5  A    between atoms: C6_23  and  C8_27 
ROOT
HETATM    1  C2  UNL     1      29.614  43.186   9.651  1.00  0.00     0.378 C 
HETATM    2  O2  UNL     1      29.240  44.373   9.832  1.00  0.00    -0.238 OA
HETATM    3  N1  UNL     1      29.351  42.521   8.419  1.00  0.00    -0.134 N 
ATOM      4  H1  UNL     1      29.658  41.557   8.286  1.00  0.00     0.189 HD
HETATM    5  C3  UNL     1      28.667  43.188   7.384  1.00  0.00     0.695 C 
HETATM    6  N2  UNL     1      28.421  42.595   6.261  1.00  0.00    -0.233 N 
ATOM      7  H21 UNL     1      27.926  43.078   5.512  1.00  0.00     0.174 HD
ATOM      8  H22 UNL     1      28.743  41.632   6.163  1.00  0.00     0.174 HD
HETATM    9  N3  UNL     1      28.215  44.542   7.521  1.00  0.00    -0.128 N 
ATOM     10  H3  UNL     1      27.342  44.763   8.000  1.00  0.00     0.205 HD
HETATM   11  N4  UNL     1      28.931  45.442   7.029  1.00  0.00    -0.236 N 
ATOM     12  H4  UNL     1      29.797  45.180   6.558  1.00  0.00     0.192 HD
HETATM   13  C4  UNL     1      28.582  46.805   7.105  1.00  0.00     0.358 C 
HETATM   14  O3  UNL     1      27.953  47.105   8.196  1.00  0.00    -0.243 OA
HETATM   15  N5  UNL     1      28.829  47.825   6.179  1.00  0.00    -0.202 N 
ENDROOT
BRANCH  15  16
HETATM   16  N6  UNL     1      28.361  49.113   6.543  1.00  0.00    -0.268 N 
HETATM   17  C5  UNL     1      28.979  49.909   7.292  1.00  0.00     0.216 C 
HETATM   18  N7  UNL     1      30.231  49.569   7.846  1.00  0.00    -0.065 NA
HETATM   19  N8  UNL     1      28.429  51.172   7.597  1.00  0.00    -0.065 NA
ATOM     20  H6  UNL     1      27.460  49.414   6.171  1.00  0.00     0.189 HD
ENDBRANCH  15  16
BRANCH  15  21
HETATM   21  C6  UNL     1      29.500  47.622   4.934  1.00  0.00     0.256 C 
HETATM   22 CL1  UNL     1      28.347  48.048   3.577  1.00  0.00    -0.081 Cl
BRANCH  21  23
HETATM   23  C7  UNL     1      30.655  48.577   4.733  1.00  0.00     0.281 C 
HETATM   24  F1  UNL     1      30.436  49.481   3.701  1.00  0.00    -0.251 F 
ENDBRANCH  21  23
BRANCH  21  25
HETATM   25  C8  UNL     1      29.933  46.236   4.625  1.00  0.00     0.431 C 
HETATM   26  F2  UNL     1      28.875  45.402   4.284  1.00  0.00    -0.167 F 
HETATM   27  F3  UNL     1      30.655  46.329   3.406  1.00  0.00    -0.167 F 
HETATM   28  F4  UNL     1      30.802  45.722   5.515  1.00  0.00    -0.167 F 
ENDBRANCH  21  25
ENDBRANCH  15  21
BRANCH   1  29
HETATM   29  O1  UNL     1      30.283  42.570  10.695  1.00  0.00    -0.308 OA
HETATM   30  C1  UNL     1      31.634  42.181  10.540  1.00  0.00     0.215 C 
ENDBRANCH   1  29
TORSDOF 5
ENDMDL
MODEL 5
REMARK VINA RESULT: -3.452083176      1.076      1.470
REMARK  5 active torsions:
REMARK  status: ('A' for Active; 'I' for Inactive)
REMARK    1  A    between atoms: O1_2  and  C2_3 
REMARK       I    between atoms: C2_3  and  N1_5 
REMARK       I    between atoms: N1_5  and  C3_7 
REMARK       I    between atoms: C3_7  and  N3_11 
REMARK       I    between atoms: N4_13  and  C4_15 
REMARK       I    between atoms: C4_15  and  N5_17 
REMARK    2  A    between atoms: N5_17  and  N6_18 
REMARK    3  A    between atoms: N5_17  and  C6_23 
REMARK    4  A    between atoms: C6_23  and  C7_25 
REMARK    5  A    between atoms: C6_23  and  C8_27 
ROOT
HETATM    1  C2  UNL     1      32.442  49.241  13.033  1.00  0.00     0.378 C 
HETATM    2  O2  UNL     1      32.031  48.065  12.859  1.00  0.00    -0.238 OA
HETATM    3  N1  UNL     1      32.869  50.031  11.927  1.00  0.00    -0.134 N 
ATOM      4  H1  UNL     1      33.201  50.983  12.082  1.00  0.00     0.189 HD
HETATM    5  C3  UNL     1      32.833  49.505  10.622  1.00  0.00     0.695 C 
HETATM    6  N2  UNL     1      33.219  50.212   9.609  1.00  0.00    -0.233 N 
ATOM      7  H21 UNL     1      33.193  49.831   8.664  1.00  0.00     0.174 HD
ATOM      8  H22 UNL     1      33.545  51.160   9.802  1.00  0.00     0.174 HD
HETATM    9  N3  UNL     1      32.374  48.173  10.351  1.00  0.00    -0.128 N 
ATOM     10  H3  UNL     1      32.988  47.367  10.470  1.00  0.00     0.205 HD
HETATM   11  N4  UNL     1      31.193  48.038   9.963  1.00  0.00    -0.236 N 
ATOM     12  H4  UNL     1      30.611  48.869   9.857  1.00  0.00     0.192 HD
HETATM   13  C4  UNL     1      30.638  46.777   9.667  1.00  0.00     0.358 C 
HETATM   14  O3  UNL     1      31.107  45.832  10.419  1.00  0.00    -0.243 OA
HETATM   15  N5  UNL     1      29.683  46.445   8.701  1.00  0.00    -0.202 N 
ENDROOT
BRANCH  15  16
HETATM   16  N6  UNL     1      29.310  45.077   8.648  1.00  0.00    -0.268 N 
HETATM   17  C5  UNL     1      29.950  44.190   8.033  1.00  0.00     0.216 C 
HETATM   18  N7  UNL     1      31.130  44.497   7.324  1.00  0.00    -0.065 NA
HETATM   19  N8  UNL     1      29.498  42.853   8.038  1.00  0.00    -0.065 NA
ATOM     20  H6  UNL     1      28.465  44.796   9.145  1.00  0.00     0.189 HD
ENDBRANCH  15  16
BRANCH  15  21
HETATM   21  C6  UNL     1      29.100  47.391   7.803  1.00  0.00     0.256 C 
HETATM   22 CL1  UNL     1      29.286  49.065   8.521  1.00  0.00    -0.081 Cl
BRANCH  21  23
HETATM   23  C7  UNL     1      29.844  47.481   6.489  1.00  0.00     0.281 C 
HETATM   24  F1  UNL     1      29.411  46.547   5.557  1.00  0.00    -0.251 F 
ENDBRANCH  21  23
BRANCH  21  25
HETATM   25  C8  UNL     1      27.642  47.262   7.549  1.00  0.00     0.431 C 
HETATM   26  F2  UNL     1      27.231  45.940   7.424  1.00  0.00    -0.167 F 
HETATM   27  F3  UNL     1      27.012  47.666   8.755  1.00  0.00    -0.167 F 
HETATM   28  F4  UNL     1      27.175  48.098   6.605  1.00  0.00    -0.167 F 
ENDBRANCH  21  25
ENDBRANCH  15  21
BRANCH   1  29
HETATM   29  O1  UNL     1      32.458  49.717  14.332  1.00  0.00    -0.308 OA
HETATM   30  C1  UNL     1      33.674  49.776  15.052  1.00  0.00     0.215 C 
ENDBRANCH   1  29
TORSDOF 5
ENDMDL
