MODEL 1
REMARK VINA RESULT: -7.173048564      0.000      0.000
REMARK  5 active torsions:
REMARK  status: ('A' for Active; 'I' for Inactive)
REMARK    1  A    between atoms: C2_2  and  N1_3 
REMARK    2  A    between atoms: N1_3  and  C3_5 
REMARK    3  A    between atoms: N4_14  and  N5_15 
REMARK    4  A    between atoms: N5_15  and  C6_17 
REMARK    5  A    between atoms: C6_17  and  C7_20 
ROOT
HETATM    1  C3  UNL     1      28.887  44.259   7.380  1.00  0.00     0.707 A 
HETATM    2  N2  UNL     1      28.567  43.038   7.828  1.00  0.00    -0.139 N 
ATOM      3  H2  UNL     1      28.017  42.421   7.232  1.00  0.00     0.189 HD
HETATM    4  C4  UNL     1      28.946  42.609   9.025  1.00  0.00     0.342 A 
HETATM    5  O1  UNL     1      28.615  41.447   9.398  1.00  0.00    -0.246 OA
HETATM    6  N3  UNL     1      29.662  43.428   9.786  1.00  0.00    -0.258 N 
ATOM      7  H3  UNL     1      29.966  43.125  10.711  1.00  0.00     0.175 HD
HETATM    8  C5  UNL     1      29.996  44.681   9.334  1.00  0.00     0.364 A 
HETATM    9  O2  UNL     1      30.671  45.334  10.159  1.00  0.00    -0.244 OA
HETATM   10  N4  UNL     1      29.629  45.128   8.148  1.00  0.00    -0.033 N 
ENDROOT
BRANCH  10  11
HETATM   11  N5  UNL     1      29.952  46.369   7.671  1.00  0.00    -0.269 N 
ATOM     12  H5  UNL     1      30.820  46.387   7.137  1.00  0.00     0.185 HD
BRANCH  11  13
HETATM   13  C6  UNL     1      29.320  47.631   7.772  1.00  0.00     0.250 C 
HETATM   14 CL1  UNL     1      27.692  47.600   8.496  1.00  0.00    -0.072 Cl
HETATM   15 CL2  UNL     1      30.356  48.896   8.527  1.00  0.00    -0.072 Cl
BRANCH  13  16
HETATM   16  C7  UNL     1      29.067  48.216   6.353  1.00  0.00     0.243 C 
HETATM   17 CL3  UNL     1      29.280  49.977   6.422  1.00  0.00    -0.078 Cl
HETATM   18 CL4  UNL     1      30.147  47.490   5.172  1.00  0.00    -0.078 Cl
HETATM   19 CL5  UNL     1      27.363  47.835   5.964  1.00  0.00    -0.078 Cl
ENDBRANCH  13  16
ENDBRANCH  11  13
ENDBRANCH  10  11
BRANCH   1  20
HETATM   20  N1  UNL     1      28.489  44.613   6.213  1.00  0.00    -0.224 N 
ATOM     21  H1  UNL     1      27.720  45.275   6.108  1.00  0.00     0.177 HD
BRANCH  20  22
HETATM   22  C2  UNL     1      29.141  44.062   5.049  1.00  0.00     0.134 C 
HETATM   23  C1  UNL     1      30.645  44.020   5.209  1.00  0.00     0.027 C 
ENDBRANCH  20  22
ENDBRANCH   1  20
TORSDOF 5
ENDMDL
MODEL 2
REMARK VINA RESULT: -7.085933568      3.236      4.947
REMARK  5 active torsions:
REMARK  status: ('A' for Active; 'I' for Inactive)
REMARK    1  A    between atoms: C2_2  and  N1_3 
REMARK    2  A    between atoms: N1_3  and  C3_5 
REMARK    3  A    between atoms: N4_14  and  N5_15 
REMARK    4  A    between atoms: N5_15  and  C6_17 
REMARK    5  A    between atoms: C6_17  and  C7_20 
ROOT
HETATM    1  C3  UNL     1      29.421  46.857   7.225  1.00  0.00     0.707 A 
HETATM    2  N2  UNL     1      29.271  48.188   7.216  1.00  0.00    -0.139 N 
ATOM      3  H2  UNL     1      28.779  48.625   6.437  1.00  0.00     0.189 HD
HETATM    4  C4  UNL     1      29.745  48.954   8.191  1.00  0.00     0.342 A 
HETATM    5  O1  UNL     1      29.577  50.205   8.130  1.00  0.00    -0.246 OA
HETATM    6  N3  UNL     1      30.383  48.365   9.195  1.00  0.00    -0.258 N 
ATOM      7  H3  UNL     1      30.758  48.928   9.958  1.00  0.00     0.175 HD
HETATM    8  C5  UNL     1      30.539  47.000   9.214  1.00  0.00     0.364 A 
HETATM    9  O2  UNL     1      31.158  46.593  10.221  1.00  0.00    -0.244 OA
HETATM   10  N4  UNL     1      30.077  46.221   8.254  1.00  0.00    -0.033 N 
ENDROOT
BRANCH  10  11
HETATM   11  N5  UNL     1      30.214  44.860   8.250  1.00  0.00    -0.269 N 
ATOM     12  H5  UNL     1      30.802  44.511   7.494  1.00  0.00     0.185 HD
BRANCH  11  13
HETATM   13  C6  UNL     1      29.702  43.840   9.087  1.00  0.00     0.250 C 
HETATM   14 CL1  UNL     1      30.928  42.970  10.045  1.00  0.00    -0.072 Cl
HETATM   15 CL2  UNL     1      28.319  44.374  10.110  1.00  0.00    -0.072 Cl
BRANCH  13  16
HETATM   16  C7  UNL     1      29.060  42.714   8.225  1.00  0.00     0.243 C 
HETATM   17 CL3  UNL     1      28.534  41.408   9.306  1.00  0.00    -0.078 Cl
HETATM   18 CL4  UNL     1      27.717  43.337   7.279  1.00  0.00    -0.078 Cl
HETATM   19 CL5  UNL     1      30.362  42.117   7.154  1.00  0.00    -0.078 Cl
ENDBRANCH  13  16
ENDBRANCH  11  13
ENDBRANCH  10  11
BRANCH   1  20
HETATM   20  N1  UNL     1      28.939  46.174   6.251  1.00  0.00    -0.224 N 
ATOM     21  H1  UNL     1      28.075  45.645   6.368  1.00  0.00     0.177 HD
BRANCH  20  22
HETATM   22  C2  UNL     1      29.634  46.165   4.986  1.00  0.00     0.134 C 
HETATM   23  C1  UNL     1      30.167  44.792   4.641  1.00  0.00     0.027 C 
ENDBRANCH  20  22
ENDBRANCH   1  20
TORSDOF 5
ENDMDL
MODEL 3
REMARK VINA RESULT: -7.053599645      3.191      4.984
REMARK  5 active torsions:
REMARK  status: ('A' for Active; 'I' for Inactive)
REMARK    1  A    between atoms: C2_2  and  N1_3 
REMARK    2  A    between atoms: N1_3  and  C3_5 
REMARK    3  A    between atoms: N4_14  and  N5_15 
REMARK    4  A    between atoms: N5_15  and  C6_17 
REMARK    5  A    between atoms: C6_17  and  C7_20 
ROOT
HETATM    1  C3  UNL     1      29.473  46.885   6.975  1.00  0.00     0.707 A 
HETATM    2  N2  UNL     1      29.243  48.194   7.141  1.00  0.00    -0.139 N 
ATOM      3  H2  UNL     1      28.780  48.714   6.396  1.00  0.00     0.189 HD
HETATM    4  C4  UNL     1      29.602  48.834   8.247  1.00  0.00     0.342 A 
HETATM    5  O1  UNL     1      29.362  50.070   8.350  1.00  0.00    -0.246 OA
HETATM    6  N3  UNL     1      30.205  48.139   9.205  1.00  0.00    -0.258 N 
ATOM      7  H3  UNL     1      30.492  48.604  10.065  1.00  0.00     0.175 HD
HETATM    8  C5  UNL     1      30.443  46.795   9.043  1.00  0.00     0.364 A 
HETATM    9  O2  UNL     1      31.015  46.279  10.027  1.00  0.00    -0.244 OA
HETATM   10  N4  UNL     1      30.095  46.141   7.951  1.00  0.00    -0.033 N 
ENDROOT
BRANCH  10  11
HETATM   11  N5  UNL     1      30.315  44.803   7.766  1.00  0.00    -0.269 N 
ATOM     12  H5  UNL     1      31.285  44.575   7.548  1.00  0.00     0.185 HD
BRANCH  11  13
HETATM   13  C6  UNL     1      29.465  43.673   7.818  1.00  0.00     0.250 C 
HETATM   14 CL1  UNL     1      27.790  43.970   7.284  1.00  0.00    -0.072 Cl
HETATM   15 CL2  UNL     1      30.161  42.212   7.029  1.00  0.00    -0.072 Cl
BRANCH  13  16
HETATM   16  C7  UNL     1      29.291  43.203   9.290  1.00  0.00     0.243 C 
HETATM   17 CL3  UNL     1      30.900  43.018  10.017  1.00  0.00    -0.078 Cl
HETATM   18 CL4  UNL     1      28.309  44.341  10.200  1.00  0.00    -0.078 Cl
HETATM   19 CL5  UNL     1      28.487  41.607   9.202  1.00  0.00    -0.078 Cl
ENDBRANCH  13  16
ENDBRANCH  11  13
ENDBRANCH  10  11
BRANCH   1  20
HETATM   20  N1  UNL     1      29.101  46.327   5.880  1.00  0.00    -0.224 N 
ATOM     21  H1  UNL     1      28.186  45.882   5.812  1.00  0.00     0.177 HD
BRANCH  20  22
HETATM   22  C2  UNL     1      29.994  46.337   4.746  1.00  0.00     0.134 C 
HETATM   23  C1  UNL     1      29.961  47.658   4.010  1.00  0.00     0.027 C 
ENDBRANCH  20  22
ENDBRANCH   1  20
TORSDOF 5
ENDMDL
MODEL 4
REMARK VINA RESULT: -6.977345582      3.296      5.012
REMARK  5 active torsions:
REMARK  status: ('A' for Active; 'I' for Inactive)
REMARK    1  A    between atoms: C2_2  and  N1_3 
REMARK    2  A    between atoms: N1_3  and  C3_5 
REMARK    3  A    between atoms: N4_14  and  N5_15 
REMARK    4  A    between atoms: N5_15  and  C6_17 
REMARK    5  A    between atoms: C6_17  and  C7_20 
ROOT
HETATM    1  C3  UNL     1      29.397  47.006   7.166  1.00  0.00     0.707 A 
HETATM    2  N2  UNL     1      29.381  48.343   7.259  1.00  0.00    -0.139 N 
ATOM      3  H2  UNL     1      28.961  48.887   6.507  1.00  0.00     0.189 HD
HETATM    4  C4  UNL     1      29.898  48.978   8.304  1.00  0.00     0.342 A 
HETATM    5  O1  UNL     1      29.858  50.241   8.340  1.00  0.00    -0.246 OA
HETATM    6  N3  UNL     1      30.441  48.251   9.273  1.00  0.00    -0.258 N 
ATOM      7  H3  UNL     1      30.846  48.712  10.087  1.00  0.00     0.175 HD
HETATM    8  C5  UNL     1      30.460  46.880   9.185  1.00  0.00     0.364 A 
HETATM    9  O2  UNL     1      31.001  46.335  10.171  1.00  0.00    -0.244 OA
HETATM   10  N4  UNL     1      29.952  46.229   8.156  1.00  0.00    -0.033 N 
ENDROOT
BRANCH  10  11
HETATM   11  N5  UNL     1      29.952  44.865   8.046  1.00  0.00    -0.269 N 
ATOM     12  H5  UNL     1      30.761  44.496   7.546  1.00  0.00     0.185 HD
BRANCH  11  13
HETATM   13  C6  UNL     1      29.054  43.865   8.488  1.00  0.00     0.250 C 
HETATM   14 CL1  UNL     1      28.268  44.202  10.052  1.00  0.00    -0.072 Cl
HETATM   15 CL2  UNL     1      27.856  43.371   7.238  1.00  0.00    -0.072 Cl
BRANCH  13  16
HETATM   16  C7  UNL     1      29.821  42.538   8.754  1.00  0.00     0.243 C 
HETATM   17 CL3  UNL     1      30.530  41.980   7.225  1.00  0.00    -0.078 Cl
HETATM   18 CL4  UNL     1      31.057  42.764   9.983  1.00  0.00    -0.078 Cl
HETATM   19 CL5  UNL     1      28.591  41.364   9.307  1.00  0.00    -0.078 Cl
ENDBRANCH  13  16
ENDBRANCH  11  13
ENDBRANCH  10  11
BRANCH   1  20
HETATM   20  N1  UNL     1      28.880  46.455   6.128  1.00  0.00    -0.224 N 
ATOM     21  H1  UNL     1      27.945  46.049   6.170  1.00  0.00     0.177 HD
BRANCH  20  22
HETATM   22  C2  UNL     1      29.639  46.415   4.901  1.00  0.00     0.134 C 
HETATM   23  C1  UNL     1      30.056  45.007   4.537  1.00  0.00     0.027 C 
ENDBRANCH  20  22
ENDBRANCH   1  20
TORSDOF 5
ENDMDL
MODEL 5
REMARK VINA RESULT: -6.708619428      3.622      5.774
REMARK  5 active torsions:
REMARK  status: ('A' for Active; 'I' for Inactive)
REMARK    1  A    between atoms: C2_2  and  N1_3 
REMARK    2  A    between atoms: N1_3  and  C3_5 
REMARK    3  A    between atoms: N4_14  and  N5_15 
REMARK    4  A    between atoms: N5_15  and  C6_17 
REMARK    5  A    between atoms: C6_17  and  C7_20 
ROOT
HETATM    1  C3  UNL     1      29.761  47.676   6.758  1.00  0.00     0.707 A 
HETATM    2  N2  UNL     1      29.630  48.746   5.962  1.00  0.00    -0.139 N 
ATOM      3  H2  UNL     1      29.500  49.664   6.385  1.00  0.00     0.189 HD
HETATM    4  C4  UNL     1      29.665  48.644   4.639  1.00  0.00     0.342 A 
HETATM    5  O1  UNL     1      29.535  49.686   3.937  1.00  0.00    -0.246 OA
HETATM    6  N3  UNL     1      29.835  47.439   4.109  1.00  0.00    -0.258 N 
ATOM      7  H3  UNL     1      29.864  47.330   3.095  1.00  0.00     0.175 HD
HETATM    8  C5  UNL     1      29.971  46.337   4.917  1.00  0.00     0.364 A 
HETATM    9  O2  UNL     1      30.124  45.275   4.275  1.00  0.00    -0.244 OA
HETATM   10  N4  UNL     1      29.939  46.416   6.234  1.00  0.00    -0.033 N 
ENDROOT
BRANCH  10  11
HETATM   11  N5  UNL     1      30.077  45.336   7.063  1.00  0.00    -0.269 N 
ATOM     12  H5  UNL     1      30.848  45.426   7.724  1.00  0.00     0.185 HD
BRANCH  11  13
HETATM   13  C6  UNL     1      29.364  44.120   7.185  1.00  0.00     0.250 C 
HETATM   14 CL1  UNL     1      27.701  44.160   6.543  1.00  0.00    -0.072 Cl
HETATM   15 CL2  UNL     1      30.272  42.688   6.580  1.00  0.00    -0.072 Cl
BRANCH  13  16
HETATM   16  C7  UNL     1      29.156  43.771   8.686  1.00  0.00     0.243 C 
HETATM   17 CL3  UNL     1      30.711  43.243   9.362  1.00  0.00    -0.078 Cl
HETATM   18 CL4  UNL     1      28.515  45.148   9.569  1.00  0.00    -0.078 Cl
HETATM   19 CL5  UNL     1      27.998  42.409   8.717  1.00  0.00    -0.078 Cl
ENDBRANCH  13  16
ENDBRANCH  11  13
ENDBRANCH  10  11
BRANCH   1  20
HETATM   20  N1  UNL     1      29.718  47.844   8.030  1.00  0.00    -0.224 N 
ATOM     21  H1  UNL     1      29.494  47.063   8.646  1.00  0.00     0.177 HD
BRANCH  20  22
HETATM   22  C2  UNL     1      29.990  49.151   8.577  1.00  0.00     0.134 C 
HETATM   23  C1  UNL     1      31.129  49.123   9.573  1.00  0.00     0.027 C 
ENDBRANCH  20  22
ENDBRANCH   1  20
TORSDOF 5
ENDMDL
