MODEL 1
REMARK VINA RESULT: -7.873775028      0.000      0.000
REMARK  7 active torsions:
REMARK  status: ('A' for Active; 'I' for Inactive)
REMARK    1  A    between atoms: C2_2  and  C4_4 
REMARK    2  A    between atoms: C4_4  and  N1_5 
REMARK    3  A    between atoms: N1_5  and  C5_7 
REMARK    4  A    between atoms: C8_15  and  N4_16 
REMARK    5  A    between atoms: N4_16  and  C9_17 
REMARK    6  A    between atoms: C9_17  and  N5_18 
REMARK    7  A    between atoms: C9_17  and  C10_22 
ROOT
HETATM    1  C5  UNL     1      22.836  49.511 -17.713  1.00  0.00     0.134 A 
HETATM    2  N2  UNL     1      21.843  50.298 -17.327  1.00  0.00    -0.293 N 
ATOM      3  H2  UNL     1      21.418  50.931 -18.004  1.00  0.00     0.172 HD
HETATM    4  C6  UNL     1      21.381  50.282 -16.061  1.00  0.00     0.326 A 
HETATM    5  O1  UNL     1      20.438  51.036 -15.710  1.00  0.00    -0.247 OA
HETATM    6  N3  UNL     1      21.904  49.468 -15.129  1.00  0.00    -0.302 N 
ATOM      7  H3  UNL     1      21.543  49.469 -14.175  1.00  0.00     0.171 HD
HETATM    8  C7  UNL     1      22.927  48.642 -15.485  1.00  0.00     0.125 A 
HETATM    9  C8  UNL     1      23.502  47.784 -14.561  1.00  0.00     0.205 A 
HETATM   10  N6  UNL     1      24.530  46.980 -14.994  1.00  0.00    -0.326 N 
ATOM     11  H6  UNL     1      24.962  46.343 -14.325  1.00  0.00     0.169 HD
HETATM   12  C13 UNL     1      24.988  46.992 -16.239  1.00  0.00     0.183 A 
HETATM   13  N7  UNL     1      24.419  47.828 -17.115  1.00  0.00    -0.347 N 
ATOM     14  H7  UNL     1      24.762  47.847 -18.076  1.00  0.00     0.167 HD
HETATM   15  C14 UNL     1      23.405  48.648 -16.766  1.00  0.00     0.109 A 
ENDROOT
BRANCH   9  16
HETATM   16  N4  UNL     1      23.157  47.702 -13.415  1.00  0.00    -0.394 NA
BRANCH  16  17
HETATM   17  C9  UNL     1      23.145  47.695 -12.070  1.00  0.00     0.363 C 
BRANCH  17  18
HETATM   18  N5  UNL     1      24.392  47.199 -11.498  1.00  0.00    -0.046 N 
ATOM     19  H53 UNL     1      24.533  46.215 -11.729  1.00  0.00     0.278 HD
ATOM     20  H52 UNL     1      25.199  47.598 -11.977  1.00  0.00     0.278 HD
ATOM     21  H51 UNL     1      24.451  47.351 -10.492  1.00  0.00     0.278 HD
ENDBRANCH  17  18
BRANCH  17  22
HETATM   22  C10 UNL     1      22.875  49.114 -11.547  1.00  0.00     0.041 C 
HETATM   23  C11 UNL     1      21.459  49.262 -11.081  1.00  0.00     0.014 C 
HETATM   24  C12 UNL     1      23.894  49.426 -10.506  1.00  0.00     0.014 C 
ENDBRANCH  17  22
ENDBRANCH  16  17
ENDBRANCH   9  16
BRANCH   1  25
HETATM   25  N1  UNL     1      23.342  49.454 -18.891  1.00  0.00    -0.374 N 
ATOM     26  H1  UNL     1      23.199  48.622 -19.465  1.00  0.00     0.161 HD
BRANCH  25  27
HETATM   27  C4  UNL     1      24.107  50.555 -19.406  1.00  0.00     0.125 C 
BRANCH  27  28
HETATM   28  C2  UNL     1      25.484  50.003 -19.797  1.00  0.00    -0.005 C 
HETATM   29  C1  UNL     1      25.944  50.635 -21.088  1.00  0.00     0.011 C 
HETATM   30  C3  UNL     1      26.434  50.322 -18.655  1.00  0.00     0.011 C 
ENDBRANCH  27  28
ENDBRANCH  25  27
ENDBRANCH   1  25
TORSDOF 7
ENDMDL
MODEL 2
REMARK VINA RESULT: -7.365708639      0.820      1.075
REMARK  7 active torsions:
REMARK  status: ('A' for Active; 'I' for Inactive)
REMARK    1  A    between atoms: C2_2  and  C4_4 
REMARK    2  A    between atoms: C4_4  and  N1_5 
REMARK    3  A    between atoms: N1_5  and  C5_7 
REMARK    4  A    between atoms: C8_15  and  N4_16 
REMARK    5  A    between atoms: N4_16  and  C9_17 
REMARK    6  A    between atoms: C9_17  and  N5_18 
REMARK    7  A    between atoms: C9_17  and  C10_22 
ROOT
HETATM    1  C5  UNL     1      22.801  49.403 -17.635  1.00  0.00     0.134 A 
HETATM    2  N2  UNL     1      21.816  50.246 -17.363  1.00  0.00    -0.293 N 
ATOM      3  H2  UNL     1      21.436  50.824 -18.112  1.00  0.00     0.172 HD
HETATM    4  C6  UNL     1      21.305  50.359 -16.122  1.00  0.00     0.326 A 
HETATM    5  O1  UNL     1      20.371  51.164 -15.880  1.00  0.00    -0.247 OA
HETATM    6  N3  UNL     1      21.769  49.623 -15.098  1.00  0.00    -0.302 N 
ATOM      7  H3  UNL     1      21.372  49.721 -14.164  1.00  0.00     0.171 HD
HETATM    8  C7  UNL     1      22.782  48.742 -15.335  1.00  0.00     0.125 A 
HETATM    9  C8  UNL     1      23.296  47.960 -14.313  1.00  0.00     0.205 A 
HETATM   10  N6  UNL     1      24.317  47.095 -14.628  1.00  0.00    -0.326 N 
ATOM     11  H6  UNL     1      24.705  46.512 -13.886  1.00  0.00     0.169 HD
HETATM   12  C13 UNL     1      24.824  46.980 -15.849  1.00  0.00     0.183 A 
HETATM   13  N7  UNL     1      24.312  47.745 -16.820  1.00  0.00    -0.347 N 
ATOM     14  H7  UNL     1      24.693  47.667 -17.764  1.00  0.00     0.167 HD
HETATM   15  C14 UNL     1      23.309  48.618 -16.590  1.00  0.00     0.109 A 
ENDROOT
BRANCH   9  16
HETATM   16  N4  UNL     1      22.905  47.993 -13.180  1.00  0.00    -0.394 NA
BRANCH  16  17
HETATM   17  C9  UNL     1      22.632  48.381 -11.921  1.00  0.00     0.363 C 
BRANCH  17  18
HETATM   18  N5  UNL     1      22.175  47.280 -11.079  1.00  0.00    -0.046 N 
ATOM     19  H53 UNL     1      22.489  46.382 -11.449  1.00  0.00     0.278 HD
ATOM     20  H52 UNL     1      22.668  47.272 -10.186  1.00  0.00     0.278 HD
ATOM     21  H51 UNL     1      21.165  47.285 -10.940  1.00  0.00     0.278 HD
ENDBRANCH  17  18
BRANCH  17  22
HETATM   22  C10 UNL     1      23.880  49.016 -11.292  1.00  0.00     0.041 C 
HETATM   23  C11 UNL     1      24.928  47.985 -10.999  1.00  0.00     0.014 C 
HETATM   24  C12 UNL     1      24.343  50.114 -12.186  1.00  0.00     0.014 C 
ENDBRANCH  17  22
ENDBRANCH  16  17
ENDBRANCH   9  16
BRANCH   1  25
HETATM   25  N1  UNL     1      23.350  49.225 -18.781  1.00  0.00    -0.374 N 
ATOM     26  H1  UNL     1      23.307  48.309 -19.227  1.00  0.00     0.161 HD
BRANCH  25  27
HETATM   27  C4  UNL     1      24.026  50.309 -19.438  1.00  0.00     0.125 C 
BRANCH  27  28
HETATM   28  C2  UNL     1      25.460  49.843 -19.717  1.00  0.00    -0.005 C 
HETATM   29  C1  UNL     1      25.991  50.524 -20.954  1.00  0.00     0.011 C 
HETATM   30  C3  UNL     1      26.290  50.192 -18.494  1.00  0.00     0.011 C 
ENDBRANCH  27  28
ENDBRANCH  25  27
ENDBRANCH   1  25
TORSDOF 7
ENDMDL
MODEL 3
REMARK VINA RESULT: -7.347346338      0.863      1.212
REMARK  7 active torsions:
REMARK  status: ('A' for Active; 'I' for Inactive)
REMARK    1  A    between atoms: C2_2  and  C4_4 
REMARK    2  A    between atoms: C4_4  and  N1_5 
REMARK    3  A    between atoms: N1_5  and  C5_7 
REMARK    4  A    between atoms: C8_15  and  N4_16 
REMARK    5  A    between atoms: N4_16  and  C9_17 
REMARK    6  A    between atoms: C9_17  and  N5_18 
REMARK    7  A    between atoms: C9_17  and  C10_22 
ROOT
HETATM    1  C5  UNL     1      22.884  49.605 -17.916  1.00  0.00     0.134 A 
HETATM    2  N2  UNL     1      21.897  50.446 -17.643  1.00  0.00    -0.293 N 
ATOM      3  H2  UNL     1      21.574  51.085 -18.370  1.00  0.00     0.172 HD
HETATM    4  C6  UNL     1      21.311  50.479 -16.431  1.00  0.00     0.326 A 
HETATM    5  O1  UNL     1      20.376  51.284 -16.188  1.00  0.00    -0.247 OA
HETATM    6  N3  UNL     1      21.697  49.660 -15.438  1.00  0.00    -0.302 N 
ATOM      7  H3  UNL     1      21.244  49.698 -14.525  1.00  0.00     0.171 HD
HETATM    8  C7  UNL     1      22.709  48.779 -15.676  1.00  0.00     0.125 A 
HETATM    9  C8  UNL     1      23.145  47.913 -14.685  1.00  0.00     0.205 A 
HETATM   10  N6  UNL     1      24.170  47.053 -15.000  1.00  0.00    -0.326 N 
ATOM     11  H6  UNL     1      24.500  46.409 -14.281  1.00  0.00     0.169 HD
HETATM   12  C13 UNL     1      24.750  47.017 -16.192  1.00  0.00     0.183 A 
HETATM   13  N7  UNL     1      24.313  47.861 -17.134  1.00  0.00    -0.347 N 
ATOM     14  H7  UNL     1      24.751  47.843 -18.056  1.00  0.00     0.167 HD
HETATM   15  C14 UNL     1      23.312  48.736 -16.902  1.00  0.00     0.109 A 
ENDROOT
BRANCH   9  16
HETATM   16  N4  UNL     1      22.683  47.872 -13.579  1.00  0.00    -0.394 NA
BRANCH  16  17
HETATM   17  C9  UNL     1      22.157  48.210 -12.388  1.00  0.00     0.363 C 
BRANCH  17  18
HETATM   18  N5  UNL     1      20.850  47.604 -12.158  1.00  0.00    -0.046 N 
ATOM     19  H53 UNL     1      20.106  48.297 -12.237  1.00  0.00     0.278 HD
ATOM     20  H52 UNL     1      20.589  46.992 -12.932  1.00  0.00     0.278 HD
ATOM     21  H51 UNL     1      20.798  47.109 -11.268  1.00  0.00     0.278 HD
ENDBRANCH  17  18
BRANCH  17  22
HETATM   22  C10 UNL     1      23.115  47.797 -11.262  1.00  0.00     0.041 C 
HETATM   23  C11 UNL     1      24.231  48.786 -11.106  1.00  0.00     0.014 C 
HETATM   24  C12 UNL     1      22.313  47.587 -10.024  1.00  0.00     0.014 C 
ENDBRANCH  17  22
ENDBRANCH  16  17
ENDBRANCH   9  16
BRANCH   1  25
HETATM   25  N1  UNL     1      23.501  49.499 -19.035  1.00  0.00    -0.374 N 
ATOM     26  H1  UNL     1      23.408  48.647 -19.588  1.00  0.00     0.161 HD
BRANCH  25  27
HETATM   27  C4  UNL     1      24.323  50.576 -19.515  1.00  0.00     0.125 C 
BRANCH  27  28
HETATM   28  C2  UNL     1      25.706  49.986 -19.819  1.00  0.00    -0.005 C 
HETATM   29  C1  UNL     1      26.281  50.634 -21.055  1.00  0.00     0.011 C 
HETATM   30  C3  UNL     1      26.578  50.244 -18.602  1.00  0.00     0.011 C 
ENDBRANCH  27  28
ENDBRANCH  25  27
ENDBRANCH   1  25
TORSDOF 7
ENDMDL
MODEL 4
REMARK VINA RESULT: -7.131966971      2.162      2.755
REMARK  7 active torsions:
REMARK  status: ('A' for Active; 'I' for Inactive)
REMARK    1  A    between atoms: C2_2  and  C4_4 
REMARK    2  A    between atoms: C4_4  and  N1_5 
REMARK    3  A    between atoms: N1_5  and  C5_7 
REMARK    4  A    between atoms: C8_15  and  N4_16 
REMARK    5  A    between atoms: N4_16  and  C9_17 
REMARK    6  A    between atoms: C9_17  and  N5_18 
REMARK    7  A    between atoms: C9_17  and  C10_22 
ROOT
HETATM    1  C5  UNL     1      24.477  47.646 -16.648  1.00  0.00     0.134 A 
HETATM    2  N2  UNL     1      23.397  46.883 -16.562  1.00  0.00    -0.293 N 
ATOM      3  H2  UNL     1      22.989  46.500 -17.414  1.00  0.00     0.172 HD
HETATM    4  C6  UNL     1      22.826  46.600 -15.375  1.00  0.00     0.326 A 
HETATM    5  O1  UNL     1      21.801  45.875 -15.309  1.00  0.00    -0.247 OA
HETATM    6  N3  UNL     1      23.322  47.078 -14.221  1.00  0.00    -0.302 N 
ATOM      7  H3  UNL     1      22.877  46.855 -13.331  1.00  0.00     0.171 HD
HETATM    8  C7  UNL     1      24.432  47.866 -14.266  1.00  0.00     0.125 A 
HETATM    9  C8  UNL     1      24.982  48.385 -13.104  1.00  0.00     0.205 A 
HETATM   10  N6  UNL     1      26.102  49.172 -13.229  1.00  0.00    -0.326 N 
ATOM     11  H6  UNL     1      26.519  49.560 -12.382  1.00  0.00     0.169 HD
HETATM   12  C13 UNL     1      26.669  49.454 -14.395  1.00  0.00     0.183 A 
HETATM   13  N7  UNL     1      26.121  48.943 -15.504  1.00  0.00    -0.347 N 
ATOM     14  H7  UNL     1      26.547  49.152 -16.407  1.00  0.00     0.167 HD
HETATM   15  C14 UNL     1      25.021  48.161 -15.463  1.00  0.00     0.109 A 
ENDROOT
BRANCH   9  16
HETATM   16  N4  UNL     1      24.543  48.187 -12.006  1.00  0.00    -0.394 NA
BRANCH  16  17
HETATM   17  C9  UNL     1      23.926  48.331 -10.819  1.00  0.00     0.363 C 
BRANCH  17  18
HETATM   18  N5  UNL     1      24.064  49.677 -10.273  1.00  0.00    -0.046 N 
ATOM     19  H53 UNL     1      25.032  49.869 -10.014  1.00  0.00     0.278 HD
ATOM     20  H52 UNL     1      23.946  50.381 -11.001  1.00  0.00     0.278 HD
ATOM     21  H51 UNL     1      23.433  49.850  -9.491  1.00  0.00     0.278 HD
ENDBRANCH  17  18
BRANCH  17  22
HETATM   22  C10 UNL     1      22.436  47.992 -10.965  1.00  0.00     0.041 C 
HETATM   23  C11 UNL     1      21.904  47.330  -9.729  1.00  0.00     0.014 C 
HETATM   24  C12 UNL     1      21.712  49.236 -11.346  1.00  0.00     0.014 C 
ENDBRANCH  17  22
ENDBRANCH  16  17
ENDBRANCH   9  16
BRANCH   1  25
HETATM   25  N1  UNL     1      25.090  47.969 -17.728  1.00  0.00    -0.374 N 
ATOM     26  H1  UNL     1      26.022  47.599 -17.912  1.00  0.00     0.161 HD
BRANCH  25  27
HETATM   27  C4  UNL     1      24.470  48.851 -18.678  1.00  0.00     0.125 C 
BRANCH  27  28
HETATM   28  C2  UNL     1      25.331  50.119 -18.745  1.00  0.00    -0.005 C 
HETATM   29  C1  UNL     1      26.732  49.767 -19.182  1.00  0.00     0.011 C 
HETATM   30  C3  UNL     1      24.664  51.061 -19.732  1.00  0.00     0.011 C 
ENDBRANCH  27  28
ENDBRANCH  25  27
ENDBRANCH   1  25
TORSDOF 7
ENDMDL
MODEL 5
REMARK VINA RESULT: -7.088395818      1.324      1.741
REMARK  7 active torsions:
REMARK  status: ('A' for Active; 'I' for Inactive)
REMARK    1  A    between atoms: C2_2  and  C4_4 
REMARK    2  A    between atoms: C4_4  and  N1_5 
REMARK    3  A    between atoms: N1_5  and  C5_7 
REMARK    4  A    between atoms: C8_15  and  N4_16 
REMARK    5  A    between atoms: N4_16  and  C9_17 
REMARK    6  A    between atoms: C9_17  and  N5_18 
REMARK    7  A    between atoms: C9_17  and  C10_22 
ROOT
HETATM    1  C5  UNL     1      23.878  49.051 -18.434  1.00  0.00     0.134 A 
HETATM    2  N2  UNL     1      22.906  49.939 -18.583  1.00  0.00    -0.293 N 
ATOM      3  H2  UNL     1      22.818  50.436 -19.469  1.00  0.00     0.172 HD
HETATM    4  C6  UNL     1      22.030  50.200 -17.593  1.00  0.00     0.326 A 
HETATM    5  O1  UNL     1      21.114  51.045 -17.750  1.00  0.00    -0.247 OA
HETATM    6  N3  UNL     1      22.100  49.574 -16.406  1.00  0.00    -0.302 N 
ATOM      7  H3  UNL     1      21.429  49.784 -15.667  1.00  0.00     0.171 HD
HETATM    8  C7  UNL     1      23.085  48.653 -16.212  1.00  0.00     0.125 A 
HETATM    9  C8  UNL     1      23.200  47.980 -15.005  1.00  0.00     0.205 A 
HETATM   10  N6  UNL     1      24.219  47.065 -14.883  1.00  0.00    -0.326 N 
ATOM     11  H6  UNL     1      24.315  46.562 -14.001  1.00  0.00     0.169 HD
HETATM   12  C13 UNL     1      25.084  46.804 -15.855  1.00  0.00     0.183 A 
HETATM   13  N7  UNL     1      24.954  47.466 -17.011  1.00  0.00    -0.347 N 
ATOM     14  H7  UNL     1      25.612  47.274 -17.767  1.00  0.00     0.167 HD
HETATM   15  C14 UNL     1      23.980  48.379 -17.208  1.00  0.00     0.109 A 
ENDROOT
BRANCH   9  16
HETATM   16  N4  UNL     1      22.468  48.147 -14.070  1.00  0.00    -0.394 NA
BRANCH  16  17
HETATM   17  C9  UNL     1      21.985  48.382 -12.836  1.00  0.00     0.363 C 
BRANCH  17  18
HETATM   18  N5  UNL     1      20.841  47.537 -12.510  1.00  0.00    -0.046 N 
ATOM     19  H53 UNL     1      21.130  46.725 -11.963  1.00  0.00     0.278 HD
ATOM     20  H52 UNL     1      20.235  47.990 -11.826  1.00  0.00     0.278 HD
ATOM     21  H51 UNL     1      20.314  47.254 -13.335  1.00  0.00     0.278 HD
ENDBRANCH  17  18
BRANCH  17  22
HETATM   22  C10 UNL     1      23.093  48.161 -11.796  1.00  0.00     0.041 C 
HETATM   23  C11 UNL     1      23.945  49.384 -11.640  1.00  0.00     0.014 C 
HETATM   24  C12 UNL     1      22.456  47.699 -10.531  1.00  0.00     0.014 C 
ENDBRANCH  17  22
ENDBRANCH  16  17
ENDBRANCH   9  16
BRANCH   1  25
HETATM   25  N1  UNL     1      24.756  48.735 -19.315  1.00  0.00    -0.374 N 
ATOM     26  H1  UNL     1      24.506  48.102 -20.076  1.00  0.00     0.161 HD
BRANCH  25  27
HETATM   27  C4  UNL     1      26.088  49.267 -19.236  1.00  0.00     0.125 C 
BRANCH  27  28
HETATM   28  C2  UNL     1      26.015  50.732 -19.684  1.00  0.00    -0.005 C 
HETATM   29  C1  UNL     1      27.389  51.355 -19.630  1.00  0.00     0.011 C 
HETATM   30  C3  UNL     1      25.459  50.740 -21.097  1.00  0.00     0.011 C 
ENDBRANCH  27  28
ENDBRANCH  25  27
ENDBRANCH   1  25
TORSDOF 7
ENDMDL
