MODEL 1
REMARK VINA RESULT: -9.281834377      0.000      0.000
REMARK  6 active torsions:
REMARK  status: ('A' for Active; 'I' for Inactive)
REMARK    1  A    between atoms: C2_2  and  C3_3 
REMARK    2  A    between atoms: C3_3  and  C4_4 
REMARK    3  A    between atoms: C7_13  and  N4_14 
REMARK    4  A    between atoms: N4_14  and  C8_16 
REMARK    5  A    between atoms: C11_25  and  N8_26 
REMARK    6  A    between atoms: N8_26  and  C12_28 
ROOT
HETATM    1  C12 UNL     1      21.047  50.730 -18.390  1.00  0.00     0.245 C 
HETATM    2  C13 UNL     1      20.527  51.762 -17.492  1.00  0.00     0.078 C 
HETATM    3  N9  UNL     1      20.102  52.586 -16.796  1.00  0.00    -0.196 NA
ENDROOT
BRANCH   1   4
HETATM    4  N8  UNL     1      22.448  50.572 -18.151  1.00  0.00    -0.363 N 
ATOM      5  H8  UNL     1      23.060  51.242 -18.616  1.00  0.00     0.162 HD
BRANCH   4   6
HETATM    6  C11 UNL     1      23.017  49.705 -17.435  1.00  0.00     0.132 A 
HETATM    7  N7  UNL     1      22.278  49.123 -16.459  1.00  0.00    -0.175 N 
HETATM    8  C7  UNL     1      22.824  48.162 -15.700  1.00  0.00     0.700 A 
ATOM      9  H7  UNL     1      21.314  49.413 -16.302  1.00  0.00     0.186 HD
HETATM   10  N3  UNL     1      24.084  47.752 -15.877  1.00  0.00    -0.174 N 
HETATM   11  C6  UNL     1      24.865  48.295 -16.833  1.00  0.00     0.150 A 
ATOM     12  H3  UNL     1      24.460  47.017 -15.279  1.00  0.00     0.186 HD
HETATM   13  N2  UNL     1      26.121  47.851 -17.010  1.00  0.00    -0.285 N 
HETATM   14  C14 UNL     1      24.314  49.317 -17.647  1.00  0.00     0.062 A 
HETATM   15  N1  UNL     1      26.834  48.394 -17.966  1.00  0.00    -0.310 N 
ATOM     16  H2  UNL     1      26.508  47.116 -16.418  1.00  0.00     0.188 HD
HETATM   17  C5  UNL     1      26.399  49.349 -18.768  1.00  0.00     0.115 A 
ATOM     18  H1  UNL     1      27.787  48.056 -18.099  1.00  0.00     0.186 HD
HETATM   19  C4  UNL     1      25.083  49.863 -18.633  1.00  0.00    -0.024 A 
BRANCH   8  20
HETATM   20  N4  UNL     1      22.088  47.636 -14.785  1.00  0.00    -0.022 N 
ATOM     21  H4  UNL     1      21.244  47.145 -15.081  1.00  0.00     0.203 HD
BRANCH  20  22
HETATM   22  C8  UNL     1      22.363  47.688 -13.398  1.00  0.00     0.696 A 
HETATM   23  N5  UNL     1      23.538  47.740 -12.745  1.00  0.00    -0.200 N 
HETATM   24  C9  UNL     1      23.335  47.780 -11.415  1.00  0.00     0.123 A 
ATOM     25  H5  UNL     1      24.454  47.750 -13.193  1.00  0.00     0.183 HD
HETATM   26  C10 UNL     1      21.970  47.749 -11.228  1.00  0.00     0.123 A 
HETATM   27  N6  UNL     1      21.408  47.694 -12.450  1.00  0.00    -0.200 N 
ATOM     28  H6  UNL     1      20.404  47.662 -12.631  1.00  0.00     0.183 HD
ENDBRANCH  20  22
ENDBRANCH   8  20
BRANCH  19  29
HETATM   29  C3  UNL     1      24.677  50.977 -19.475  1.00  0.00     0.041 C 
BRANCH  29  30
HETATM   30  C2  UNL     1      25.830  51.347 -20.377  1.00  0.00     0.000 C 
HETATM   31  C1  UNL     1      25.752  50.550 -21.703  1.00  0.00     0.005 C 
ENDBRANCH  29  30
ENDBRANCH  19  29
ENDBRANCH   4   6
ENDBRANCH   1   4
TORSDOF 6
ENDMDL
MODEL 2
REMARK VINA RESULT: -8.756831010      2.593      6.957
REMARK  6 active torsions:
REMARK  status: ('A' for Active; 'I' for Inactive)
REMARK    1  A    between atoms: C2_2  and  C3_3 
REMARK    2  A    between atoms: C3_3  and  C4_4 
REMARK    3  A    between atoms: C7_13  and  N4_14 
REMARK    4  A    between atoms: N4_14  and  C8_16 
REMARK    5  A    between atoms: C11_25  and  N8_26 
REMARK    6  A    between atoms: N8_26  and  C12_28 
ROOT
HETATM    1  C12 UNL     1      25.883  49.884 -12.994  1.00  0.00     0.245 C 
HETATM    2  C13 UNL     1      25.454  49.955 -11.597  1.00  0.00     0.078 C 
HETATM    3  N9  UNL     1      25.131  50.022 -10.485  1.00  0.00    -0.196 NA
ENDROOT
BRANCH   1   4
HETATM    4  N8  UNL     1      25.515  48.609 -13.526  1.00  0.00    -0.363 N 
ATOM      5  H8  UNL     1      25.535  47.827 -12.871  1.00  0.00     0.162 HD
BRANCH   4   6
HETATM    6  C11 UNL     1      25.170  48.335 -14.707  1.00  0.00     0.132 A 
HETATM    7  N7  UNL     1      26.029  48.670 -15.700  1.00  0.00    -0.175 N 
HETATM    8  C7  UNL     1      25.730  48.358 -16.968  1.00  0.00     0.700 A 
ATOM      9  H7  UNL     1      26.899  49.157 -15.484  1.00  0.00     0.186 HD
HETATM   10  N3  UNL     1      24.601  47.719 -17.291  1.00  0.00    -0.174 N 
HETATM   11  C6  UNL     1      23.710  47.359 -16.345  1.00  0.00     0.150 A 
ATOM     12  H3  UNL     1      24.412  47.499 -18.269  1.00  0.00     0.186 HD
HETATM   13  N2  UNL     1      22.593  46.695 -16.688  1.00  0.00    -0.285 N 
HETATM   14  C14 UNL     1      24.001  47.681 -14.995  1.00  0.00     0.062 A 
HETATM   15  N1  UNL     1      21.769  46.348 -15.732  1.00  0.00    -0.310 N 
ATOM     16  H2  UNL     1      22.394  46.469 -17.663  1.00  0.00     0.188 HD
HETATM   17  C5  UNL     1      21.962  46.607 -14.451  1.00  0.00     0.115 A 
ATOM     18  H1  UNL     1      20.921  45.843 -15.993  1.00  0.00     0.186 HD
HETATM   19  C4  UNL     1      23.120  47.307 -14.022  1.00  0.00    -0.024 A 
BRANCH   8  20
HETATM   20  N4  UNL     1      26.573  48.696 -17.880  1.00  0.00    -0.022 N 
ATOM     21  H4  UNL     1      27.524  48.335 -17.801  1.00  0.00     0.203 HD
BRANCH  20  22
HETATM   22  C8  UNL     1      26.278  49.529 -18.985  1.00  0.00     0.696 A 
HETATM   23  N5  UNL     1      26.479  49.336 -20.300  1.00  0.00    -0.200 N 
HETATM   24  C9  UNL     1      26.043  50.396 -21.004  1.00  0.00     0.123 A 
ATOM     25  H5  UNL     1      26.903  48.502 -20.708  1.00  0.00     0.183 HD
HETATM   26  C10 UNL     1      25.546  51.295 -20.086  1.00  0.00     0.123 A 
HETATM   27  N6  UNL     1      25.702  50.740 -18.870  1.00  0.00    -0.200 N 
ATOM     28  H6  UNL     1      25.425  51.175 -17.989  1.00  0.00     0.183 HD
ENDBRANCH  20  22
ENDBRANCH   8  20
BRANCH  19  29
HETATM   29  C3  UNL     1      23.248  47.652 -12.615  1.00  0.00     0.041 C 
BRANCH  29  30
HETATM   30  C2  UNL     1      21.865  47.778 -12.020  1.00  0.00     0.000 C 
HETATM   31  C1  UNL     1      21.690  49.168 -11.361  1.00  0.00     0.005 C 
ENDBRANCH  29  30
ENDBRANCH  19  29
ENDBRANCH   4   6
ENDBRANCH   1   4
TORSDOF 6
ENDMDL
MODEL 3
REMARK VINA RESULT: -8.422265050      1.214      3.441
REMARK  6 active torsions:
REMARK  status: ('A' for Active; 'I' for Inactive)
REMARK    1  A    between atoms: C2_2  and  C3_3 
REMARK    2  A    between atoms: C3_3  and  C4_4 
REMARK    3  A    between atoms: C7_13  and  N4_14 
REMARK    4  A    between atoms: N4_14  and  C8_16 
REMARK    5  A    between atoms: C11_25  and  N8_26 
REMARK    6  A    between atoms: N8_26  and  C12_28 
ROOT
HETATM    1  C12 UNL     1      26.682  48.483 -17.120  1.00  0.00     0.245 C 
HETATM    2  C13 UNL     1      26.472  48.858 -15.721  1.00  0.00     0.078 C 
HETATM    3  N9  UNL     1      26.323  49.147 -14.607  1.00  0.00    -0.196 NA
ENDROOT
BRANCH   1   4
HETATM    4  N8  UNL     1      25.417  48.180 -17.712  1.00  0.00    -0.363 N 
ATOM      5  H8  UNL     1      25.445  47.642 -18.578  1.00  0.00     0.162 HD
BRANCH   4   6
HETATM    6  C11 UNL     1      24.272  48.498 -17.293  1.00  0.00     0.132 A 
HETATM    7  N7  UNL     1      23.814  47.862 -16.187  1.00  0.00    -0.175 N 
HETATM    8  C7  UNL     1      22.622  48.198 -15.676  1.00  0.00     0.700 A 
ATOM      9  H7  UNL     1      24.374  47.133 -15.747  1.00  0.00     0.186 HD
HETATM   10  N3  UNL     1      21.861  49.150 -16.223  1.00  0.00    -0.174 N 
HETATM   11  C6  UNL     1      22.265  49.818 -17.323  1.00  0.00     0.150 A 
ATOM     12  H3  UNL     1      20.960  49.376 -15.802  1.00  0.00     0.186 HD
HETATM   13  N2  UNL     1      21.496  50.789 -17.844  1.00  0.00    -0.285 N 
HETATM   14  C14 UNL     1      23.521  49.479 -17.888  1.00  0.00     0.062 A 
HETATM   15  N1  UNL     1      21.941  51.424 -18.899  1.00  0.00    -0.310 N 
ATOM     16  H2  UNL     1      20.594  51.024 -17.430  1.00  0.00     0.188 HD
HETATM   17  C5  UNL     1      23.097  51.172 -19.488  1.00  0.00     0.115 A 
ATOM     18  H1  UNL     1      21.356  52.161 -19.294  1.00  0.00     0.186 HD
HETATM   19  C4  UNL     1      23.955  50.158 -18.989  1.00  0.00    -0.024 A 
BRANCH   8  20
HETATM   20  N4  UNL     1      22.226  47.569 -14.626  1.00  0.00    -0.022 N 
ATOM     21  H4  UNL     1      21.410  46.963 -14.717  1.00  0.00     0.203 HD
BRANCH  20  22
HETATM   22  C8  UNL     1      22.838  47.655 -13.353  1.00  0.00     0.696 A 
HETATM   23  N5  UNL     1      24.139  47.652 -13.010  1.00  0.00    -0.200 N 
HETATM   24  C9  UNL     1      24.274  47.756 -11.675  1.00  0.00     0.123 A 
ATOM     25  H5  UNL     1      24.914  47.580 -13.669  1.00  0.00     0.183 HD
HETATM   26  C10 UNL     1      22.997  47.827 -11.159  1.00  0.00     0.123 A 
HETATM   27  N6  UNL     1      22.149  47.763 -12.202  1.00  0.00    -0.200 N 
ATOM     28  H6  UNL     1      21.132  47.794 -12.130  1.00  0.00     0.183 HD
ENDBRANCH  20  22
ENDBRANCH   8  20
BRANCH  19  29
HETATM   29  C3  UNL     1      25.175  49.852 -19.720  1.00  0.00     0.041 C 
BRANCH  29  30
HETATM   30  C2  UNL     1      25.829  51.149 -20.135  1.00  0.00     0.000 C 
HETATM   31  C1  UNL     1      27.309  51.172 -19.680  1.00  0.00     0.005 C 
ENDBRANCH  29  30
ENDBRANCH  19  29
ENDBRANCH   4   6
ENDBRANCH   1   4
TORSDOF 6
ENDMDL
MODEL 4
REMARK VINA RESULT: -8.295535916      1.315      3.482
REMARK  6 active torsions:
REMARK  status: ('A' for Active; 'I' for Inactive)
REMARK    1  A    between atoms: C2_2  and  C3_3 
REMARK    2  A    between atoms: C3_3  and  C4_4 
REMARK    3  A    between atoms: C7_13  and  N4_14 
REMARK    4  A    between atoms: N4_14  and  C8_16 
REMARK    5  A    between atoms: C11_25  and  N8_26 
REMARK    6  A    between atoms: N8_26  and  C12_28 
ROOT
HETATM    1  C12 UNL     1      26.716  48.896 -15.826  1.00  0.00     0.245 C 
HETATM    2  C13 UNL     1      26.303  48.979 -14.425  1.00  0.00     0.078 C 
HETATM    3  N9  UNL     1      25.995  49.040 -13.308  1.00  0.00    -0.196 NA
ENDROOT
BRANCH   1   4
HETATM    4  N8  UNL     1      25.633  48.369 -16.596  1.00  0.00    -0.363 N 
ATOM      5  H8  UNL     1      25.880  47.671 -17.298  1.00  0.00     0.162 HD
BRANCH   4   6
HETATM    6  C11 UNL     1      24.410  48.662 -16.512  1.00  0.00     0.132 A 
HETATM    7  N7  UNL     1      23.733  48.205 -15.431  1.00  0.00    -0.175 N 
HETATM    8  C7  UNL     1      22.443  48.529 -15.271  1.00  0.00     0.700 A 
ATOM      9  H7  UNL     1      24.203  47.619 -14.742  1.00  0.00     0.186 HD
HETATM   10  N3  UNL     1      21.793  49.297 -16.152  1.00  0.00    -0.174 N 
HETATM   11  C6  UNL     1      22.416  49.781 -17.246  1.00  0.00     0.150 A 
ATOM     12  H3  UNL     1      20.811  49.521 -15.993  1.00  0.00     0.186 HD
HETATM   13  N2  UNL     1      21.751  50.573 -18.105  1.00  0.00    -0.285 N 
HETATM   14  C14 UNL     1      23.781  49.451 -17.440  1.00  0.00     0.062 A 
HETATM   15  N1  UNL     1      22.404  51.037 -19.141  1.00  0.00    -0.310 N 
ATOM     16  H2  UNL     1      20.769  50.804 -17.956  1.00  0.00     0.188 HD
HETATM   17  C5  UNL     1      23.675  50.778 -19.398  1.00  0.00     0.115 A 
ATOM     18  H1  UNL     1      21.899  51.637 -19.793  1.00  0.00     0.186 HD
HETATM   19  C4  UNL     1      24.433  49.949 -18.531  1.00  0.00    -0.024 A 
BRANCH   8  20
HETATM   20  N4  UNL     1      21.838  48.073 -14.231  1.00  0.00    -0.022 N 
ATOM     21  H4  UNL     1      21.037  47.461 -14.381  1.00  0.00     0.203 HD
BRANCH  20  22
HETATM   22  C8  UNL     1      22.203  48.360 -12.894  1.00  0.00     0.696 A 
HETATM   23  N5  UNL     1      23.043  49.287 -12.400  1.00  0.00    -0.200 N 
HETATM   24  C9  UNL     1      23.093  49.209 -11.058  1.00  0.00     0.123 A 
ATOM     25  H5  UNL     1      23.569  49.955 -12.964  1.00  0.00     0.183 HD
HETATM   26  C10 UNL     1      22.244  48.185 -10.695  1.00  0.00     0.123 A 
HETATM   27  N6  UNL     1      21.719  47.691 -11.831  1.00  0.00    -0.200 N 
ATOM     28  H6  UNL     1      21.051  46.921 -11.880  1.00  0.00     0.183 HD
ENDBRANCH  20  22
ENDBRANCH   8  20
BRANCH  19  29
HETATM   29  C3  UNL     1      25.799  49.615 -18.899  1.00  0.00     0.041 C 
BRANCH  29  30
HETATM   30  C2  UNL     1      26.178  50.412 -20.125  1.00  0.00     0.000 C 
HETATM   31  C1  UNL     1      27.408  51.305 -19.825  1.00  0.00     0.005 C 
ENDBRANCH  29  30
ENDBRANCH  19  29
ENDBRANCH   4   6
ENDBRANCH   1   4
TORSDOF 6
ENDMDL
MODEL 5
REMARK VINA RESULT: -8.222262195      1.397      3.845
REMARK  6 active torsions:
REMARK  status: ('A' for Active; 'I' for Inactive)
REMARK    1  A    between atoms: C2_2  and  C3_3 
REMARK    2  A    between atoms: C3_3  and  C4_4 
REMARK    3  A    between atoms: C7_13  and  N4_14 
REMARK    4  A    between atoms: N4_14  and  C8_16 
REMARK    5  A    between atoms: C11_25  and  N8_26 
REMARK    6  A    between atoms: N8_26  and  C12_28 
ROOT
HETATM    1  C12 UNL     1      25.948  48.307 -17.300  1.00  0.00     0.245 C 
HETATM    2  C13 UNL     1      26.681  48.865 -18.436  1.00  0.00     0.078 C 
HETATM    3  N9  UNL     1      27.276  49.316 -19.325  1.00  0.00    -0.196 NA
ENDROOT
BRANCH   1   4
HETATM    4  N8  UNL     1      24.547  48.374 -17.575  1.00  0.00    -0.363 N 
ATOM      5  H8  UNL     1      24.270  48.184 -18.538  1.00  0.00     0.162 HD
BRANCH   4   6
HETATM    6  C11 UNL     1      23.613  48.639 -16.771  1.00  0.00     0.132 A 
HETATM    7  N7  UNL     1      23.642  48.029 -15.561  1.00  0.00    -0.175 N 
HETATM    8  C7  UNL     1      22.697  48.313 -14.654  1.00  0.00     0.700 A 
ATOM      9  H7  UNL     1      24.377  47.358 -15.342  1.00  0.00     0.186 HD
HETATM   10  N3  UNL     1      21.719  49.189 -14.904  1.00  0.00    -0.174 N 
HETATM   11  C6  UNL     1      21.641  49.827 -16.089  1.00  0.00     0.150 A 
ATOM     12  H3  UNL     1      21.020  49.378 -14.185  1.00  0.00     0.186 HD
HETATM   13  N2  UNL     1      20.663  50.722 -16.311  1.00  0.00    -0.285 N 
HETATM   14  C14 UNL     1      22.625  49.542 -17.069  1.00  0.00     0.062 A 
HETATM   15  N1  UNL     1      20.642  51.333 -17.469  1.00  0.00    -0.310 N 
ATOM     16  H2  UNL     1      19.959  50.920 -15.599  1.00  0.00     0.188 HD
HETATM   17  C5  UNL     1      21.519  51.126 -18.436  1.00  0.00     0.115 A 
ATOM     18  H1  UNL     1      19.899  52.012 -17.636  1.00  0.00     0.186 HD
HETATM   19  C4  UNL     1      22.574  50.193 -18.267  1.00  0.00    -0.024 A 
BRANCH   8  20
HETATM   20  N4  UNL     1      22.761  47.712 -13.518  1.00  0.00    -0.022 N 
ATOM     21  H4  UNL     1      22.155  46.904 -13.377  1.00  0.00     0.203 HD
BRANCH  20  22
HETATM   22  C8  UNL     1      23.611  48.088 -12.451  1.00  0.00     0.696 A 
HETATM   23  N5  UNL     1      24.770  47.550 -12.030  1.00  0.00    -0.200 N 
HETATM   24  C9  UNL     1      25.247  48.231 -10.972  1.00  0.00     0.123 A 
ATOM     25  H5  UNL     1      25.223  46.740 -12.452  1.00  0.00     0.183 HD
HETATM   26  C10 UNL     1      24.344  49.241 -10.720  1.00  0.00     0.123 A 
HETATM   27  N6  UNL     1      23.364  49.128 -11.635  1.00  0.00    -0.200 N 
ATOM     28  H6  UNL     1      22.551  49.742 -11.700  1.00  0.00     0.183 HD
ENDBRANCH  20  22
ENDBRANCH   8  20
BRANCH  19  29
HETATM   29  C3  UNL     1      23.461  49.929 -19.388  1.00  0.00     0.041 C 
BRANCH  29  30
HETATM   30  C2  UNL     1      24.259  51.179 -19.679  1.00  0.00     0.000 C 
HETATM   31  C1  UNL     1      24.999  51.039 -21.032  1.00  0.00     0.005 C 
ENDBRANCH  29  30
ENDBRANCH  19  29
ENDBRANCH   4   6
ENDBRANCH   1   4
TORSDOF 6
ENDMDL
