MODEL 1
REMARK VINA RESULT: -8.827269050      0.000      0.000
REMARK  5 active torsions:
REMARK  status: ('A' for Active; 'I' for Inactive)
REMARK    1  A    between atoms: C2_2  and  C3_3 
REMARK       I    between atoms: C3_3  and  N1_5 
REMARK    2  A    between atoms: N1_5  and  C4_7 
REMARK    3  A    between atoms: N2_11  and  C8_12 
REMARK    4  A    between atoms: C9_13  and  C10_14 
REMARK       I    between atoms: C10_14  and  N3_16 
REMARK       I    between atoms: N3_16  and  C11_17 
REMARK       I    between atoms: C11_17  and  N5_19 
REMARK    5  A    between atoms: N5_19  and  N6_21 
ROOT
HETATM    1  C4  UNL     1      24.220  50.655 -18.951  1.00  0.00     0.102 C 
HETATM    2  C5  UNL     1      24.973  51.102 -20.184  1.00  0.00     0.028 C 
HETATM    3  C6  UNL     1      26.394  50.719 -20.227  1.00  0.00     0.022 C 
HETATM    4  C7  UNL     1      26.672  49.281 -19.727  1.00  0.00     0.122 C 
HETATM    5  N2  UNL     1      25.958  49.195 -18.516  1.00  0.00    -0.388 N 
HETATM    6  C12 UNL     1      24.435  49.172 -18.783  1.00  0.00     0.147 C 
ENDROOT
BRANCH   5   7
HETATM    7  C8  UNL     1      26.323  49.164 -17.257  1.00  0.00     0.092 C 
HETATM    8  C9  UNL     1      26.252  48.776 -16.056  1.00  0.00     0.107 C 
BRANCH   8   9
HETATM    9  C10 UNL     1      25.096  47.658 -15.689  1.00  0.00     0.319 C 
HETATM   10  O2  UNL     1      25.140  46.960 -16.607  1.00  0.00    -0.252 OA
HETATM   11  N3  UNL     1      24.574  48.009 -14.501  1.00  0.00    -0.332 NA
HETATM   12  C11 UNL     1      24.051  48.362 -13.309  1.00  0.00     0.290 C 
HETATM   13  N4  UNL     1      24.758  49.458 -12.776  1.00  0.00    -0.047 NA
HETATM   14  N5  UNL     1      23.098  47.974 -12.402  1.00  0.00    -0.201 N 
ATOM     15  H5  UNL     1      23.436  47.785 -11.458  1.00  0.00     0.197 HD
BRANCH  14  16
HETATM   16  N6  UNL     1      21.739  47.804 -12.598  1.00  0.00    -0.036 N 
HETATM   17  O3  UNL     1      21.328  47.270 -13.642  1.00  0.00    -0.516 OA
HETATM   18  O4  UNL     1      20.827  48.189 -11.640  1.00  0.00    -0.516 OA
ENDBRANCH  14  16
ENDBRANCH   8   9
ENDBRANCH   5   7
BRANCH   1  19
HETATM   19  N1  UNL     1      22.870  51.056 -19.017  1.00  0.00    -0.355 N 
HETATM   20  C3  UNL     1      21.790  50.789 -18.187  1.00  0.00     0.217 C 
HETATM   21  O1  UNL     1      21.763  50.049 -17.136  1.00  0.00    -0.274 OA
ATOM     22  H1  UNL     1      22.647  51.648 -19.817  1.00  0.00     0.162 HD
BRANCH  20  23
HETATM   23  C2  UNL     1      20.502  51.452 -18.580  1.00  0.00     0.098 C 
HETATM   24  C1  UNL     1      19.951  52.307 -17.471  1.00  0.00     0.014 C 
ENDBRANCH  20  23
ENDBRANCH   1  19
TORSDOF 5
ENDMDL
MODEL 2
REMARK VINA RESULT: -8.699838205      2.145      5.532
REMARK  5 active torsions:
REMARK  status: ('A' for Active; 'I' for Inactive)
REMARK    1  A    between atoms: C2_2  and  C3_3 
REMARK       I    between atoms: C3_3  and  N1_5 
REMARK    2  A    between atoms: N1_5  and  C4_7 
REMARK    3  A    between atoms: N2_11  and  C8_12 
REMARK    4  A    between atoms: C9_13  and  C10_14 
REMARK       I    between atoms: C10_14  and  N3_16 
REMARK       I    between atoms: N3_16  and  C11_17 
REMARK       I    between atoms: C11_17  and  N5_19 
REMARK    5  A    between atoms: N5_19  and  N6_21 
ROOT
HETATM    1  C4  UNL     1      25.295  48.248 -16.164  1.00  0.00     0.102 C 
HETATM    2  C5  UNL     1      26.321  48.909 -15.271  1.00  0.00     0.028 C 
HETATM    3  C6  UNL     1      26.016  48.877 -13.831  1.00  0.00     0.022 C 
HETATM    4  C7  UNL     1      25.436  47.529 -13.342  1.00  0.00     0.122 C 
HETATM    5  N2  UNL     1      24.430  47.227 -14.279  1.00  0.00    -0.388 N 
HETATM    6  C12 UNL     1      25.052  46.853 -15.645  1.00  0.00     0.147 C 
ENDROOT
BRANCH   5   7
HETATM    7  C8  UNL     1      23.120  47.235 -14.227  1.00  0.00     0.092 C 
HETATM    8  C9  UNL     1      21.977  47.773 -14.285  1.00  0.00     0.107 C 
BRANCH   8   9
HETATM    9  C10 UNL     1      21.916  49.387 -14.617  1.00  0.00     0.319 C 
HETATM   10  O2  UNL     1      21.770  49.841 -13.566  1.00  0.00    -0.252 OA
HETATM   11  N3  UNL     1      22.047  49.519 -15.948  1.00  0.00    -0.332 NA
HETATM   12  C11 UNL     1      22.178  49.651 -17.284  1.00  0.00     0.290 C 
HETATM   13  N4  UNL     1      22.438  48.396 -17.870  1.00  0.00    -0.047 NA
HETATM   14  N5  UNL     1      22.209  50.606 -18.267  1.00  0.00    -0.201 N 
ATOM     15  H5  UNL     1      23.051  50.623 -18.843  1.00  0.00     0.197 HD
BRANCH  14  16
HETATM   16  N6  UNL     1      21.248  51.551 -18.582  1.00  0.00    -0.036 N 
HETATM   17  O3  UNL     1      20.645  51.480 -19.666  1.00  0.00    -0.516 OA
HETATM   18  O4  UNL     1      20.922  52.557 -17.700  1.00  0.00    -0.516 OA
ENDBRANCH  14  16
ENDBRANCH   8   9
ENDBRANCH   5   7
BRANCH   1  19
HETATM   19  N1  UNL     1      25.690  48.318 -17.516  1.00  0.00    -0.355 N 
HETATM   20  C3  UNL     1      25.681  49.368 -18.423  1.00  0.00     0.217 C 
HETATM   21  O1  UNL     1      25.255  50.568 -18.241  1.00  0.00    -0.274 OA
ATOM     22  H1  UNL     1      26.046  47.440 -17.895  1.00  0.00     0.162 HD
BRANCH  20  23
HETATM   23  C2  UNL     1      26.238  49.047 -19.779  1.00  0.00     0.098 C 
HETATM   24  C1  UNL     1      26.229  50.247 -20.686  1.00  0.00     0.014 C 
ENDBRANCH  20  23
ENDBRANCH   1  19
TORSDOF 5
ENDMDL
MODEL 3
REMARK VINA RESULT: -8.601613531      2.239      5.986
REMARK  5 active torsions:
REMARK  status: ('A' for Active; 'I' for Inactive)
REMARK    1  A    between atoms: C2_2  and  C3_3 
REMARK       I    between atoms: C3_3  and  N1_5 
REMARK    2  A    between atoms: N1_5  and  C4_7 
REMARK    3  A    between atoms: N2_11  and  C8_12 
REMARK    4  A    between atoms: C9_13  and  C10_14 
REMARK       I    between atoms: C10_14  and  N3_16 
REMARK       I    between atoms: N3_16  and  C11_17 
REMARK       I    between atoms: C11_17  and  N5_19 
REMARK    5  A    between atoms: N5_19  and  N6_21 
ROOT
HETATM    1  C4  UNL     1      25.377  48.767 -14.101  1.00  0.00     0.102 C 
HETATM    2  C5  UNL     1      26.112  49.550 -13.036  1.00  0.00     0.028 C 
HETATM    3  C6  UNL     1      25.549  49.449 -11.679  1.00  0.00     0.022 C 
HETATM    4  C7  UNL     1      25.086  48.023 -11.297  1.00  0.00     0.122 C 
HETATM    5  N2  UNL     1      24.327  47.600 -12.405  1.00  0.00    -0.388 N 
HETATM    6  C12 UNL     1      25.241  47.343 -13.625  1.00  0.00     0.147 C 
ENDROOT
BRANCH   5   7
HETATM    7  C8  UNL     1      23.043  47.422 -12.600  1.00  0.00     0.092 C 
HETATM    8  C9  UNL     1      21.877  47.780 -12.935  1.00  0.00     0.107 C 
BRANCH   8   9
HETATM    9  C10 UNL     1      21.684  49.331 -13.462  1.00  0.00     0.319 C 
HETATM   10  O2  UNL     1      21.436  49.887 -12.482  1.00  0.00    -0.252 OA
HETATM   11  N3  UNL     1      21.877  49.320 -14.793  1.00  0.00    -0.332 NA
HETATM   12  C11 UNL     1      22.071  49.308 -16.127  1.00  0.00     0.290 C 
HETATM   13  N4  UNL     1      22.481  48.025 -16.544  1.00  0.00    -0.047 NA
HETATM   14  N5  UNL     1      22.068  50.141 -17.216  1.00  0.00    -0.201 N 
ATOM     15  H5  UNL     1      22.936  50.174 -17.751  1.00  0.00     0.197 HD
BRANCH  14  16
HETATM   16  N6  UNL     1      21.043  50.942 -17.686  1.00  0.00    -0.036 N 
HETATM   17  O3  UNL     1      20.726  50.897 -18.887  1.00  0.00    -0.516 OA
HETATM   18  O4  UNL     1      20.339  51.770 -16.840  1.00  0.00    -0.516 OA
ENDBRANCH  14  16
ENDBRANCH   8   9
ENDBRANCH   5   7
BRANCH   1  19
HETATM   19  N1  UNL     1      26.004  48.918 -15.355  1.00  0.00    -0.355 N 
HETATM   20  C3  UNL     1      25.933  48.159 -16.515  1.00  0.00     0.217 C 
HETATM   21  O1  UNL     1      25.277  47.072 -16.711  1.00  0.00    -0.274 OA
ATOM     22  H1  UNL     1      26.619  49.729 -15.421  1.00  0.00     0.162 HD
BRANCH  20  23
HETATM   23  C2  UNL     1      26.729  48.686 -17.673  1.00  0.00     0.098 C 
HETATM   24  C1  UNL     1      26.127  49.942 -18.241  1.00  0.00     0.014 C 
ENDBRANCH  20  23
ENDBRANCH   1  19
TORSDOF 5
ENDMDL
MODEL 4
REMARK VINA RESULT: -8.087090349      2.267      2.864
REMARK  5 active torsions:
REMARK  status: ('A' for Active; 'I' for Inactive)
REMARK    1  A    between atoms: C2_2  and  C3_3 
REMARK       I    between atoms: C3_3  and  N1_5 
REMARK    2  A    between atoms: N1_5  and  C4_7 
REMARK    3  A    between atoms: N2_11  and  C8_12 
REMARK    4  A    between atoms: C9_13  and  C10_14 
REMARK       I    between atoms: C10_14  and  N3_16 
REMARK       I    between atoms: N3_16  and  C11_17 
REMARK       I    between atoms: C11_17  and  N5_19 
REMARK    5  A    between atoms: N5_19  and  N6_21 
ROOT
HETATM    1  C4  UNL     1      22.793  50.877 -18.665  1.00  0.00     0.102 C 
HETATM    2  C5  UNL     1      24.185  51.019 -19.239  1.00  0.00     0.028 C 
HETATM    3  C6  UNL     1      25.063  49.850 -19.060  1.00  0.00     0.022 C 
HETATM    4  C7  UNL     1      24.354  48.493 -19.286  1.00  0.00     0.122 C 
HETATM    5  N2  UNL     1      23.164  48.599 -18.539  1.00  0.00    -0.388 N 
HETATM    6  C12 UNL     1      22.193  49.603 -19.203  1.00  0.00     0.147 C 
ENDROOT
BRANCH   5   7
HETATM    7  C8  UNL     1      22.754  48.056 -17.419  1.00  0.00     0.092 C 
HETATM    8  C9  UNL     1      22.884  47.667 -16.223  1.00  0.00     0.107 C 
BRANCH   8   9
HETATM    9  C10 UNL     1      24.346  47.916 -15.500  1.00  0.00     0.319 C 
HETATM   10  O2  UNL     1      25.048  47.279 -16.159  1.00  0.00    -0.252 OA
HETATM   11  N3  UNL     1      24.133  48.732 -14.454  1.00  0.00    -0.332 NA
HETATM   12  C11 UNL     1      23.919  49.552 -13.405  1.00  0.00     0.290 C 
HETATM   13  N4  UNL     1      22.576  49.980 -13.393  1.00  0.00    -0.047 NA
HETATM   14  N5  UNL     1      24.582  50.166 -12.374  1.00  0.00    -0.201 N 
ATOM     15  H5  UNL     1      24.508  51.183 -12.344  1.00  0.00     0.197 HD
BRANCH  14  16
HETATM   16  N6  UNL     1      25.339  49.590 -11.370  1.00  0.00    -0.036 N 
HETATM   17  O3  UNL     1      25.169  49.941 -10.190  1.00  0.00    -0.516 OA
HETATM   18  O4  UNL     1      26.262  48.605 -11.648  1.00  0.00    -0.516 OA
ENDBRANCH  14  16
ENDBRANCH   8   9
ENDBRANCH   5   7
BRANCH   1  19
HETATM   19  N1  UNL     1      22.033  52.039 -18.905  1.00  0.00    -0.355 N 
HETATM   20  C3  UNL     1      21.063  52.676 -18.144  1.00  0.00     0.217 C 
HETATM   21  O1  UNL     1      20.585  52.315 -17.007  1.00  0.00    -0.274 OA
ATOM     22  H1  UNL     1      22.231  52.494 -19.796  1.00  0.00     0.162 HD
BRANCH  20  23
HETATM   23  C2  UNL     1      20.512  53.940 -18.737  1.00  0.00     0.098 C 
HETATM   24  C1  UNL     1      21.454  55.100 -18.557  1.00  0.00     0.014 C 
ENDBRANCH  20  23
ENDBRANCH   1  19
TORSDOF 5
ENDMDL
MODEL 5
REMARK VINA RESULT: -7.723442181      2.187      4.225
REMARK  5 active torsions:
REMARK  status: ('A' for Active; 'I' for Inactive)
REMARK    1  A    between atoms: C2_2  and  C3_3 
REMARK       I    between atoms: C3_3  and  N1_5 
REMARK    2  A    between atoms: N1_5  and  C4_7 
REMARK    3  A    between atoms: N2_11  and  C8_12 
REMARK    4  A    between atoms: C9_13  and  C10_14 
REMARK       I    between atoms: C10_14  and  N3_16 
REMARK       I    between atoms: N3_16  and  C11_17 
REMARK       I    between atoms: C11_17  and  N5_19 
REMARK    5  A    between atoms: N5_19  and  N6_21 
ROOT
HETATM    1  C4  UNL     1      23.956  50.033 -19.092  1.00  0.00     0.102 C 
HETATM    2  C5  UNL     1      22.742  50.849 -19.475  1.00  0.00     0.028 C 
HETATM    3  C6  UNL     1      21.479  50.434 -18.843  1.00  0.00     0.022 C 
HETATM    4  C7  UNL     1      21.619  50.057 -17.349  1.00  0.00     0.122 C 
HETATM    5  N2  UNL     1      22.736  49.200 -17.314  1.00  0.00    -0.388 N 
HETATM    6  C12 UNL     1      24.037  49.990 -17.587  1.00  0.00     0.147 C 
ENDROOT
BRANCH   5   7
HETATM    7  C8  UNL     1      22.874  47.909 -17.135  1.00  0.00     0.092 C 
HETATM    8  C9  UNL     1      22.955  46.853 -16.444  1.00  0.00     0.107 C 
BRANCH   8   9
HETATM    9  C10 UNL     1      22.824  47.008 -14.807  1.00  0.00     0.319 C 
HETATM   10  O2  UNL     1      21.836  46.450 -14.594  1.00  0.00    -0.252 OA
HETATM   11  N3  UNL     1      23.890  47.715 -14.393  1.00  0.00    -0.332 NA
HETATM   12  C11 UNL     1      24.959  48.423 -13.978  1.00  0.00     0.290 C 
HETATM   13  N4  UNL     1      25.835  48.653 -15.058  1.00  0.00    -0.047 NA
HETATM   14  N5  UNL     1      25.521  48.945 -12.841  1.00  0.00    -0.201 N 
ATOM     15  H5  UNL     1      26.470  48.635 -12.633  1.00  0.00     0.197 HD
BRANCH  14  16
HETATM   16  N6  UNL     1      24.971  49.838 -11.938  1.00  0.00    -0.036 N 
HETATM   17  O3  UNL     1      25.575  50.100 -10.884  1.00  0.00    -0.516 OA
HETATM   18  O4  UNL     1      23.776  50.471 -12.199  1.00  0.00    -0.516 OA
ENDBRANCH  14  16
ENDBRANCH   8   9
ENDBRANCH   5   7
BRANCH   1  19
HETATM   19  N1  UNL     1      25.111  50.522 -19.735  1.00  0.00    -0.355 N 
HETATM   20  C3  UNL     1      26.409  50.035 -19.790  1.00  0.00     0.217 C 
HETATM   21  O1  UNL     1      26.889  48.994 -19.207  1.00  0.00    -0.274 OA
ATOM     22  H1  UNL     1      24.967  51.388 -20.254  1.00  0.00     0.162 HD
BRANCH  20  23
HETATM   23  C2  UNL     1      27.358  50.834 -20.635  1.00  0.00     0.098 C 
HETATM   24  C1  UNL     1      28.129  51.834 -19.818  1.00  0.00     0.014 C 
ENDBRANCH  20  23
ENDBRANCH   1  19
TORSDOF 5
ENDMDL
