MODEL 1
REMARK VINA RESULT: -7.216687193      0.000      0.000
REMARK  9 active torsions:
REMARK  status: ('A' for Active; 'I' for Inactive)
REMARK    1  A    between atoms: C2_2  and  C3_3 
REMARK    2  A    between atoms: C3_3  and  O1_5 
REMARK    3  A    between atoms: C3_3  and  N1_7 
REMARK    4  A    between atoms: N1_7  and  C5_9 
REMARK    5  A    between atoms: C6_12  and  N3_13 
REMARK    6  A    between atoms: N3_13  and  C7_15 
REMARK    7  A    between atoms: C7_15  and  C8_16 
REMARK    8  A    between atoms: C8_16  and  O2_17 
REMARK    9  A    between atoms: C10_25  and  N6_26 
ROOT
HETATM    1  C5  UNL     1      23.766  48.999 -18.153  1.00  0.00     0.136 A 
HETATM    2  N2  UNL     1      22.539  49.361 -18.554  1.00  0.00    -0.176 N 
ATOM      3  H2  UNL     1      21.753  48.854 -18.147  1.00  0.00     0.186 HD
HETATM    4  C6  UNL     1      22.245  50.327 -19.440  1.00  0.00     0.680 A 
HETATM    5  N4  UNL     1      23.267  50.995 -19.977  1.00  0.00    -0.183 N 
ATOM      6  H4  UNL     1      23.099  51.739 -20.655  1.00  0.00     0.185 HD
HETATM    7  C9  UNL     1      24.538  50.672 -19.609  1.00  0.00     0.124 A 
HETATM    8  S1  UNL     1      26.066  51.288 -20.068  1.00  0.00     0.007 SA
HETATM    9  N5  UNL     1      27.049  50.304 -19.123  1.00  0.00    -0.310 N 
ATOM     10  H5  UNL     1      28.067  50.305 -19.060  1.00  0.00     0.176 HD
HETATM   11  C10 UNL     1      26.184  49.521 -18.474  1.00  0.00     0.124 A 
HETATM   12  C12 UNL     1      24.871  49.701 -18.715  1.00  0.00     0.088 A 
ENDROOT
BRANCH   1  13
HETATM   13  N1  UNL     1      23.981  48.084 -17.318  1.00  0.00    -0.344 N 
ATOM     14  H1  UNL     1      24.794  47.516 -17.555  1.00  0.00     0.164 HD
BRANCH  13  15
HETATM   15  C3  UNL     1      23.355  47.670 -16.133  1.00  0.00     0.128 C 
HETATM   16  C4  UNL     1      22.950  48.802 -15.220  1.00  0.00     0.070 C 
BRANCH  15  17
HETATM   17  C2  UNL     1      24.204  46.684 -15.323  1.00  0.00     0.056 C 
HETATM   18  C1  UNL     1      24.531  47.243 -13.965  1.00  0.00     0.010 C 
ENDBRANCH  15  17
BRANCH  15  19
HETATM   19  O1  UNL     1      22.156  46.956 -16.396  1.00  0.00    -0.371 OA
ATOM     20  H1  UNL     1      21.472  47.608 -16.294  1.00  0.00     0.212 HD
ENDBRANCH  15  19
ENDBRANCH  13  15
ENDBRANCH   1  13
BRANCH   4  21
HETATM   21  N3  UNL     1      21.050  50.618 -19.775  1.00  0.00    -0.224 N 
ATOM     22  H3  UNL     1      20.769  50.484 -20.746  1.00  0.00     0.177 HD
BRANCH  21  23
HETATM   23  C7  UNL     1      20.092  51.119 -18.854  1.00  0.00     0.164 C 
BRANCH  23  24
HETATM   24  C8  UNL     1      20.683  52.044 -17.812  1.00  0.00     0.184 C 
BRANCH  24  25
HETATM   25  O2  UNL     1      20.239  51.610 -16.552  1.00  0.00    -0.399 OA
ATOM     26  H2  UNL     1      19.443  52.085 -16.346  1.00  0.00     0.209 HD
ENDBRANCH  24  25
ENDBRANCH  23  24
ENDBRANCH  21  23
ENDBRANCH   4  21
BRANCH  11  27
HETATM   27  N6  UNL     1      26.661  48.621 -17.633  1.00  0.00    -0.379 N 
HETATM   28  C11 UNL     1      26.979  48.902 -16.276  1.00  0.00     0.147 C 
ATOM     29  H6  UNL     1      26.809  47.672 -17.976  1.00  0.00     0.160 HD
ENDBRANCH  11  27
TORSDOF 9
ENDMDL
MODEL 2
REMARK VINA RESULT: -7.199655464      1.723      2.036
REMARK  9 active torsions:
REMARK  status: ('A' for Active; 'I' for Inactive)
REMARK    1  A    between atoms: C2_2  and  C3_3 
REMARK    2  A    between atoms: C3_3  and  O1_5 
REMARK    3  A    between atoms: C3_3  and  N1_7 
REMARK    4  A    between atoms: N1_7  and  C5_9 
REMARK    5  A    between atoms: C6_12  and  N3_13 
REMARK    6  A    between atoms: N3_13  and  C7_15 
REMARK    7  A    between atoms: C7_15  and  C8_16 
REMARK    8  A    between atoms: C8_16  and  O2_17 
REMARK    9  A    between atoms: C10_25  and  N6_26 
ROOT
HETATM    1  C5  UNL     1      23.251  48.936 -16.652  1.00  0.00     0.136 A 
HETATM    2  N2  UNL     1      22.281  49.328 -17.490  1.00  0.00    -0.176 N 
ATOM      3  H2  UNL     1      21.320  49.174 -17.187  1.00  0.00     0.186 HD
HETATM    4  C6  UNL     1      22.455  49.903 -18.692  1.00  0.00     0.680 A 
HETATM    5  N4  UNL     1      23.709  50.109 -19.096  1.00  0.00    -0.183 N 
ATOM      6  H4  UNL     1      23.896  50.543 -20.001  1.00  0.00     0.185 HD
HETATM    7  C9  UNL     1      24.737  49.732 -18.287  1.00  0.00     0.124 A 
HETATM    8  S1  UNL     1      26.436  49.829 -18.455  1.00  0.00     0.007 SA
HETATM    9  N5  UNL     1      26.893  49.135 -16.993  1.00  0.00    -0.310 N 
ATOM     10  H5  UNL     1      27.837  48.976 -16.639  1.00  0.00     0.176 HD
HETATM   11  C10 UNL     1      25.731  48.842 -16.404  1.00  0.00     0.124 A 
HETATM   12  C12 UNL     1      24.598  49.147 -17.065  1.00  0.00     0.088 A 
ENDROOT
BRANCH   1  13
HETATM   13  N1  UNL     1      23.029  48.402 -15.536  1.00  0.00    -0.344 N 
ATOM     14  H1  UNL     1      23.452  47.478 -15.449  1.00  0.00     0.164 HD
BRANCH  13  15
HETATM   15  C3  UNL     1      22.330  48.789 -14.383  1.00  0.00     0.128 C 
HETATM   16  C4  UNL     1      23.175  49.513 -13.363  1.00  0.00     0.070 C 
BRANCH  15  17
HETATM   17  C2  UNL     1      21.636  47.616 -13.683  1.00  0.00     0.056 C 
HETATM   18  C1  UNL     1      21.668  47.785 -12.188  1.00  0.00     0.010 C 
ENDBRANCH  15  17
BRANCH  15  19
HETATM   19  O1  UNL     1      21.269  49.683 -14.690  1.00  0.00    -0.371 OA
ATOM     20  H1  UNL     1      21.646  50.544 -14.553  1.00  0.00     0.212 HD
ENDBRANCH  15  19
ENDBRANCH  13  15
ENDBRANCH   1  13
BRANCH   4  21
HETATM   21  N3  UNL     1      21.481  50.250 -19.439  1.00  0.00    -0.224 N 
ATOM     22  H3  UNL     1      21.481  49.946 -20.412  1.00  0.00     0.177 HD
BRANCH  21  23
HETATM   23  C7  UNL     1      20.398  51.042 -18.974  1.00  0.00     0.164 C 
BRANCH  23  24
HETATM   24  C8  UNL     1      20.796  52.050 -17.919  1.00  0.00     0.184 C 
BRANCH  24  25
HETATM   25  O2  UNL     1      20.247  51.632 -16.696  1.00  0.00    -0.399 OA
ATOM     26  H2  UNL     1      19.524  52.213 -16.488  1.00  0.00     0.209 HD
ENDBRANCH  24  25
ENDBRANCH  23  24
ENDBRANCH  21  23
ENDBRANCH   4  21
BRANCH  11  27
HETATM   27  N6  UNL     1      25.758  48.275 -15.212  1.00  0.00    -0.379 N 
HETATM   28  C11 UNL     1      26.297  48.901 -14.054  1.00  0.00     0.147 C 
ATOM     29  H6  UNL     1      25.371  47.336 -15.116  1.00  0.00     0.160 HD
ENDBRANCH  11  27
TORSDOF 9
ENDMDL
MODEL 3
REMARK VINA RESULT: -6.934418410      2.025      4.897
REMARK  9 active torsions:
REMARK  status: ('A' for Active; 'I' for Inactive)
REMARK    1  A    between atoms: C2_2  and  C3_3 
REMARK    2  A    between atoms: C3_3  and  O1_5 
REMARK    3  A    between atoms: C3_3  and  N1_7 
REMARK    4  A    between atoms: N1_7  and  C5_9 
REMARK    5  A    between atoms: C6_12  and  N3_13 
REMARK    6  A    between atoms: N3_13  and  C7_15 
REMARK    7  A    between atoms: C7_15  and  C8_16 
REMARK    8  A    between atoms: C8_16  and  O2_17 
REMARK    9  A    between atoms: C10_25  and  N6_26 
ROOT
HETATM    1  C5  UNL     1      22.863  49.848 -17.514  1.00  0.00     0.136 A 
HETATM    2  N2  UNL     1      22.225  49.238 -16.505  1.00  0.00    -0.176 N 
ATOM      3  H2  UNL     1      21.227  49.424 -16.411  1.00  0.00     0.186 HD
HETATM    4  C6  UNL     1      22.776  48.404 -15.606  1.00  0.00     0.680 A 
HETATM    5  N4  UNL     1      24.080  48.155 -15.722  1.00  0.00    -0.183 N 
ATOM      6  H4  UNL     1      24.547  47.529 -15.065  1.00  0.00     0.185 HD
HETATM    7  C9  UNL     1      24.782  48.747 -16.728  1.00  0.00     0.124 A 
HETATM    8  S1  UNL     1      26.428  48.674 -17.187  1.00  0.00     0.007 SA
HETATM    9  N5  UNL     1      26.384  49.705 -18.515  1.00  0.00    -0.310 N 
ATOM     10  H5  UNL     1      27.154  49.976 -19.127  1.00  0.00     0.176 HD
HETATM   11  C10 UNL     1      25.106  50.085 -18.579  1.00  0.00     0.124 A 
HETATM   12  C12 UNL     1      24.258  49.595 -17.655  1.00  0.00     0.088 A 
ENDROOT
BRANCH   1  13
HETATM   13  N1  UNL     1      22.295  50.620 -18.328  1.00  0.00    -0.344 N 
ATOM     14  H1  UNL     1      22.781  50.677 -19.223  1.00  0.00     0.164 HD
BRANCH  13  15
HETATM   15  C3  UNL     1      21.144  51.421 -18.281  1.00  0.00     0.128 C 
HETATM   16  C4  UNL     1      20.063  51.005 -19.250  1.00  0.00     0.070 C 
BRANCH  15  17
HETATM   17  C2  UNL     1      21.442  52.907 -18.507  1.00  0.00     0.056 C 
HETATM   18  C1  UNL     1      20.687  53.763 -17.525  1.00  0.00     0.010 C 
ENDBRANCH  15  17
BRANCH  15  19
HETATM   19  O1  UNL     1      20.532  51.383 -17.000  1.00  0.00    -0.371 OA
ATOM     20  H1  UNL     1      20.602  50.473 -16.738  1.00  0.00     0.212 HD
ENDBRANCH  15  19
ENDBRANCH  13  15
ENDBRANCH   1  13
BRANCH   4  21
HETATM   21  N3  UNL     1      22.104  47.858 -14.669  1.00  0.00    -0.224 N 
ATOM     22  H3  UNL     1      21.112  47.681 -14.821  1.00  0.00     0.177 HD
BRANCH  21  23
HETATM   23  C7  UNL     1      22.678  47.488 -13.425  1.00  0.00     0.164 C 
BRANCH  23  24
HETATM   24  C8  UNL     1      21.859  47.921 -12.229  1.00  0.00     0.184 C 
BRANCH  24  25
HETATM   25  O2  UNL     1      20.551  47.444 -12.409  1.00  0.00    -0.399 OA
ATOM     26  H2  UNL     1      20.300  46.981 -11.618  1.00  0.00     0.209 HD
ENDBRANCH  24  25
ENDBRANCH  23  24
ENDBRANCH  21  23
ENDBRANCH   4  21
BRANCH  11  27
HETATM   27  N6  UNL     1      24.747  50.916 -19.541  1.00  0.00    -0.379 N 
HETATM   28  C11 UNL     1      25.460  51.060 -20.763  1.00  0.00     0.147 C 
ATOM     29  H6  UNL     1      23.912  51.485 -19.399  1.00  0.00     0.160 HD
ENDBRANCH  11  27
TORSDOF 9
ENDMDL
MODEL 4
REMARK VINA RESULT: -6.643204007      1.841      2.164
REMARK  9 active torsions:
REMARK  status: ('A' for Active; 'I' for Inactive)
REMARK    1  A    between atoms: C2_2  and  C3_3 
REMARK    2  A    between atoms: C3_3  and  O1_5 
REMARK    3  A    between atoms: C3_3  and  N1_7 
REMARK    4  A    between atoms: N1_7  and  C5_9 
REMARK    5  A    between atoms: C6_12  and  N3_13 
REMARK    6  A    between atoms: N3_13  and  C7_15 
REMARK    7  A    between atoms: C7_15  and  C8_16 
REMARK    8  A    between atoms: C8_16  and  O2_17 
REMARK    9  A    between atoms: C10_25  and  N6_26 
ROOT
HETATM    1  C5  UNL     1      23.179  48.977 -16.348  1.00  0.00     0.136 A 
HETATM    2  N2  UNL     1      22.206  49.274 -17.221  1.00  0.00    -0.176 N 
ATOM      3  H2  UNL     1      21.246  49.162 -16.896  1.00  0.00     0.186 HD
HETATM    4  C6  UNL     1      22.375  49.704 -18.483  1.00  0.00     0.680 A 
HETATM    5  N4  UNL     1      23.627  49.854 -18.916  1.00  0.00    -0.183 N 
ATOM      6  H4  UNL     1      23.810  50.178 -19.866  1.00  0.00     0.185 HD
HETATM    7  C9  UNL     1      24.659  49.568 -18.074  1.00  0.00     0.124 A 
HETATM    8  S1  UNL     1      26.357  49.634 -18.262  1.00  0.00     0.007 SA
HETATM    9  N5  UNL     1      26.820  49.113 -16.732  1.00  0.00    -0.310 N 
ATOM     10  H5  UNL     1      27.765  48.991 -16.368  1.00  0.00     0.176 HD
HETATM   11  C10 UNL     1      25.660  48.898 -16.106  1.00  0.00     0.124 A 
HETATM   12  C12 UNL     1      24.524  49.130 -16.791  1.00  0.00     0.088 A 
ENDROOT
BRANCH   1  13
HETATM   13  N1  UNL     1      22.962  48.577 -15.176  1.00  0.00    -0.344 N 
ATOM     14  H1  UNL     1      23.064  49.317 -14.481  1.00  0.00     0.164 HD
BRANCH  13  15
HETATM   15  C3  UNL     1      22.609  47.344 -14.609  1.00  0.00     0.128 C 
HETATM   16  C4  UNL     1      22.170  46.306 -15.614  1.00  0.00     0.070 C 
BRANCH  15  17
HETATM   17  C2  UNL     1      21.517  47.468 -13.542  1.00  0.00     0.056 C 
HETATM   18  C1  UNL     1      22.104  47.855 -12.211  1.00  0.00     0.010 C 
ENDBRANCH  15  17
BRANCH  15  19
HETATM   19  O1  UNL     1      23.701  46.754 -13.918  1.00  0.00    -0.371 OA
ATOM     20  H1  UNL     1      23.951  46.019 -14.465  1.00  0.00     0.212 HD
ENDBRANCH  15  19
ENDBRANCH  13  15
ENDBRANCH   1  13
BRANCH   4  21
HETATM   21  N3  UNL     1      21.398  49.968 -19.259  1.00  0.00    -0.224 N 
ATOM     22  H3  UNL     1      21.256  49.381 -20.081  1.00  0.00     0.177 HD
BRANCH  21  23
HETATM   23  C7  UNL     1      20.500  51.043 -19.030  1.00  0.00     0.164 C 
BRANCH  23  24
HETATM   24  C8  UNL     1      20.942  51.974 -17.922  1.00  0.00     0.184 C 
BRANCH  24  25
HETATM   25  O2  UNL     1      20.195  51.662 -16.774  1.00  0.00    -0.399 OA
ATOM     26  H2  UNL     1      20.250  50.724 -16.638  1.00  0.00     0.209 HD
ENDBRANCH  24  25
ENDBRANCH  23  24
ENDBRANCH  21  23
ENDBRANCH   4  21
BRANCH  11  27
HETATM   27  N6  UNL     1      25.692  48.473 -14.856  1.00  0.00    -0.379 N 
HETATM   28  C11 UNL     1      26.157  49.263 -13.768  1.00  0.00     0.147 C 
ATOM     29  H6  UNL     1      25.365  47.527 -14.660  1.00  0.00     0.160 HD
ENDBRANCH  11  27
TORSDOF 9
ENDMDL
MODEL 5
REMARK VINA RESULT: -6.619639203      2.292      4.767
REMARK  9 active torsions:
REMARK  status: ('A' for Active; 'I' for Inactive)
REMARK    1  A    between atoms: C2_2  and  C3_3 
REMARK    2  A    between atoms: C3_3  and  O1_5 
REMARK    3  A    between atoms: C3_3  and  N1_7 
REMARK    4  A    between atoms: N1_7  and  C5_9 
REMARK    5  A    between atoms: C6_12  and  N3_13 
REMARK    6  A    between atoms: N3_13  and  C7_15 
REMARK    7  A    between atoms: C7_15  and  C8_16 
REMARK    8  A    between atoms: C8_16  and  O2_17 
REMARK    9  A    between atoms: C10_25  and  N6_26 
ROOT
HETATM    1  C5  UNL     1      22.947  49.365 -17.766  1.00  0.00     0.136 A 
HETATM    2  N2  UNL     1      22.261  49.082 -16.650  1.00  0.00    -0.176 N 
ATOM      3  H2  UNL     1      21.245  49.157 -16.701  1.00  0.00     0.186 HD
HETATM    4  C6  UNL     1      22.783  48.709 -15.469  1.00  0.00     0.680 A 
HETATM    5  N4  UNL     1      24.110  48.608 -15.392  1.00  0.00    -0.183 N 
ATOM      6  H4  UNL     1      24.558  48.329 -14.519  1.00  0.00     0.185 HD
HETATM    7  C9  UNL     1      24.861  48.883 -16.495  1.00  0.00     0.124 A 
HETATM    8  S1  UNL     1      26.548  48.865 -16.778  1.00  0.00     0.007 SA
HETATM    9  N5  UNL     1      26.556  49.332 -18.394  1.00  0.00    -0.310 N 
ATOM     10  H5  UNL     1      27.360  49.462 -19.008  1.00  0.00     0.176 HD
HETATM   11  C10 UNL     1      25.262  49.493 -18.683  1.00  0.00     0.124 A 
HETATM   12  C12 UNL     1      24.366  49.262 -17.705  1.00  0.00     0.088 A 
ENDROOT
BRANCH   1  13
HETATM   13  N1  UNL     1      22.402  49.709 -18.846  1.00  0.00    -0.344 N 
ATOM     14  H1  UNL     1      22.472  48.993 -19.569  1.00  0.00     0.164 HD
BRANCH  13  15
HETATM   15  C3  UNL     1      21.722  50.857 -19.280  1.00  0.00     0.128 C 
HETATM   16  C4  UNL     1      22.463  52.147 -19.024  1.00  0.00     0.070 C 
BRANCH  15  17
HETATM   17  C2  UNL     1      20.319  50.983 -18.676  1.00  0.00     0.056 C 
HETATM   18  C1  UNL     1      20.304  51.985 -17.553  1.00  0.00     0.010 C 
ENDBRANCH  15  17
BRANCH  15  19
HETATM   19  O1  UNL     1      21.492  50.830 -20.681  1.00  0.00    -0.371 OA
ATOM     20  H1  UNL     1      21.271  49.924 -20.861  1.00  0.00     0.212 HD
ENDBRANCH  15  19
ENDBRANCH  13  15
ENDBRANCH   1  13
BRANCH   4  21
HETATM   21  N3  UNL     1      22.066  48.456 -14.445  1.00  0.00    -0.224 N 
ATOM     22  H3  UNL     1      21.126  48.849 -14.399  1.00  0.00     0.177 HD
BRANCH  21  23
HETATM   23  C7  UNL     1      22.519  47.650 -13.367  1.00  0.00     0.164 C 
BRANCH  23  24
HETATM   24  C8  UNL     1      21.791  47.916 -12.068  1.00  0.00     0.184 C 
BRANCH  24  25
HETATM   25  O2  UNL     1      20.480  47.433 -12.203  1.00  0.00    -0.399 OA
ATOM     26  H2  UNL     1      20.208  47.578 -13.101  1.00  0.00     0.209 HD
ENDBRANCH  24  25
ENDBRANCH  23  24
ENDBRANCH  21  23
ENDBRANCH   4  21
BRANCH  11  27
HETATM   27  N6  UNL     1      24.936  49.865 -19.908  1.00  0.00    -0.379 N 
HETATM   28  C11 UNL     1      25.520  50.977 -20.575  1.00  0.00     0.147 C 
ATOM     29  H6  UNL     1      24.226  49.326 -20.402  1.00  0.00     0.160 HD
ENDBRANCH  11  27
TORSDOF 9
ENDMDL
