MODEL 1
REMARK VINA RESULT: -8.465851442      0.000      0.000
REMARK  6 active torsions:
REMARK  status: ('A' for Active; 'I' for Inactive)
REMARK    1  A    between atoms: C3_5  and  C4_6 
REMARK    2  A    between atoms: C6_12  and  N4_13 
REMARK    3  A    between atoms: N4_13  and  C7_15 
REMARK    4  A    between atoms: C7_15  and  C8_16 
REMARK    5  A    between atoms: C8_16  and  N5_17 
REMARK    6  A    between atoms: C13_25  and  N7_26 
ROOT
HETATM    1  C4  UNL     1      23.636  48.212 -16.461  1.00  0.00     0.070 A 
HETATM    2  C5  UNL     1      24.730  47.346 -16.652  1.00  0.00     0.126 A 
HETATM    3  N2  UNL     1      24.803  46.480 -15.629  1.00  0.00    -0.309 N 
ATOM      4  H2  UNL     1      25.497  45.742 -15.512  1.00  0.00     0.186 HD
HETATM    5  N3  UNL     1      23.823  46.752 -14.811  1.00  0.00    -0.285 N 
ATOM      6  H3  UNL     1      23.632  46.252 -13.943  1.00  0.00     0.188 HD
HETATM    7  C6  UNL     1      23.087  47.807 -15.287  1.00  0.00     0.131 A 
ENDROOT
BRANCH   1   8
HETATM    8  C3  UNL     1      23.311  49.253 -17.418  1.00  0.00     0.137 A 
HETATM    9  N1  UNL     1      24.229  49.760 -18.252  1.00  0.00    -0.331 N 
HETATM   10  C2  UNL     1      23.979  50.722 -19.162  1.00  0.00     0.095 A 
ATOM     11  H1  UNL     1      25.179  49.394 -18.194  1.00  0.00     0.168 HD
HETATM   12  C1  UNL     1      25.043  51.232 -20.059  1.00  0.00     0.089 C 
HETATM   13  N8  UNL     1      22.713  51.186 -19.213  1.00  0.00    -0.181 N 
HETATM   14  C13 UNL     1      21.752  50.720 -18.406  1.00  0.00     0.678 A 
ATOM     15  H8  UNL     1      22.480  51.915 -19.888  1.00  0.00     0.185 HD
HETATM   16  N6  UNL     1      22.076  49.747 -17.510  1.00  0.00    -0.176 N 
ATOM     17  H6  UNL     1      21.351  49.385 -16.890  1.00  0.00     0.186 HD
BRANCH  14  18
HETATM   18  N7  UNL     1      20.550  51.183 -18.477  1.00  0.00    -0.234 N 
ATOM     19  H72 UNL     1      19.891  51.041 -17.712  1.00  0.00     0.174 HD
ATOM     20  H71 UNL     1      20.234  51.700 -19.298  1.00  0.00     0.174 HD
ENDBRANCH  14  18
ENDBRANCH   1   8
BRANCH   7  21
HETATM   21  N4  UNL     1      22.062  48.326 -14.734  1.00  0.00    -0.373 N 
ATOM     22  H4  UNL     1      21.147  47.928 -14.942  1.00  0.00     0.161 HD
BRANCH  21  23
HETATM   23  C7  UNL     1      22.133  49.451 -13.825  1.00  0.00     0.151 C 
BRANCH  23  24
HETATM   24  C8  UNL     1      22.249  49.032 -12.402  1.00  0.00     0.292 C 
BRANCH  24  25
HETATM   25  N5  UNL     1      23.407  49.499 -11.698  1.00  0.00     0.094 N 
HETATM   26  C9  UNL     1      23.929  48.559 -10.776  1.00  0.00     0.298 C 
HETATM   27  C10 UNL     1      24.640  47.462 -11.537  1.00  0.00     0.198 C 
HETATM   28  O1  UNL     1      25.677  47.932 -12.289  1.00  0.00    -0.388 OA
HETATM   29  C11 UNL     1      25.674  49.249 -12.626  1.00  0.00     0.198 C 
HETATM   30  C12 UNL     1      24.359  49.934 -12.696  1.00  0.00     0.298 C 
ENDBRANCH  24  25
ENDBRANCH  23  24
ENDBRANCH  21  23
ENDBRANCH   7  21
TORSDOF 6
ENDMDL
MODEL 2
REMARK VINA RESULT: -8.355830264      0.850      1.244
REMARK  6 active torsions:
REMARK  status: ('A' for Active; 'I' for Inactive)
REMARK    1  A    between atoms: C3_5  and  C4_6 
REMARK    2  A    between atoms: C6_12  and  N4_13 
REMARK    3  A    between atoms: N4_13  and  C7_15 
REMARK    4  A    between atoms: C7_15  and  C8_16 
REMARK    5  A    between atoms: C8_16  and  N5_17 
REMARK    6  A    between atoms: C13_25  and  N7_26 
ROOT
HETATM    1  C4  UNL     1      23.686  48.095 -16.651  1.00  0.00     0.070 A 
HETATM    2  C5  UNL     1      24.839  47.319 -16.882  1.00  0.00     0.126 A 
HETATM    3  N2  UNL     1      24.938  46.369 -15.938  1.00  0.00    -0.309 N 
ATOM      4  H2  UNL     1      25.675  45.668 -15.865  1.00  0.00     0.186 HD
HETATM    5  N3  UNL     1      23.920  46.505 -15.133  1.00  0.00    -0.285 N 
ATOM      6  H3  UNL     1      23.737  45.916 -14.320  1.00  0.00     0.188 HD
HETATM    7  C6  UNL     1      23.132  47.551 -15.538  1.00  0.00     0.131 A 
ENDROOT
BRANCH   1   8
HETATM    8  C3  UNL     1      23.323  49.197 -17.521  1.00  0.00     0.137 A 
HETATM    9  N1  UNL     1      24.179  49.706 -18.417  1.00  0.00    -0.331 N 
HETATM   10  C2  UNL     1      23.891  50.724 -19.252  1.00  0.00     0.095 A 
ATOM     11  H1  UNL     1      25.111  49.295 -18.471  1.00  0.00     0.168 HD
HETATM   12  C1  UNL     1      24.887  51.231 -20.225  1.00  0.00     0.089 C 
HETATM   13  N8  UNL     1      22.650  51.245 -19.156  1.00  0.00    -0.181 N 
HETATM   14  C13 UNL     1      21.749  50.781 -18.281  1.00  0.00     0.678 A 
ATOM     15  H8  UNL     1      22.389  52.017 -19.769  1.00  0.00     0.185 HD
HETATM   16  N6  UNL     1      22.110  49.750 -17.468  1.00  0.00    -0.176 N 
ATOM     17  H6  UNL     1      21.431  49.389 -16.797  1.00  0.00     0.186 HD
BRANCH  14  18
HETATM   18  N7  UNL     1      20.570  51.301 -18.210  1.00  0.00    -0.234 N 
ATOM     19  H72 UNL     1      20.400  52.253 -18.533  1.00  0.00     0.174 HD
ATOM     20  H71 UNL     1      19.785  50.770 -17.831  1.00  0.00     0.174 HD
ENDBRANCH  14  18
ENDBRANCH   1   8
BRANCH   7  21
HETATM   21  N4  UNL     1      22.061  47.953 -14.975  1.00  0.00    -0.373 N 
ATOM     22  H4  UNL     1      21.354  48.409 -15.552  1.00  0.00     0.161 HD
BRANCH  21  23
HETATM   23  C7  UNL     1      21.797  47.795 -13.560  1.00  0.00     0.151 C 
BRANCH  23  24
HETATM   24  C8  UNL     1      22.523  48.791 -12.727  1.00  0.00     0.292 C 
BRANCH  24  25
HETATM   25  N5  UNL     1      23.450  48.259 -11.771  1.00  0.00     0.094 N 
HETATM   26  C9  UNL     1      24.770  48.134 -12.268  1.00  0.00     0.298 C 
HETATM   27  C10 UNL     1      25.400  49.506 -12.350  1.00  0.00     0.198 C 
HETATM   28  O1  UNL     1      25.467  50.127 -11.138  1.00  0.00    -0.388 OA
HETATM   29  C11 UNL     1      24.621  49.705 -10.160  1.00  0.00     0.198 C 
HETATM   30  C12 UNL     1      23.345  49.077 -10.583  1.00  0.00     0.298 C 
ENDBRANCH  24  25
ENDBRANCH  23  24
ENDBRANCH  21  23
ENDBRANCH   7  21
TORSDOF 6
ENDMDL
MODEL 3
REMARK VINA RESULT: -8.252922098      1.315      2.055
REMARK  6 active torsions:
REMARK  status: ('A' for Active; 'I' for Inactive)
REMARK    1  A    between atoms: C3_5  and  C4_6 
REMARK    2  A    between atoms: C6_12  and  N4_13 
REMARK    3  A    between atoms: N4_13  and  C7_15 
REMARK    4  A    between atoms: C7_15  and  C8_16 
REMARK    5  A    between atoms: C8_16  and  N5_17 
REMARK    6  A    between atoms: C13_25  and  N7_26 
ROOT
HETATM    1  C4  UNL     1      23.850  48.257 -16.322  1.00  0.00     0.070 A 
HETATM    2  C5  UNL     1      22.959  47.166 -16.356  1.00  0.00     0.126 A 
HETATM    3  N2  UNL     1      23.130  46.411 -15.260  1.00  0.00    -0.309 N 
ATOM      4  H2  UNL     1      22.617  45.560 -15.028  1.00  0.00     0.186 HD
HETATM    5  N3  UNL     1      24.072  46.961 -14.545  1.00  0.00    -0.285 N 
ATOM      6  H3  UNL     1      24.414  46.601 -13.653  1.00  0.00     0.188 HD
HETATM    7  C6  UNL     1      24.537  48.093 -15.163  1.00  0.00     0.131 A 
ENDROOT
BRANCH   1   8
HETATM    8  C3  UNL     1      23.884  49.247 -17.381  1.00  0.00     0.137 A 
HETATM    9  N1  UNL     1      25.029  49.609 -17.976  1.00  0.00    -0.331 N 
HETATM   10  C2  UNL     1      25.116  50.518 -18.967  1.00  0.00     0.095 A 
ATOM     11  H1  UNL     1      25.892  49.168 -17.658  1.00  0.00     0.168 HD
HETATM   12  C1  UNL     1      26.417  50.866 -19.586  1.00  0.00     0.089 C 
HETATM   13  N8  UNL     1      23.957  51.084 -19.366  1.00  0.00    -0.181 N 
HETATM   14  C13 UNL     1      22.782  50.764 -18.811  1.00  0.00     0.678 A 
ATOM     15  H8  UNL     1      23.977  51.776 -20.115  1.00  0.00     0.185 HD
HETATM   16  N6  UNL     1      22.769  49.837 -17.814  1.00  0.00    -0.176 N 
ATOM     17  H6  UNL     1      21.878  49.586 -17.384  1.00  0.00     0.186 HD
BRANCH  14  18
HETATM   18  N7  UNL     1      21.690  51.322 -19.212  1.00  0.00    -0.234 N 
ATOM     19  H72 UNL     1      20.783  50.989 -18.884  1.00  0.00     0.174 HD
ATOM     20  H71 UNL     1      21.710  52.106 -19.865  1.00  0.00     0.174 HD
ENDBRANCH  14  18
ENDBRANCH   1   8
BRANCH   7  21
HETATM   21  N4  UNL     1      25.454  48.868 -14.733  1.00  0.00    -0.373 N 
ATOM     22  H4  UNL     1      25.870  49.533 -15.385  1.00  0.00     0.161 HD
BRANCH  21  23
HETATM   23  C7  UNL     1      25.935  48.852 -13.367  1.00  0.00     0.151 C 
BRANCH  23  24
HETATM   24  C8  UNL     1      25.306  49.904 -12.525  1.00  0.00     0.292 C 
BRANCH  24  25
HETATM   25  N5  UNL     1      24.696  49.458 -11.307  1.00  0.00     0.094 N 
HETATM   26  C9  UNL     1      23.336  49.832 -11.182  1.00  0.00     0.298 C 
HETATM   27  C10 UNL     1      22.499  48.970 -12.100  1.00  0.00     0.198 C 
HETATM   28  O1  UNL     1      22.597  47.642 -11.807  1.00  0.00    -0.388 OA
HETATM   29  C11 UNL     1      23.685  47.222 -11.108  1.00  0.00     0.198 C 
HETATM   30  C12 UNL     1      24.923  48.032 -11.220  1.00  0.00     0.298 C 
ENDBRANCH  24  25
ENDBRANCH  23  24
ENDBRANCH  21  23
ENDBRANCH   7  21
TORSDOF 6
ENDMDL
MODEL 4
REMARK VINA RESULT: -8.191900644      1.057      2.152
REMARK  6 active torsions:
REMARK  status: ('A' for Active; 'I' for Inactive)
REMARK    1  A    between atoms: C3_5  and  C4_6 
REMARK    2  A    between atoms: C6_12  and  N4_13 
REMARK    3  A    between atoms: N4_13  and  C7_15 
REMARK    4  A    between atoms: C7_15  and  C8_16 
REMARK    5  A    between atoms: C8_16  and  N5_17 
REMARK    6  A    between atoms: C13_25  and  N7_26 
ROOT
HETATM    1  C4  UNL     1      23.755  48.218 -16.811  1.00  0.00     0.070 A 
HETATM    2  C5  UNL     1      24.928  47.467 -17.025  1.00  0.00     0.126 A 
HETATM    3  N2  UNL     1      25.032  46.516 -16.085  1.00  0.00    -0.309 N 
ATOM      4  H2  UNL     1      25.783  45.830 -16.001  1.00  0.00     0.186 HD
HETATM    5  N3  UNL     1      23.998  46.625 -15.297  1.00  0.00    -0.285 N 
ATOM      6  H3  UNL     1      23.813  46.029 -14.489  1.00  0.00     0.188 HD
HETATM    7  C6  UNL     1      23.194  47.656 -15.710  1.00  0.00     0.131 A 
ENDROOT
BRANCH   1   8
HETATM    8  C3  UNL     1      23.382  49.316 -17.682  1.00  0.00     0.137 A 
HETATM    9  N1  UNL     1      22.191  49.921 -17.590  1.00  0.00    -0.331 N 
HETATM   10  C2  UNL     1      21.798  50.948 -18.369  1.00  0.00     0.095 A 
ATOM     11  H1  UNL     1      21.538  49.583 -16.883  1.00  0.00     0.168 HD
HETATM   12  C1  UNL     1      20.465  51.576 -18.206  1.00  0.00     0.089 C 
HETATM   13  N8  UNL     1      22.683  51.373 -19.294  1.00  0.00    -0.181 N 
HETATM   14  C13 UNL     1      23.889  50.809 -19.436  1.00  0.00     0.678 A 
ATOM     15  H8  UNL     1      22.427  52.148 -19.905  1.00  0.00     0.185 HD
HETATM   16  N6  UNL     1      24.220  49.775 -18.613  1.00  0.00    -0.176 N 
ATOM     17  H6  UNL     1      25.136  49.338 -18.713  1.00  0.00     0.186 HD
BRANCH  14  18
HETATM   18  N7  UNL     1      24.716  51.236 -20.330  1.00  0.00    -0.234 N 
ATOM     19  H72 UNL     1      24.757  52.226 -20.572  1.00  0.00     0.174 HD
ATOM     20  H71 UNL     1      25.343  50.593 -20.813  1.00  0.00     0.174 HD
ENDBRANCH  14  18
ENDBRANCH   1   8
BRANCH   7  21
HETATM   21  N4  UNL     1      22.105  48.032 -15.164  1.00  0.00    -0.373 N 
ATOM     22  H4  UNL     1      21.365  48.398 -15.763  1.00  0.00     0.161 HD
BRANCH  21  23
HETATM   23  C7  UNL     1      21.864  47.966 -13.737  1.00  0.00     0.151 C 
BRANCH  23  24
HETATM   24  C8  UNL     1      22.724  48.905 -12.967  1.00  0.00     0.292 C 
BRANCH  24  25
HETATM   25  N5  UNL     1      23.583  48.313 -11.984  1.00  0.00     0.094 N 
HETATM   26  C9  UNL     1      24.940  48.246 -12.382  1.00  0.00     0.298 C 
HETATM   27  C10 UNL     1      25.548  49.629 -12.309  1.00  0.00     0.198 C 
HETATM   28  O1  UNL     1      25.506  50.154 -11.051  1.00  0.00    -0.388 OA
HETATM   29  C11 UNL     1      24.595  49.646 -10.178  1.00  0.00     0.198 C 
HETATM   30  C12 UNL     1      23.369  49.035 -10.749  1.00  0.00     0.298 C 
ENDBRANCH  24  25
ENDBRANCH  23  24
ENDBRANCH  21  23
ENDBRANCH   7  21
TORSDOF 6
ENDMDL
MODEL 5
REMARK VINA RESULT: -8.168256306      0.629      1.748
REMARK  6 active torsions:
REMARK  status: ('A' for Active; 'I' for Inactive)
REMARK    1  A    between atoms: C3_5  and  C4_6 
REMARK    2  A    between atoms: C6_12  and  N4_13 
REMARK    3  A    between atoms: N4_13  and  C7_15 
REMARK    4  A    between atoms: C7_15  and  C8_16 
REMARK    5  A    between atoms: C8_16  and  N5_17 
REMARK    6  A    between atoms: C13_25  and  N7_26 
ROOT
HETATM    1  C4  UNL     1      23.727  48.192 -16.565  1.00  0.00     0.070 A 
HETATM    2  C5  UNL     1      24.796  47.280 -16.666  1.00  0.00     0.126 A 
HETATM    3  N2  UNL     1      24.778  46.447 -15.613  1.00  0.00    -0.309 N 
ATOM      4  H2  UNL     1      25.437  45.689 -15.434  1.00  0.00     0.186 HD
HETATM    5  N3  UNL     1      23.766  46.782 -14.861  1.00  0.00    -0.285 N 
ATOM      6  H3  UNL     1      23.508  46.319 -13.990  1.00  0.00     0.188 HD
HETATM    7  C6  UNL     1      23.099  47.847 -15.411  1.00  0.00     0.131 A 
ENDROOT
BRANCH   1   8
HETATM    8  C3  UNL     1      23.496  49.211 -17.570  1.00  0.00     0.137 A 
HETATM    9  N1  UNL     1      22.264  49.643 -17.872  1.00  0.00    -0.331 N 
HETATM   10  C2  UNL     1      21.996  50.590 -18.792  1.00  0.00     0.095 A 
ATOM     11  H1  UNL     1      21.478  49.228 -17.372  1.00  0.00     0.168 HD
HETATM   12  C1  UNL     1      20.606  51.026 -19.070  1.00  0.00     0.089 C 
HETATM   13  N8  UNL     1      23.057  51.120 -19.435  1.00  0.00    -0.181 N 
HETATM   14  C13 UNL     1      24.311  50.731 -19.179  1.00  0.00     0.678 A 
ATOM     15  H8  UNL     1      22.898  51.841 -20.140  1.00  0.00     0.185 HD
HETATM   16  N6  UNL     1      24.509  49.768 -18.236  1.00  0.00    -0.176 N 
ATOM     17  H6  UNL     1      25.461  49.464 -18.033  1.00  0.00     0.186 HD
BRANCH  14  18
HETATM   18  N7  UNL     1      25.307  51.254 -19.811  1.00  0.00    -0.234 N 
ATOM     19  H72 UNL     1      26.050  50.668 -20.191  1.00  0.00     0.174 HD
ATOM     20  H71 UNL     1      25.372  52.264 -19.943  1.00  0.00     0.174 HD
ENDBRANCH  14  18
ENDBRANCH   1   8
BRANCH   7  21
HETATM   21  N4  UNL     1      22.066  48.421 -14.933  1.00  0.00    -0.373 N 
ATOM     22  H4  UNL     1      21.149  48.111 -15.253  1.00  0.00     0.161 HD
BRANCH  21  23
HETATM   23  C7  UNL     1      22.129  49.491 -13.960  1.00  0.00     0.151 C 
BRANCH  23  24
HETATM   24  C8  UNL     1      22.235  48.990 -12.563  1.00  0.00     0.292 C 
BRANCH  24  25
HETATM   25  N5  UNL     1      23.360  49.458 -11.808  1.00  0.00     0.094 N 
HETATM   26  C9  UNL     1      23.847  48.514 -10.871  1.00  0.00     0.298 C 
HETATM   27  C10 UNL     1      24.595  47.426 -11.607  1.00  0.00     0.198 C 
HETATM   28  O1  UNL     1      25.660  47.904 -12.312  1.00  0.00    -0.388 OA
HETATM   29  C11 UNL     1      25.665  49.224 -12.640  1.00  0.00     0.198 C 
HETATM   30  C12 UNL     1      24.352  49.903 -12.762  1.00  0.00     0.298 C 
ENDBRANCH  24  25
ENDBRANCH  23  24
ENDBRANCH  21  23
ENDBRANCH   7  21
TORSDOF 6
ENDMDL
