MODEL 1
REMARK VINA RESULT: -8.536044490      0.000      0.000
REMARK  5 active torsions:
REMARK  status: ('A' for Active; 'I' for Inactive)
REMARK    1  A    between atoms: C3_5  and  N2_6 
REMARK       I    between atoms: N2_6  and  C4_8 
REMARK    2  A    between atoms: C5_14  and  C6_15 
REMARK    3  A    between atoms: C6_15  and  C7_16 
REMARK    4  A    between atoms: C7_16  and  C8_17 
REMARK    5  A    between atoms: N7_23  and  C10_25 
ROOT
HETATM    1  C1  UNL     1      26.840  49.665 -18.737  1.00  0.00     0.069 C 
HETATM    2  C2  UNL     1      25.342  49.773 -18.512  1.00  0.00     0.020 A 
HETATM    3  N1  UNL     1      24.583  50.614 -19.151  1.00  0.00    -0.339 N 
ATOM      4  H1  UNL     1      24.979  51.245 -19.848  1.00  0.00     0.168 HD
HETATM    5  C3  UNL     1      23.280  50.635 -18.878  1.00  0.00     0.151 A 
HETATM    6  S1  UNL     1      23.112  49.431 -17.681  1.00  0.00    -0.057 SA
HETATM    7  C5  UNL     1      24.748  48.952 -17.587  1.00  0.00     0.009 A 
ENDROOT
BRANCH   7   8
HETATM    8  C6  UNL     1      25.402  47.896 -16.729  1.00  0.00     0.055 C 
BRANCH   8   9
HETATM    9  C7  UNL     1      24.286  46.988 -16.304  1.00  0.00     0.072 C 
BRANCH   9  10
HETATM   10  C8  UNL     1      23.879  47.312 -14.898  1.00  0.00     0.070 A 
HETATM   11  N5  UNL     1      22.675  47.296 -14.350  1.00  0.00    -0.296 N 
HETATM   12  N6  UNL     1      22.522  47.595 -13.131  1.00  0.00    -0.279 N 
ATOM     13  H5  UNL     1      21.865  47.042 -14.916  1.00  0.00     0.187 HD
HETATM   14  C9  UNL     1      23.588  47.926 -12.403  1.00  0.00     0.167 A 
ATOM     15  H6  UNL     1      21.593  47.583 -12.710  1.00  0.00     0.189 HD
HETATM   16  N7  UNL     1      23.635  48.260 -11.137  1.00  0.00    -0.313 N 
HETATM   17  S2  UNL     1      24.844  47.789 -13.555  1.00  0.00    -0.038 SA
ATOM     18  H7  UNL     1      24.522  48.494 -10.692  1.00  0.00     0.170 HD
BRANCH  16  19
HETATM   19  C10 UNL     1      22.437  48.291 -10.407  1.00  0.00     0.354 C 
HETATM   20  O1  UNL     1      22.039  47.198  -9.910  1.00  0.00    -0.283 OA
ENDBRANCH  16  19
ENDBRANCH   9  10
ENDBRANCH   8   9
ENDBRANCH   7   8
BRANCH   5  21
HETATM   21  N2  UNL     1      22.351  51.402 -19.412  1.00  0.00    -0.311 N 
HETATM   22  C4  UNL     1      21.095  51.525 -18.763  1.00  0.00     0.187 C 
HETATM   23  N3  UNL     1      20.112  50.769 -19.161  1.00  0.00    -0.373 N 
HETATM   24  N4  UNL     1      20.867  52.440 -17.700  1.00  0.00    -0.064 NA
ATOM     25  H32 UNL     1      20.275  50.112 -19.924  1.00  0.00     0.158 HD
ATOM     26  H31 UNL     1      19.209  50.857 -18.694  1.00  0.00     0.158 HD
ATOM     27  H2  UNL     1      22.532  51.902 -20.282  1.00  0.00     0.170 HD
ENDBRANCH   5  21
TORSDOF 5
ENDMDL
MODEL 2
REMARK VINA RESULT: -8.523218268      0.982      1.080
REMARK  5 active torsions:
REMARK  status: ('A' for Active; 'I' for Inactive)
REMARK    1  A    between atoms: C3_5  and  N2_6 
REMARK       I    between atoms: N2_6  and  C4_8 
REMARK    2  A    between atoms: C5_14  and  C6_15 
REMARK    3  A    between atoms: C6_15  and  C7_16 
REMARK    4  A    between atoms: C7_16  and  C8_17 
REMARK    5  A    between atoms: N7_23  and  C10_25 
ROOT
HETATM    1  C1  UNL     1      26.779  49.621 -19.018  1.00  0.00     0.069 C 
HETATM    2  C2  UNL     1      25.301  49.771 -18.704  1.00  0.00     0.020 A 
HETATM    3  N1  UNL     1      24.521  50.610 -19.322  1.00  0.00    -0.339 N 
ATOM      4  H1  UNL     1      24.886  51.210 -20.062  1.00  0.00     0.168 HD
HETATM    5  C3  UNL     1      23.239  50.671 -18.969  1.00  0.00     0.151 A 
HETATM    6  S1  UNL     1      23.121  49.509 -17.726  1.00  0.00    -0.057 SA
HETATM    7  C5  UNL     1      24.748  48.994 -17.719  1.00  0.00     0.009 A 
ENDROOT
BRANCH   7   8
HETATM    8  C6  UNL     1      25.432  47.949 -16.869  1.00  0.00     0.055 C 
BRANCH   8   9
HETATM    9  C7  UNL     1      25.956  48.695 -15.677  1.00  0.00     0.072 C 
BRANCH   9  10
HETATM   10  C8  UNL     1      25.006  48.542 -14.527  1.00  0.00     0.070 A 
HETATM   11  N5  UNL     1      23.881  49.191 -14.279  1.00  0.00    -0.296 N 
HETATM   12  N6  UNL     1      23.198  48.920 -13.251  1.00  0.00    -0.279 N 
ATOM     13  H5  UNL     1      23.562  49.916 -14.922  1.00  0.00     0.187 HD
HETATM   14  C9  UNL     1      23.625  47.971 -12.418  1.00  0.00     0.167 A 
ATOM     15  H6  UNL     1      22.330  49.421 -13.060  1.00  0.00     0.189 HD
HETATM   16  N7  UNL     1      23.062  47.547 -11.312  1.00  0.00    -0.313 N 
HETATM   17  S2  UNL     1      25.071  47.472 -13.181  1.00  0.00    -0.038 SA
ATOM     18  H7  UNL     1      23.494  46.807 -10.759  1.00  0.00     0.170 HD
BRANCH  16  19
HETATM   19  C10 UNL     1      21.855  48.134 -10.907  1.00  0.00     0.354 C 
HETATM   20  O1  UNL     1      20.849  47.956 -11.653  1.00  0.00    -0.283 OA
ENDBRANCH  16  19
ENDBRANCH   9  10
ENDBRANCH   8   9
ENDBRANCH   7   8
BRANCH   5  21
HETATM   21  N2  UNL     1      22.295  51.443 -19.469  1.00  0.00    -0.311 N 
HETATM   22  C4  UNL     1      21.052  51.545 -18.793  1.00  0.00     0.187 C 
HETATM   23  N3  UNL     1      20.065  50.791 -19.186  1.00  0.00    -0.373 N 
HETATM   24  N4  UNL     1      20.840  52.437 -17.706  1.00  0.00    -0.064 NA
ATOM     25  H32 UNL     1      20.217  50.151 -19.966  1.00  0.00     0.158 HD
ATOM     26  H31 UNL     1      19.171  50.864 -18.700  1.00  0.00     0.158 HD
ATOM     27  H2  UNL     1      22.456  51.962 -20.332  1.00  0.00     0.170 HD
ENDBRANCH   5  21
TORSDOF 5
ENDMDL
MODEL 3
REMARK VINA RESULT: -8.498193543      1.498      1.498
REMARK  5 active torsions:
REMARK  status: ('A' for Active; 'I' for Inactive)
REMARK    1  A    between atoms: C3_5  and  N2_6 
REMARK       I    between atoms: N2_6  and  C4_8 
REMARK    2  A    between atoms: C5_14  and  C6_15 
REMARK    3  A    between atoms: C6_15  and  C7_16 
REMARK    4  A    between atoms: C7_16  and  C8_17 
REMARK    5  A    between atoms: N7_23  and  C10_25 
ROOT
HETATM    1  C1  UNL     1      26.821  49.748 -18.732  1.00  0.00     0.069 C 
HETATM    2  C2  UNL     1      25.315  49.817 -18.543  1.00  0.00     0.020 A 
HETATM    3  N1  UNL     1      24.563  50.704 -19.126  1.00  0.00    -0.339 N 
ATOM      4  H1  UNL     1      24.969  51.400 -19.751  1.00  0.00     0.168 HD
HETATM    5  C3  UNL     1      23.252  50.685 -18.891  1.00  0.00     0.151 A 
HETATM    6  S1  UNL     1      23.068  49.375 -17.813  1.00  0.00    -0.057 SA
HETATM    7  C5  UNL     1      24.707  48.909 -17.715  1.00  0.00     0.009 A 
ENDROOT
BRANCH   7   8
HETATM    8  C6  UNL     1      25.352  47.787 -16.936  1.00  0.00     0.055 C 
BRANCH   8   9
HETATM    9  C7  UNL     1      24.236  47.159 -16.155  1.00  0.00     0.072 C 
BRANCH   9  10
HETATM   10  C8  UNL     1      24.190  47.745 -14.776  1.00  0.00     0.070 A 
HETATM   11  N5  UNL     1      25.106  47.711 -13.823  1.00  0.00    -0.296 N 
HETATM   12  N6  UNL     1      24.893  48.274 -12.711  1.00  0.00    -0.279 N 
ATOM     13  H5  UNL     1      25.989  47.227 -13.985  1.00  0.00     0.187 HD
HETATM   14  C9  UNL     1      23.735  48.903 -12.510  1.00  0.00     0.167 A 
ATOM     15  H6  UNL     1      25.600  48.248 -11.975  1.00  0.00     0.189 HD
HETATM   16  N7  UNL     1      23.333  49.542 -11.439  1.00  0.00    -0.313 N 
HETATM   17  S2  UNL     1      22.947  48.652 -14.006  1.00  0.00    -0.038 SA
ATOM     18  H7  UNL     1      22.414  49.986 -11.412  1.00  0.00     0.170 HD
BRANCH  16  19
HETATM   19  C10 UNL     1      24.192  49.602 -10.332  1.00  0.00     0.354 C 
HETATM   20  O1  UNL     1      25.355  50.058 -10.530  1.00  0.00    -0.283 OA
ENDBRANCH  16  19
ENDBRANCH   9  10
ENDBRANCH   8   9
ENDBRANCH   7   8
BRANCH   5  21
HETATM   21  N2  UNL     1      22.328  51.486 -19.380  1.00  0.00    -0.311 N 
HETATM   22  C4  UNL     1      21.061  51.553 -18.746  1.00  0.00     0.187 C 
HETATM   23  N3  UNL     1      20.088  50.825 -19.217  1.00  0.00    -0.373 N 
HETATM   24  N4  UNL     1      20.810  52.383 -17.620  1.00  0.00    -0.064 NA
ATOM     25  H32 UNL     1      20.269  50.229 -20.025  1.00  0.00     0.158 HD
ATOM     26  H31 UNL     1      19.178  50.873 -18.760  1.00  0.00     0.158 HD
ATOM     27  H2  UNL     1      22.521  52.052 -20.206  1.00  0.00     0.170 HD
ENDBRANCH   5  21
TORSDOF 5
ENDMDL
MODEL 4
REMARK VINA RESULT: -8.390622567      1.081      1.153
REMARK  5 active torsions:
REMARK  status: ('A' for Active; 'I' for Inactive)
REMARK    1  A    between atoms: C3_5  and  N2_6 
REMARK       I    between atoms: N2_6  and  C4_8 
REMARK    2  A    between atoms: C5_14  and  C6_15 
REMARK    3  A    between atoms: C6_15  and  C7_16 
REMARK    4  A    between atoms: C7_16  and  C8_17 
REMARK    5  A    between atoms: N7_23  and  C10_25 
ROOT
HETATM    1  C1  UNL     1      26.810  50.454 -19.209  1.00  0.00     0.069 C 
HETATM    2  C2  UNL     1      25.340  50.277 -18.871  1.00  0.00     0.020 A 
HETATM    3  N1  UNL     1      24.382  50.883 -19.510  1.00  0.00    -0.339 N 
ATOM      4  H1  UNL     1      24.592  51.512 -20.285  1.00  0.00     0.168 HD
HETATM    5  C3  UNL     1      23.124  50.666 -19.134  1.00  0.00     0.151 A 
HETATM    6  S1  UNL     1      23.288  49.571 -17.836  1.00  0.00    -0.057 SA
HETATM    7  C5  UNL     1      24.990  49.444 -17.839  1.00  0.00     0.009 A 
ENDROOT
BRANCH   7   8
HETATM    8  C6  UNL     1      25.905  48.628 -16.956  1.00  0.00     0.055 C 
BRANCH   8   9
HETATM    9  C7  UNL     1      25.126  47.389 -16.624  1.00  0.00     0.072 C 
BRANCH   9  10
HETATM   10  C8  UNL     1      24.485  47.541 -15.277  1.00  0.00     0.070 A 
HETATM   11  N5  UNL     1      25.001  48.008 -14.152  1.00  0.00    -0.296 N 
HETATM   12  N6  UNL     1      24.300  48.069 -13.102  1.00  0.00    -0.279 N 
ATOM     13  H5  UNL     1      25.972  48.320 -14.132  1.00  0.00     0.187 HD
HETATM   14  C9  UNL     1      23.033  47.658 -13.141  1.00  0.00     0.167 A 
ATOM     15  H6  UNL     1      24.699  48.429 -12.235  1.00  0.00     0.189 HD
HETATM   16  N7  UNL     1      22.153  47.645 -12.170  1.00  0.00    -0.313 N 
HETATM   17  S2  UNL     1      22.882  47.171 -14.773  1.00  0.00    -0.038 SA
ATOM     18  H7  UNL     1      21.205  47.303 -12.330  1.00  0.00     0.170 HD
BRANCH  16  19
HETATM   19  C10 UNL     1      22.542  48.112 -10.906  1.00  0.00     0.354 C 
HETATM   20  O1  UNL     1      22.080  47.502  -9.900  1.00  0.00    -0.283 OA
ENDBRANCH  16  19
ENDBRANCH   9  10
ENDBRANCH   8   9
ENDBRANCH   7   8
BRANCH   5  21
HETATM   21  N2  UNL     1      22.023  51.175 -19.649  1.00  0.00    -0.311 N 
HETATM   22  C4  UNL     1      21.088  51.813 -18.794  1.00  0.00     0.187 C 
HETATM   23  N3  UNL     1      20.070  51.125 -18.360  1.00  0.00    -0.373 N 
HETATM   24  N4  UNL     1      21.215  53.171 -18.394  1.00  0.00    -0.064 NA
ATOM     25  H32 UNL     1      19.979  50.150 -18.646  1.00  0.00     0.158 HD
ATOM     26  H31 UNL     1      19.398  51.583 -17.745  1.00  0.00     0.158 HD
ATOM     27  H2  UNL     1      21.845  51.112 -20.651  1.00  0.00     0.170 HD
ENDBRANCH   5  21
TORSDOF 5
ENDMDL
MODEL 5
REMARK VINA RESULT: -8.375183785      1.641      1.676
REMARK  5 active torsions:
REMARK  status: ('A' for Active; 'I' for Inactive)
REMARK    1  A    between atoms: C3_5  and  N2_6 
REMARK       I    between atoms: N2_6  and  C4_8 
REMARK    2  A    between atoms: C5_14  and  C6_15 
REMARK    3  A    between atoms: C6_15  and  C7_16 
REMARK    4  A    between atoms: C7_16  and  C8_17 
REMARK    5  A    between atoms: N7_23  and  C10_25 
ROOT
HETATM    1  C1  UNL     1      26.590  50.742 -19.405  1.00  0.00     0.069 C 
HETATM    2  C2  UNL     1      25.159  50.432 -19.001  1.00  0.00     0.020 A 
HETATM    3  N1  UNL     1      24.127  51.053 -19.495  1.00  0.00    -0.339 N 
ATOM      4  H1  UNL     1      24.248  51.787 -20.193  1.00  0.00     0.168 HD
HETATM    5  C3  UNL     1      22.912  50.712 -19.072  1.00  0.00     0.151 A 
HETATM    6  S1  UNL     1      23.226  49.474 -17.941  1.00  0.00    -0.057 SA
HETATM    7  C5  UNL     1      24.928  49.455 -18.067  1.00  0.00     0.009 A 
ENDROOT
BRANCH   7   8
HETATM    8  C6  UNL     1      25.944  48.593 -17.357  1.00  0.00     0.055 C 
BRANCH   8   9
HETATM    9  C7  UNL     1      25.142  47.533 -16.661  1.00  0.00     0.072 C 
BRANCH   9  10
HETATM   10  C8  UNL     1      24.968  47.897 -15.217  1.00  0.00     0.070 A 
HETATM   11  N5  UNL     1      25.009  49.088 -14.644  1.00  0.00    -0.296 N 
HETATM   12  N6  UNL     1      24.830  49.206 -13.398  1.00  0.00    -0.279 N 
ATOM     13  H5  UNL     1      25.187  49.917 -15.211  1.00  0.00     0.187 HD
HETATM   14  C9  UNL     1      24.598  48.115 -12.668  1.00  0.00     0.167 A 
ATOM     15  H6  UNL     1      24.862  50.125 -12.956  1.00  0.00     0.189 HD
HETATM   16  N7  UNL     1      24.387  48.031 -11.377  1.00  0.00    -0.313 N 
HETATM   17  S2  UNL     1      24.648  46.890 -13.859  1.00  0.00    -0.038 SA
ATOM     18  H7  UNL     1      24.220  47.127 -10.934  1.00  0.00     0.170 HD
BRANCH  16  19
HETATM   19  C10 UNL     1      24.396  49.211 -10.618  1.00  0.00     0.354 C 
HETATM   20  O1  UNL     1      25.394  49.976 -10.756  1.00  0.00    -0.283 OA
ENDBRANCH  16  19
ENDBRANCH   9  10
ENDBRANCH   8   9
ENDBRANCH   7   8
BRANCH   5  21
HETATM   21  N2  UNL     1      21.751  51.212 -19.447  1.00  0.00    -0.311 N 
HETATM   22  C4  UNL     1      21.026  52.031 -18.544  1.00  0.00     0.187 C 
HETATM   23  N3  UNL     1      20.087  51.485 -17.824  1.00  0.00    -0.373 N 
HETATM   24  N4  UNL     1      21.279  53.421 -18.396  1.00  0.00    -0.064 NA
ATOM     25  H32 UNL     1      19.905  50.487 -17.930  1.00  0.00     0.158 HD
ATOM     26  H31 UNL     1      19.566  52.074 -17.175  1.00  0.00     0.158 HD
ATOM     27  H2  UNL     1      21.380  51.012 -20.375  1.00  0.00     0.170 HD
ENDBRANCH   5  21
TORSDOF 5
ENDMDL
