MODEL 1
REMARK VINA RESULT: -8.047719009      0.000      0.000
REMARK  7 active torsions:
REMARK  status: ('A' for Active; 'I' for Inactive)
REMARK    1  A    between atoms: N1_2  and  C2_4 
REMARK    2  A    between atoms: C2_4  and  C3_5 
REMARK    3  A    between atoms: C7_15  and  N5_16 
REMARK    4  A    between atoms: N5_16  and  N6_18 
REMARK    5  A    between atoms: N6_18  and  C8_20 
REMARK    6  A    between atoms: C8_20  and  C9_23 
REMARK    7  A    between atoms: N7_27  and  O1_28 
ROOT
HETATM    1  C3  UNL     1      23.554  48.774 -17.921  1.00  0.00     0.126 A 
HETATM    2  C4  UNL     1      24.818  48.941 -18.440  1.00  0.00     0.109 A 
HETATM    3  N2  UNL     1      25.317  49.544 -19.558  1.00  0.00    -0.347 N 
ATOM      4  H2  UNL     1      24.785  50.028 -20.281  1.00  0.00     0.167 HD
HETATM    5  C5  UNL     1      26.647  49.372 -19.513  1.00  0.00     0.182 A 
HETATM    6  N3  UNL     1      27.024  48.702 -18.443  1.00  0.00    -0.336 N 
ATOM      7  H3  UNL     1      27.978  48.448 -18.188  1.00  0.00     0.168 HD
HETATM    8  C6  UNL     1      25.893  48.416 -17.746  1.00  0.00     0.151 A 
HETATM    9  N4  UNL     1      25.720  47.758 -16.594  1.00  0.00    -0.171 N 
ATOM     10  H4  UNL     1      26.526  47.377 -16.098  1.00  0.00     0.186 HD
HETATM   11  C7  UNL     1      24.495  47.598 -16.095  1.00  0.00     0.725 A 
HETATM   12  N7  UNL     1      23.456  48.095 -16.746  1.00  0.00    -0.047 N 
ENDROOT
BRANCH  11  13
HETATM   13  N5  UNL     1      24.377  46.950 -14.972  1.00  0.00    -0.131 N 
ATOM     14  H5  UNL     1      24.761  46.009 -14.880  1.00  0.00     0.205 HD
BRANCH  13  15
HETATM   15  N6  UNL     1      23.731  47.544 -13.908  1.00  0.00    -0.276 N 
ATOM     16  H6  UNL     1      22.711  47.559 -13.933  1.00  0.00     0.184 HD
BRANCH  15  17
HETATM   17  C8  UNL     1      24.363  48.141 -12.778  1.00  0.00     0.298 C 
HETATM   18 CL1  UNL     1      26.124  48.082 -12.989  1.00  0.00    -0.067 Cl
HETATM   19 CL2  UNL     1      23.971  47.167 -11.342  1.00  0.00    -0.067 Cl
BRANCH  17  20
HETATM   20  C9  UNL     1      23.989  49.584 -12.544  1.00  0.00     0.443 C 
HETATM   21  F1  UNL     1      25.061  50.428 -12.529  1.00  0.00    -0.166 F 
HETATM   22  F2  UNL     1      23.214  49.960 -13.652  1.00  0.00    -0.166 F 
HETATM   23  F3  UNL     1      23.174  49.668 -11.460  1.00  0.00    -0.166 F 
ENDBRANCH  17  20
ENDBRANCH  15  17
ENDBRANCH  13  15
ENDBRANCH  11  13
BRANCH  12  24
HETATM   24  O1  UNL     1      22.202  47.924 -16.222  1.00  0.00    -0.269 OA
ATOM     25  H1  UNL     1      21.783  48.685 -15.838  1.00  0.00     0.245 HD
ENDBRANCH  12  24
BRANCH   1  26
HETATM   26  C2  UNL     1      22.393  49.296 -18.593  1.00  0.00     0.118 C 
BRANCH  26  27
HETATM   27  N1  UNL     1      21.571  50.132 -18.130  1.00  0.00    -0.401 N 
HETATM   28  C1  UNL     1      20.668  50.945 -18.884  1.00  0.00     0.145 C 
ATOM     29  H1  UNL     1      21.548  50.240 -17.116  1.00  0.00     0.158 HD
ENDBRANCH  26  27
ENDBRANCH   1  26
TORSDOF 7
ENDMDL
MODEL 2
REMARK VINA RESULT: -8.036244694      1.338      1.757
REMARK  7 active torsions:
REMARK  status: ('A' for Active; 'I' for Inactive)
REMARK    1  A    between atoms: N1_2  and  C2_4 
REMARK    2  A    between atoms: C2_4  and  C3_5 
REMARK    3  A    between atoms: C7_15  and  N5_16 
REMARK    4  A    between atoms: N5_16  and  N6_18 
REMARK    5  A    between atoms: N6_18  and  C8_20 
REMARK    6  A    between atoms: C8_20  and  C9_23 
REMARK    7  A    between atoms: N7_27  and  O1_28 
ROOT
HETATM    1  C3  UNL     1      23.481  48.845 -17.773  1.00  0.00     0.126 A 
HETATM    2  C4  UNL     1      24.745  48.948 -18.308  1.00  0.00     0.109 A 
HETATM    3  N2  UNL     1      25.243  49.405 -19.492  1.00  0.00    -0.347 N 
ATOM      4  H2  UNL     1      24.711  49.792 -20.272  1.00  0.00     0.167 HD
HETATM    5  C5  UNL     1      26.574  49.245 -19.425  1.00  0.00     0.182 A 
HETATM    6  N3  UNL     1      26.951  48.716 -18.278  1.00  0.00    -0.336 N 
ATOM      7  H3  UNL     1      27.906  48.499 -17.993  1.00  0.00     0.168 HD
HETATM    8  C6  UNL     1      25.821  48.518 -17.551  1.00  0.00     0.151 A 
HETATM    9  N4  UNL     1      25.648  48.011 -16.325  1.00  0.00    -0.171 N 
ATOM     10  H4  UNL     1      26.454  47.699 -15.784  1.00  0.00     0.186 HD
HETATM   11  C7  UNL     1      24.423  47.913 -15.811  1.00  0.00     0.725 A 
HETATM   12  N7  UNL     1      23.383  48.320 -16.521  1.00  0.00    -0.047 N 
ENDROOT
BRANCH  11  13
HETATM   13  N5  UNL     1      24.306  47.413 -14.615  1.00  0.00    -0.131 N 
ATOM     14  H5  UNL     1      23.666  46.637 -14.443  1.00  0.00     0.205 HD
BRANCH  13  15
HETATM   15  N6  UNL     1      25.053  47.939 -13.582  1.00  0.00    -0.276 N 
ATOM     16  H6  UNL     1      26.032  47.659 -13.526  1.00  0.00     0.184 HD
BRANCH  15  17
HETATM   17  C8  UNL     1      24.577  48.840 -12.584  1.00  0.00     0.298 C 
HETATM   18 CL1  UNL     1      23.022  49.523 -13.102  1.00  0.00    -0.067 Cl
HETATM   19 CL2  UNL     1      25.730  50.188 -12.455  1.00  0.00    -0.067 Cl
BRANCH  17  20
HETATM   20  C9  UNL     1      24.360  48.211 -11.229  1.00  0.00     0.443 C 
HETATM   21  F1  UNL     1      23.806  46.966 -11.290  1.00  0.00    -0.166 F 
HETATM   22  F2  UNL     1      25.639  48.041 -10.680  1.00  0.00    -0.166 F 
HETATM   23  F3  UNL     1      23.710  49.092 -10.424  1.00  0.00    -0.166 F 
ENDBRANCH  17  20
ENDBRANCH  15  17
ENDBRANCH  13  15
ENDBRANCH  11  13
BRANCH  12  24
HETATM   24  O1  UNL     1      22.129  48.214 -15.980  1.00  0.00    -0.269 OA
ATOM     25  H1  UNL     1      22.056  47.804 -15.126  1.00  0.00     0.245 HD
ENDBRANCH  12  24
BRANCH   1  26
HETATM   26  C2  UNL     1      22.319  49.274 -18.506  1.00  0.00     0.118 C 
BRANCH  26  27
HETATM   27  N1  UNL     1      21.509  50.179 -18.166  1.00  0.00    -0.401 N 
HETATM   28  C1  UNL     1      20.848  51.100 -19.037  1.00  0.00     0.145 C 
ATOM     29  H1  UNL     1      21.306  50.262 -17.170  1.00  0.00     0.158 HD
ENDBRANCH  26  27
ENDBRANCH   1  26
TORSDOF 7
ENDMDL
MODEL 3
REMARK VINA RESULT: -7.906034694      1.427      1.747
REMARK  7 active torsions:
REMARK  status: ('A' for Active; 'I' for Inactive)
REMARK    1  A    between atoms: N1_2  and  C2_4 
REMARK    2  A    between atoms: C2_4  and  C3_5 
REMARK    3  A    between atoms: C7_15  and  N5_16 
REMARK    4  A    between atoms: N5_16  and  N6_18 
REMARK    5  A    between atoms: N6_18  and  C8_20 
REMARK    6  A    between atoms: C8_20  and  C9_23 
REMARK    7  A    between atoms: N7_27  and  O1_28 
ROOT
HETATM    1  C3  UNL     1      23.516  48.654 -17.531  1.00  0.00     0.126 A 
HETATM    2  C4  UNL     1      24.771  48.785 -18.082  1.00  0.00     0.109 A 
HETATM    3  N2  UNL     1      25.245  49.267 -19.267  1.00  0.00    -0.347 N 
ATOM      4  H2  UNL     1      24.696  49.655 -20.033  1.00  0.00     0.167 HD
HETATM    5  C5  UNL     1      26.579  49.126 -19.220  1.00  0.00     0.182 A 
HETATM    6  N3  UNL     1      26.981  48.589 -18.086  1.00  0.00    -0.336 N 
ATOM      7  H3  UNL     1      27.943  48.383 -17.817  1.00  0.00     0.168 HD
HETATM    8  C6  UNL     1      25.864  48.362 -17.346  1.00  0.00     0.151 A 
HETATM    9  N4  UNL     1      25.717  47.836 -16.125  1.00  0.00    -0.171 N 
ATOM     10  H4  UNL     1      26.535  47.530 -15.600  1.00  0.00     0.186 HD
HETATM   11  C7  UNL     1      24.501  47.711 -15.595  1.00  0.00     0.725 A 
HETATM   12  N7  UNL     1      23.445  48.111 -16.285  1.00  0.00    -0.047 N 
ENDROOT
BRANCH  11  13
HETATM   13  N5  UNL     1      24.409  47.192 -14.405  1.00  0.00    -0.131 N 
ATOM     14  H5  UNL     1      23.989  46.271 -14.277  1.00  0.00     0.205 HD
BRANCH  13  15
HETATM   15  N6  UNL     1      24.883  47.897 -13.318  1.00  0.00    -0.276 N 
ATOM     16  H6  UNL     1      25.895  47.946 -13.201  1.00  0.00     0.184 HD
BRANCH  15  17
HETATM   17  C8  UNL     1      24.082  48.562 -12.343  1.00  0.00     0.298 C 
HETATM   18 CL1  UNL     1      23.119  49.825 -13.136  1.00  0.00    -0.067 Cl
HETATM   19 CL2  UNL     1      25.168  49.373 -11.190  1.00  0.00    -0.067 Cl
BRANCH  17  20
HETATM   20  C9  UNL     1      23.120  47.662 -11.607  1.00  0.00     0.443 C 
HETATM   21  F1  UNL     1      23.717  46.572 -11.044  1.00  0.00    -0.166 F 
HETATM   22  F2  UNL     1      22.624  48.428 -10.541  1.00  0.00    -0.166 F 
HETATM   23  F3  UNL     1      22.058  47.388 -12.409  1.00  0.00    -0.166 F 
ENDBRANCH  17  20
ENDBRANCH  15  17
ENDBRANCH  13  15
ENDBRANCH  11  13
BRANCH  12  24
HETATM   24  O1  UNL     1      22.200  47.977 -15.728  1.00  0.00    -0.269 OA
ATOM     25  H1  UNL     1      22.104  47.348 -15.022  1.00  0.00     0.245 HD
ENDBRANCH  12  24
BRANCH   1  26
HETATM   26  C2  UNL     1      22.337  49.074 -18.242  1.00  0.00     0.118 C 
BRANCH  26  27
HETATM   27  N1  UNL     1      21.605  50.062 -17.963  1.00  0.00    -0.401 N 
HETATM   28  C1  UNL     1      20.865  50.861 -18.889  1.00  0.00     0.145 C 
ATOM     29  H1  UNL     1      21.533  50.316 -16.978  1.00  0.00     0.158 HD
ENDBRANCH  26  27
ENDBRANCH   1  26
TORSDOF 7
ENDMDL
MODEL 4
REMARK VINA RESULT: -7.905239008      1.188      1.577
REMARK  7 active torsions:
REMARK  status: ('A' for Active; 'I' for Inactive)
REMARK    1  A    between atoms: N1_2  and  C2_4 
REMARK    2  A    between atoms: C2_4  and  C3_5 
REMARK    3  A    between atoms: C7_15  and  N5_16 
REMARK    4  A    between atoms: N5_16  and  N6_18 
REMARK    5  A    between atoms: N6_18  and  C8_20 
REMARK    6  A    between atoms: C8_20  and  C9_23 
REMARK    7  A    between atoms: N7_27  and  O1_28 
ROOT
HETATM    1  C3  UNL     1      23.516  48.829 -17.567  1.00  0.00     0.126 A 
HETATM    2  C4  UNL     1      24.791  48.782 -18.084  1.00  0.00     0.109 A 
HETATM    3  N2  UNL     1      25.330  49.032 -19.312  1.00  0.00    -0.347 N 
ATOM      4  H2  UNL     1      24.831  49.329 -20.151  1.00  0.00     0.167 HD
HETATM    5  C5  UNL     1      26.648  48.810 -19.194  1.00  0.00     0.182 A 
HETATM    6  N3  UNL     1      26.979  48.436 -17.974  1.00  0.00    -0.336 N 
ATOM      7  H3  UNL     1      27.916  48.211 -17.639  1.00  0.00     0.168 HD
HETATM    8  C6  UNL     1      25.830  48.410 -17.250  1.00  0.00     0.151 A 
HETATM    9  N4  UNL     1      25.612  48.099 -15.967  1.00  0.00    -0.171 N 
ATOM     10  H4  UNL     1      26.392  47.826 -15.369  1.00  0.00     0.186 HD
HETATM   11  C7  UNL     1      24.376  48.145 -15.470  1.00  0.00     0.725 A 
HETATM   12  N7  UNL     1      23.372  48.500 -16.255  1.00  0.00    -0.047 N 
ENDROOT
BRANCH  11  13
HETATM   13  N5  UNL     1      24.215  47.833 -14.217  1.00  0.00    -0.131 N 
ATOM     14  H5  UNL     1      24.536  46.930 -13.867  1.00  0.00     0.205 HD
BRANCH  13  15
HETATM   15  N6  UNL     1      23.607  48.732 -13.366  1.00  0.00    -0.276 N 
ATOM     16  H6  UNL     1      23.038  49.464 -13.791  1.00  0.00     0.184 HD
BRANCH  15  17
HETATM   17  C8  UNL     1      23.704  48.728 -11.942  1.00  0.00     0.298 C 
HETATM   18 CL1  UNL     1      23.570  47.061 -11.348  1.00  0.00    -0.067 Cl
HETATM   19 CL2  UNL     1      22.321  49.635 -11.287  1.00  0.00    -0.067 Cl
BRANCH  17  20
HETATM   20  C9  UNL     1      24.997  49.292 -11.405  1.00  0.00     0.443 C 
HETATM   21  F1  UNL     1      25.439  50.386 -12.088  1.00  0.00    -0.166 F 
HETATM   22  F2  UNL     1      24.707  49.734 -10.105  1.00  0.00    -0.166 F 
HETATM   23  F3  UNL     1      25.905  48.288 -11.275  1.00  0.00    -0.166 F 
ENDBRANCH  17  20
ENDBRANCH  15  17
ENDBRANCH  13  15
ENDBRANCH  11  13
BRANCH  12  24
HETATM   24  O1  UNL     1      22.106  48.544 -15.731  1.00  0.00    -0.269 OA
ATOM     25  H1  UNL     1      21.834  49.354 -15.316  1.00  0.00     0.245 HD
ENDBRANCH  12  24
BRANCH   1  26
HETATM   26  C2  UNL     1      22.390  49.209 -18.380  1.00  0.00     0.118 C 
BRANCH  26  27
HETATM   27  N1  UNL     1      21.571  50.136 -18.141  1.00  0.00    -0.401 N 
HETATM   28  C1  UNL     1      20.987  51.024 -19.097  1.00  0.00     0.145 C 
ATOM     29  H1  UNL     1      21.297  50.267 -17.167  1.00  0.00     0.158 HD
ENDBRANCH  26  27
ENDBRANCH   1  26
TORSDOF 7
ENDMDL
MODEL 5
REMARK VINA RESULT: -7.776855426      0.883      1.287
REMARK  7 active torsions:
REMARK  status: ('A' for Active; 'I' for Inactive)
REMARK    1  A    between atoms: N1_2  and  C2_4 
REMARK    2  A    between atoms: C2_4  and  C3_5 
REMARK    3  A    between atoms: C7_15  and  N5_16 
REMARK    4  A    between atoms: N5_16  and  N6_18 
REMARK    5  A    between atoms: N6_18  and  C8_20 
REMARK    6  A    between atoms: C8_20  and  C9_23 
REMARK    7  A    between atoms: N7_27  and  O1_28 
ROOT
HETATM    1  C3  UNL     1      23.526  48.763 -17.635  1.00  0.00     0.126 A 
HETATM    2  C4  UNL     1      24.796  48.848 -18.160  1.00  0.00     0.109 A 
HETATM    3  N2  UNL     1      25.309  49.306 -19.338  1.00  0.00    -0.347 N 
ATOM      4  H2  UNL     1      24.789  49.708 -20.117  1.00  0.00     0.167 HD
HETATM    5  C5  UNL     1      26.637  49.122 -19.263  1.00  0.00     0.182 A 
HETATM    6  N3  UNL     1      26.997  48.579 -18.118  1.00  0.00    -0.336 N 
ATOM      7  H3  UNL     1      27.946  48.343 -17.828  1.00  0.00     0.168 HD
HETATM    8  C6  UNL     1      25.859  48.394 -17.400  1.00  0.00     0.151 A 
HETATM    9  N4  UNL     1      25.669  47.881 -16.179  1.00  0.00    -0.171 N 
ATOM     10  H4  UNL     1      26.466  47.551 -15.635  1.00  0.00     0.186 HD
HETATM   11  C7  UNL     1      24.439  47.799 -15.674  1.00  0.00     0.725 A 
HETATM   12  N7  UNL     1      23.411  48.229 -16.388  1.00  0.00    -0.047 N 
ENDROOT
BRANCH  11  13
HETATM   13  N5  UNL     1      24.305  47.291 -14.483  1.00  0.00    -0.131 N 
ATOM     14  H5  UNL     1      23.807  46.411 -14.353  1.00  0.00     0.205 HD
BRANCH  13  15
HETATM   15  N6  UNL     1      24.843  47.952 -13.398  1.00  0.00    -0.276 N 
ATOM     16  H6  UNL     1      25.844  48.148 -13.421  1.00  0.00     0.184 HD
BRANCH  15  17
HETATM   17  C8  UNL     1      24.122  48.385 -12.246  1.00  0.00     0.298 C 
HETATM   18 CL1  UNL     1      25.153  49.454 -11.274  1.00  0.00    -0.067 Cl
HETATM   19 CL2  UNL     1      23.755  46.958 -11.250  1.00  0.00    -0.067 Cl
BRANCH  17  20
HETATM   20  C9  UNL     1      22.855  49.145 -12.552  1.00  0.00     0.443 C 
HETATM   21  F1  UNL     1      21.779  48.338 -12.782  1.00  0.00    -0.166 F 
HETATM   22  F2  UNL     1      22.556  49.871 -11.390  1.00  0.00    -0.166 F 
HETATM   23  F3  UNL     1      23.105  50.062 -13.524  1.00  0.00    -0.166 F 
ENDBRANCH  17  20
ENDBRANCH  15  17
ENDBRANCH  13  15
ENDBRANCH  11  13
BRANCH  12  24
HETATM   24  O1  UNL     1      22.152  48.140 -15.856  1.00  0.00    -0.269 OA
ATOM     25  H1  UNL     1      22.031  47.552 -15.119  1.00  0.00     0.245 HD
ENDBRANCH  12  24
BRANCH   1  26
HETATM   26  C2  UNL     1      22.377  49.217 -18.372  1.00  0.00     0.118 C 
BRANCH  26  27
HETATM   27  N1  UNL     1      21.547  50.092 -18.004  1.00  0.00    -0.401 N 
HETATM   28  C1  UNL     1      20.748  50.918 -18.855  1.00  0.00     0.145 C 
ATOM     29  H1  UNL     1      21.436  50.225 -16.999  1.00  0.00     0.158 HD
ENDBRANCH  26  27
ENDBRANCH   1  26
TORSDOF 7
ENDMDL
