MODEL 1
REMARK VINA RESULT: -7.542418055      0.000      0.000
REMARK  7 active torsions:
REMARK  status: ('A' for Active; 'I' for Inactive)
REMARK    1  A    between atoms: C5_7  and  C6_8 
REMARK       I    between atoms: C6_8  and  N2_10 
REMARK    2  A    between atoms: N2_10  and  N3_12 
REMARK    3  A    between atoms: N3_12  and  C7_14 
REMARK    4  A    between atoms: C7_14  and  C8_18 
REMARK    5  A    between atoms: C8_18  and  N5_19 
REMARK    6  A    between atoms: C8_18  and  O2_23 
REMARK    7  A    between atoms: C8_18  and  C9_25 
ROOT
HETATM    1  C7  UNL     1      23.942  48.308 -11.367  1.00  0.00     0.163 C 
HETATM    2  N4  UNL     1      24.726  47.422 -10.890  1.00  0.00    -0.384 N 
ATOM      3  H41 UNL     1      24.275  46.652 -10.398  1.00  0.00     0.157 HD
ATOM      4  H42 UNL     1      25.744  47.388 -10.934  1.00  0.00     0.157 HD
ENDROOT
BRANCH   1   5
HETATM    5  N3  UNL     1      24.580  49.396 -12.064  1.00  0.00    -0.282 N 
ATOM      6  H3  UNL     1      25.119  50.084 -11.537  1.00  0.00     0.188 HD
BRANCH   5   7
HETATM    7  N2  UNL     1      24.469  49.525 -13.462  1.00  0.00    -0.263 N 
HETATM    8  C6  UNL     1      25.118  48.645 -14.323  1.00  0.00     0.286 C 
HETATM    9  O1  UNL     1      25.812  47.727 -13.727  1.00  0.00    -0.264 OA
ATOM     10  H2  UNL     1      23.901  50.277 -13.852  1.00  0.00     0.190 HD
BRANCH   8  11
HETATM   11  C5  UNL     1      25.116  48.634 -15.756  1.00  0.00     0.105 A 
HETATM   12  N1  UNL     1      24.201  48.110 -16.598  1.00  0.00    -0.355 N 
HETATM   13  C1  UNL     1      22.964  47.413 -16.298  1.00  0.00     0.156 C 
HETATM   14  C2  UNL     1      24.644  48.352 -17.867  1.00  0.00     0.110 A 
HETATM   15  C3  UNL     1      25.833  49.025 -17.843  1.00  0.00     0.028 A 
HETATM   16 BR1  UNL     1      26.831  49.584 -19.377  1.00  0.00    -0.050 Br
HETATM   17  C4  UNL     1      26.141  49.209 -16.519  1.00  0.00     0.056 A 
ENDBRANCH   8  11
ENDBRANCH   5   7
ENDBRANCH   1   5
BRANCH   1  18
HETATM   18  C8  UNL     1      22.484  48.356 -11.305  1.00  0.00     0.380 C 
BRANCH  18  19
HETATM   19  N5  UNL     1      22.095  49.749 -11.050  1.00  0.00    -0.030 N 
ATOM     20  H53 UNL     1      22.826  50.286 -10.582  1.00  0.00     0.278 HD
ATOM     21  H52 UNL     1      22.042  50.309 -11.901  1.00  0.00     0.278 HD
ATOM     22  H51 UNL     1      21.219  49.735 -10.528  1.00  0.00     0.278 HD
ENDBRANCH  18  19
BRANCH  18  23
HETATM   23  O2  UNL     1      22.106  47.621 -10.154  1.00  0.00    -0.352 OA
ATOM     24  H2  UNL     1      21.191  47.395 -10.268  1.00  0.00     0.213 HD
ENDBRANCH  18  23
BRANCH  18  25
HETATM   25  C9  UNL     1      21.766  47.755 -12.476  1.00  0.00     0.453 C 
HETATM   26  F1  UNL     1      20.582  47.164 -12.157  1.00  0.00    -0.166 F 
HETATM   27  F2  UNL     1      22.619  46.865 -13.117  1.00  0.00    -0.166 F 
HETATM   28  F3  UNL     1      21.530  48.771 -13.416  1.00  0.00    -0.166 F 
ENDBRANCH  18  25
ENDBRANCH   1  18
TORSDOF 7
ENDMDL
MODEL 2
REMARK VINA RESULT: -7.538948345      1.350      1.814
REMARK  7 active torsions:
REMARK  status: ('A' for Active; 'I' for Inactive)
REMARK    1  A    between atoms: C5_7  and  C6_8 
REMARK       I    between atoms: C6_8  and  N2_10 
REMARK    2  A    between atoms: N2_10  and  N3_12 
REMARK    3  A    between atoms: N3_12  and  C7_14 
REMARK    4  A    between atoms: C7_14  and  C8_18 
REMARK    5  A    between atoms: C8_18  and  N5_19 
REMARK    6  A    between atoms: C8_18  and  O2_23 
REMARK    7  A    between atoms: C8_18  and  C9_25 
ROOT
HETATM    1  C7  UNL     1      24.340  47.642 -11.588  1.00  0.00     0.163 C 
HETATM    2  N4  UNL     1      24.016  46.618 -10.899  1.00  0.00    -0.384 N 
ATOM      3  H41 UNL     1      23.326  46.779 -10.166  1.00  0.00     0.157 HD
ATOM      4  H42 UNL     1      24.361  45.662 -10.985  1.00  0.00     0.157 HD
ENDROOT
BRANCH   1   5
HETATM    5  N3  UNL     1      25.315  47.413 -12.625  1.00  0.00    -0.282 N 
ATOM      6  H3  UNL     1      26.287  47.237 -12.372  1.00  0.00     0.188 HD
BRANCH   5   7
HETATM    7  N2  UNL     1      24.943  47.430 -13.983  1.00  0.00    -0.263 N 
HETATM    8  C6  UNL     1      25.456  48.379 -14.862  1.00  0.00     0.286 C 
HETATM    9  O1  UNL     1      26.282  49.218 -14.322  1.00  0.00    -0.264 OA
ATOM     10  H2  UNL     1      24.285  46.732 -14.330  1.00  0.00     0.190 HD
BRANCH   8  11
HETATM   11  C5  UNL     1      25.185  48.540 -16.260  1.00  0.00     0.105 A 
HETATM   12  N1  UNL     1      24.066  48.230 -16.948  1.00  0.00    -0.355 N 
HETATM   13  C1  UNL     1      22.823  47.651 -16.475  1.00  0.00     0.156 C 
HETATM   14  C2  UNL     1      24.295  48.570 -18.252  1.00  0.00     0.110 A 
HETATM   15  C3  UNL     1      25.548  49.093 -18.401  1.00  0.00     0.028 A 
HETATM   16 BR1  UNL     1      26.310  49.712 -20.044  1.00  0.00    -0.050 Br
HETATM   17  C4  UNL     1      26.119  49.080 -17.154  1.00  0.00     0.056 A 
ENDBRANCH   8  11
ENDBRANCH   5   7
ENDBRANCH   1   5
BRANCH   1  18
HETATM   18  C8  UNL     1      23.846  49.010 -11.466  1.00  0.00     0.380 C 
BRANCH  18  19
HETATM   19  N5  UNL     1      24.977  49.915 -11.708  1.00  0.00    -0.030 N 
ATOM     20  H53 UNL     1      25.713  49.488 -12.271  1.00  0.00     0.278 HD
ATOM     21  H52 UNL     1      24.746  50.678 -12.345  1.00  0.00     0.278 HD
ATOM     22  H51 UNL     1      25.310  50.242 -10.801  1.00  0.00     0.278 HD
ENDBRANCH  18  19
BRANCH  18  23
HETATM   23  O2  UNL     1      23.480  49.186 -10.108  1.00  0.00    -0.352 OA
ATOM     24  H2  UNL     1      22.738  49.779 -10.104  1.00  0.00     0.213 HD
ENDBRANCH  18  23
BRANCH  18  25
HETATM   25  C9  UNL     1      22.644  49.342 -12.299  1.00  0.00     0.453 C 
HETATM   26  F1  UNL     1      22.929  50.047 -13.427  1.00  0.00    -0.166 F 
HETATM   27  F2  UNL     1      21.717  50.007 -11.506  1.00  0.00    -0.166 F 
HETATM   28  F3  UNL     1      22.014  48.139 -12.660  1.00  0.00    -0.166 F 
ENDBRANCH  18  25
ENDBRANCH   1  18
TORSDOF 7
ENDMDL
MODEL 3
REMARK VINA RESULT: -7.497300512      2.122      2.556
REMARK  7 active torsions:
REMARK  status: ('A' for Active; 'I' for Inactive)
REMARK    1  A    between atoms: C5_7  and  C6_8 
REMARK       I    between atoms: C6_8  and  N2_10 
REMARK    2  A    between atoms: N2_10  and  N3_12 
REMARK    3  A    between atoms: N3_12  and  C7_14 
REMARK    4  A    between atoms: C7_14  and  C8_18 
REMARK    5  A    between atoms: C8_18  and  N5_19 
REMARK    6  A    between atoms: C8_18  and  O2_23 
REMARK    7  A    between atoms: C8_18  and  C9_25 
ROOT
HETATM    1  C7  UNL     1      24.056  47.524 -11.887  1.00  0.00     0.163 C 
HETATM    2  N4  UNL     1      24.920  47.650 -10.957  1.00  0.00    -0.384 N 
ATOM      3  H41 UNL     1      24.569  48.025 -10.076  1.00  0.00     0.157 HD
ATOM      4  H42 UNL     1      25.915  47.430 -10.983  1.00  0.00     0.157 HD
ENDROOT
BRANCH   1   5
HETATM    5  N3  UNL     1      24.552  46.994 -13.132  1.00  0.00    -0.282 N 
ATOM      6  H3  UNL     1      24.844  46.019 -13.183  1.00  0.00     0.188 HD
BRANCH   5   7
HETATM    7  N2  UNL     1      24.638  47.805 -14.281  1.00  0.00    -0.263 N 
HETATM    8  C6  UNL     1      23.917  47.507 -15.433  1.00  0.00     0.286 C 
HETATM    9  O1  UNL     1      23.183  46.443 -15.344  1.00  0.00    -0.264 OA
ATOM     10  H2  UNL     1      25.241  48.628 -14.268  1.00  0.00     0.190 HD
BRANCH   8  11
HETATM   11  C5  UNL     1      23.891  48.216 -16.678  1.00  0.00     0.105 A 
HETATM   12  N1  UNL     1      24.914  48.517 -17.504  1.00  0.00    -0.355 N 
HETATM   13  C1  UNL     1      26.326  48.211 -17.372  1.00  0.00     0.156 C 
HETATM   14  C2  UNL     1      24.383  49.201 -18.561  1.00  0.00     0.110 A 
HETATM   15  C3  UNL     1      23.032  49.339 -18.417  1.00  0.00     0.028 A 
HETATM   16 BR1  UNL     1      21.862  50.221 -19.647  1.00  0.00    -0.050 Br
HETATM   17  C4  UNL     1      22.708  48.722 -17.235  1.00  0.00     0.056 A 
ENDBRANCH   8  11
ENDBRANCH   5   7
ENDBRANCH   1   5
BRANCH   1  18
HETATM   18  C8  UNL     1      22.630  47.839 -11.849  1.00  0.00     0.380 C 
BRANCH  18  19
HETATM   19  N5  UNL     1      22.100  47.346 -10.572  1.00  0.00    -0.030 N 
ATOM     20  H53 UNL     1      22.203  46.337 -10.462  1.00  0.00     0.278 HD
ATOM     21  H52 UNL     1      22.667  47.626  -9.771  1.00  0.00     0.278 HD
ATOM     22  H51 UNL     1      21.131  47.656 -10.500  1.00  0.00     0.278 HD
ENDBRANCH  18  19
BRANCH  18  23
HETATM   23  O2  UNL     1      22.020  47.057 -12.861  1.00  0.00    -0.352 OA
ATOM     24  H2  UNL     1      22.240  47.469 -13.689  1.00  0.00     0.213 HD
ENDBRANCH  18  23
BRANCH  18  25
HETATM   25  C9  UNL     1      22.276  49.271 -12.115  1.00  0.00     0.453 C 
HETATM   26  F1  UNL     1      21.412  49.806 -11.210  1.00  0.00    -0.166 F 
HETATM   27  F2  UNL     1      21.784  49.379 -13.410  1.00  0.00    -0.166 F 
HETATM   28  F3  UNL     1      23.461  50.025 -12.115  1.00  0.00    -0.166 F 
ENDBRANCH  18  25
ENDBRANCH   1  18
TORSDOF 7
ENDMDL
MODEL 4
REMARK VINA RESULT: -7.398067345      2.155      2.653
REMARK  7 active torsions:
REMARK  status: ('A' for Active; 'I' for Inactive)
REMARK    1  A    between atoms: C5_7  and  C6_8 
REMARK       I    between atoms: C6_8  and  N2_10 
REMARK    2  A    between atoms: N2_10  and  N3_12 
REMARK    3  A    between atoms: N3_12  and  C7_14 
REMARK    4  A    between atoms: C7_14  and  C8_18 
REMARK    5  A    between atoms: C8_18  and  N5_19 
REMARK    6  A    between atoms: C8_18  and  O2_23 
REMARK    7  A    between atoms: C8_18  and  C9_25 
ROOT
HETATM    1  C7  UNL     1      23.340  47.236 -13.005  1.00  0.00     0.163 C 
HETATM    2  N4  UNL     1      24.475  46.964 -12.491  1.00  0.00    -0.384 N 
ATOM      3  H41 UNL     1      24.574  47.178 -11.499  1.00  0.00     0.157 HD
ATOM      4  H42 UNL     1      25.296  46.565 -12.945  1.00  0.00     0.157 HD
ENDROOT
BRANCH   1   5
HETATM    5  N3  UNL     1      23.200  46.933 -14.406  1.00  0.00    -0.282 N 
ATOM      6  H3  UNL     1      22.355  46.466 -14.738  1.00  0.00     0.188 HD
BRANCH   5   7
HETATM    7  N2  UNL     1      24.213  47.271 -15.325  1.00  0.00    -0.263 N 
HETATM    8  C6  UNL     1      23.997  48.215 -16.325  1.00  0.00     0.286 C 
HETATM    9  O1  UNL     1      22.809  48.733 -16.325  1.00  0.00    -0.264 OA
ATOM     10  H2  UNL     1      25.123  46.816 -15.256  1.00  0.00     0.190 HD
BRANCH   8  11
HETATM   11  C5  UNL     1      24.907  48.671 -17.333  1.00  0.00     0.105 A 
HETATM   12  N1  UNL     1      26.250  48.781 -17.276  1.00  0.00    -0.355 N 
HETATM   13  C1  UNL     1      27.155  48.471 -16.185  1.00  0.00     0.156 C 
HETATM   14  C2  UNL     1      26.661  49.262 -18.487  1.00  0.00     0.110 A 
HETATM   15  C3  UNL     1      25.593  49.459 -19.316  1.00  0.00     0.028 A 
HETATM   16 BR1  UNL     1      25.680  50.117 -21.110  1.00  0.00    -0.050 Br
HETATM   17  C4  UNL     1      24.482  49.090 -18.601  1.00  0.00     0.056 A 
ENDBRANCH   8  11
ENDBRANCH   5   7
ENDBRANCH   1   5
BRANCH   1  18
HETATM   18  C8  UNL     1      22.163  47.807 -12.354  1.00  0.00     0.380 C 
BRANCH  18  19
HETATM   19  N5  UNL     1      22.071  47.221 -11.010  1.00  0.00    -0.030 N 
ATOM     20  H53 UNL     1      21.689  46.275 -11.015  1.00  0.00     0.278 HD
ATOM     21  H52 UNL     1      22.982  46.996 -10.611  1.00  0.00     0.278 HD
ATOM     22  H51 UNL     1      21.531  47.864 -10.430  1.00  0.00     0.278 HD
ENDBRANCH  18  19
BRANCH  18  23
HETATM   23  O2  UNL     1      21.037  47.333 -13.072  1.00  0.00    -0.352 OA
ATOM     24  H2  UNL     1      20.585  46.728 -12.495  1.00  0.00     0.213 HD
ENDBRANCH  18  23
BRANCH  18  25
HETATM   25  C9  UNL     1      22.090  49.304 -12.345  1.00  0.00     0.453 C 
HETATM   26  F1  UNL     1      21.280  49.814 -11.378  1.00  0.00    -0.166 F 
HETATM   27  F2  UNL     1      21.711  49.743 -13.607  1.00  0.00    -0.166 F 
HETATM   28  F3  UNL     1      23.389  49.807 -12.163  1.00  0.00    -0.166 F 
ENDBRANCH  18  25
ENDBRANCH   1  18
TORSDOF 7
ENDMDL
MODEL 5
REMARK VINA RESULT: -7.390928813      2.523      3.240
REMARK  7 active torsions:
REMARK  status: ('A' for Active; 'I' for Inactive)
REMARK    1  A    between atoms: C5_7  and  C6_8 
REMARK       I    between atoms: C6_8  and  N2_10 
REMARK    2  A    between atoms: N2_10  and  N3_12 
REMARK    3  A    between atoms: N3_12  and  C7_14 
REMARK    4  A    between atoms: C7_14  and  C8_18 
REMARK    5  A    between atoms: C8_18  and  N5_19 
REMARK    6  A    between atoms: C8_18  and  O2_23 
REMARK    7  A    between atoms: C8_18  and  C9_25 
ROOT
HETATM    1  C7  UNL     1      22.698  47.894 -12.128  1.00  0.00     0.163 C 
HETATM    2  N4  UNL     1      21.769  48.180 -11.302  1.00  0.00    -0.384 N 
ATOM      3  H41 UNL     1      22.074  48.573 -10.412  1.00  0.00     0.157 HD
ATOM      4  H42 UNL     1      20.763  48.059 -11.414  1.00  0.00     0.157 HD
ENDROOT
BRANCH   1   5
HETATM    5  N3  UNL     1      22.266  47.339 -13.386  1.00  0.00    -0.282 N 
ATOM      6  H3  UNL     1      21.943  46.372 -13.424  1.00  0.00     0.188 HD
BRANCH   5   7
HETATM    7  N2  UNL     1      22.283  48.112 -14.563  1.00  0.00    -0.263 N 
HETATM    8  C6  UNL     1      23.138  47.806 -15.617  1.00  0.00     0.286 C 
HETATM    9  O1  UNL     1      23.891  46.772 -15.413  1.00  0.00    -0.264 OA
ATOM     10  H2  UNL     1      21.656  48.912 -14.644  1.00  0.00     0.190 HD
BRANCH   8  11
HETATM   11  C5  UNL     1      23.285  48.482 -16.872  1.00  0.00     0.105 A 
HETATM   12  N1  UNL     1      24.389  48.623 -17.635  1.00  0.00    -0.355 N 
HETATM   13  C1  UNL     1      25.736  48.134 -17.407  1.00  0.00     0.156 C 
HETATM   14  C2  UNL     1      24.023  49.347 -18.734  1.00  0.00     0.110 A 
HETATM   15  C3  UNL     1      22.696  49.669 -18.680  1.00  0.00     0.028 A 
HETATM   16 BR1  UNL     1      21.735  50.670 -19.997  1.00  0.00    -0.050 Br
HETATM   17  C4  UNL     1      22.219  49.130 -17.512  1.00  0.00     0.056 A 
ENDBRANCH   8  11
ENDBRANCH   5   7
ENDBRANCH   1   5
BRANCH   1  18
HETATM   18  C8  UNL     1      24.139  48.067 -11.967  1.00  0.00     0.380 C 
BRANCH  18  19
HETATM   19  N5  UNL     1      24.795  46.883 -12.537  1.00  0.00    -0.030 N 
ATOM     20  H53 UNL     1      24.389  46.595 -13.428  1.00  0.00     0.278 HD
ATOM     21  H52 UNL     1      25.738  47.076 -12.876  1.00  0.00     0.278 HD
ATOM     22  H51 UNL     1      24.769  46.146 -11.833  1.00  0.00     0.278 HD
ENDBRANCH  18  19
BRANCH  18  23
HETATM   23  O2  UNL     1      24.395  48.030 -10.574  1.00  0.00    -0.352 OA
ATOM     24  H2  UNL     1      23.781  48.634 -10.172  1.00  0.00     0.213 HD
ENDBRANCH  18  23
BRANCH  18  25
HETATM   25  C9  UNL     1      24.700  49.355 -12.491  1.00  0.00     0.453 C 
HETATM   26  F1  UNL     1      23.761  50.306 -12.746  1.00  0.00    -0.166 F 
HETATM   27  F2  UNL     1      25.466  49.085 -13.618  1.00  0.00    -0.166 F 
HETATM   28  F3  UNL     1      25.611  49.855 -11.546  1.00  0.00    -0.166 F 
ENDBRANCH  18  25
ENDBRANCH   1  18
TORSDOF 7
ENDMDL
