MODEL 1
REMARK VINA RESULT: -8.577516083      0.000      0.000
REMARK  8 active torsions:
REMARK  status: ('A' for Active; 'I' for Inactive)
REMARK       I    between atoms: C1_2  and  N1_3 
REMARK    1  A    between atoms: C1_2  and  C5_22 
REMARK    2  A    between atoms: N1_3  and  N2_5 
REMARK    3  A    between atoms: N2_5  and  C2_7 
REMARK    4  A    between atoms: C2_7  and  N3_9 
REMARK    5  A    between atoms: N3_9  and  S2_11 
REMARK    6  A    between atoms: S2_11  and  C3_14 
REMARK    7  A    between atoms: C3_14  and  C4_17 
REMARK    8  A    between atoms: C4_17  and  O4_18 
ROOT
HETATM    1  C2  UNL     1      23.269  46.943 -14.182  1.00  0.00     0.200 C 
HETATM    2  S1  UNL     1      21.792  47.356 -13.500  1.00  0.00    -0.039 SA
ENDROOT
BRANCH   1   3
HETATM    3  N2  UNL     1      23.237  46.473 -15.524  1.00  0.00    -0.273 N 
ATOM      4  H2  UNL     1      22.551  45.775 -15.812  1.00  0.00     0.189 HD
BRANCH   3   5
HETATM    5  N1  UNL     1      24.168  46.987 -16.450  1.00  0.00    -0.262 N 
HETATM    6  C1  UNL     1      23.923  48.205 -17.120  1.00  0.00     0.286 C 
HETATM    7  O1  UNL     1      22.902  48.905 -16.948  1.00  0.00    -0.264 OA
ATOM      8  H1  UNL     1      25.028  46.473 -16.639  1.00  0.00     0.190 HD
BRANCH   6   9
HETATM    9  C5  UNL     1      24.941  48.689 -18.078  1.00  0.00     0.102 A 
HETATM   10  C6  UNL     1      24.695  49.253 -19.323  1.00  0.00     0.036 A 
HETATM   11  C7  UNL     1      25.896  49.580 -19.919  1.00  0.00     0.019 A 
HETATM   12  C8  UNL     1      26.882  49.193 -18.997  1.00  0.00     0.088 A 
HETATM   13  N4  UNL     1      26.274  48.673 -17.921  1.00  0.00    -0.361 N 
ATOM     14  H4  UNL     1      26.757  48.315 -17.097  1.00  0.00     0.165 HD
ENDBRANCH   6   9
ENDBRANCH   3   5
ENDBRANCH   1   3
BRANCH   1  15
HETATM   15  N3  UNL     1      24.420  47.060 -13.434  1.00  0.00    -0.254 N 
ATOM     16  H3  UNL     1      24.660  46.242 -12.874  1.00  0.00     0.181 HD
BRANCH  15  17
HETATM   17  S2  UNL     1      25.493  48.357 -13.308  1.00  0.00     0.310 S 
HETATM   18  O2  UNL     1      26.819  47.917 -12.780  1.00  0.00    -0.199 OA
HETATM   19  O3  UNL     1      25.765  49.013 -14.659  1.00  0.00    -0.199 OA
BRANCH  17  20
HETATM   20  C3  UNL     1      24.848  49.642 -12.234  1.00  0.00     0.453 C 
HETATM   21  F1  UNL     1      23.773  50.289 -12.782  1.00  0.00    -0.177 F 
HETATM   22  F2  UNL     1      25.858  50.568 -11.996  1.00  0.00    -0.177 F 
BRANCH  20  23
HETATM   23  C4  UNL     1      24.504  48.952 -10.915  1.00  0.00     0.435 C 
HETATM   24  F3  UNL     1      23.138  48.675 -10.841  1.00  0.00    -0.168 F 
HETATM   25  F4  UNL     1      24.826  49.834  -9.885  1.00  0.00    -0.168 F 
BRANCH  23  26
HETATM   26  O4  UNL     1      25.167  47.725 -10.774  1.00  0.00    -0.331 OA
ATOM     27  H4  UNL     1      25.118  47.393  -9.886  1.00  0.00     0.216 HD
ENDBRANCH  23  26
ENDBRANCH  20  23
ENDBRANCH  17  20
ENDBRANCH  15  17
ENDBRANCH   1  15
TORSDOF 8
ENDMDL
MODEL 2
REMARK VINA RESULT: -8.364361270      3.057      3.740
REMARK  8 active torsions:
REMARK  status: ('A' for Active; 'I' for Inactive)
REMARK       I    between atoms: C1_2  and  N1_3 
REMARK    1  A    between atoms: C1_2  and  C5_22 
REMARK    2  A    between atoms: N1_3  and  N2_5 
REMARK    3  A    between atoms: N2_5  and  C2_7 
REMARK    4  A    between atoms: C2_7  and  N3_9 
REMARK    5  A    between atoms: N3_9  and  S2_11 
REMARK    6  A    between atoms: S2_11  and  C3_14 
REMARK    7  A    between atoms: C3_14  and  C4_17 
REMARK    8  A    between atoms: C4_17  and  O4_18 
ROOT
HETATM    1  C2  UNL     1      23.655  48.004 -15.429  1.00  0.00     0.200 C 
HETATM    2  S1  UNL     1      25.115  47.736 -16.214  1.00  0.00    -0.039 SA
ENDROOT
BRANCH   1   3
HETATM    3  N2  UNL     1      22.491  48.019 -16.246  1.00  0.00    -0.273 N 
ATOM      4  H2  UNL     1      21.918  47.181 -16.347  1.00  0.00     0.189 HD
BRANCH   3   5
HETATM    5  N1  UNL     1      22.142  49.211 -16.915  1.00  0.00    -0.262 N 
HETATM    6  C1  UNL     1      22.191  49.290 -18.323  1.00  0.00     0.286 C 
HETATM    7  O1  UNL     1      22.530  48.342 -19.065  1.00  0.00    -0.264 OA
ATOM      8  H1  UNL     1      21.850  50.025 -16.375  1.00  0.00     0.190 HD
BRANCH   6   9
HETATM    9  C5  UNL     1      21.811  50.568 -18.962  1.00  0.00     0.102 A 
HETATM   10  C6  UNL     1      22.270  51.046 -20.182  1.00  0.00     0.036 A 
HETATM   11  C7  UNL     1      21.687  52.270 -20.441  1.00  0.00     0.019 A 
HETATM   12  C8  UNL     1      20.860  52.524 -19.334  1.00  0.00     0.088 A 
HETATM   13  N4  UNL     1      20.961  51.491 -18.485  1.00  0.00    -0.361 N 
ATOM     14  H4  UNL     1      20.462  51.417 -17.598  1.00  0.00     0.165 HD
ENDBRANCH   6   9
ENDBRANCH   3   5
ENDBRANCH   1   3
BRANCH   1  15
HETATM   15  N3  UNL     1      23.643  48.205 -14.067  1.00  0.00    -0.254 N 
ATOM     16  H3  UNL     1      24.321  47.655 -13.540  1.00  0.00     0.181 HD
BRANCH  15  17
HETATM   17  S2  UNL     1      22.672  49.229 -13.141  1.00  0.00     0.310 S 
HETATM   18  O2  UNL     1      23.487  50.265 -12.439  1.00  0.00    -0.199 OA
HETATM   19  O3  UNL     1      21.656  49.986 -13.992  1.00  0.00    -0.199 OA
BRANCH  17  20
HETATM   20  C3  UNL     1      21.734  48.313 -11.915  1.00  0.00     0.453 C 
HETATM   21  F1  UNL     1      20.948  47.343 -12.477  1.00  0.00    -0.177 F 
HETATM   22  F2  UNL     1      20.922  49.205 -11.222  1.00  0.00    -0.177 F 
BRANCH  20  23
HETATM   23  C4  UNL     1      22.763  47.740 -10.942  1.00  0.00     0.435 C 
HETATM   24  F3  UNL     1      23.723  46.988 -11.621  1.00  0.00    -0.168 F 
HETATM   25  F4  UNL     1      22.085  46.894 -10.066  1.00  0.00    -0.168 F 
BRANCH  23  26
HETATM   26  O4  UNL     1      23.457  48.747 -10.258  1.00  0.00    -0.331 OA
ATOM     27  H4  UNL     1      23.885  49.352 -10.852  1.00  0.00     0.216 HD
ENDBRANCH  23  26
ENDBRANCH  20  23
ENDBRANCH  17  20
ENDBRANCH  15  17
ENDBRANCH   1  15
TORSDOF 8
ENDMDL
MODEL 3
REMARK VINA RESULT: -8.359362228      3.132      3.753
REMARK  8 active torsions:
REMARK  status: ('A' for Active; 'I' for Inactive)
REMARK       I    between atoms: C1_2  and  N1_3 
REMARK    1  A    between atoms: C1_2  and  C5_22 
REMARK    2  A    between atoms: N1_3  and  N2_5 
REMARK    3  A    between atoms: N2_5  and  C2_7 
REMARK    4  A    between atoms: C2_7  and  N3_9 
REMARK    5  A    between atoms: N3_9  and  S2_11 
REMARK    6  A    between atoms: S2_11  and  C3_14 
REMARK    7  A    between atoms: C3_14  and  C4_17 
REMARK    8  A    between atoms: C4_17  and  O4_18 
ROOT
HETATM    1  C2  UNL     1      23.845  48.118 -15.676  1.00  0.00     0.200 C 
HETATM    2  S1  UNL     1      25.017  47.340 -16.592  1.00  0.00    -0.039 SA
ENDROOT
BRANCH   1   3
HETATM    3  N2  UNL     1      22.534  48.156 -16.227  1.00  0.00    -0.273 N 
ATOM      4  H2  UNL     1      21.907  47.357 -16.128  1.00  0.00     0.189 HD
BRANCH   3   5
HETATM    5  N1  UNL     1      22.115  49.315 -16.913  1.00  0.00    -0.262 N 
HETATM    6  C1  UNL     1      22.192  49.389 -18.320  1.00  0.00     0.286 C 
HETATM    7  O1  UNL     1      22.616  48.464 -19.047  1.00  0.00    -0.264 OA
ATOM      8  H1  UNL     1      21.753  50.109 -16.385  1.00  0.00     0.190 HD
BRANCH   6   9
HETATM    9  C5  UNL     1      21.735  50.632 -18.977  1.00  0.00     0.102 A 
HETATM   10  C6  UNL     1      22.022  51.029 -20.277  1.00  0.00     0.036 A 
HETATM   11  C7  UNL     1      21.417  52.244 -20.526  1.00  0.00     0.019 A 
HETATM   12  C8  UNL     1      20.755  52.577 -19.333  1.00  0.00     0.088 A 
HETATM   13  N4  UNL     1      20.967  51.596 -18.444  1.00  0.00    -0.361 N 
ATOM     14  H4  UNL     1      20.596  51.583 -17.493  1.00  0.00     0.165 HD
ENDBRANCH   6   9
ENDBRANCH   3   5
ENDBRANCH   1   3
BRANCH   1  15
HETATM   15  N3  UNL     1      24.190  48.683 -14.469  1.00  0.00    -0.254 N 
ATOM     16  H3  UNL     1      25.190  48.715 -14.274  1.00  0.00     0.181 HD
BRANCH  15  17
HETATM   17  S2  UNL     1      23.201  49.333 -13.265  1.00  0.00     0.310 S 
HETATM   18  O2  UNL     1      23.866  50.475 -12.571  1.00  0.00    -0.199 OA
HETATM   19  O3  UNL     1      21.890  49.876 -13.827  1.00  0.00    -0.199 OA
BRANCH  17  20
HETATM   20  C3  UNL     1      22.761  48.097 -12.039  1.00  0.00     0.453 C 
HETATM   21  F1  UNL     1      23.738  47.151 -11.878  1.00  0.00    -0.177 F 
HETATM   22  F2  UNL     1      21.588  47.469 -12.444  1.00  0.00    -0.177 F 
BRANCH  20  23
HETATM   23  C4  UNL     1      22.477  48.868 -10.751  1.00  0.00     0.435 C 
HETATM   24  F3  UNL     1      23.666  49.267 -10.139  1.00  0.00    -0.168 F 
HETATM   25  F4  UNL     1      21.810  48.004  -9.885  1.00  0.00    -0.168 F 
BRANCH  23  26
HETATM   26  O4  UNL     1      21.740  50.036 -10.989  1.00  0.00    -0.331 OA
ATOM     27  H4  UNL     1      22.261  50.820 -10.855  1.00  0.00     0.216 HD
ENDBRANCH  23  26
ENDBRANCH  20  23
ENDBRANCH  17  20
ENDBRANCH  15  17
ENDBRANCH   1  15
TORSDOF 8
ENDMDL
MODEL 4
REMARK VINA RESULT: -8.199523607      2.535      3.506
REMARK  8 active torsions:
REMARK  status: ('A' for Active; 'I' for Inactive)
REMARK       I    between atoms: C1_2  and  N1_3 
REMARK    1  A    between atoms: C1_2  and  C5_22 
REMARK    2  A    between atoms: N1_3  and  N2_5 
REMARK    3  A    between atoms: N2_5  and  C2_7 
REMARK    4  A    between atoms: C2_7  and  N3_9 
REMARK    5  A    between atoms: N3_9  and  S2_11 
REMARK    6  A    between atoms: S2_11  and  C3_14 
REMARK    7  A    between atoms: C3_14  and  C4_17 
REMARK    8  A    between atoms: C4_17  and  O4_18 
ROOT
HETATM    1  C2  UNL     1      23.954  47.490 -14.784  1.00  0.00     0.200 C 
HETATM    2  S1  UNL     1      25.498  48.137 -14.901  1.00  0.00    -0.039 SA
ENDROOT
BRANCH   1   3
HETATM    3  N2  UNL     1      23.311  47.160 -16.009  1.00  0.00    -0.273 N 
ATOM      4  H2  UNL     1      23.407  46.228 -16.411  1.00  0.00     0.189 HD
BRANCH   3   5
HETATM    5  N1  UNL     1      22.539  48.144 -16.661  1.00  0.00    -0.262 N 
HETATM    6  C1  UNL     1      23.010  48.771 -17.835  1.00  0.00     0.286 C 
HETATM    7  O1  UNL     1      24.107  48.510 -18.376  1.00  0.00    -0.264 OA
ATOM      8  H1  UNL     1      21.630  48.406 -16.280  1.00  0.00     0.190 HD
BRANCH   6   9
HETATM    9  C5  UNL     1      22.151  49.794 -18.470  1.00  0.00     0.102 A 
HETATM   10  C6  UNL     1      22.329  50.350 -19.730  1.00  0.00     0.036 A 
HETATM   11  C7  UNL     1      21.325  51.266 -19.969  1.00  0.00     0.019 A 
HETATM   12  C8  UNL     1      20.531  51.252 -18.811  1.00  0.00     0.088 A 
HETATM   13  N4  UNL     1      21.054  50.366 -17.950  1.00  0.00    -0.361 N 
ATOM     14  H4  UNL     1      20.671  50.157 -17.028  1.00  0.00     0.165 HD
ENDBRANCH   6   9
ENDBRANCH   3   5
ENDBRANCH   1   3
BRANCH   1  15
HETATM   15  N3  UNL     1      23.381  47.319 -13.544  1.00  0.00    -0.254 N 
ATOM     16  H3  UNL     1      23.836  46.631 -12.945  1.00  0.00     0.181 HD
BRANCH  15  17
HETATM   17  S2  UNL     1      22.035  48.082 -12.868  1.00  0.00     0.310 S 
HETATM   18  O2  UNL     1      21.660  49.306 -13.635  1.00  0.00    -0.199 OA
HETATM   19  O3  UNL     1      20.802  47.181 -12.867  1.00  0.00    -0.199 OA
BRANCH  17  20
HETATM   20  C3  UNL     1      22.332  48.546 -11.160  1.00  0.00     0.453 C 
HETATM   21  F1  UNL     1      21.925  47.581 -10.278  1.00  0.00    -0.177 F 
HETATM   22  F2  UNL     1      21.636  49.721 -10.893  1.00  0.00    -0.177 F 
BRANCH  20  23
HETATM   23  C4  UNL     1      23.828  48.837 -11.059  1.00  0.00     0.435 C 
HETATM   24  F3  UNL     1      24.122  49.519  -9.877  1.00  0.00    -0.168 F 
HETATM   25  F4  UNL     1      24.168  49.659 -12.132  1.00  0.00    -0.168 F 
BRANCH  23  26
HETATM   26  O4  UNL     1      24.592  47.663 -11.041  1.00  0.00    -0.331 OA
ATOM     27  H4  UNL     1      24.375  47.085 -11.763  1.00  0.00     0.216 HD
ENDBRANCH  23  26
ENDBRANCH  20  23
ENDBRANCH  17  20
ENDBRANCH  15  17
ENDBRANCH   1  15
TORSDOF 8
ENDMDL
MODEL 5
REMARK VINA RESULT: -8.177409663      2.004      3.015
REMARK  8 active torsions:
REMARK  status: ('A' for Active; 'I' for Inactive)
REMARK       I    between atoms: C1_2  and  N1_3 
REMARK    1  A    between atoms: C1_2  and  C5_22 
REMARK    2  A    between atoms: N1_3  and  N2_5 
REMARK    3  A    between atoms: N2_5  and  C2_7 
REMARK    4  A    between atoms: C2_7  and  N3_9 
REMARK    5  A    between atoms: N3_9  and  S2_11 
REMARK    6  A    between atoms: S2_11  and  C3_14 
REMARK    7  A    between atoms: C3_14  and  C4_17 
REMARK    8  A    between atoms: C4_17  and  O4_18 
ROOT
HETATM    1  C2  UNL     1      22.100  47.966 -11.999  1.00  0.00     0.200 C 
HETATM    2  S1  UNL     1      21.144  49.067 -11.168  1.00  0.00    -0.039 SA
ENDROOT
BRANCH   1   3
HETATM    3  N2  UNL     1      21.528  47.383 -13.164  1.00  0.00    -0.273 N 
ATOM      4  H2  UNL     1      20.612  46.935 -13.122  1.00  0.00     0.189 HD
BRANCH   3   5
HETATM    5  N1  UNL     1      22.246  47.434 -14.376  1.00  0.00    -0.262 N 
HETATM    6  C1  UNL     1      22.152  48.558 -15.225  1.00  0.00     0.286 C 
HETATM    7  O1  UNL     1      21.454  49.566 -14.976  1.00  0.00    -0.264 OA
ATOM      8  H1  UNL     1      22.840  46.650 -14.644  1.00  0.00     0.190 HD
BRANCH   6   9
HETATM    9  C5  UNL     1      22.931  48.549 -16.481  1.00  0.00     0.102 A 
HETATM   10  C6  UNL     1      22.525  49.064 -17.705  1.00  0.00     0.036 A 
HETATM   11  C7  UNL     1      23.525  48.870 -18.636  1.00  0.00     0.019 A 
HETATM   12  C8  UNL     1      24.554  48.215 -17.939  1.00  0.00     0.088 A 
HETATM   13  N4  UNL     1      24.162  48.047 -16.667  1.00  0.00    -0.361 N 
ATOM     14  H4  UNL     1      24.722  47.599 -15.941  1.00  0.00     0.165 HD
ENDBRANCH   6   9
ENDBRANCH   3   5
ENDBRANCH   1   3
BRANCH   1  15
HETATM   15  N3  UNL     1      23.360  47.668 -11.529  1.00  0.00    -0.254 N 
ATOM     16  H3  UNL     1      23.544  46.676 -11.376  1.00  0.00     0.181 HD
BRANCH  15  17
HETATM   17  S2  UNL     1      24.645  48.701 -11.169  1.00  0.00     0.310 S 
HETATM   18  O2  UNL     1      24.305  49.620 -10.042  1.00  0.00    -0.199 OA
HETATM   19  O3  UNL     1      25.895  47.938 -10.738  1.00  0.00    -0.199 OA
BRANCH  17  20
HETATM   20  C3  UNL     1      25.112  49.691 -12.592  1.00  0.00     0.453 C 
HETATM   21  F1  UNL     1      25.898  50.759 -12.250  1.00  0.00    -0.177 F 
HETATM   22  F2  UNL     1      23.954  50.161 -13.203  1.00  0.00    -0.177 F 
BRANCH  20  23
HETATM   23  C4  UNL     1      25.812  48.735 -13.555  1.00  0.00     0.435 C 
HETATM   24  F3  UNL     1      27.076  48.385 -13.076  1.00  0.00    -0.168 F 
HETATM   25  F4  UNL     1      25.976  49.406 -14.766  1.00  0.00    -0.168 F 
BRANCH  23  26
HETATM   26  O4  UNL     1      25.103  47.537 -13.717  1.00  0.00    -0.331 OA
ATOM     27  H4  UNL     1      25.681  46.785 -13.780  1.00  0.00     0.216 HD
ENDBRANCH  23  26
ENDBRANCH  20  23
ENDBRANCH  17  20
ENDBRANCH  15  17
ENDBRANCH   1  15
TORSDOF 8
ENDMDL
