MODEL 1
REMARK VINA RESULT: -7.553123958      0.000      0.000
REMARK  10 active torsions:
REMARK  status: ('A' for Active; 'I' for Inactive)
REMARK       I    between atoms: C1_2  and  N1_3 
REMARK       I    between atoms: C1_2  and  N2_19 
REMARK    1  A    between atoms: N1_3  and  C2_5 
REMARK    2  A    between atoms: C2_5  and  C3_6 
REMARK    3  A    between atoms: C3_6  and  C4_7 
REMARK    4  A    between atoms: C5_8  and  C6_9 
REMARK    5  A    between atoms: C6_9  and  C7_10 
REMARK    6  A    between atoms: C7_10  and  C8_11 
REMARK    7  A    between atoms: N2_19  and  C14_21 
REMARK    8  A    between atoms: C14_21  and  C15_22 
REMARK    9  A    between atoms: C15_22  and  C16_23 
REMARK   10  A    between atoms: C16_23  and  N3_24 
ROOT
HETATM    1  O1  UNL     1       0.402  12.771 -44.804  1.00  0.00    -0.247 OA
HETATM    2  C1  UNL     1      -0.476  13.632 -44.538  1.00  0.00     0.316 C 
HETATM    3  N1  UNL     1      -0.175  14.825 -43.856  1.00  0.00    -0.342 N 
ATOM      4  H1  UNL     1      -0.945  15.471 -43.681  1.00  0.00     0.164 HD
HETATM    5  N2  UNL     1      -1.796  13.328 -44.970  1.00  0.00    -0.343 N 
ATOM      6  H2  UNL     1      -2.529  14.008 -44.767  1.00  0.00     0.164 HD
ENDROOT
BRANCH   3   7
HETATM    7  C2  UNL     1       1.117  15.208 -43.389  1.00  0.00     0.136 C 
BRANCH   7   8
HETATM    8  C3  UNL     1       1.097  15.804 -41.980  1.00  0.00     0.113 C 
BRANCH   8   9
HETATM    9  C4  UNL     1       2.435  15.847 -41.393  1.00  0.00    -0.105 C 
HETATM   10  C5  UNL     1       3.538  15.906 -40.905  1.00  0.00    -0.107 C 
BRANCH  10  11
HETATM   11  C6  UNL     1       4.891  16.007 -40.304  1.00  0.00     0.094 C 
BRANCH  11  12
HETATM   12  C7  UNL     1       4.858  15.170 -39.022  1.00  0.00     0.017 C 
BRANCH  12  13
HETATM   13  C8  UNL     1       6.198  14.585 -38.691  1.00  0.00    -0.008 C 
HETATM   14  C9  UNL     1       7.017  14.624 -39.989  1.00  0.00     0.005 C 
HETATM   15  C10 UNL     1       8.435  14.341 -39.615  1.00  0.00     0.006 C 
HETATM   16  C11 UNL     1       8.523  12.952 -39.052  1.00  0.00     0.079 C 
HETATM   17  C12 UNL     1       7.558  12.728 -37.911  1.00  0.00     0.244 C 
HETATM   18  F1  UNL     1       7.610  11.386 -37.586  1.00  0.00    -0.206 F 
HETATM   19  F2  UNL     1       7.933  13.456 -36.812  1.00  0.00    -0.206 F 
HETATM   20  C13 UNL     1       6.141  13.149 -38.274  1.00  0.00     0.083 C 
ENDBRANCH  12  13
ENDBRANCH  11  12
ENDBRANCH  10  11
ENDBRANCH   8   9
ENDBRANCH   7   8
ENDBRANCH   3   7
BRANCH   5  21
HETATM   21  C14 UNL     1      -2.170  12.144 -45.667  1.00  0.00     0.126 C 
BRANCH  21  22
HETATM   22  C15 UNL     1      -2.173  12.312 -47.171  1.00  0.00     0.050 C 
BRANCH  22  23
HETATM   23  C16 UNL     1      -2.720  13.685 -47.463  1.00  0.00     0.274 C 
BRANCH  23  24
HETATM   24  N3  UNL     1      -2.137  14.257 -48.646  1.00  0.00     0.088 N 
HETATM   25  C17 UNL     1      -0.686  14.340 -48.489  1.00  0.00     0.272 C 
HETATM   26  C18 UNL     1      -0.445  15.607 -47.728  1.00  0.00     0.032 C 
HETATM   27  C19 UNL     1      -1.503  16.526 -48.232  1.00  0.00     0.032 C 
HETATM   28  C20 UNL     1      -2.575  15.635 -48.759  1.00  0.00     0.272 C 
ENDBRANCH  23  24
ENDBRANCH  22  23
ENDBRANCH  21  22
ENDBRANCH   5  21
TORSDOF 10
ENDMDL
MODEL 2
REMARK VINA RESULT: -7.509036637      4.768     10.042
REMARK  10 active torsions:
REMARK  status: ('A' for Active; 'I' for Inactive)
REMARK       I    between atoms: C1_2  and  N1_3 
REMARK       I    between atoms: C1_2  and  N2_19 
REMARK    1  A    between atoms: N1_3  and  C2_5 
REMARK    2  A    between atoms: C2_5  and  C3_6 
REMARK    3  A    between atoms: C3_6  and  C4_7 
REMARK    4  A    between atoms: C5_8  and  C6_9 
REMARK    5  A    between atoms: C6_9  and  C7_10 
REMARK    6  A    between atoms: C7_10  and  C8_11 
REMARK    7  A    between atoms: N2_19  and  C14_21 
REMARK    8  A    between atoms: C14_21  and  C15_22 
REMARK    9  A    between atoms: C15_22  and  C16_23 
REMARK   10  A    between atoms: C16_23  and  N3_24 
ROOT
HETATM    1  O1  UNL     1       4.022  15.448 -41.639  1.00  0.00    -0.247 OA
HETATM    2  C1  UNL     1       3.153  15.016 -40.839  1.00  0.00     0.316 C 
HETATM    3  N1  UNL     1       1.775  15.181 -41.064  1.00  0.00    -0.342 N 
ATOM      4  H1  UNL     1       1.137  14.800 -40.366  1.00  0.00     0.164 HD
HETATM    5  N2  UNL     1       3.649  14.346 -39.686  1.00  0.00    -0.343 N 
ATOM      6  H2  UNL     1       2.967  13.986 -39.018  1.00  0.00     0.164 HD
ENDROOT
BRANCH   3   7
HETATM    7  C2  UNL     1       1.194  15.837 -42.190  1.00  0.00     0.136 C 
BRANCH   7   8
HETATM    8  C3  UNL     1       1.113  14.947 -43.432  1.00  0.00     0.113 C 
BRANCH   8   9
HETATM    9  C4  UNL     1       0.537  13.640 -43.123  1.00  0.00    -0.105 C 
HETATM   10  C5  UNL     1       0.052  12.559 -42.890  1.00  0.00    -0.107 C 
BRANCH  10  11
HETATM   11  C6  UNL     1      -0.558  11.232 -42.627  1.00  0.00     0.094 C 
BRANCH  11  12
HETATM   12  C7  UNL     1      -1.894  11.500 -41.931  1.00  0.00     0.017 C 
BRANCH  12  13
HETATM   13  C8  UNL     1      -1.787  12.575 -40.891  1.00  0.00    -0.008 C 
HETATM   14  C9  UNL     1      -1.958  11.880 -39.533  1.00  0.00     0.005 C 
HETATM   15  C10 UNL     1      -1.550  12.866 -38.488  1.00  0.00     0.006 C 
HETATM   16  C11 UNL     1      -2.485  14.039 -38.531  1.00  0.00     0.079 C 
HETATM   17  C12 UNL     1      -2.583  14.651 -39.909  1.00  0.00     0.244 C 
HETATM   18  F1  UNL     1      -3.583  15.604 -39.866  1.00  0.00    -0.206 F 
HETATM   19  F2  UNL     1      -1.408  15.270 -40.248  1.00  0.00    -0.206 F 
HETATM   20  C13 UNL     1      -2.870  13.604 -40.977  1.00  0.00     0.083 C 
ENDBRANCH  12  13
ENDBRANCH  11  12
ENDBRANCH  10  11
ENDBRANCH   8   9
ENDBRANCH   7   8
ENDBRANCH   3   7
BRANCH   5  21
HETATM   21  C14 UNL     1       5.029  14.140 -39.396  1.00  0.00     0.126 C 
BRANCH  21  22
HETATM   22  C15 UNL     1       5.371  14.362 -37.939  1.00  0.00     0.050 C 
BRANCH  22  23
HETATM   23  C16 UNL     1       6.840  14.068 -37.779  1.00  0.00     0.274 C 
BRANCH  23  24
HETATM   24  N3  UNL     1       7.237  12.897 -38.511  1.00  0.00     0.088 N 
HETATM   25  C17 UNL     1       7.422  11.778 -37.588  1.00  0.00     0.272 C 
HETATM   26  C18 UNL     1       8.809  11.940 -37.047  1.00  0.00     0.032 C 
HETATM   27  C19 UNL     1       9.574  12.489 -38.201  1.00  0.00     0.032 C 
HETATM   28  C20 UNL     1       8.552  13.128 -39.078  1.00  0.00     0.272 C 
ENDBRANCH  23  24
ENDBRANCH  22  23
ENDBRANCH  21  22
ENDBRANCH   5  21
TORSDOF 10
ENDMDL
MODEL 3
REMARK VINA RESULT: -7.480137709      4.262      9.000
REMARK  10 active torsions:
REMARK  status: ('A' for Active; 'I' for Inactive)
REMARK       I    between atoms: C1_2  and  N1_3 
REMARK       I    between atoms: C1_2  and  N2_19 
REMARK    1  A    between atoms: N1_3  and  C2_5 
REMARK    2  A    between atoms: C2_5  and  C3_6 
REMARK    3  A    between atoms: C3_6  and  C4_7 
REMARK    4  A    between atoms: C5_8  and  C6_9 
REMARK    5  A    between atoms: C6_9  and  C7_10 
REMARK    6  A    between atoms: C7_10  and  C8_11 
REMARK    7  A    between atoms: N2_19  and  C14_21 
REMARK    8  A    between atoms: C14_21  and  C15_22 
REMARK    9  A    between atoms: C15_22  and  C16_23 
REMARK   10  A    between atoms: C16_23  and  N3_24 
ROOT
HETATM    1  O1  UNL     1       1.326  13.909 -43.354  1.00  0.00    -0.247 OA
HETATM    2  C1  UNL     1       0.878  15.080 -43.448  1.00  0.00     0.316 C 
HETATM    3  N1  UNL     1       0.244  15.551 -44.613  1.00  0.00    -0.342 N 
ATOM      4  H1  UNL     1      -0.092  16.514 -44.606  1.00  0.00     0.164 HD
HETATM    5  N2  UNL     1       1.049  15.904 -42.302  1.00  0.00    -0.343 N 
ATOM      6  H2  UNL     1       0.696  16.861 -42.350  1.00  0.00     0.164 HD
ENDROOT
BRANCH   3   7
HETATM    7  C2  UNL     1       0.031  14.794 -45.802  1.00  0.00     0.136 C 
BRANCH   7   8
HETATM    8  C3  UNL     1      -1.436  14.750 -46.235  1.00  0.00     0.113 C 
BRANCH   8   9
HETATM    9  C4  UNL     1      -2.267  14.054 -45.255  1.00  0.00    -0.105 C 
HETATM   10  C5  UNL     1      -2.960  13.499 -44.436  1.00  0.00    -0.107 C 
BRANCH  10  11
HETATM   11  C6  UNL     1      -3.814  12.842 -43.416  1.00  0.00     0.094 C 
BRANCH  11  12
HETATM   12  C7  UNL     1      -2.876  12.012 -42.535  1.00  0.00     0.017 C 
BRANCH  12  13
HETATM   13  C8  UNL     1      -2.359  12.793 -41.364  1.00  0.00    -0.008 C 
HETATM   14  C9  UNL     1      -2.263  11.802 -40.195  1.00  0.00     0.005 C 
HETATM   15  C10 UNL     1      -1.469  12.473 -39.123  1.00  0.00     0.006 C 
HETATM   16  C11 UNL     1      -2.217  13.683 -38.646  1.00  0.00     0.079 C 
HETATM   17  C12 UNL     1      -2.587  14.618 -39.775  1.00  0.00     0.244 C 
HETATM   18  F1  UNL     1      -3.404  15.598 -39.247  1.00  0.00    -0.206 F 
HETATM   19  F2  UNL     1      -1.468  15.217 -40.292  1.00  0.00    -0.206 F 
HETATM   20  C13 UNL     1      -3.279  13.884 -40.916  1.00  0.00     0.083 C 
ENDBRANCH  12  13
ENDBRANCH  11  12
ENDBRANCH  10  11
ENDBRANCH   8   9
ENDBRANCH   7   8
ENDBRANCH   3   7
BRANCH   5  21
HETATM   21  C14 UNL     1       1.676  15.493 -41.091  1.00  0.00     0.126 C 
BRANCH  21  22
HETATM   22  C15 UNL     1       3.165  15.765 -41.069  1.00  0.00     0.050 C 
BRANCH  22  23
HETATM   23  C16 UNL     1       3.781  14.783 -40.106  1.00  0.00     0.274 C 
BRANCH  23  24
HETATM   24  N3  UNL     1       4.869  15.363 -39.368  1.00  0.00     0.088 N 
HETATM   25  C17 UNL     1       6.037  15.496 -40.237  1.00  0.00     0.272 C 
HETATM   26  C18 UNL     1       6.701  14.154 -40.209  1.00  0.00     0.032 C 
HETATM   27  C19 UNL     1       6.475  13.679 -38.815  1.00  0.00     0.032 C 
HETATM   28  C20 UNL     1       5.279  14.429 -38.337  1.00  0.00     0.272 C 
ENDBRANCH  23  24
ENDBRANCH  22  23
ENDBRANCH  21  22
ENDBRANCH   5  21
TORSDOF 10
ENDMDL
MODEL 4
REMARK VINA RESULT: -7.431178351      4.225      8.971
REMARK  10 active torsions:
REMARK  status: ('A' for Active; 'I' for Inactive)
REMARK       I    between atoms: C1_2  and  N1_3 
REMARK       I    between atoms: C1_2  and  N2_19 
REMARK    1  A    between atoms: N1_3  and  C2_5 
REMARK    2  A    between atoms: C2_5  and  C3_6 
REMARK    3  A    between atoms: C3_6  and  C4_7 
REMARK    4  A    between atoms: C5_8  and  C6_9 
REMARK    5  A    between atoms: C6_9  and  C7_10 
REMARK    6  A    between atoms: C7_10  and  C8_11 
REMARK    7  A    between atoms: N2_19  and  C14_21 
REMARK    8  A    between atoms: C14_21  and  C15_22 
REMARK    9  A    between atoms: C15_22  and  C16_23 
REMARK   10  A    between atoms: C16_23  and  N3_24 
ROOT
HETATM    1  O1  UNL     1       1.534  13.841 -43.293  1.00  0.00    -0.247 OA
HETATM    2  C1  UNL     1       1.140  15.036 -43.269  1.00  0.00     0.316 C 
HETATM    3  N1  UNL     1       0.412  15.609 -44.327  1.00  0.00    -0.342 N 
ATOM      4  H1  UNL     1       0.130  16.584 -44.227  1.00  0.00     0.164 HD
HETATM    5  N2  UNL     1       1.474  15.775 -42.101  1.00  0.00    -0.343 N 
ATOM      6  H2  UNL     1       1.168  16.748 -42.054  1.00  0.00     0.164 HD
ENDROOT
BRANCH   3   7
HETATM    7  C2  UNL     1       0.036  14.941 -45.530  1.00  0.00     0.136 C 
BRANCH   7   8
HETATM    8  C3  UNL     1      -1.439  14.537 -45.559  1.00  0.00     0.113 C 
BRANCH   8   9
HETATM    9  C4  UNL     1      -1.697  13.369 -44.720  1.00  0.00    -0.105 C 
HETATM   10  C5  UNL     1      -1.890  12.394 -44.034  1.00  0.00    -0.107 C 
BRANCH  10  11
HETATM   11  C6  UNL     1      -2.105  11.183 -43.203  1.00  0.00     0.094 C 
BRANCH  11  12
HETATM   12  C7  UNL     1      -3.081  11.587 -42.095  1.00  0.00     0.017 C 
BRANCH  12  13
HETATM   13  C8  UNL     1      -2.450  12.505 -41.090  1.00  0.00    -0.008 C 
HETATM   14  C9  UNL     1      -2.515  11.776 -39.741  1.00  0.00     0.005 C 
HETATM   15  C10 UNL     1      -1.628  12.525 -38.802  1.00  0.00     0.006 C 
HETATM   16  C11 UNL     1      -2.177  13.908 -38.609  1.00  0.00     0.079 C 
HETATM   17  C12 UNL     1      -2.392  14.633 -39.918  1.00  0.00     0.244 C 
HETATM   18  F1  UNL     1      -3.045  15.816 -39.631  1.00  0.00    -0.206 F 
HETATM   19  F2  UNL     1      -1.190  14.932 -40.507  1.00  0.00    -0.206 F 
HETATM   20  C13 UNL     1      -3.188  13.794 -40.908  1.00  0.00     0.083 C 
ENDBRANCH  12  13
ENDBRANCH  11  12
ENDBRANCH  10  11
ENDBRANCH   8   9
ENDBRANCH   7   8
ENDBRANCH   3   7
BRANCH   5  21
HETATM   21  C14 UNL     1       2.203  15.259 -40.992  1.00  0.00     0.126 C 
BRANCH  21  22
HETATM   22  C15 UNL     1       3.650  15.699 -40.973  1.00  0.00     0.050 C 
BRANCH  22  23
HETATM   23  C16 UNL     1       4.255  15.180 -39.694  1.00  0.00     0.274 C 
BRANCH  23  24
HETATM   24  N3  UNL     1       4.995  13.966 -39.902  1.00  0.00     0.088 N 
HETATM   25  C17 UNL     1       5.704  13.606 -38.676  1.00  0.00     0.272 C 
HETATM   26  C18 UNL     1       6.968  14.409 -38.703  1.00  0.00     0.032 C 
HETATM   27  C19 UNL     1       7.323  14.457 -40.148  1.00  0.00     0.032 C 
HETATM   28  C20 UNL     1       6.042  14.222 -40.873  1.00  0.00     0.272 C 
ENDBRANCH  23  24
ENDBRANCH  22  23
ENDBRANCH  21  22
ENDBRANCH   5  21
TORSDOF 10
ENDMDL
MODEL 5
REMARK VINA RESULT: -7.396345267      1.284      1.861
REMARK  10 active torsions:
REMARK  status: ('A' for Active; 'I' for Inactive)
REMARK       I    between atoms: C1_2  and  N1_3 
REMARK       I    between atoms: C1_2  and  N2_19 
REMARK    1  A    between atoms: N1_3  and  C2_5 
REMARK    2  A    between atoms: C2_5  and  C3_6 
REMARK    3  A    between atoms: C3_6  and  C4_7 
REMARK    4  A    between atoms: C5_8  and  C6_9 
REMARK    5  A    between atoms: C6_9  and  C7_10 
REMARK    6  A    between atoms: C7_10  and  C8_11 
REMARK    7  A    between atoms: N2_19  and  C14_21 
REMARK    8  A    between atoms: C14_21  and  C15_22 
REMARK    9  A    between atoms: C15_22  and  C16_23 
REMARK   10  A    between atoms: C16_23  and  N3_24 
ROOT
HETATM    1  O1  UNL     1       1.265  13.027 -43.371  1.00  0.00    -0.247 OA
HETATM    2  C1  UNL     1       0.061  13.346 -43.198  1.00  0.00     0.316 C 
HETATM    3  N1  UNL     1      -0.351  14.185 -42.146  1.00  0.00    -0.342 N 
ATOM      4  H1  UNL     1      -1.346  14.395 -42.077  1.00  0.00     0.164 HD
HETATM    5  N2  UNL     1      -0.866  12.807 -44.133  1.00  0.00    -0.343 N 
ATOM      6  H2  UNL     1      -1.850  13.048 -44.015  1.00  0.00     0.164 HD
ENDROOT
BRANCH   3   7
HETATM    7  C2  UNL     1       0.509  14.767 -41.168  1.00  0.00     0.136 C 
BRANCH   7   8
HETATM    8  C3  UNL     1       1.246  16.008 -41.674  1.00  0.00     0.113 C 
BRANCH   8   9
HETATM    9  C4  UNL     1       2.641  16.023 -41.238  1.00  0.00    -0.105 C 
HETATM   10  C5  UNL     1       3.792  16.059 -40.875  1.00  0.00    -0.107 C 
BRANCH  10  11
HETATM   11  C6  UNL     1       5.206  16.131 -40.429  1.00  0.00     0.094 C 
BRANCH  11  12
HETATM   12  C7  UNL     1       5.935  14.973 -41.116  1.00  0.00     0.017 C 
BRANCH  12  13
HETATM   13  C8  UNL     1       6.678  14.111 -40.140  1.00  0.00    -0.008 C 
HETATM   14  C9  UNL     1       5.782  13.996 -38.899  1.00  0.00     0.005 C 
HETATM   15  C10 UNL     1       6.352  12.905 -38.053  1.00  0.00     0.006 C 
HETATM   16  C11 UNL     1       7.725  13.306 -37.599  1.00  0.00     0.079 C 
HETATM   17  C12 UNL     1       8.627  13.689 -38.751  1.00  0.00     0.244 C 
HETATM   18  F1  UNL     1       9.794  14.191 -38.210  1.00  0.00    -0.206 F 
HETATM   19  F2  UNL     1       8.936  12.589 -39.508  1.00  0.00    -0.206 F 
HETATM   20  C13 UNL     1       7.969  14.706 -39.674  1.00  0.00     0.083 C 
ENDBRANCH  12  13
ENDBRANCH  11  12
ENDBRANCH  10  11
ENDBRANCH   8   9
ENDBRANCH   7   8
ENDBRANCH   3   7
BRANCH   5  21
HETATM   21  C14 UNL     1      -0.520  11.956 -45.221  1.00  0.00     0.126 C 
BRANCH  21  22
HETATM   22  C15 UNL     1      -1.165  12.366 -46.527  1.00  0.00     0.050 C 
BRANCH  22  23
HETATM   23  C16 UNL     1      -0.785  13.802 -46.778  1.00  0.00     0.274 C 
BRANCH  23  24
HETATM   24  N3  UNL     1      -0.797  14.125 -48.178  1.00  0.00     0.088 N 
HETATM   25  C17 UNL     1      -0.278  15.477 -48.376  1.00  0.00     0.272 C 
HETATM   26  C18 UNL     1      -1.442  16.386 -48.131  1.00  0.00     0.032 C 
HETATM   27  C19 UNL     1      -2.604  15.618 -48.660  1.00  0.00     0.032 C 
HETATM   28  C20 UNL     1      -2.175  14.190 -48.627  1.00  0.00     0.272 C 
ENDBRANCH  23  24
ENDBRANCH  22  23
ENDBRANCH  21  22
ENDBRANCH   5  21
TORSDOF 10
ENDMDL
