MODEL 1
REMARK VINA RESULT: -6.927797627      0.000      0.000
REMARK  10 active torsions:
REMARK  status: ('A' for Active; 'I' for Inactive)
REMARK    1  A    between atoms: C2_2  and  C3_3 
REMARK    2  A    between atoms: C3_3  and  C4_4 
REMARK    3  A    between atoms: C4_4  and  C5_5 
REMARK    4  A    between atoms: C5_5  and  C6_6 
REMARK    5  A    between atoms: C6_6  and  C7_7 
REMARK    6  A    between atoms: C7_7  and  C8_8 
REMARK    7  A    between atoms: C8_8  and  C9_9 
REMARK       I    between atoms: C9_9  and  N1_11 
REMARK    8  A    between atoms: N1_11  and  C10_13 
REMARK    9  A    between atoms: C11_14  and  C12_15 
REMARK   10  A    between atoms: C12_15  and  O2_16 
ROOT
HETATM    1  C8  UNL     1      -0.530  14.179 -44.400  1.00  0.00     0.268 C 
HETATM    2  C14 UNL     1      -1.645  15.005 -44.923  1.00  0.00     0.077 C 
HETATM    3  C15 UNL     1      -2.746  13.994 -45.074  1.00  0.00     0.047 C 
HETATM    4  C16 UNL     1      -1.903  12.854 -45.663  1.00  0.00     0.314 C 
HETATM    5  N2  UNL     1      -0.587  13.477 -45.620  1.00  0.00     0.033 N 
HETATM    6  O3  UNL     1       0.417  12.846 -46.137  1.00  0.00    -0.063 OA
HETATM    7  C17 UNL     1      -0.906  14.806 -46.235  1.00  0.00     0.322 C 
ENDROOT
BRANCH   1   8
HETATM    8  C7  UNL     1       0.677  15.057 -44.130  1.00  0.00     0.059 C 
BRANCH   8   9
HETATM    9  C6  UNL     1       1.320  14.825 -42.811  1.00  0.00     0.003 C 
BRANCH   9  10
HETATM   10  C5  UNL     1       1.182  16.057 -41.953  1.00  0.00     0.000 C 
BRANCH  10  11
HETATM   11  C4  UNL     1       2.393  16.408 -41.156  1.00  0.00     0.000 C 
BRANCH  11  12
HETATM   12  C3  UNL     1       3.359  15.215 -41.184  1.00  0.00    -0.000 C 
BRANCH  12  13
HETATM   13  C2  UNL     1       4.776  15.699 -40.919  1.00  0.00    -0.005 C 
HETATM   14  C1  UNL     1       4.775  17.065 -40.288  1.00  0.00     0.005 C 
ENDBRANCH  12  13
ENDBRANCH  11  12
ENDBRANCH  10  11
ENDBRANCH   9  10
ENDBRANCH   8   9
ENDBRANCH   1   8
BRANCH   1  15
HETATM   15  C9  UNL     1      -0.739  13.342 -43.207  1.00  0.00     0.264 C 
HETATM   16  O1  UNL     1      -0.214  12.214 -43.151  1.00  0.00    -0.270 OA
HETATM   17  N1  UNL     1      -1.522  13.762 -42.094  1.00  0.00    -0.350 N 
ATOM     18  H1  UNL     1      -1.968  14.679 -42.100  1.00  0.00     0.163 HD
BRANCH  17  19
HETATM   19  C10 UNL     1      -1.679  12.895 -40.969  1.00  0.00     0.133 A 
HETATM   20  C11 UNL     1      -2.975  12.240 -40.666  1.00  0.00     0.076 A 
HETATM   21  C13 UNL     1      -2.520  13.436 -39.859  1.00  0.00     0.141 A 
HETATM   22 CL1  UNL     1      -1.906  13.112 -38.223  1.00  0.00    -0.099 Cl
HETATM   23 CL2  UNL     1      -3.352  14.980 -40.137  1.00  0.00    -0.099 Cl
BRANCH  20  24
HETATM   24  C12 UNL     1      -4.190  12.497 -41.526  1.00  0.00     0.174 C 
BRANCH  24  25
HETATM   25  O2  UNL     1      -5.176  11.591 -41.184  1.00  0.00    -0.400 OA
ATOM     26  H2  UNL     1      -5.207  10.909 -41.845  1.00  0.00     0.209 HD
ENDBRANCH  24  25
ENDBRANCH  20  24
ENDBRANCH  17  19
ENDBRANCH   1  15
TORSDOF 10
ENDMDL
MODEL 2
REMARK VINA RESULT: -6.793337962      2.490      4.787
REMARK  10 active torsions:
REMARK  status: ('A' for Active; 'I' for Inactive)
REMARK    1  A    between atoms: C2_2  and  C3_3 
REMARK    2  A    between atoms: C3_3  and  C4_4 
REMARK    3  A    between atoms: C4_4  and  C5_5 
REMARK    4  A    between atoms: C5_5  and  C6_6 
REMARK    5  A    between atoms: C6_6  and  C7_7 
REMARK    6  A    between atoms: C7_7  and  C8_8 
REMARK    7  A    between atoms: C8_8  and  C9_9 
REMARK       I    between atoms: C9_9  and  N1_11 
REMARK    8  A    between atoms: N1_11  and  C10_13 
REMARK    9  A    between atoms: C11_14  and  C12_15 
REMARK   10  A    between atoms: C12_15  and  O2_16 
ROOT
HETATM    1  C8  UNL     1      -1.370  13.297 -41.336  1.00  0.00     0.268 C 
HETATM    2  C14 UNL     1      -1.348  12.439 -40.128  1.00  0.00     0.077 C 
HETATM    3  C15 UNL     1      -2.063  11.205 -40.601  1.00  0.00     0.047 C 
HETATM    4  C16 UNL     1      -3.182  11.902 -41.387  1.00  0.00     0.314 C 
HETATM    5  N2  UNL     1      -2.773  13.290 -41.216  1.00  0.00     0.033 N 
HETATM    6  O3  UNL     1      -3.542  14.225 -41.670  1.00  0.00    -0.063 OA
HETATM    7  C17 UNL     1      -2.530  13.309 -39.737  1.00  0.00     0.322 C 
ENDROOT
BRANCH   1   8
HETATM    8  C7  UNL     1      -0.631  14.593 -41.059  1.00  0.00     0.059 C 
BRANCH   8   9
HETATM    9  C6  UNL     1       0.848  14.488 -41.157  1.00  0.00     0.003 C 
BRANCH   9  10
HETATM   10  C5  UNL     1       1.398  15.697 -41.869  1.00  0.00     0.000 C 
BRANCH  10  11
HETATM   11  C4  UNL     1       2.457  16.438 -41.125  1.00  0.00     0.000 C 
BRANCH  11  12
HETATM   12  C3  UNL     1       3.722  15.569 -41.079  1.00  0.00    -0.000 C 
BRANCH  12  13
HETATM   13  C2  UNL     1       4.873  16.371 -40.495  1.00  0.00    -0.005 C 
HETATM   14  C1  UNL     1       4.458  17.789 -40.210  1.00  0.00     0.005 C 
ENDBRANCH  12  13
ENDBRANCH  11  12
ENDBRANCH  10  11
ENDBRANCH   9  10
ENDBRANCH   8   9
ENDBRANCH   1   8
BRANCH   1  15
HETATM   15  C9  UNL     1      -0.866  12.771 -42.615  1.00  0.00     0.264 C 
HETATM   16  O1  UNL     1       0.016  11.891 -42.611  1.00  0.00    -0.270 OA
HETATM   17  N1  UNL     1      -1.342  13.222 -43.879  1.00  0.00    -0.350 N 
ATOM     18  H1  UNL     1      -2.064  13.941 -43.926  1.00  0.00     0.163 HD
BRANCH  17  19
HETATM   19  C10 UNL     1      -0.805  12.664 -45.080  1.00  0.00     0.133 A 
HETATM   20  C11 UNL     1      -0.266  13.520 -46.163  1.00  0.00     0.076 A 
HETATM   21  C13 UNL     1      -1.628  12.882 -46.308  1.00  0.00     0.141 A 
HETATM   22 CL1  UNL     1      -1.746  11.480 -47.394  1.00  0.00    -0.099 Cl
HETATM   23 CL2  UNL     1      -3.051  13.937 -46.167  1.00  0.00    -0.099 Cl
BRANCH  20  24
HETATM   24  C12 UNL     1      -0.294  15.027 -46.045  1.00  0.00     0.174 C 
BRANCH  24  25
HETATM   25  O2  UNL     1       0.684  15.421 -45.152  1.00  0.00    -0.400 OA
ATOM     26  H2  UNL     1       0.953  16.307 -45.365  1.00  0.00     0.209 HD
ENDBRANCH  24  25
ENDBRANCH  20  24
ENDBRANCH  17  19
ENDBRANCH   1  15
TORSDOF 10
ENDMDL
MODEL 3
REMARK VINA RESULT: -6.731445593      2.929      4.606
REMARK  10 active torsions:
REMARK  status: ('A' for Active; 'I' for Inactive)
REMARK    1  A    between atoms: C2_2  and  C3_3 
REMARK    2  A    between atoms: C3_3  and  C4_4 
REMARK    3  A    between atoms: C4_4  and  C5_5 
REMARK    4  A    between atoms: C5_5  and  C6_6 
REMARK    5  A    between atoms: C6_6  and  C7_7 
REMARK    6  A    between atoms: C7_7  and  C8_8 
REMARK    7  A    between atoms: C8_8  and  C9_9 
REMARK       I    between atoms: C9_9  and  N1_11 
REMARK    8  A    between atoms: N1_11  and  C10_13 
REMARK    9  A    between atoms: C11_14  and  C12_15 
REMARK   10  A    between atoms: C12_15  and  O2_16 
ROOT
HETATM    1  C8  UNL     1      -1.160  13.093 -41.601  1.00  0.00     0.268 C 
HETATM    2  C14 UNL     1      -0.880  13.331 -40.165  1.00  0.00     0.077 C 
HETATM    3  C15 UNL     1      -1.693  12.257 -39.499  1.00  0.00     0.047 C 
HETATM    4  C16 UNL     1      -2.952  12.380 -40.369  1.00  0.00     0.314 C 
HETATM    5  N2  UNL     1      -2.502  13.401 -41.305  1.00  0.00     0.033 N 
HETATM    6  O3  UNL     1      -3.344  13.864 -42.171  1.00  0.00    -0.063 OA
HETATM    7  C17 UNL     1      -1.938  14.405 -40.346  1.00  0.00     0.322 C 
ENDROOT
BRANCH   1   8
HETATM    8  C7  UNL     1      -0.367  14.070 -42.448  1.00  0.00     0.059 C 
BRANCH   8   9
HETATM    9  C6  UNL     1       1.001  14.350 -41.941  1.00  0.00     0.003 C 
BRANCH   9  10
HETATM   10  C5  UNL     1       1.270  15.832 -41.991  1.00  0.00     0.000 C 
BRANCH  10  11
HETATM   11  C4  UNL     1       2.363  16.305 -41.094  1.00  0.00     0.000 C 
BRANCH  11  12
HETATM   12  C3  UNL     1       3.494  15.267 -41.113  1.00  0.00    -0.000 C 
BRANCH  12  13
HETATM   13  C2  UNL     1       4.803  15.929 -40.714  1.00  0.00    -0.005 C 
HETATM   14  C1  UNL     1       4.582  17.353 -40.281  1.00  0.00     0.005 C 
ENDBRANCH  12  13
ENDBRANCH  11  12
ENDBRANCH  10  11
ENDBRANCH   9  10
ENDBRANCH   8   9
ENDBRANCH   1   8
BRANCH   1  15
HETATM   15  C9  UNL     1      -0.956  11.752 -42.172  1.00  0.00     0.264 C 
HETATM   16  O1  UNL     1      -0.016  11.046 -41.758  1.00  0.00    -0.270 OA
HETATM   17  N1  UNL     1      -1.790  11.208 -43.190  1.00  0.00    -0.350 N 
ATOM     18  H1  UNL     1      -2.570  11.753 -43.556  1.00  0.00     0.163 HD
BRANCH  17  19
HETATM   19  C10 UNL     1      -1.530   9.898 -43.696  1.00  0.00     0.133 A 
HETATM   20  C11 UNL     1      -0.668   9.677 -44.881  1.00  0.00     0.076 A 
HETATM   21  C13 UNL     1      -2.171   9.582 -45.008  1.00  0.00     0.141 A 
HETATM   22 CL1  UNL     1      -2.863   7.950 -45.135  1.00  0.00    -0.099 Cl
HETATM   23 CL2  UNL     1      -3.012  10.901 -45.850  1.00  0.00    -0.099 Cl
BRANCH  20  24
HETATM   24  C12 UNL     1      -0.055  10.845 -45.619  1.00  0.00     0.174 C 
BRANCH  24  25
HETATM   25  O2  UNL     1       0.894  11.435 -44.806  1.00  0.00    -0.400 OA
ATOM     26  H2  UNL     1       0.917  12.367 -44.989  1.00  0.00     0.209 HD
ENDBRANCH  24  25
ENDBRANCH  20  24
ENDBRANCH  17  19
ENDBRANCH   1  15
TORSDOF 10
ENDMDL
MODEL 4
REMARK VINA RESULT: -6.692232212      9.250     12.732
REMARK  10 active torsions:
REMARK  status: ('A' for Active; 'I' for Inactive)
REMARK    1  A    between atoms: C2_2  and  C3_3 
REMARK    2  A    between atoms: C3_3  and  C4_4 
REMARK    3  A    between atoms: C4_4  and  C5_5 
REMARK    4  A    between atoms: C5_5  and  C6_6 
REMARK    5  A    between atoms: C6_6  and  C7_7 
REMARK    6  A    between atoms: C7_7  and  C8_8 
REMARK    7  A    between atoms: C8_8  and  C9_9 
REMARK       I    between atoms: C9_9  and  N1_11 
REMARK    8  A    between atoms: N1_11  and  C10_13 
REMARK    9  A    between atoms: C11_14  and  C12_15 
REMARK   10  A    between atoms: C12_15  and  O2_16 
ROOT
HETATM    1  C8  UNL     1       9.297  12.613 -37.543  1.00  0.00     0.268 C 
HETATM    2  C14 UNL     1      10.351  13.498 -38.091  1.00  0.00     0.077 C 
HETATM    3  C15 UNL     1      11.582  13.004 -37.384  1.00  0.00     0.047 C 
HETATM    4  C16 UNL     1      10.963  12.828 -35.990  1.00  0.00     0.314 C 
HETATM    5  N2  UNL     1       9.583  13.186 -36.288  1.00  0.00     0.033 N 
HETATM    6  O3  UNL     1       8.734  13.253 -35.315  1.00  0.00    -0.063 OA
HETATM    7  C17 UNL     1       9.801  14.457 -37.050  1.00  0.00     0.322 C 
ENDROOT
BRANCH   1   8
HETATM    8  C7  UNL     1       7.965  12.935 -38.194  1.00  0.00     0.059 C 
BRANCH   8   9
HETATM    9  C6  UNL     1       8.058  13.296 -39.632  1.00  0.00     0.003 C 
BRANCH   9  10
HETATM   10  C5  UNL     1       7.104  14.422 -39.938  1.00  0.00     0.000 C 
BRANCH  10  11
HETATM   11  C4  UNL     1       6.196  14.799 -38.817  1.00  0.00     0.000 C 
BRANCH  11  12
HETATM   12  C3  UNL     1       4.766  14.919 -39.364  1.00  0.00    -0.000 C 
BRANCH  12  13
HETATM   13  C2  UNL     1       4.770  15.772 -40.622  1.00  0.00    -0.005 C 
HETATM   14  C1  UNL     1       4.598  17.229 -40.292  1.00  0.00     0.005 C 
ENDBRANCH  12  13
ENDBRANCH  11  12
ENDBRANCH  10  11
ENDBRANCH   9  10
ENDBRANCH   8   9
ENDBRANCH   1   8
BRANCH   1  15
HETATM   15  C9  UNL     1       9.469  11.152 -37.597  1.00  0.00     0.264 C 
HETATM   16  O1  UNL     1       8.816  10.429 -36.820  1.00  0.00    -0.270 OA
HETATM   17  N1  UNL     1      10.357  10.510 -38.506  1.00  0.00    -0.350 N 
ATOM     18  H1  UNL     1      10.910  11.066 -39.158  1.00  0.00     0.163 HD
BRANCH  17  19
HETATM   19  C10 UNL     1      10.471   9.086 -38.501  1.00  0.00     0.133 A 
HETATM   20  C11 UNL     1      11.634   8.399 -37.891  1.00  0.00     0.076 A 
HETATM   21  C13 UNL     1      11.532   8.528 -39.393  1.00  0.00     0.141 A 
HETATM   22 CL1  UNL     1      11.067   7.066 -40.292  1.00  0.00    -0.099 Cl
HETATM   23 CL2  UNL     1      12.618   9.680 -40.198  1.00  0.00    -0.099 Cl
BRANCH  20  24
HETATM   24  C12 UNL     1      12.764   9.193 -37.275  1.00  0.00     0.174 C 
BRANCH  24  25
HETATM   25  O2  UNL     1      13.018   8.697 -36.011  1.00  0.00    -0.400 OA
ATOM     26  H2  UNL     1      13.659   7.999 -36.080  1.00  0.00     0.209 HD
ENDBRANCH  24  25
ENDBRANCH  20  24
ENDBRANCH  17  19
ENDBRANCH   1  15
TORSDOF 10
ENDMDL
MODEL 5
REMARK VINA RESULT: -6.557688477      1.999      2.353
REMARK  10 active torsions:
REMARK  status: ('A' for Active; 'I' for Inactive)
REMARK    1  A    between atoms: C2_2  and  C3_3 
REMARK    2  A    between atoms: C3_3  and  C4_4 
REMARK    3  A    between atoms: C4_4  and  C5_5 
REMARK    4  A    between atoms: C5_5  and  C6_6 
REMARK    5  A    between atoms: C6_6  and  C7_7 
REMARK    6  A    between atoms: C7_7  and  C8_8 
REMARK    7  A    between atoms: C8_8  and  C9_9 
REMARK       I    between atoms: C9_9  and  N1_11 
REMARK    8  A    between atoms: N1_11  and  C10_13 
REMARK    9  A    between atoms: C11_14  and  C12_15 
REMARK   10  A    between atoms: C12_15  and  O2_16 
ROOT
HETATM    1  C8  UNL     1      -1.016  14.113 -45.217  1.00  0.00     0.268 C 
HETATM    2  C14 UNL     1      -1.437  14.839 -46.440  1.00  0.00     0.077 C 
HETATM    3  C15 UNL     1      -2.431  13.889 -47.047  1.00  0.00     0.047 C 
HETATM    4  C16 UNL     1      -1.653  12.588 -46.800  1.00  0.00     0.314 C 
HETATM    5  N2  UNL     1      -0.505  13.124 -46.080  1.00  0.00     0.033 N 
HETATM    6  O3  UNL     1       0.461  12.323 -45.767  1.00  0.00    -0.063 OA
HETATM    7  C17 UNL     1      -0.140  14.263 -46.981  1.00  0.00     0.322 C 
ENDROOT
BRANCH   1   8
HETATM    8  C7  UNL     1      -0.033  14.959 -44.431  1.00  0.00     0.059 C 
BRANCH   8   9
HETATM    9  C6  UNL     1       0.673  14.229 -43.346  1.00  0.00     0.003 C 
BRANCH   9  10
HETATM   10  C5  UNL     1       1.381  15.211 -42.448  1.00  0.00     0.000 C 
BRANCH  10  11
HETATM   11  C4  UNL     1       1.555  14.761 -41.037  1.00  0.00     0.000 C 
BRANCH  11  12
HETATM   12  C3  UNL     1       3.036  14.897 -40.659  1.00  0.00    -0.000 C 
BRANCH  12  13
HETATM   13  C2  UNL     1       3.518  16.303 -40.978  1.00  0.00    -0.005 C 
HETATM   14  C1  UNL     1       4.800  16.615 -40.255  1.00  0.00     0.005 C 
ENDBRANCH  12  13
ENDBRANCH  11  12
ENDBRANCH  10  11
ENDBRANCH   9  10
ENDBRANCH   8   9
ENDBRANCH   1   8
BRANCH   1  15
HETATM   15  C9  UNL     1      -2.033  13.628 -44.270  1.00  0.00     0.264 C 
HETATM   16  O1  UNL     1      -3.040  14.325 -44.042  1.00  0.00    -0.270 OA
HETATM   17  N1  UNL     1      -1.924  12.383 -43.588  1.00  0.00    -0.350 N 
ATOM     18  H1  UNL     1      -1.115  11.783 -43.746  1.00  0.00     0.163 HD
BRANCH  17  19
HETATM   19  C10 UNL     1      -2.952  11.978 -42.681  1.00  0.00     0.133 A 
HETATM   20  C11 UNL     1      -2.944  12.394 -41.258  1.00  0.00     0.076 A 
HETATM   21  C13 UNL     1      -2.532  10.991 -41.641  1.00  0.00     0.141 A 
HETATM   22 CL1  UNL     1      -3.705   9.695 -41.317  1.00  0.00    -0.099 Cl
HETATM   23 CL2  UNL     1      -0.806  10.583 -41.545  1.00  0.00    -0.099 Cl
BRANCH  20  24
HETATM   24  C12 UNL     1      -1.820  13.242 -40.707  1.00  0.00     0.174 C 
BRANCH  24  25
HETATM   25  O2  UNL     1      -2.016  14.551 -41.104  1.00  0.00    -0.400 OA
ATOM     26  H2  UNL     1      -1.170  14.957 -41.247  1.00  0.00     0.209 HD
ENDBRANCH  24  25
ENDBRANCH  20  24
ENDBRANCH  17  19
ENDBRANCH   1  15
TORSDOF 10
ENDMDL
