MODEL 1
REMARK VINA RESULT: -6.899409207      0.000      0.000
REMARK  9 active torsions:
REMARK  status: ('A' for Active; 'I' for Inactive)
REMARK    1  A    between atoms: C4_5  and  C5_6 
REMARK    2  A    between atoms: C5_6  and  C6_7 
REMARK    3  A    between atoms: C6_7  and  C7_8 
REMARK    4  A    between atoms: C7_8  and  C8_9 
REMARK    5  A    between atoms: C8_9  and  C9_10 
REMARK    6  A    between atoms: C10_11  and  C11_12 
REMARK    7  A    between atoms: C15_19  and  C16_20 
REMARK    8  A    between atoms: C15_19  and  C17_23 
REMARK    9  A    between atoms: C16_20  and  O1_21 
ROOT
HETATM    1  C11 UNL     1       0.644  14.810 -41.442  1.00  0.00     0.220 C 
HETATM    2  N1  UNL     1      -0.013  13.982 -40.455  1.00  0.00    -0.062 N 
ATOM      3  H11 UNL     1      -0.172  14.441 -39.558  1.00  0.00     0.278 HD
ATOM      4  H12 UNL     1       0.565  13.225 -40.087  1.00  0.00     0.278 HD
HETATM    5  C12 UNL     1      -1.213  13.545 -41.122  1.00  0.00     0.192 A 
HETATM    6  C13 UNL     1      -1.227  12.228 -41.840  1.00  0.00     0.041 A 
HETATM    7  C14 UNL     1      -0.831  13.427 -42.610  1.00  0.00     0.032 A 
HETATM    8  C15 UNL     1       0.580  13.910 -42.672  1.00  0.00     0.027 C 
ENDROOT
BRANCH   1   9
HETATM    9  C10 UNL     1       2.008  15.185 -41.084  1.00  0.00     0.003 C 
HETATM   10  C9  UNL     1       2.382  16.460 -41.091  1.00  0.00    -0.029 C 
BRANCH  10  11
HETATM   11  C8  UNL     1       3.771  16.890 -40.731  1.00  0.00     0.027 C 
BRANCH  11  12
HETATM   12  C7  UNL     1       4.568  15.773 -40.148  1.00  0.00     0.004 C 
BRANCH  12  13
HETATM   13  C6  UNL     1       5.680  15.389 -41.080  1.00  0.00     0.001 C 
BRANCH  13  14
HETATM   14  C5  UNL     1       6.378  14.117 -40.734  1.00  0.00     0.006 C 
BRANCH  14  15
HETATM   15  C4  UNL     1       7.658  14.343 -39.958  1.00  0.00     0.010 A 
HETATM   16  C2  UNL     1       7.579  13.810 -38.511  1.00  0.00     0.037 A 
HETATM   17  C1  UNL     1       8.146  14.720 -37.435  1.00  0.00     0.033 C 
HETATM   18 CL1  UNL     1       6.129  12.937 -38.025  1.00  0.00    -0.119 Cl
HETATM   19  C3  UNL     1       8.471  13.159 -39.494  1.00  0.00     0.032 A 
ENDBRANCH  14  15
ENDBRANCH  13  14
ENDBRANCH  12  13
ENDBRANCH  11  12
ENDBRANCH  10  11
ENDBRANCH   1   9
BRANCH   8  20
HETATM   20  C16 UNL     1       1.564  12.783 -42.568  1.00  0.00     0.177 C 
BRANCH  20  21
HETATM   21  O1  UNL     1       1.606  12.092 -43.770  1.00  0.00    -0.400 OA
ATOM     22  H1  UNL     1       0.721  11.907 -44.062  1.00  0.00     0.209 HD
ENDBRANCH  20  21
ENDBRANCH   8  20
BRANCH   8  23
HETATM   23  C17 UNL     1       0.887  14.763 -43.858  1.00  0.00     0.099 C 
HETATM   24 BR1  UNL     1      -0.540  14.757 -45.130  1.00  0.00    -0.096 Br
ENDBRANCH   8  23
TORSDOF 9
ENDMDL
MODEL 2
REMARK VINA RESULT: -6.869815976      1.028      1.340
REMARK  9 active torsions:
REMARK  status: ('A' for Active; 'I' for Inactive)
REMARK    1  A    between atoms: C4_5  and  C5_6 
REMARK    2  A    between atoms: C5_6  and  C6_7 
REMARK    3  A    between atoms: C6_7  and  C7_8 
REMARK    4  A    between atoms: C7_8  and  C8_9 
REMARK    5  A    between atoms: C8_9  and  C9_10 
REMARK    6  A    between atoms: C10_11  and  C11_12 
REMARK    7  A    between atoms: C15_19  and  C16_20 
REMARK    8  A    between atoms: C15_19  and  C17_23 
REMARK    9  A    between atoms: C16_20  and  O1_21 
ROOT
HETATM    1  C11 UNL     1       0.628  14.818 -41.441  1.00  0.00     0.220 C 
HETATM    2  N1  UNL     1      -0.033  13.994 -40.453  1.00  0.00    -0.062 N 
ATOM      3  H11 UNL     1      -0.207  14.461 -39.563  1.00  0.00     0.278 HD
ATOM      4  H12 UNL     1       0.547  13.246 -40.071  1.00  0.00     0.278 HD
HETATM    5  C12 UNL     1      -1.222  13.541 -41.129  1.00  0.00     0.192 A 
HETATM    6  C13 UNL     1      -1.216  12.217 -41.835  1.00  0.00     0.041 A 
HETATM    7  C14 UNL     1      -0.822  13.412 -42.612  1.00  0.00     0.032 A 
HETATM    8  C15 UNL     1       0.586  13.906 -42.663  1.00  0.00     0.027 C 
ENDROOT
BRANCH   1   9
HETATM    9  C10 UNL     1       1.985  15.208 -41.071  1.00  0.00     0.003 C 
HETATM   10  C9  UNL     1       2.341  16.489 -41.060  1.00  0.00    -0.029 C 
BRANCH  10  11
HETATM   11  C8  UNL     1       3.721  16.935 -40.687  1.00  0.00     0.027 C 
BRANCH  11  12
HETATM   12  C7  UNL     1       4.722  15.840 -40.842  1.00  0.00     0.004 C 
BRANCH  12  13
HETATM   13  C6  UNL     1       5.186  15.370 -39.495  1.00  0.00     0.001 C 
BRANCH  13  14
HETATM   14  C5  UNL     1       5.281  13.888 -39.346  1.00  0.00     0.006 C 
BRANCH  14  15
HETATM   15  C4  UNL     1       5.937  13.471 -38.046  1.00  0.00     0.010 A 
HETATM   16  C2  UNL     1       7.417  13.071 -38.228  1.00  0.00     0.037 A 
HETATM   17  C1  UNL     1       7.863  11.818 -37.495  1.00  0.00     0.033 C 
HETATM   18 CL1  UNL     1       8.141  13.269 -39.822  1.00  0.00    -0.119 Cl
HETATM   19  C3  UNL     1       7.066  14.297 -37.481  1.00  0.00     0.032 A 
ENDBRANCH  14  15
ENDBRANCH  13  14
ENDBRANCH  12  13
ENDBRANCH  11  12
ENDBRANCH  10  11
ENDBRANCH   1   9
BRANCH   8  20
HETATM   20  C16 UNL     1       1.578  12.789 -42.537  1.00  0.00     0.177 C 
BRANCH  20  21
HETATM   21  O1  UNL     1       1.638  12.086 -43.731  1.00  0.00    -0.400 OA
ATOM     22  H1  UNL     1       2.547  11.921 -43.958  1.00  0.00     0.209 HD
ENDBRANCH  20  21
ENDBRANCH   8  20
BRANCH   8  23
HETATM   23  C17 UNL     1       0.899  14.750 -43.853  1.00  0.00     0.099 C 
HETATM   24 BR1  UNL     1      -0.536  14.762 -45.117  1.00  0.00    -0.096 Br
ENDBRANCH   8  23
TORSDOF 9
ENDMDL
MODEL 3
REMARK VINA RESULT: -6.742415707      2.618      3.354
REMARK  9 active torsions:
REMARK  status: ('A' for Active; 'I' for Inactive)
REMARK    1  A    between atoms: C4_5  and  C5_6 
REMARK    2  A    between atoms: C5_6  and  C6_7 
REMARK    3  A    between atoms: C6_7  and  C7_8 
REMARK    4  A    between atoms: C7_8  and  C8_9 
REMARK    5  A    between atoms: C8_9  and  C9_10 
REMARK    6  A    between atoms: C10_11  and  C11_12 
REMARK    7  A    between atoms: C15_19  and  C16_20 
REMARK    8  A    between atoms: C15_19  and  C17_23 
REMARK    9  A    between atoms: C16_20  and  O1_21 
ROOT
HETATM    1  C11 UNL     1      -0.698  13.223 -40.591  1.00  0.00     0.220 C 
HETATM    2  N1  UNL     1      -0.529  12.097 -41.483  1.00  0.00    -0.062 N 
ATOM      3  H11 UNL     1       0.439  11.800 -41.608  1.00  0.00     0.278 HD
ATOM      4  H12 UNL     1      -0.705  12.308 -42.466  1.00  0.00     0.278 HD
HETATM    5  C12 UNL     1      -1.394  11.089 -40.926  1.00  0.00     0.192 A 
HETATM    6  C13 UNL     1      -2.794  10.942 -41.443  1.00  0.00     0.041 A 
HETATM    7  C14 UNL     1      -2.575  11.862 -40.307  1.00  0.00     0.032 A 
HETATM    8  C15 UNL     1      -2.219  13.300 -40.498  1.00  0.00     0.027 C 
ENDROOT
BRANCH   1   9
HETATM    9  C10 UNL     1      -0.097  14.459 -41.081  1.00  0.00     0.003 C 
HETATM   10  C9  UNL     1       1.210  14.671 -40.956  1.00  0.00    -0.029 C 
BRANCH  10  11
HETATM   11  C8  UNL     1       1.869  15.924 -41.444  1.00  0.00     0.027 C 
BRANCH  11  12
HETATM   12  C7  UNL     1       3.303  15.994 -41.041  1.00  0.00     0.004 C 
BRANCH  12  13
HETATM   13  C6  UNL     1       3.720  14.710 -40.387  1.00  0.00     0.001 C 
BRANCH  13  14
HETATM   14  C5  UNL     1       4.629  14.869 -39.214  1.00  0.00     0.006 C 
BRANCH  14  15
HETATM   15  C4  UNL     1       6.062  15.140 -39.618  1.00  0.00     0.010 A 
HETATM   16  C2  UNL     1       7.057  14.140 -38.989  1.00  0.00     0.037 A 
HETATM   17  C1  UNL     1       8.335  14.737 -38.426  1.00  0.00     0.033 C 
HETATM   18 CL1  UNL     1       6.406  12.807 -38.039  1.00  0.00    -0.119 Cl
HETATM   19  C3  UNL     1       6.810  14.124 -40.446  1.00  0.00     0.032 A 
ENDBRANCH  14  15
ENDBRANCH  13  14
ENDBRANCH  12  13
ENDBRANCH  11  12
ENDBRANCH  10  11
ENDBRANCH   1   9
BRANCH   8  20
HETATM   20  C16 UNL     1      -2.809  13.863 -41.756  1.00  0.00     0.177 C 
BRANCH  20  21
HETATM   21  O1  UNL     1      -3.666  14.907 -41.439  1.00  0.00    -0.400 OA
ATOM     22  H1  UNL     1      -4.315  15.005 -42.126  1.00  0.00     0.209 HD
ENDBRANCH  20  21
ENDBRANCH   8  20
BRANCH   8  23
HETATM   23  C17 UNL     1      -2.544  14.174 -39.332  1.00  0.00     0.099 C 
HETATM   24 BR1  UNL     1      -2.102  13.340 -37.669  1.00  0.00    -0.096 Br
ENDBRANCH   8  23
TORSDOF 9
ENDMDL
MODEL 4
REMARK VINA RESULT: -6.723973109      1.034      1.211
REMARK  9 active torsions:
REMARK  status: ('A' for Active; 'I' for Inactive)
REMARK    1  A    between atoms: C4_5  and  C5_6 
REMARK    2  A    between atoms: C5_6  and  C6_7 
REMARK    3  A    between atoms: C6_7  and  C7_8 
REMARK    4  A    between atoms: C7_8  and  C8_9 
REMARK    5  A    between atoms: C8_9  and  C9_10 
REMARK    6  A    between atoms: C10_11  and  C11_12 
REMARK    7  A    between atoms: C15_19  and  C16_20 
REMARK    8  A    between atoms: C15_19  and  C17_23 
REMARK    9  A    between atoms: C16_20  and  O1_21 
ROOT
HETATM    1  C11 UNL     1       0.778  14.761 -41.925  1.00  0.00     0.220 C 
HETATM    2  N1  UNL     1       0.434  14.139 -40.666  1.00  0.00    -0.062 N 
ATOM      3  H11 UNL     1       0.542  14.746 -39.853  1.00  0.00     0.278 HD
ATOM      4  H12 UNL     1       1.093  13.425 -40.354  1.00  0.00     0.278 HD
HETATM    5  C12 UNL     1      -0.908  13.661 -40.878  1.00  0.00     0.192 A 
HETATM    6  C13 UNL     1      -1.130  12.247 -41.327  1.00  0.00     0.041 A 
HETATM    7  C14 UNL     1      -0.973  13.282 -42.370  1.00  0.00     0.032 A 
HETATM    8  C15 UNL     1       0.361  13.677 -42.914  1.00  0.00     0.027 C 
ENDROOT
BRANCH   1   9
HETATM    9  C10 UNL     1       2.188  15.120 -42.040  1.00  0.00     0.003 C 
HETATM   10  C9  UNL     1       2.937  15.275 -40.952  1.00  0.00    -0.029 C 
BRANCH  10  11
HETATM   11  C8  UNL     1       4.387  15.643 -41.023  1.00  0.00     0.027 C 
BRANCH  11  12
HETATM   12  C7  UNL     1       4.993  15.787 -39.668  1.00  0.00     0.004 C 
BRANCH  12  13
HETATM   13  C6  UNL     1       4.606  14.625 -38.802  1.00  0.00     0.001 C 
BRANCH  13  14
HETATM   14  C5  UNL     1       5.727  13.706 -38.446  1.00  0.00     0.006 C 
BRANCH  14  15
HETATM   15  C4  UNL     1       7.082  14.260 -38.832  1.00  0.00     0.010 A 
HETATM   16  C2  UNL     1       8.247  13.353 -38.380  1.00  0.00     0.037 A 
HETATM   17  C1  UNL     1       9.439  14.059 -37.759  1.00  0.00     0.033 C 
HETATM   18 CL1  UNL     1       7.854  11.809 -37.628  1.00  0.00    -0.119 Cl
HETATM   19  C3  UNL     1       7.943  13.509 -39.818  1.00  0.00     0.032 A 
ENDBRANCH  14  15
ENDBRANCH  13  14
ENDBRANCH  12  13
ENDBRANCH  11  12
ENDBRANCH  10  11
ENDBRANCH   1   9
BRANCH   8  20
HETATM   20  C16 UNL     1       1.332  12.534 -42.904  1.00  0.00     0.177 C 
BRANCH  20  21
HETATM   21  O1  UNL     1       1.191  11.796 -44.070  1.00  0.00    -0.400 OA
ATOM     22  H1  UNL     1       1.442  10.894 -43.908  1.00  0.00     0.209 HD
ENDBRANCH  20  21
ENDBRANCH   8  20
BRANCH   8  23
HETATM   23  C17 UNL     1       0.312  14.308 -44.265  1.00  0.00     0.099 C 
HETATM   24 BR1  UNL     1      -1.463  14.346 -44.973  1.00  0.00    -0.096 Br
ENDBRANCH   8  23
TORSDOF 9
ENDMDL
MODEL 5
REMARK VINA RESULT: -6.693933084      1.319      1.647
REMARK  9 active torsions:
REMARK  status: ('A' for Active; 'I' for Inactive)
REMARK    1  A    between atoms: C4_5  and  C5_6 
REMARK    2  A    between atoms: C5_6  and  C6_7 
REMARK    3  A    between atoms: C6_7  and  C7_8 
REMARK    4  A    between atoms: C7_8  and  C8_9 
REMARK    5  A    between atoms: C8_9  and  C9_10 
REMARK    6  A    between atoms: C10_11  and  C11_12 
REMARK    7  A    between atoms: C15_19  and  C16_20 
REMARK    8  A    between atoms: C15_19  and  C17_23 
REMARK    9  A    between atoms: C16_20  and  O1_21 
ROOT
HETATM    1  C11 UNL     1      -0.176  14.026 -41.441  1.00  0.00     0.220 C 
HETATM    2  N1  UNL     1      -0.668  13.258 -40.319  1.00  0.00    -0.062 N 
ATOM      3  H11 UNL     1      -0.849  13.808 -39.479  1.00  0.00     0.278 HD
ATOM      4  H12 UNL     1       0.025  12.640 -39.894  1.00  0.00     0.278 HD
HETATM    5  C12 UNL     1      -1.824  12.582 -40.850  1.00  0.00     0.192 A 
HETATM    6  C13 UNL     1      -1.687  11.192 -41.394  1.00  0.00     0.041 A 
HETATM    7  C14 UNL     1      -1.495  12.318 -42.332  1.00  0.00     0.032 A 
HETATM    8  C15 UNL     1      -0.168  12.970 -42.541  1.00  0.00     0.027 C 
ENDROOT
BRANCH   1   9
HETATM    9  C10 UNL     1       1.138  14.621 -41.217  1.00  0.00     0.003 C 
HETATM   10  C9  UNL     1       1.322  15.930 -41.366  1.00  0.00    -0.029 C 
BRANCH  10  11
HETATM   11  C8  UNL     1       2.652  16.583 -41.148  1.00  0.00     0.027 C 
BRANCH  11  12
HETATM   12  C7  UNL     1       3.765  15.590 -41.130  1.00  0.00     0.004 C 
BRANCH  12  13
HETATM   13  C6  UNL     1       4.948  16.154 -40.401  1.00  0.00     0.001 C 
BRANCH  13  14
HETATM   14  C5  UNL     1       6.051  15.181 -40.146  1.00  0.00     0.006 C 
BRANCH  14  15
HETATM   15  C4  UNL     1       5.632  14.049 -39.231  1.00  0.00     0.010 A 
HETATM   16  C2  UNL     1       6.696  13.723 -38.162  1.00  0.00     0.037 A 
HETATM   17  C1  UNL     1       6.974  12.248 -37.927  1.00  0.00     0.033 C 
HETATM   18 CL1  UNL     1       8.127  14.747 -38.073  1.00  0.00    -0.119 Cl
HETATM   19  C3  UNL     1       5.403  14.319 -37.764  1.00  0.00     0.032 A 
ENDBRANCH  14  15
ENDBRANCH  13  14
ENDBRANCH  12  13
ENDBRANCH  11  12
ENDBRANCH  10  11
ENDBRANCH   1   9
BRANCH   8  20
HETATM   20  C16 UNL     1       0.966  12.006 -42.357  1.00  0.00     0.177 C 
BRANCH  20  21
HETATM   21  O1  UNL     1       1.843  12.113 -43.426  1.00  0.00    -0.400 OA
ATOM     22  H1  UNL     1       2.737  12.029 -43.113  1.00  0.00     0.209 HD
ENDBRANCH  20  21
ENDBRANCH   8  20
BRANCH   8  23
HETATM   23  C17 UNL     1      -0.035  13.690 -43.842  1.00  0.00     0.099 C 
HETATM   24 BR1  UNL     1      -1.736  14.047 -44.638  1.00  0.00    -0.096 Br
ENDBRANCH   8  23
TORSDOF 9
ENDMDL
