MODEL 1
REMARK VINA RESULT: -6.809476772      0.000      0.000
REMARK  9 active torsions:
REMARK  status: ('A' for Active; 'I' for Inactive)
REMARK    1  A    between atoms: C2_2  and  C3_3 
REMARK    2  A    between atoms: C5_6  and  C6_7 
REMARK    3  A    between atoms: C6_7  and  C7_8 
REMARK    4  A    between atoms: N1_12  and  C11_13 
REMARK    5  A    between atoms: C11_13  and  C12_14 
REMARK    6  A    between atoms: C12_14  and  C13_15 
REMARK    7  A    between atoms: C13_15  and  N2_16 
REMARK       I    between atoms: N2_16  and  C14_18 
REMARK       I    between atoms: C14_18  and  N3_20 
REMARK    8  A    between atoms: N3_20  and  C15_22 
REMARK    9  A    between atoms: C15_22  and  C16_23 
ROOT
HETATM    1  C7  UNL     1       1.241  15.103 -41.363  1.00  0.00     0.004 C 
HETATM    2  C8  UNL     1       1.174  15.936 -42.556  1.00  0.00     0.008 C 
HETATM    3  C9  UNL     1       0.858  15.184 -43.791  1.00  0.00     0.020 C 
HETATM    4  C10 UNL     1       0.665  13.712 -43.675  1.00  0.00     0.117 C 
HETATM    5  N1  UNL     1       0.051  13.267 -42.474  1.00  0.00    -0.412 N 
HETATM    6  C17 UNL     1       0.029  14.158 -41.395  1.00  0.00     0.121 C 
ENDROOT
BRANCH   5   7
HETATM    7  C11 UNL     1       0.099  11.874 -42.210  1.00  0.00     0.118 C 
BRANCH   7   8
HETATM    8  C12 UNL     1      -1.271  11.243 -42.424  1.00  0.00     0.039 C 
BRANCH   8   9
HETATM    9  C13 UNL     1      -1.899  10.924 -41.112  1.00  0.00     0.126 C 
BRANCH   9  10
HETATM   10  N2  UNL     1      -2.586  11.987 -40.473  1.00  0.00    -0.343 N 
HETATM   11  C14 UNL     1      -2.183  12.494 -39.214  1.00  0.00     0.316 C 
HETATM   12  O1  UNL     1      -1.187  11.989 -38.656  1.00  0.00    -0.247 OA
HETATM   13  N3  UNL     1      -2.870  13.552 -38.565  1.00  0.00    -0.342 N 
ATOM     14  H3  UNL     1      -3.676  13.946 -39.051  1.00  0.00     0.164 HD
ATOM     15  H2  UNL     1      -3.397  12.400 -40.935  1.00  0.00     0.164 HD
BRANCH  13  16
HETATM   16  C15 UNL     1      -2.542  14.113 -37.302  1.00  0.00     0.139 C 
BRANCH  16  17
HETATM   17  C16 UNL     1      -3.516  15.181 -36.907  1.00  0.00     0.134 C 
HETATM   18 CL2  UNL     1      -4.166  15.952 -38.392  1.00  0.00    -0.129 Cl
ENDBRANCH  16  17
ENDBRANCH  13  16
ENDBRANCH   9  10
ENDBRANCH   8   9
ENDBRANCH   7   8
ENDBRANCH   5   7
BRANCH   1  19
HETATM   19  C6  UNL     1       2.455  14.416 -40.890  1.00  0.00     0.011 C 
BRANCH  19  20
HETATM   20  C5  UNL     1       3.770  14.995 -41.016  1.00  0.00    -0.004 A 
HETATM   21  C2  UNL     1       4.951  14.976 -40.186  1.00  0.00    -0.027 A 
HETATM   22  C1  UNL     1       6.266  14.806 -40.973  1.00  0.00     0.016 C 
HETATM   23  C4  UNL     1       4.222  16.305 -40.494  1.00  0.00     0.016 A 
BRANCH  21  24
HETATM   24  C3  UNL     1       5.132  14.759 -38.721  1.00  0.00     0.124 C 
HETATM   25 CL1  UNL     1       6.049  13.323 -38.280  1.00  0.00    -0.130 Cl
ENDBRANCH  21  24
ENDBRANCH  19  20
ENDBRANCH   1  19
TORSDOF 9
ENDMDL
MODEL 2
REMARK VINA RESULT: -6.784771576      2.427      6.947
REMARK  9 active torsions:
REMARK  status: ('A' for Active; 'I' for Inactive)
REMARK    1  A    between atoms: C2_2  and  C3_3 
REMARK    2  A    between atoms: C5_6  and  C6_7 
REMARK    3  A    between atoms: C6_7  and  C7_8 
REMARK    4  A    between atoms: N1_12  and  C11_13 
REMARK    5  A    between atoms: C11_13  and  C12_14 
REMARK    6  A    between atoms: C12_14  and  C13_15 
REMARK    7  A    between atoms: C13_15  and  N2_16 
REMARK       I    between atoms: N2_16  and  C14_18 
REMARK       I    between atoms: C14_18  and  N3_20 
REMARK    8  A    between atoms: N3_20  and  C15_22 
REMARK    9  A    between atoms: C15_22  and  C16_23 
ROOT
HETATM    1  C7  UNL     1      -2.108  10.651 -41.122  1.00  0.00     0.004 C 
HETATM    2  C8  UNL     1      -2.801   9.620 -41.884  1.00  0.00     0.008 C 
HETATM    3  C9  UNL     1      -2.693   9.790 -43.351  1.00  0.00     0.020 C 
HETATM    4  C10 UNL     1      -1.926  10.962 -43.858  1.00  0.00     0.117 C 
HETATM    5  N1  UNL     1      -0.799  11.339 -43.081  1.00  0.00    -0.412 N 
HETATM    6  C17 UNL     1      -0.729  10.851 -41.771  1.00  0.00     0.121 C 
ENDROOT
BRANCH   5   7
HETATM    7  C11 UNL     1      -0.214  12.598 -43.374  1.00  0.00     0.118 C 
BRANCH   7   8
HETATM    8  C12 UNL     1       1.219  12.653 -42.859  1.00  0.00     0.039 C 
BRANCH   8   9
HETATM    9  C13 UNL     1       1.500  13.991 -42.269  1.00  0.00     0.126 C 
BRANCH   9  10
HETATM   10  N2  UNL     1       2.141  13.994 -41.004  1.00  0.00    -0.343 N 
HETATM   11  C14 UNL     1       3.399  14.611 -40.800  1.00  0.00     0.316 C 
HETATM   12  O1  UNL     1       3.954  15.174 -41.767  1.00  0.00    -0.247 OA
HETATM   13  N3  UNL     1       4.050  14.611 -39.540  1.00  0.00    -0.342 N 
ATOM     14  H3  UNL     1       3.567  14.148 -38.770  1.00  0.00     0.164 HD
ATOM     15  H2  UNL     1       1.682  13.537 -40.216  1.00  0.00     0.164 HD
BRANCH  13  16
HETATM   16  C15 UNL     1       5.312  15.195 -39.249  1.00  0.00     0.139 C 
BRANCH  16  17
HETATM   17  C16 UNL     1       6.295  14.169 -38.776  1.00  0.00     0.134 C 
HETATM   18 CL2  UNL     1       7.462  13.829 -40.097  1.00  0.00    -0.129 Cl
ENDBRANCH  16  17
ENDBRANCH  13  16
ENDBRANCH   9  10
ENDBRANCH   8   9
ENDBRANCH   7   8
ENDBRANCH   5   7
BRANCH   1  19
HETATM   19  C6  UNL     1      -2.708  11.931 -40.711  1.00  0.00     0.011 C 
BRANCH  19  20
HETATM   20  C5  UNL     1      -2.227  12.683 -39.578  1.00  0.00    -0.004 A 
HETATM   21  C2  UNL     1      -2.514  13.999 -39.061  1.00  0.00    -0.027 A 
HETATM   22  C1  UNL     1      -2.627  14.056 -37.524  1.00  0.00     0.016 C 
HETATM   23  C4  UNL     1      -1.094  13.636 -39.555  1.00  0.00     0.016 A 
BRANCH  21  24
HETATM   24  C3  UNL     1      -3.040  15.231 -39.716  1.00  0.00     0.124 C 
HETATM   25 CL1  UNL     1      -4.278  14.964 -40.939  1.00  0.00    -0.130 Cl
ENDBRANCH  21  24
ENDBRANCH  19  20
ENDBRANCH   1  19
TORSDOF 9
ENDMDL
MODEL 3
REMARK VINA RESULT: -6.771797223      3.428      5.916
REMARK  9 active torsions:
REMARK  status: ('A' for Active; 'I' for Inactive)
REMARK    1  A    between atoms: C2_2  and  C3_3 
REMARK    2  A    between atoms: C5_6  and  C6_7 
REMARK    3  A    between atoms: C6_7  and  C7_8 
REMARK    4  A    between atoms: N1_12  and  C11_13 
REMARK    5  A    between atoms: C11_13  and  C12_14 
REMARK    6  A    between atoms: C12_14  and  C13_15 
REMARK    7  A    between atoms: C13_15  and  N2_16 
REMARK       I    between atoms: N2_16  and  C14_18 
REMARK       I    between atoms: C14_18  and  N3_20 
REMARK    8  A    between atoms: N3_20  and  C15_22 
REMARK    9  A    between atoms: C15_22  and  C16_23 
ROOT
HETATM    1  C7  UNL     1       7.650  13.757 -39.675  1.00  0.00     0.004 C 
HETATM    2  C8  UNL     1       7.116  13.017 -38.538  1.00  0.00     0.008 C 
HETATM    3  C9  UNL     1       5.858  13.580 -37.999  1.00  0.00     0.020 C 
HETATM    4  C10 UNL     1       5.311  14.802 -38.651  1.00  0.00     0.117 C 
HETATM    5  N1  UNL     1       5.505  14.887 -40.056  1.00  0.00    -0.412 N 
HETATM    6  C17 UNL     1       6.476  14.052 -40.621  1.00  0.00     0.121 C 
ENDROOT
BRANCH   5   7
HETATM    7  C11 UNL     1       5.246  16.143 -40.662  1.00  0.00     0.118 C 
BRANCH   7   8
HETATM    8  C12 UNL     1       3.748  16.420 -40.694  1.00  0.00     0.039 C 
BRANCH   8   9
HETATM    9  C13 UNL     1       3.039  15.326 -41.411  1.00  0.00     0.126 C 
BRANCH   9  10
HETATM   10  N2  UNL     1       2.091  14.593 -40.653  1.00  0.00    -0.343 N 
HETATM   11  C14 UNL     1       0.751  14.427 -41.082  1.00  0.00     0.316 C 
HETATM   12  O1  UNL     1       0.402  14.940 -42.165  1.00  0.00    -0.247 OA
HETATM   13  N3  UNL     1      -0.204  13.702 -40.324  1.00  0.00    -0.342 N 
ATOM     14  H3  UNL     1       0.116  13.291 -39.447  1.00  0.00     0.164 HD
ATOM     15  H2  UNL     1       2.382  14.172 -39.771  1.00  0.00     0.164 HD
BRANCH  13  16
HETATM   16  C15 UNL     1      -1.566  13.495 -40.673  1.00  0.00     0.139 C 
BRANCH  16  17
HETATM   17  C16 UNL     1      -2.218  12.497 -39.766  1.00  0.00     0.134 C 
HETATM   18 CL2  UNL     1      -1.843  12.927 -38.064  1.00  0.00    -0.129 Cl
ENDBRANCH  16  17
ENDBRANCH  13  16
ENDBRANCH   9  10
ENDBRANCH   8   9
ENDBRANCH   7   8
ENDBRANCH   5   7
BRANCH   1  19
HETATM   19  C6  UNL     1       8.566  14.904 -39.568  1.00  0.00     0.011 C 
BRANCH  19  20
HETATM   20  C5  UNL     1       9.802  14.842 -38.828  1.00  0.00    -0.004 A 
HETATM   21  C2  UNL     1      10.128  14.906 -37.423  1.00  0.00    -0.027 A 
HETATM   22  C1  UNL     1      11.215  13.903 -36.987  1.00  0.00     0.016 C 
HETATM   23  C4  UNL     1      10.647  15.982 -38.405  1.00  0.00     0.016 A 
BRANCH  21  24
HETATM   24  C3  UNL     1       9.406  15.503 -36.263  1.00  0.00     0.124 C 
HETATM   25 CL1  UNL     1       8.283  14.427 -35.438  1.00  0.00    -0.130 Cl
ENDBRANCH  21  24
ENDBRANCH  19  20
ENDBRANCH   1  19
TORSDOF 9
ENDMDL
MODEL 4
REMARK VINA RESULT: -6.660008166      3.867      6.513
REMARK  9 active torsions:
REMARK  status: ('A' for Active; 'I' for Inactive)
REMARK    1  A    between atoms: C2_2  and  C3_3 
REMARK    2  A    between atoms: C5_6  and  C6_7 
REMARK    3  A    between atoms: C6_7  and  C7_8 
REMARK    4  A    between atoms: N1_12  and  C11_13 
REMARK    5  A    between atoms: C11_13  and  C12_14 
REMARK    6  A    between atoms: C12_14  and  C13_15 
REMARK    7  A    between atoms: C13_15  and  N2_16 
REMARK       I    between atoms: N2_16  and  C14_18 
REMARK       I    between atoms: C14_18  and  N3_20 
REMARK    8  A    between atoms: N3_20  and  C15_22 
REMARK    9  A    between atoms: C15_22  and  C16_23 
ROOT
HETATM    1  C7  UNL     1       8.397  13.850 -39.590  1.00  0.00     0.004 C 
HETATM    2  C8  UNL     1       8.512  12.637 -38.791  1.00  0.00     0.008 C 
HETATM    3  C9  UNL     1       7.361  12.404 -37.891  1.00  0.00     0.020 C 
HETATM    4  C10 UNL     1       6.263  13.409 -37.897  1.00  0.00     0.117 C 
HETATM    5  N1  UNL     1       5.986  14.008 -39.156  1.00  0.00    -0.412 N 
HETATM    6  C17 UNL     1       6.966  13.896 -40.149  1.00  0.00     0.121 C 
ENDROOT
BRANCH   5   7
HETATM    7  C11 UNL     1       5.147  15.151 -39.148  1.00  0.00     0.118 C 
BRANCH   7   8
HETATM    8  C12 UNL     1       5.143  15.818 -40.518  1.00  0.00     0.039 C 
BRANCH   8   9
HETATM    9  C13 UNL     1       3.746  15.961 -41.015  1.00  0.00     0.126 C 
BRANCH   9  10
HETATM   10  N2  UNL     1       2.834  14.952 -40.613  1.00  0.00    -0.343 N 
HETATM   11  C14 UNL     1       1.476  14.963 -41.015  1.00  0.00     0.316 C 
HETATM   12  O1  UNL     1       1.077  15.890 -41.750  1.00  0.00    -0.247 OA
HETATM   13  N3  UNL     1       0.556  13.962 -40.611  1.00  0.00    -0.342 N 
ATOM     14  H3  UNL     1       0.917  13.216 -40.016  1.00  0.00     0.164 HD
ATOM     15  H2  UNL     1       3.166  14.194 -40.016  1.00  0.00     0.164 HD
BRANCH  13  16
HETATM   16  C15 UNL     1      -0.820  13.901 -40.958  1.00  0.00     0.139 C 
BRANCH  16  17
HETATM   17  C16 UNL     1      -1.696  14.049 -39.752  1.00  0.00     0.134 C 
HETATM   18 CL2  UNL     1      -1.498  12.602 -38.709  1.00  0.00    -0.129 Cl
ENDBRANCH  16  17
ENDBRANCH  13  16
ENDBRANCH   9  10
ENDBRANCH   8   9
ENDBRANCH   7   8
ENDBRANCH   5   7
BRANCH   1  19
HETATM   19  C6  UNL     1       8.855  15.181 -39.158  1.00  0.00     0.011 C 
BRANCH  19  20
HETATM   20  C5  UNL     1      10.045  15.370 -38.366  1.00  0.00    -0.004 A 
HETATM   21  C2  UNL     1      10.299  15.428 -36.947  1.00  0.00    -0.027 A 
HETATM   22  C1  UNL     1      11.580  14.688 -36.510  1.00  0.00     0.016 C 
HETATM   23  C4  UNL     1      10.579  16.652 -37.850  1.00  0.00     0.016 A 
BRANCH  21  24
HETATM   24  C3  UNL     1       9.418  15.770 -35.793  1.00  0.00     0.124 C 
HETATM   25 CL1  UNL     1       8.548  14.416 -35.081  1.00  0.00    -0.130 Cl
ENDBRANCH  21  24
ENDBRANCH  19  20
ENDBRANCH   1  19
TORSDOF 9
ENDMDL
MODEL 5
REMARK VINA RESULT: -6.648912473      4.145      7.310
REMARK  9 active torsions:
REMARK  status: ('A' for Active; 'I' for Inactive)
REMARK    1  A    between atoms: C2_2  and  C3_3 
REMARK    2  A    between atoms: C5_6  and  C6_7 
REMARK    3  A    between atoms: C6_7  and  C7_8 
REMARK    4  A    between atoms: N1_12  and  C11_13 
REMARK    5  A    between atoms: C11_13  and  C12_14 
REMARK    6  A    between atoms: C12_14  and  C13_15 
REMARK    7  A    between atoms: C13_15  and  N2_16 
REMARK       I    between atoms: N2_16  and  C14_18 
REMARK       I    between atoms: C14_18  and  N3_20 
REMARK    8  A    between atoms: N3_20  and  C15_22 
REMARK    9  A    between atoms: C15_22  and  C16_23 
ROOT
HETATM    1  C7  UNL     1      -2.268  10.691 -41.272  1.00  0.00     0.004 C 
HETATM    2  C8  UNL     1      -2.888   9.967 -42.375  1.00  0.00     0.008 C 
HETATM    3  C9  UNL     1      -2.345  10.326 -43.704  1.00  0.00     0.020 C 
HETATM    4  C10 UNL     1      -1.275  11.360 -43.758  1.00  0.00     0.117 C 
HETATM    5  N1  UNL     1      -0.362  11.356 -42.669  1.00  0.00    -0.412 N 
HETATM    6  C17 UNL     1      -0.750  10.674 -41.510  1.00  0.00     0.121 C 
ENDROOT
BRANCH   5   7
HETATM    7  C11 UNL     1       0.492  12.482 -42.548  1.00  0.00     0.118 C 
BRANCH   7   8
HETATM    8  C12 UNL     1      -0.238  13.752 -42.966  1.00  0.00     0.039 C 
BRANCH   8   9
HETATM    9  C13 UNL     1       0.697  14.671 -43.672  1.00  0.00     0.126 C 
BRANCH   9  10
HETATM   10  N2  UNL     1       0.130  15.476 -44.693  1.00  0.00    -0.343 N 
HETATM   11  C14 UNL     1      -0.054  14.996 -46.013  1.00  0.00     0.316 C 
HETATM   12  O1  UNL     1       0.291  13.826 -46.278  1.00  0.00    -0.247 OA
HETATM   13  N3  UNL     1      -0.613  15.798 -47.041  1.00  0.00    -0.342 N 
ATOM     14  H3  UNL     1      -0.889  16.747 -46.789  1.00  0.00     0.164 HD
ATOM     15  H2  UNL     1      -0.154  16.430 -44.471  1.00  0.00     0.164 HD
BRANCH  13  16
HETATM   16  C15 UNL     1      -0.823  15.402 -48.390  1.00  0.00     0.139 C 
BRANCH  16  17
HETATM   17  C16 UNL     1      -2.254  15.034 -48.636  1.00  0.00     0.134 C 
HETATM   18 CL2  UNL     1      -2.478  13.292 -48.263  1.00  0.00    -0.129 Cl
ENDBRANCH  16  17
ENDBRANCH  13  16
ENDBRANCH   9  10
ENDBRANCH   8   9
ENDBRANCH   7   8
ENDBRANCH   5   7
BRANCH   1  19
HETATM   19  C6  UNL     1      -2.726  11.996 -40.768  1.00  0.00     0.011 C 
BRANCH  19  20
HETATM   20  C5  UNL     1      -2.172  12.606 -39.584  1.00  0.00    -0.004 A 
HETATM   21  C2  UNL     1      -2.425  13.846 -38.890  1.00  0.00    -0.027 A 
HETATM   22  C1  UNL     1      -2.438  13.712 -37.354  1.00  0.00     0.016 C 
HETATM   23  C4  UNL     1      -1.040  13.558 -39.517  1.00  0.00     0.016 A 
BRANCH  21  24
HETATM   24  C3  UNL     1      -2.993  15.145 -39.353  1.00  0.00     0.124 C 
HETATM   25 CL1  UNL     1      -4.088  15.934 -38.222  1.00  0.00    -0.130 Cl
ENDBRANCH  21  24
ENDBRANCH  19  20
ENDBRANCH   1  19
TORSDOF 9
ENDMDL
