MODEL 1
REMARK VINA RESULT: -5.865218184      0.000      0.000
REMARK  13 active torsions:
REMARK  status: ('A' for Active; 'I' for Inactive)
REMARK    1  A    between atoms: C1_2  and  C2_4 
REMARK    2  A    between atoms: C2_4  and  C3_5 
REMARK    3  A    between atoms: C3_5  and  C4_6 
REMARK    4  A    between atoms: C4_6  and  N2_7 
REMARK    5  A    between atoms: C4_6  and  C14_20 
REMARK    6  A    between atoms: N2_7  and  C5_9 
REMARK    7  A    between atoms: C5_9  and  C6_11 
REMARK    8  A    between atoms: C6_11  and  C7_12 
REMARK    9  A    between atoms: C7_12  and  C8_13 
REMARK   10  A    between atoms: C8_13  and  C9_14 
REMARK   11  A    between atoms: C9_14  and  C10_15 
REMARK   12  A    between atoms: C10_15  and  C11_16 
REMARK   13  A    between atoms: C12_17  and  C13_18 
ROOT
HETATM    1  N2  UNL     1      -0.869  14.116 -41.408  1.00  0.00    -0.371 N 
ATOM      2  H2  UNL     1      -1.316  15.014 -41.592  1.00  0.00     0.161 HD
ENDROOT
BRANCH   1   3
HETATM    3  C4  UNL     1       0.584  14.149 -41.294  1.00  0.00     0.172 C 
BRANCH   3   4
HETATM    4  C3  UNL     1       1.030  15.242 -40.400  1.00  0.00     0.043 C 
BRANCH   4   5
HETATM    5  C2  UNL     1       2.348  15.179 -39.736  1.00  0.00     0.102 C 
BRANCH   5   6
HETATM    6  C1  UNL     1       3.400  16.020 -40.313  1.00  0.00     0.231 C 
HETATM    7  N1  UNL     1       3.437  17.433 -40.069  1.00  0.00    -0.062 NA
HETATM    8  O1  UNL     1       4.287  15.520 -41.042  1.00  0.00    -0.277 OA
ENDBRANCH   5   6
ENDBRANCH   4   5
ENDBRANCH   3   4
BRANCH   3   9
HETATM    9  C14 UNL     1       1.215  13.991 -42.589  1.00  0.00     0.253 C 
HETATM   10  N3  UNL     1       1.488  15.092 -43.472  1.00  0.00    -0.060 NA
HETATM   11  O2  UNL     1       1.572  12.843 -43.003  1.00  0.00    -0.275 OA
ENDBRANCH   3   9
ENDBRANCH   1   3
BRANCH   1  12
HETATM   12  C5  UNL     1      -1.728  13.031 -41.301  1.00  0.00     0.074 C 
HETATM   13  S1  UNL     1      -1.924  11.937 -42.474  1.00  0.00    -0.066 SA
BRANCH  12  14
HETATM   14  C6  UNL     1      -2.534  12.884 -40.061  1.00  0.00     0.069 C 
BRANCH  14  15
HETATM   15  C7  UNL     1      -1.745  12.575 -38.847  1.00  0.00     0.007 C 
BRANCH  15  16
HETATM   16  C8  UNL     1      -1.478  13.792 -38.004  1.00  0.00     0.001 C 
BRANCH  16  17
HETATM   17  C9  UNL     1      -2.518  13.774 -36.901  1.00  0.00     0.012 C 
BRANCH  17  18
HETATM   18  C10 UNL     1      -3.121  15.173 -36.716  1.00  0.00     0.094 C 
BRANCH  18  19
HETATM   19  C11 UNL     1      -3.949  15.503 -37.893  1.00  0.00    -0.106 C 
HETATM   20  C12 UNL     1      -4.642  15.760 -38.847  1.00  0.00    -0.096 C 
BRANCH  20  21
HETATM   21  C13 UNL     1      -5.504  16.062 -39.993  1.00  0.00     0.178 C 
HETATM   22 BR1  UNL     1      -4.587  15.722 -41.665  1.00  0.00    -0.083 Br
ENDBRANCH  20  21
ENDBRANCH  18  19
ENDBRANCH  17  18
ENDBRANCH  16  17
ENDBRANCH  15  16
ENDBRANCH  14  15
ENDBRANCH  12  14
ENDBRANCH   1  12
TORSDOF 13
ENDMDL
MODEL 2
REMARK VINA RESULT: -5.752234695      4.338      7.514
REMARK  13 active torsions:
REMARK  status: ('A' for Active; 'I' for Inactive)
REMARK    1  A    between atoms: C1_2  and  C2_4 
REMARK    2  A    between atoms: C2_4  and  C3_5 
REMARK    3  A    between atoms: C3_5  and  C4_6 
REMARK    4  A    between atoms: C4_6  and  N2_7 
REMARK    5  A    between atoms: C4_6  and  C14_20 
REMARK    6  A    between atoms: N2_7  and  C5_9 
REMARK    7  A    between atoms: C5_9  and  C6_11 
REMARK    8  A    between atoms: C6_11  and  C7_12 
REMARK    9  A    between atoms: C7_12  and  C8_13 
REMARK   10  A    between atoms: C8_13  and  C9_14 
REMARK   11  A    between atoms: C9_14  and  C10_15 
REMARK   12  A    between atoms: C10_15  and  C11_16 
REMARK   13  A    between atoms: C12_17  and  C13_18 
ROOT
HETATM    1  N2  UNL     1       0.455  13.869 -40.705  1.00  0.00    -0.371 N 
ATOM      2  H2  UNL     1       0.941  13.627 -39.841  1.00  0.00     0.161 HD
ENDROOT
BRANCH   1   3
HETATM    3  C4  UNL     1      -0.723  13.065 -41.009  1.00  0.00     0.172 C 
BRANCH   3   4
HETATM    4  C3  UNL     1      -1.924  13.587 -40.316  1.00  0.00     0.043 C 
BRANCH   4   5
HETATM    5  C2  UNL     1      -1.791  14.556 -39.209  1.00  0.00     0.102 C 
BRANCH   5   6
HETATM    6  C1  UNL     1      -1.898  14.005 -37.856  1.00  0.00     0.231 C 
HETATM    7  N1  UNL     1      -2.899  14.472 -36.942  1.00  0.00    -0.062 NA
HETATM    8  O1  UNL     1      -1.106  13.117 -37.466  1.00  0.00    -0.277 OA
ENDBRANCH   5   6
ENDBRANCH   4   5
ENDBRANCH   3   4
BRANCH   3   9
HETATM    9  C14 UNL     1      -0.425  11.650 -40.940  1.00  0.00     0.253 C 
HETATM   10  N3  UNL     1       0.705  11.049 -41.595  1.00  0.00    -0.060 NA
HETATM   11  O2  UNL     1      -1.165  10.861 -40.270  1.00  0.00    -0.275 OA
ENDBRANCH   3   9
ENDBRANCH   1   3
BRANCH   1  12
HETATM   12  C5  UNL     1       1.007  14.917 -41.428  1.00  0.00     0.074 C 
HETATM   13  S1  UNL     1       1.046  14.954 -43.043  1.00  0.00    -0.066 SA
BRANCH  12  14
HETATM   14  C6  UNL     1       1.623  16.046 -40.684  1.00  0.00     0.069 C 
BRANCH  14  15
HETATM   15  C7  UNL     1       3.059  15.865 -40.370  1.00  0.00     0.007 C 
BRANCH  15  16
HETATM   16  C8  UNL     1       3.726  17.147 -39.953  1.00  0.00     0.001 C 
BRANCH  16  17
HETATM   17  C9  UNL     1       5.148  16.777 -39.579  1.00  0.00     0.012 C 
BRANCH  17  18
HETATM   18  C10 UNL     1       5.630  15.593 -40.427  1.00  0.00     0.094 C 
BRANCH  18  19
HETATM   19  C11 UNL     1       6.605  14.803 -39.649  1.00  0.00    -0.106 C 
HETATM   20  C12 UNL     1       7.385  14.152 -38.997  1.00  0.00    -0.096 C 
BRANCH  20  21
HETATM   21  C13 UNL     1       8.313  13.353 -38.192  1.00  0.00     0.178 C 
HETATM   22 BR1  UNL     1       8.003  13.619 -36.299  1.00  0.00    -0.083 Br
ENDBRANCH  20  21
ENDBRANCH  18  19
ENDBRANCH  17  18
ENDBRANCH  16  17
ENDBRANCH  15  16
ENDBRANCH  14  15
ENDBRANCH  12  14
ENDBRANCH   1  12
TORSDOF 13
ENDMDL
MODEL 3
REMARK VINA RESULT: -5.751323308      4.677      8.013
REMARK  13 active torsions:
REMARK  status: ('A' for Active; 'I' for Inactive)
REMARK    1  A    between atoms: C1_2  and  C2_4 
REMARK    2  A    between atoms: C2_4  and  C3_5 
REMARK    3  A    between atoms: C3_5  and  C4_6 
REMARK    4  A    between atoms: C4_6  and  N2_7 
REMARK    5  A    between atoms: C4_6  and  C14_20 
REMARK    6  A    between atoms: N2_7  and  C5_9 
REMARK    7  A    between atoms: C5_9  and  C6_11 
REMARK    8  A    between atoms: C6_11  and  C7_12 
REMARK    9  A    between atoms: C7_12  and  C8_13 
REMARK   10  A    between atoms: C8_13  and  C9_14 
REMARK   11  A    between atoms: C9_14  and  C10_15 
REMARK   12  A    between atoms: C10_15  and  C11_16 
REMARK   13  A    between atoms: C12_17  and  C13_18 
ROOT
HETATM    1  N2  UNL     1       0.268  14.399 -39.688  1.00  0.00    -0.371 N 
ATOM      2  H2  UNL     1       0.830  14.226 -38.854  1.00  0.00     0.161 HD
ENDROOT
BRANCH   1   3
HETATM    3  C4  UNL     1      -1.158  14.127 -39.554  1.00  0.00     0.172 C 
BRANCH   3   4
HETATM    4  C3  UNL     1      -1.947  15.380 -39.554  1.00  0.00     0.043 C 
BRANCH   4   5
HETATM    5  C2  UNL     1      -3.350  15.385 -40.019  1.00  0.00     0.102 C 
BRANCH   5   6
HETATM    6  C1  UNL     1      -4.369  15.584 -38.986  1.00  0.00     0.231 C 
HETATM    7  N1  UNL     1      -4.020  15.609 -37.596  1.00  0.00    -0.062 NA
HETATM    8  O1  UNL     1      -5.573  15.729 -39.299  1.00  0.00    -0.277 OA
ENDBRANCH   5   6
ENDBRANCH   4   5
ENDBRANCH   3   4
BRANCH   3   9
HETATM    9  C14 UNL     1      -1.408  13.134 -38.530  1.00  0.00     0.253 C 
HETATM   10  N3  UNL     1      -1.836  11.793 -38.820  1.00  0.00    -0.060 NA
HETATM   11  O2  UNL     1      -1.243  13.413 -37.300  1.00  0.00    -0.275 OA
ENDBRANCH   3   9
ENDBRANCH   1   3
BRANCH   1  12
HETATM   12  C5  UNL     1       0.967  14.861 -40.795  1.00  0.00     0.074 C 
HETATM   13  S1  UNL     1       1.061  14.045 -42.187  1.00  0.00    -0.066 SA
BRANCH  12  14
HETATM   14  C6  UNL     1       1.695  16.152 -40.687  1.00  0.00     0.069 C 
BRANCH  14  15
HETATM   15  C7  UNL     1       3.162  16.021 -40.533  1.00  0.00     0.007 C 
BRANCH  15  16
HETATM   16  C8  UNL     1       3.791  17.242 -39.921  1.00  0.00     0.001 C 
BRANCH  16  17
HETATM   17  C9  UNL     1       5.206  16.844 -39.550  1.00  0.00     0.012 C 
BRANCH  17  18
HETATM   18  C10 UNL     1       5.651  15.630 -40.377  1.00  0.00     0.094 C 
BRANCH  18  19
HETATM   19  C11 UNL     1       6.607  14.829 -39.588  1.00  0.00    -0.106 C 
HETATM   20  C12 UNL     1       7.381  14.154 -38.954  1.00  0.00    -0.096 C 
BRANCH  20  21
HETATM   21  C13 UNL     1       8.318  13.316 -38.199  1.00  0.00     0.178 C 
HETATM   22 BR1  UNL     1       8.066  13.531 -36.292  1.00  0.00    -0.083 Br
ENDBRANCH  20  21
ENDBRANCH  18  19
ENDBRANCH  17  18
ENDBRANCH  16  17
ENDBRANCH  15  16
ENDBRANCH  14  15
ENDBRANCH  12  14
ENDBRANCH   1  12
TORSDOF 13
ENDMDL
MODEL 4
REMARK VINA RESULT: -5.728531823      2.017      2.933
REMARK  13 active torsions:
REMARK  status: ('A' for Active; 'I' for Inactive)
REMARK    1  A    between atoms: C1_2  and  C2_4 
REMARK    2  A    between atoms: C2_4  and  C3_5 
REMARK    3  A    between atoms: C3_5  and  C4_6 
REMARK    4  A    between atoms: C4_6  and  N2_7 
REMARK    5  A    between atoms: C4_6  and  C14_20 
REMARK    6  A    between atoms: N2_7  and  C5_9 
REMARK    7  A    between atoms: C5_9  and  C6_11 
REMARK    8  A    between atoms: C6_11  and  C7_12 
REMARK    9  A    between atoms: C7_12  and  C8_13 
REMARK   10  A    between atoms: C8_13  and  C9_14 
REMARK   11  A    between atoms: C9_14  and  C10_15 
REMARK   12  A    between atoms: C10_15  and  C11_16 
REMARK   13  A    between atoms: C12_17  and  C13_18 
ROOT
HETATM    1  N2  UNL     1      -1.136  14.702 -41.767  1.00  0.00    -0.371 N 
ATOM      2  H2  UNL     1      -1.081  15.690 -42.015  1.00  0.00     0.161 HD
ENDROOT
BRANCH   1   3
HETATM    3  C4  UNL     1       0.123  14.081 -41.375  1.00  0.00     0.172 C 
BRANCH   3   4
HETATM    4  C3  UNL     1       0.805  14.866 -40.321  1.00  0.00     0.043 C 
BRANCH   4   5
HETATM    5  C2  UNL     1       1.380  16.194 -40.626  1.00  0.00     0.102 C 
BRANCH   5   6
HETATM    6  C1  UNL     1       2.836  16.305 -40.513  1.00  0.00     0.231 C 
HETATM    7  N1  UNL     1       3.696  15.234 -40.923  1.00  0.00    -0.062 NA
HETATM    8  O1  UNL     1       3.361  17.342 -40.045  1.00  0.00    -0.277 OA
ENDBRANCH   5   6
ENDBRANCH   4   5
ENDBRANCH   3   4
BRANCH   3   9
HETATM    9  C14 UNL     1       0.876  13.647 -42.533  1.00  0.00     0.253 C 
HETATM   10  N3  UNL     1       1.890  12.629 -42.478  1.00  0.00    -0.060 NA
HETATM   11  O2  UNL     1       0.658  14.154 -43.679  1.00  0.00    -0.275 OA
ENDBRANCH   3   9
ENDBRANCH   1   3
BRANCH   1  12
HETATM   12  C5  UNL     1      -2.400  14.134 -41.850  1.00  0.00     0.074 C 
HETATM   13  S1  UNL     1      -2.878  13.216 -43.091  1.00  0.00    -0.066 SA
BRANCH  12  14
HETATM   14  C6  UNL     1      -3.375  14.411 -40.764  1.00  0.00     0.069 C 
BRANCH  14  15
HETATM   15  C7  UNL     1      -2.875  15.316 -39.704  1.00  0.00     0.007 C 
BRANCH  15  16
HETATM   16  C8  UNL     1      -3.250  14.853 -38.322  1.00  0.00     0.001 C 
BRANCH  16  17
HETATM   17  C9  UNL     1      -1.946  14.528 -37.621  1.00  0.00     0.012 C 
BRANCH  17  18
HETATM   18  C10 UNL     1      -1.925  13.054 -37.193  1.00  0.00     0.094 C 
BRANCH  18  19
HETATM   19  C11 UNL     1      -1.747  12.204 -38.386  1.00  0.00    -0.106 C 
HETATM   20  C12 UNL     1      -1.592  11.526 -39.373  1.00  0.00    -0.096 C 
BRANCH  20  21
HETATM   21  C13 UNL     1      -1.386  10.720 -40.580  1.00  0.00     0.178 C 
HETATM   22 BR1  UNL     1      -3.050   9.940 -41.190  1.00  0.00    -0.083 Br
ENDBRANCH  20  21
ENDBRANCH  18  19
ENDBRANCH  17  18
ENDBRANCH  16  17
ENDBRANCH  15  16
ENDBRANCH  14  15
ENDBRANCH  12  14
ENDBRANCH   1  12
TORSDOF 13
ENDMDL
MODEL 5
REMARK VINA RESULT: -5.710371456      4.352      7.436
REMARK  13 active torsions:
REMARK  status: ('A' for Active; 'I' for Inactive)
REMARK    1  A    between atoms: C1_2  and  C2_4 
REMARK    2  A    between atoms: C2_4  and  C3_5 
REMARK    3  A    between atoms: C3_5  and  C4_6 
REMARK    4  A    between atoms: C4_6  and  N2_7 
REMARK    5  A    between atoms: C4_6  and  C14_20 
REMARK    6  A    between atoms: N2_7  and  C5_9 
REMARK    7  A    between atoms: C5_9  and  C6_11 
REMARK    8  A    between atoms: C6_11  and  C7_12 
REMARK    9  A    between atoms: C7_12  and  C8_13 
REMARK   10  A    between atoms: C8_13  and  C9_14 
REMARK   11  A    between atoms: C9_14  and  C10_15 
REMARK   12  A    between atoms: C10_15  and  C11_16 
REMARK   13  A    between atoms: C12_17  and  C13_18 
ROOT
HETATM    1  N2  UNL     1      -0.494  14.118 -39.571  1.00  0.00    -0.371 N 
ATOM      2  H2  UNL     1       0.251  14.252 -38.887  1.00  0.00     0.161 HD
ENDROOT
BRANCH   1   3
HETATM    3  C4  UNL     1      -1.852  14.211 -39.050  1.00  0.00     0.172 C 
BRANCH   3   4
HETATM    4  C3  UNL     1      -2.526  15.442 -39.520  1.00  0.00     0.043 C 
BRANCH   4   5
HETATM    5  C2  UNL     1      -3.663  15.363 -40.462  1.00  0.00     0.102 C 
BRANCH   5   6
HETATM    6  C1  UNL     1      -4.951  15.845 -39.956  1.00  0.00     0.231 C 
HETATM    7  N1  UNL     1      -5.918  16.437 -40.834  1.00  0.00    -0.062 NA
HETATM    8  O1  UNL     1      -5.230  15.756 -38.738  1.00  0.00    -0.277 OA
ENDBRANCH   5   6
ENDBRANCH   4   5
ENDBRANCH   3   4
BRANCH   3   9
HETATM    9  C14 UNL     1      -1.897  13.873 -37.642  1.00  0.00     0.253 C 
HETATM   10  N3  UNL     1      -2.827  14.464 -36.719  1.00  0.00    -0.060 NA
HETATM   11  O2  UNL     1      -1.100  13.010 -37.155  1.00  0.00    -0.275 OA
ENDBRANCH   3   9
ENDBRANCH   1   3
BRANCH   1  12
HETATM   12  C5  UNL     1      -0.074  13.872 -40.871  1.00  0.00     0.074 C 
HETATM   13  S1  UNL     1      -0.806  12.819 -41.854  1.00  0.00    -0.066 SA
BRANCH  12  14
HETATM   14  C6  UNL     1       1.128  14.585 -41.375  1.00  0.00     0.069 C 
BRANCH  14  15
HETATM   15  C7  UNL     1       1.644  15.639 -40.471  1.00  0.00     0.007 C 
BRANCH  15  16
HETATM   16  C8  UNL     1       3.086  15.974 -40.735  1.00  0.00     0.001 C 
BRANCH  16  17
HETATM   17  C9  UNL     1       3.354  17.277 -40.008  1.00  0.00     0.012 C 
BRANCH  17  18
HETATM   18  C10 UNL     1       4.816  17.337 -39.546  1.00  0.00     0.094 C 
BRANCH  18  19
HETATM   19  C11 UNL     1       5.116  16.147 -38.727  1.00  0.00    -0.106 C 
HETATM   20  C12 UNL     1       5.355  15.159 -38.074  1.00  0.00    -0.096 C 
BRANCH  20  21
HETATM   21  C13 UNL     1       5.643  13.947 -37.302  1.00  0.00     0.178 C 
HETATM   22 BR1  UNL     1       7.492  13.411 -37.509  1.00  0.00    -0.083 Br
ENDBRANCH  20  21
ENDBRANCH  18  19
ENDBRANCH  17  18
ENDBRANCH  16  17
ENDBRANCH  15  16
ENDBRANCH  14  15
ENDBRANCH  12  14
ENDBRANCH   1  12
TORSDOF 13
ENDMDL
