MODEL 1
REMARK VINA RESULT: -6.201031502      0.000      0.000
REMARK  11 active torsions:
REMARK  status: ('A' for Active; 'I' for Inactive)
REMARK    1  A    between atoms: C2_3  and  C3_4 
REMARK    2  A    between atoms: C3_4  and  C4_5 
REMARK    3  A    between atoms: C4_5  and  C5_6 
REMARK    4  A    between atoms: C5_6  and  C6_7 
REMARK    5  A    between atoms: C6_7  and  C7_8 
REMARK    6  A    between atoms: C7_8  and  C8_9 
REMARK    7  A    between atoms: C8_9  and  C9_10 
REMARK    8  A    between atoms: C9_10  and  N2_11 
REMARK    9  A    between atoms: N2_11  and  C10_14 
REMARK   10  A    between atoms: C10_14  and  C11_15 
REMARK   11  A    between atoms: C14_22  and  N4_23 
ROOT
HETATM    1  C3  UNL     1       1.306  15.573 -40.729  1.00  0.00     0.076 C 
ENDROOT
BRANCH   1   2
HETATM    2  C2  UNL     1       2.718  15.293 -40.369  1.00  0.00     0.084 A 
HETATM    3  N1  UNL     1       3.581  16.268 -40.068  1.00  0.00    -0.326 N 
HETATM    4  C1  UNL     1       3.114  17.631 -40.068  1.00  0.00     0.159 C 
HETATM    5  C14 UNL     1       4.884  15.999 -39.749  1.00  0.00     0.121 A 
HETATM    6  C13 UNL     1       5.338  14.701 -39.732  1.00  0.00     0.070 A 
HETATM    7  C12 UNL     1       4.445  13.703 -40.044  1.00  0.00     0.112 A 
HETATM    8 BR2  UNL     1       7.163  14.339 -39.284  1.00  0.00    -0.046 Br
HETATM    9  N3  UNL     1       3.170  14.006 -40.353  1.00  0.00    -0.354 N 
ATOM     10  H3  UNL     1       2.523  13.250 -40.581  1.00  0.00     0.166 HD
BRANCH   5  11
HETATM   11  N4  UNL     1       5.682  16.970 -39.470  1.00  0.00    -0.384 N 
ATOM     12  H42 UNL     1       5.586  17.477 -38.590  1.00  0.00     0.157 HD
ATOM     13  H41 UNL     1       6.413  17.226 -40.133  1.00  0.00     0.157 HD
ENDBRANCH   5  11
ENDBRANCH   1   2
BRANCH   1  14
HETATM   14  C4  UNL     1       0.465  14.353 -40.793  1.00  0.00     0.007 C 
BRANCH  14  15
HETATM   15  C5  UNL     1      -0.546  14.278 -39.636  1.00  0.00     0.000 C 
BRANCH  15  16
HETATM   16  C6  UNL     1      -1.357  13.043 -39.675  1.00  0.00     0.000 C 
BRANCH  16  17
HETATM   17  C7  UNL     1      -1.924  12.477 -38.452  1.00  0.00     0.002 C 
BRANCH  17  18
HETATM   18  C8  UNL     1      -1.689  13.031 -37.131  1.00  0.00     0.027 C 
BRANCH  18  19
HETATM   19  C9  UNL     1      -2.771  13.685 -36.355  1.00  0.00     0.232 C 
BRANCH  19  20
HETATM   20  N2  UNL     1      -2.749  15.125 -36.708  1.00  0.00    -0.074 N 
ATOM     21  H22 UNL     1      -2.633  15.710 -35.881  1.00  0.00     0.277 HD
ATOM     22  H21 UNL     1      -1.891  15.375 -37.201  1.00  0.00     0.277 HD
BRANCH  20  23
HETATM   23  C10 UNL     1      -3.907  15.505 -37.455  1.00  0.00     0.243 C 
BRANCH  23  24
HETATM   24  C11 UNL     1      -3.685  15.788 -38.901  1.00  0.00     0.112 C 
HETATM   25 BR1  UNL     1      -5.402  15.850 -39.796  1.00  0.00    -0.095 Br
ENDBRANCH  23  24
ENDBRANCH  20  23
ENDBRANCH  19  20
ENDBRANCH  18  19
ENDBRANCH  17  18
ENDBRANCH  16  17
ENDBRANCH  15  16
ENDBRANCH  14  15
ENDBRANCH   1  14
TORSDOF 11
ENDMDL
MODEL 2
REMARK VINA RESULT: -6.191680172      4.477      7.849
REMARK  11 active torsions:
REMARK  status: ('A' for Active; 'I' for Inactive)
REMARK    1  A    between atoms: C2_3  and  C3_4 
REMARK    2  A    between atoms: C3_4  and  C4_5 
REMARK    3  A    between atoms: C4_5  and  C5_6 
REMARK    4  A    between atoms: C5_6  and  C6_7 
REMARK    5  A    between atoms: C6_7  and  C7_8 
REMARK    6  A    between atoms: C7_8  and  C8_9 
REMARK    7  A    between atoms: C8_9  and  C9_10 
REMARK    8  A    between atoms: C9_10  and  N2_11 
REMARK    9  A    between atoms: N2_11  and  C10_14 
REMARK   10  A    between atoms: C10_14  and  C11_15 
REMARK   11  A    between atoms: C14_22  and  N4_23 
ROOT
HETATM    1  C3  UNL     1       2.182  15.037 -40.948  1.00  0.00     0.076 C 
ENDROOT
BRANCH   1   2
HETATM    2  C2  UNL     1       1.480  14.635 -42.192  1.00  0.00     0.084 A 
HETATM    3  N1  UNL     1       1.332  13.353 -42.542  1.00  0.00    -0.326 N 
HETATM    4  C1  UNL     1       1.850  12.332 -41.667  1.00  0.00     0.159 C 
HETATM    5  C14 UNL     1       0.694  12.995 -43.698  1.00  0.00     0.121 A 
HETATM    6  C13 UNL     1       0.184  13.960 -44.534  1.00  0.00     0.070 A 
HETATM    7  C12 UNL     1       0.341  15.277 -44.169  1.00  0.00     0.112 A 
HETATM    8 BR2  UNL     1      -0.706  13.445 -46.147  1.00  0.00    -0.046 Br
HETATM    9  N3  UNL     1       0.975  15.592 -43.023  1.00  0.00    -0.354 N 
ATOM     10  H3  UNL     1       1.080  16.575 -42.770  1.00  0.00     0.166 HD
BRANCH   5  11
HETATM   11  N4  UNL     1       0.578  11.749 -43.998  1.00  0.00    -0.384 N 
ATOM     12  H42 UNL     1       0.328  11.068 -43.281  1.00  0.00     0.157 HD
ATOM     13  H41 UNL     1       0.735  11.447 -44.960  1.00  0.00     0.157 HD
ENDBRANCH   5  11
ENDBRANCH   1   2
BRANCH   1  14
HETATM   14  C4  UNL     1       2.097  16.491 -40.671  1.00  0.00     0.007 C 
BRANCH  14  15
HETATM   15  C5  UNL     1       3.378  17.038 -40.017  1.00  0.00     0.000 C 
BRANCH  15  16
HETATM   16  C6  UNL     1       4.523  16.113 -40.158  1.00  0.00     0.000 C 
BRANCH  16  17
HETATM   17  C7  UNL     1       5.312  15.711 -38.995  1.00  0.00     0.002 C 
BRANCH  17  18
HETATM   18  C8  UNL     1       4.899  14.673 -38.068  1.00  0.00     0.027 C 
BRANCH  18  19
HETATM   19  C9  UNL     1       5.659  14.390 -36.826  1.00  0.00     0.232 C 
BRANCH  19  20
HETATM   20  N2  UNL     1       6.220  13.024 -36.962  1.00  0.00    -0.074 N 
ATOM     21  H22 UNL     1       5.817  12.386 -36.275  1.00  0.00     0.277 HD
ATOM     22  H21 UNL     1       5.890  12.569 -37.813  1.00  0.00     0.277 HD
BRANCH  20  23
HETATM   23  C10 UNL     1       7.647  13.029 -36.894  1.00  0.00     0.243 C 
BRANCH  23  24
HETATM   24  C11 UNL     1       8.359  13.230 -38.187  1.00  0.00     0.112 C 
HETATM   25 BR1  UNL     1       9.107  15.018 -38.216  1.00  0.00    -0.095 Br
ENDBRANCH  23  24
ENDBRANCH  20  23
ENDBRANCH  19  20
ENDBRANCH  18  19
ENDBRANCH  17  18
ENDBRANCH  16  17
ENDBRANCH  15  16
ENDBRANCH  14  15
ENDBRANCH   1  14
TORSDOF 11
ENDMDL
MODEL 3
REMARK VINA RESULT: -6.075997426      1.557      2.136
REMARK  11 active torsions:
REMARK  status: ('A' for Active; 'I' for Inactive)
REMARK    1  A    between atoms: C2_3  and  C3_4 
REMARK    2  A    between atoms: C3_4  and  C4_5 
REMARK    3  A    between atoms: C4_5  and  C5_6 
REMARK    4  A    between atoms: C5_6  and  C6_7 
REMARK    5  A    between atoms: C6_7  and  C7_8 
REMARK    6  A    between atoms: C7_8  and  C8_9 
REMARK    7  A    between atoms: C8_9  and  C9_10 
REMARK    8  A    between atoms: C9_10  and  N2_11 
REMARK    9  A    between atoms: N2_11  and  C10_14 
REMARK   10  A    between atoms: C10_14  and  C11_15 
REMARK   11  A    between atoms: C14_22  and  N4_23 
ROOT
HETATM    1  C3  UNL     1       1.279  15.712 -40.656  1.00  0.00     0.076 C 
ENDROOT
BRANCH   1   2
HETATM    2  C2  UNL     1       2.689  15.389 -40.322  1.00  0.00     0.084 A 
HETATM    3  N1  UNL     1       3.586  16.338 -40.033  1.00  0.00    -0.326 N 
HETATM    4  C1  UNL     1       3.159  17.714 -40.021  1.00  0.00     0.159 C 
HETATM    5  C14 UNL     1       4.885  16.029 -39.740  1.00  0.00     0.121 A 
HETATM    6  C13 UNL     1       5.302  14.718 -39.735  1.00  0.00     0.070 A 
HETATM    7  C12 UNL     1       4.374  13.748 -40.034  1.00  0.00     0.112 A 
HETATM    8 BR2  UNL     1       7.123  14.301 -39.322  1.00  0.00    -0.046 Br
HETATM    9  N3  UNL     1       3.103  14.089 -40.319  1.00  0.00    -0.354 N 
ATOM     10  H3  UNL     1       2.430  13.354 -40.538  1.00  0.00     0.166 HD
BRANCH   5  11
HETATM   11  N4  UNL     1       5.716  16.975 -39.471  1.00  0.00    -0.384 N 
ATOM     12  H42 UNL     1       5.536  17.925 -39.795  1.00  0.00     0.157 HD
ATOM     13  H41 UNL     1       6.555  16.767 -38.929  1.00  0.00     0.157 HD
ENDBRANCH   5  11
ENDBRANCH   1   2
BRANCH   1  14
HETATM   14  C4  UNL     1       0.419  14.511 -40.789  1.00  0.00     0.007 C 
BRANCH  14  15
HETATM   15  C5  UNL     1      -0.593  14.387 -39.636  1.00  0.00     0.000 C 
BRANCH  15  16
HETATM   16  C6  UNL     1      -1.779  13.589 -40.012  1.00  0.00     0.000 C 
BRANCH  16  17
HETATM   17  C7  UNL     1      -2.800  14.136 -40.905  1.00  0.00     0.002 C 
BRANCH  17  18
HETATM   18  C8  UNL     1      -4.054  14.699 -40.437  1.00  0.00     0.027 C 
BRANCH  18  19
HETATM   19  C9  UNL     1      -4.091  15.878 -39.539  1.00  0.00     0.232 C 
BRANCH  19  20
HETATM   20  N2  UNL     1      -4.547  15.398 -38.212  1.00  0.00    -0.074 N 
ATOM     21  H22 UNL     1      -5.378  15.901 -37.899  1.00  0.00     0.277 HD
ATOM     22  H21 UNL     1      -4.943  14.459 -38.271  1.00  0.00     0.277 HD
BRANCH  20  23
HETATM   23  C10 UNL     1      -3.503  15.462 -37.238  1.00  0.00     0.243 C 
BRANCH  23  24
HETATM   24  C11 UNL     1      -3.582  14.466 -36.133  1.00  0.00     0.112 C 
HETATM   25 BR1  UNL     1      -2.124  13.203 -36.326  1.00  0.00    -0.095 Br
ENDBRANCH  23  24
ENDBRANCH  20  23
ENDBRANCH  19  20
ENDBRANCH  18  19
ENDBRANCH  17  18
ENDBRANCH  16  17
ENDBRANCH  15  16
ENDBRANCH  14  15
ENDBRANCH   1  14
TORSDOF 11
ENDMDL
MODEL 4
REMARK VINA RESULT: -5.849546141      2.842      7.820
REMARK  11 active torsions:
REMARK  status: ('A' for Active; 'I' for Inactive)
REMARK    1  A    between atoms: C2_3  and  C3_4 
REMARK    2  A    between atoms: C3_4  and  C4_5 
REMARK    3  A    between atoms: C4_5  and  C5_6 
REMARK    4  A    between atoms: C5_6  and  C6_7 
REMARK    5  A    between atoms: C6_7  and  C7_8 
REMARK    6  A    between atoms: C7_8  and  C8_9 
REMARK    7  A    between atoms: C8_9  and  C9_10 
REMARK    8  A    between atoms: C9_10  and  N2_11 
REMARK    9  A    between atoms: N2_11  and  C10_14 
REMARK   10  A    between atoms: C10_14  and  C11_15 
REMARK   11  A    between atoms: C14_22  and  N4_23 
ROOT
HETATM    1  C3  UNL     1       1.764  15.888 -41.308  1.00  0.00     0.076 C 
ENDROOT
BRANCH   1   2
HETATM    2  C2  UNL     1       0.714  14.863 -41.083  1.00  0.00     0.084 A 
HETATM    3  N1  UNL     1       0.169  14.171 -42.089  1.00  0.00    -0.326 N 
HETATM    4  C1  UNL     1       0.639  14.413 -43.430  1.00  0.00     0.159 C 
HETATM    5  C14 UNL     1      -0.807  13.238 -41.871  1.00  0.00     0.121 A 
HETATM    6  C13 UNL     1      -1.253  12.989 -40.595  1.00  0.00     0.070 A 
HETATM    7  C12 UNL     1      -0.689  13.704 -39.565  1.00  0.00     0.112 A 
HETATM    8 BR2  UNL     1      -2.619  11.681 -40.305  1.00  0.00    -0.046 Br
HETATM    9  N3  UNL     1       0.270  14.616 -39.817  1.00  0.00    -0.354 N 
ATOM     10  H3  UNL     1       0.675  15.136 -39.039  1.00  0.00     0.166 HD
BRANCH   5  11
HETATM   11  N4  UNL     1      -1.306  12.599 -42.870  1.00  0.00    -0.384 N 
ATOM     12  H42 UNL     1      -0.868  11.740 -43.203  1.00  0.00     0.157 HD
ATOM     13  H41 UNL     1      -2.147  12.955 -43.326  1.00  0.00     0.157 HD
ENDBRANCH   5  11
ENDBRANCH   1   2
BRANCH   1  14
HETATM   14  C4  UNL     1       2.807  15.898 -40.254  1.00  0.00     0.007 C 
BRANCH  14  15
HETATM   15  C5  UNL     1       3.329  17.316 -39.962  1.00  0.00     0.000 C 
BRANCH  15  16
HETATM   16  C6  UNL     1       4.747  17.319 -39.542  1.00  0.00     0.000 C 
BRANCH  16  17
HETATM   17  C7  UNL     1       5.572  16.120 -39.677  1.00  0.00     0.002 C 
BRANCH  17  18
HETATM   18  C8  UNL     1       6.053  15.348 -38.545  1.00  0.00     0.027 C 
BRANCH  18  19
HETATM   19  C9  UNL     1       5.184  14.376 -37.838  1.00  0.00     0.232 C 
BRANCH  19  20
HETATM   20  N2  UNL     1       5.716  14.241 -36.460  1.00  0.00    -0.074 N 
ATOM     21  H22 UNL     1       5.399  15.005 -35.862  1.00  0.00     0.277 HD
ATOM     22  H21 UNL     1       5.279  13.462 -35.967  1.00  0.00     0.277 HD
BRANCH  20  23
HETATM   23  C10 UNL     1       7.141  14.131 -36.451  1.00  0.00     0.243 C 
BRANCH  23  24
HETATM   24  C11 UNL     1       7.687  12.756 -36.628  1.00  0.00     0.112 C 
HETATM   25 BR1  UNL     1       9.191  12.834 -37.848  1.00  0.00    -0.095 Br
ENDBRANCH  23  24
ENDBRANCH  20  23
ENDBRANCH  19  20
ENDBRANCH  18  19
ENDBRANCH  17  18
ENDBRANCH  16  17
ENDBRANCH  15  16
ENDBRANCH  14  15
ENDBRANCH   1  14
TORSDOF 11
ENDMDL
MODEL 5
REMARK VINA RESULT: -5.819368058      2.136      7.409
REMARK  11 active torsions:
REMARK  status: ('A' for Active; 'I' for Inactive)
REMARK    1  A    between atoms: C2_3  and  C3_4 
REMARK    2  A    between atoms: C3_4  and  C4_5 
REMARK    3  A    between atoms: C4_5  and  C5_6 
REMARK    4  A    between atoms: C5_6  and  C6_7 
REMARK    5  A    between atoms: C6_7  and  C7_8 
REMARK    6  A    between atoms: C7_8  and  C8_9 
REMARK    7  A    between atoms: C8_9  and  C9_10 
REMARK    8  A    between atoms: C9_10  and  N2_11 
REMARK    9  A    between atoms: N2_11  and  C10_14 
REMARK   10  A    between atoms: C10_14  and  C11_15 
REMARK   11  A    between atoms: C14_22  and  N4_23 
ROOT
HETATM    1  C3  UNL     1      -1.225  13.029 -42.142  1.00  0.00     0.076 C 
ENDROOT
BRANCH   1   2
HETATM    2  C2  UNL     1      -1.700  13.559 -40.840  1.00  0.00     0.084 A 
HETATM    3  N1  UNL     1      -1.724  12.809 -39.734  1.00  0.00    -0.326 N 
HETATM    4  C1  UNL     1      -1.247  11.452 -39.807  1.00  0.00     0.159 C 
HETATM    5  C14 UNL     1      -2.175  13.305 -38.542  1.00  0.00     0.121 A 
HETATM    6  C13 UNL     1      -2.620  14.604 -38.456  1.00  0.00     0.070 A 
HETATM    7  C12 UNL     1      -2.594  15.369 -39.598  1.00  0.00     0.112 A 
HETATM    8 BR2  UNL     1      -3.249  15.285 -36.783  1.00  0.00    -0.046 Br
HETATM    9  N3  UNL     1      -2.142  14.847 -40.755  1.00  0.00    -0.354 N 
ATOM     10  H3  UNL     1      -2.131  15.432 -41.591  1.00  0.00     0.166 HD
BRANCH   5  11
HETATM   11  N4  UNL     1      -2.184  12.547 -37.502  1.00  0.00    -0.384 N 
ATOM     12  H42 UNL     1      -3.022  12.018 -37.258  1.00  0.00     0.157 HD
ATOM     13  H41 UNL     1      -1.346  12.474 -36.925  1.00  0.00     0.157 HD
ENDBRANCH   5  11
ENDBRANCH   1   2
BRANCH   1  14
HETATM   14  C4  UNL     1      -0.510  14.038 -42.960  1.00  0.00     0.007 C 
BRANCH  14  15
HETATM   15  C5  UNL     1       0.997  14.079 -42.653  1.00  0.00     0.000 C 
BRANCH  15  16
HETATM   16  C6  UNL     1       1.466  15.440 -42.314  1.00  0.00     0.000 C 
BRANCH  16  17
HETATM   17  C7  UNL     1       1.635  15.851 -40.921  1.00  0.00     0.002 C 
BRANCH  17  18
HETATM   18  C8  UNL     1       2.852  15.627 -40.162  1.00  0.00     0.027 C 
BRANCH  18  19
HETATM   19  C9  UNL     1       3.866  16.695 -39.983  1.00  0.00     0.232 C 
BRANCH  19  20
HETATM   20  N2  UNL     1       4.964  16.118 -39.168  1.00  0.00    -0.074 N 
ATOM     21  H22 UNL     1       5.757  15.849 -39.750  1.00  0.00     0.277 HD
ATOM     22  H21 UNL     1       5.419  16.831 -38.599  1.00  0.00     0.277 HD
BRANCH  20  23
HETATM   23  C10 UNL     1       4.510  15.024 -38.368  1.00  0.00     0.243 C 
BRANCH  23  24
HETATM   24  C11 UNL     1       5.543  14.015 -38.000  1.00  0.00     0.112 C 
HETATM   25 BR1  UNL     1       7.056  14.208 -39.195  1.00  0.00    -0.095 Br
ENDBRANCH  23  24
ENDBRANCH  20  23
ENDBRANCH  19  20
ENDBRANCH  18  19
ENDBRANCH  17  18
ENDBRANCH  16  17
ENDBRANCH  15  16
ENDBRANCH  14  15
ENDBRANCH   1  14
TORSDOF 11
ENDMDL
