MODEL 1
REMARK VINA RESULT: -7.339007307      0.000      0.000
REMARK  15 active torsions:
REMARK  status: ('A' for Active; 'I' for Inactive)
REMARK    1  A    between atoms: C2_2  and  N1_3 
REMARK    2  A    between atoms: C2_2  and  C17_22 
REMARK    3  A    between atoms: N1_3  and  C3_5 
REMARK    4  A    between atoms: C3_5  and  C4_6 
REMARK    5  A    between atoms: C4_6  and  N2_7 
REMARK    6  A    between atoms: N2_7  and  C7_10 
REMARK    7  A    between atoms: C7_10  and  C8_11 
REMARK    8  A    between atoms: C9_12  and  C10_13 
REMARK    9  A    between atoms: C11_14  and  C12_15 
REMARK   10  A    between atoms: C17_22  and  N3_24 
REMARK   11  A    between atoms: N3_24  and  C18_26 
REMARK   12  A    between atoms: C18_26  and  C19_27 
REMARK   13  A    between atoms: C19_27  and  C20_28 
REMARK   14  A    between atoms: C20_28  and  C21_29 
REMARK   15  A    between atoms: C21_29  and  N4_30 
ROOT
HETATM    1  C3  UNL     1      -2.471  13.564 -43.559  1.00  0.00     0.147 C 
ENDROOT
BRANCH   1   2
HETATM    2  N1  UNL     1      -1.751  13.011 -42.463  1.00  0.00    -0.389 N 
ATOM      3  H1  UNL     1      -0.953  12.392 -42.599  1.00  0.00     0.159 HD
BRANCH   2   4
HETATM    4  C2  UNL     1      -2.203  13.369 -41.186  1.00  0.00     0.039 C 
HETATM    5  C1  UNL     1      -3.328  14.392 -41.260  1.00  0.00     0.071 C 
BRANCH   4   6
HETATM    6  C17 UNL     1      -2.379  12.333 -40.181  1.00  0.00     0.118 C 
HETATM    7  S1  UNL     1      -2.709  10.785 -40.801  1.00  0.00    -0.059 SA
BRANCH   6   8
HETATM    8  N3  UNL     1      -2.321  12.431 -38.799  1.00  0.00    -0.379 N 
ATOM      9  H3  UNL     1      -2.699  11.629 -38.293  1.00  0.00     0.160 HD
BRANCH   8  10
HETATM   10  C18 UNL     1      -1.819  13.473 -37.978  1.00  0.00     0.120 C 
BRANCH  10  11
HETATM   11  C19 UNL     1      -2.229  13.325 -36.552  1.00  0.00     0.021 C 
BRANCH  11  12
HETATM   12  C20 UNL     1      -3.312  14.338 -36.208  1.00  0.00     0.029 C 
BRANCH  12  13
HETATM   13  C21 UNL     1      -3.453  15.381 -37.255  1.00  0.00     0.229 C 
BRANCH  13  14
HETATM   14  N4  UNL     1      -3.845  16.638 -36.584  1.00  0.00    -0.079 N 
ATOM     15  H43 UNL     1      -3.047  17.164 -36.229  1.00  0.00     0.274 HD
ATOM     16  H42 UNL     1      -4.194  17.344 -37.234  1.00  0.00     0.274 HD
ATOM     17  H41 UNL     1      -4.520  16.402 -35.856  1.00  0.00     0.274 HD
ENDBRANCH  13  14
ENDBRANCH  12  13
ENDBRANCH  11  12
ENDBRANCH  10  11
ENDBRANCH   8  10
ENDBRANCH   6   8
ENDBRANCH   4   6
ENDBRANCH   2   4
ENDBRANCH   1   2
BRANCH   1  18
HETATM   18  C4  UNL     1      -1.708  13.504 -44.834  1.00  0.00     0.257 C 
BRANCH  18  19
HETATM   19  N2  UNL     1      -1.709  14.753 -45.577  1.00  0.00    -0.063 N 
HETATM   20  C5  UNL     1      -2.483  15.707 -44.828  1.00  0.00     0.273 C 
HETATM   21  C6  UNL     1      -2.391  14.581 -46.855  1.00  0.00     0.273 C 
BRANCH  19  22
HETATM   22  C7  UNL     1      -0.361  15.207 -45.793  1.00  0.00     0.330 C 
BRANCH  22  23
HETATM   23  C8  UNL     1       0.328  15.283 -44.498  1.00  0.00    -0.065 C 
HETATM   24  C9  UNL     1       0.917  15.361 -43.448  1.00  0.00    -0.013 C 
BRANCH  24  25
HETATM   25  C10 UNL     1       1.634  15.475 -42.226  1.00  0.00    -0.015 C 
HETATM   26  C11 UNL     1       2.259  15.552 -41.199  1.00  0.00    -0.087 C 
BRANCH  26  27
HETATM   27  C12 UNL     1       3.047  15.651 -39.970  1.00  0.00     0.072 C 
HETATM   28  C13 UNL     1       3.898  16.872 -40.053  1.00  0.00     0.023 C 
HETATM   29  C14 UNL     1       4.989  16.573 -39.038  1.00  0.00     0.080 C 
HETATM   30  C15 UNL     1       5.044  15.080 -38.880  1.00  0.00     0.244 C 
HETATM   31  F1  UNL     1       4.535  14.719 -37.650  1.00  0.00    -0.206 F 
HETATM   32  F2  UNL     1       6.318  14.572 -39.050  1.00  0.00    -0.206 F 
HETATM   33  C16 UNL     1       4.088  14.533 -39.918  1.00  0.00     0.096 C 
ENDBRANCH  26  27
ENDBRANCH  24  25
ENDBRANCH  22  23
ENDBRANCH  19  22
ENDBRANCH  18  19
ENDBRANCH   1  18
TORSDOF 15
ENDMDL
MODEL 2
REMARK VINA RESULT: -7.018469755      1.816      2.749
REMARK  15 active torsions:
REMARK  status: ('A' for Active; 'I' for Inactive)
REMARK    1  A    between atoms: C2_2  and  N1_3 
REMARK    2  A    between atoms: C2_2  and  C17_22 
REMARK    3  A    between atoms: N1_3  and  C3_5 
REMARK    4  A    between atoms: C3_5  and  C4_6 
REMARK    5  A    between atoms: C4_6  and  N2_7 
REMARK    6  A    between atoms: N2_7  and  C7_10 
REMARK    7  A    between atoms: C7_10  and  C8_11 
REMARK    8  A    between atoms: C9_12  and  C10_13 
REMARK    9  A    between atoms: C11_14  and  C12_15 
REMARK   10  A    between atoms: C17_22  and  N3_24 
REMARK   11  A    between atoms: N3_24  and  C18_26 
REMARK   12  A    between atoms: C18_26  and  C19_27 
REMARK   13  A    between atoms: C19_27  and  C20_28 
REMARK   14  A    between atoms: C20_28  and  C21_29 
REMARK   15  A    between atoms: C21_29  and  N4_30 
ROOT
HETATM    1  C3  UNL     1      -2.939  14.182 -43.920  1.00  0.00     0.147 C 
ENDROOT
BRANCH   1   2
HETATM    2  N1  UNL     1      -3.029  15.053 -42.798  1.00  0.00    -0.389 N 
ATOM      3  H1  UNL     1      -2.369  15.818 -42.654  1.00  0.00     0.159 HD
BRANCH   2   4
HETATM    4  C2  UNL     1      -4.076  14.800 -41.903  1.00  0.00     0.039 C 
HETATM    5  C1  UNL     1      -4.508  13.341 -41.952  1.00  0.00     0.071 C 
BRANCH   4   6
HETATM    6  C17 UNL     1      -4.027  15.384 -40.573  1.00  0.00     0.118 C 
HETATM    7  S1  UNL     1      -5.533  15.861 -39.947  1.00  0.00    -0.059 SA
BRANCH   6   8
HETATM    8  N3  UNL     1      -2.931  15.609 -39.752  1.00  0.00    -0.379 N 
ATOM      9  H3  UNL     1      -2.660  16.588 -39.656  1.00  0.00     0.160 HD
BRANCH   8  10
HETATM   10  C18 UNL     1      -2.130  14.692 -39.027  1.00  0.00     0.120 C 
BRANCH  10  11
HETATM   11  C19 UNL     1      -0.799  14.471 -39.661  1.00  0.00     0.021 C 
BRANCH  11  12
HETATM   12  C20 UNL     1      -0.847  13.254 -40.575  1.00  0.00     0.029 C 
BRANCH  12  13
HETATM   13  C21 UNL     1      -1.545  12.107 -39.940  1.00  0.00     0.229 C 
BRANCH  13  14
HETATM   14  N4  UNL     1      -0.639  10.941 -40.003  1.00  0.00    -0.079 N 
ATOM     15  H43 UNL     1      -0.625  10.499 -40.922  1.00  0.00     0.274 HD
ATOM     16  H42 UNL     1       0.347  11.202 -39.964  1.00  0.00     0.274 HD
ATOM     17  H41 UNL     1      -0.909  10.299 -39.258  1.00  0.00     0.274 HD
ENDBRANCH  13  14
ENDBRANCH  12  13
ENDBRANCH  11  12
ENDBRANCH  10  11
ENDBRANCH   8  10
ENDBRANCH   6   8
ENDBRANCH   4   6
ENDBRANCH   2   4
ENDBRANCH   1   2
BRANCH   1  18
HETATM   18  C4  UNL     1      -2.510  14.885 -45.158  1.00  0.00     0.257 C 
BRANCH  18  19
HETATM   19  N2  UNL     1      -1.375  14.267 -45.821  1.00  0.00    -0.063 N 
HETATM   20  C5  UNL     1      -1.814  13.823 -47.117  1.00  0.00     0.273 C 
HETATM   21  C6  UNL     1      -0.956  13.071 -45.097  1.00  0.00     0.273 C 
BRANCH  19  22
HETATM   22  C7  UNL     1      -0.282  15.197 -45.914  1.00  0.00     0.330 C 
BRANCH  22  23
HETATM   23  C8  UNL     1       0.374  15.289 -44.604  1.00  0.00    -0.065 C 
HETATM   24  C9  UNL     1       0.941  15.371 -43.542  1.00  0.00    -0.013 C 
BRANCH  24  25
HETATM   25  C10 UNL     1       1.637  15.480 -42.307  1.00  0.00    -0.015 C 
HETATM   26  C11 UNL     1       2.244  15.553 -41.269  1.00  0.00    -0.087 C 
BRANCH  26  27
HETATM   27  C12 UNL     1       3.011  15.645 -40.026  1.00  0.00     0.072 C 
HETATM   28  C13 UNL     1       3.865  16.864 -40.089  1.00  0.00     0.023 C 
HETATM   29  C14 UNL     1       4.937  16.559 -39.056  1.00  0.00     0.080 C 
HETATM   30  C15 UNL     1       4.986  15.065 -38.903  1.00  0.00     0.244 C 
HETATM   31  F1  UNL     1       4.455  14.701 -37.683  1.00  0.00    -0.206 F 
HETATM   32  F2  UNL     1       6.262  14.555 -39.052  1.00  0.00    -0.206 F 
HETATM   33  C16 UNL     1       4.048  14.525 -39.960  1.00  0.00     0.096 C 
ENDBRANCH  26  27
ENDBRANCH  24  25
ENDBRANCH  22  23
ENDBRANCH  19  22
ENDBRANCH  18  19
ENDBRANCH   1  18
TORSDOF 15
ENDMDL
MODEL 3
REMARK VINA RESULT: -6.993690116      1.958      3.096
REMARK  15 active torsions:
REMARK  status: ('A' for Active; 'I' for Inactive)
REMARK    1  A    between atoms: C2_2  and  N1_3 
REMARK    2  A    between atoms: C2_2  and  C17_22 
REMARK    3  A    between atoms: N1_3  and  C3_5 
REMARK    4  A    between atoms: C3_5  and  C4_6 
REMARK    5  A    between atoms: C4_6  and  N2_7 
REMARK    6  A    between atoms: N2_7  and  C7_10 
REMARK    7  A    between atoms: C7_10  and  C8_11 
REMARK    8  A    between atoms: C9_12  and  C10_13 
REMARK    9  A    between atoms: C11_14  and  C12_15 
REMARK   10  A    between atoms: C17_22  and  N3_24 
REMARK   11  A    between atoms: N3_24  and  C18_26 
REMARK   12  A    between atoms: C18_26  and  C19_27 
REMARK   13  A    between atoms: C19_27  and  C20_28 
REMARK   14  A    between atoms: C20_28  and  C21_29 
REMARK   15  A    between atoms: C21_29  and  N4_30 
ROOT
HETATM    1  C3  UNL     1      -2.171  13.901 -42.436  1.00  0.00     0.147 C 
ENDROOT
BRANCH   1   2
HETATM    2  N1  UNL     1      -2.832  12.647 -42.566  1.00  0.00    -0.389 N 
ATOM      3  H1  UNL     1      -2.932  12.181 -43.468  1.00  0.00     0.159 HD
BRANCH   2   4
HETATM    4  C2  UNL     1      -3.336  12.090 -41.384  1.00  0.00     0.039 C 
HETATM    5  C1  UNL     1      -4.211  10.877 -41.670  1.00  0.00     0.071 C 
BRANCH   4   6
HETATM    6  C17 UNL     1      -2.458  11.958 -40.233  1.00  0.00     0.118 C 
HETATM    7  S1  UNL     1      -1.110  10.953 -40.475  1.00  0.00    -0.059 SA
BRANCH   6   8
HETATM    8  N3  UNL     1      -2.570  12.529 -38.973  1.00  0.00    -0.379 N 
ATOM      9  H3  UNL     1      -3.394  13.116 -38.838  1.00  0.00     0.160 HD
BRANCH   8  10
HETATM   10  C18 UNL     1      -1.719  12.423 -37.844  1.00  0.00     0.120 C 
BRANCH  10  11
HETATM   11  C19 UNL     1      -2.002  13.464 -36.816  1.00  0.00     0.021 C 
BRANCH  11  12
HETATM   12  C20 UNL     1      -2.516  14.733 -37.480  1.00  0.00     0.029 C 
BRANCH  12  13
HETATM   13  C21 UNL     1      -3.558  15.407 -36.666  1.00  0.00     0.229 C 
BRANCH  13  14
HETATM   14  N4  UNL     1      -3.824  14.556 -35.487  1.00  0.00    -0.079 N 
ATOM     15  H43 UNL     1      -3.033  14.511 -34.844  1.00  0.00     0.274 HD
ATOM     16  H42 UNL     1      -4.498  14.970 -34.842  1.00  0.00     0.274 HD
ATOM     17  H41 UNL     1      -4.113  13.639 -35.827  1.00  0.00     0.274 HD
ENDBRANCH  13  14
ENDBRANCH  12  13
ENDBRANCH  11  12
ENDBRANCH  10  11
ENDBRANCH   8  10
ENDBRANCH   6   8
ENDBRANCH   4   6
ENDBRANCH   2   4
ENDBRANCH   1   2
BRANCH   1  18
HETATM   18  C4  UNL     1      -0.982  14.017 -43.321  1.00  0.00     0.257 C 
BRANCH  18  19
HETATM   19  N2  UNL     1       0.261  14.253 -42.606  1.00  0.00    -0.063 N 
HETATM   20  C5  UNL     1       0.974  15.291 -43.300  1.00  0.00     0.273 C 
HETATM   21  C6  UNL     1       1.108  13.065 -42.659  1.00  0.00     0.273 C 
BRANCH  19  22
HETATM   22  C7  UNL     1      -0.008  14.607 -41.238  1.00  0.00     0.330 C 
BRANCH  22  23
HETATM   23  C8  UNL     1       1.269  14.754 -40.528  1.00  0.00    -0.065 C 
HETATM   24  C9  UNL     1       2.327  14.846 -39.955  1.00  0.00    -0.013 C 
BRANCH  24  25
HETATM   25  C10 UNL     1       3.584  14.925 -39.296  1.00  0.00    -0.015 C 
HETATM   26  C11 UNL     1       4.648  14.965 -38.732  1.00  0.00    -0.087 C 
BRANCH  26  27
HETATM   27  C12 UNL     1       5.951  14.988 -38.067  1.00  0.00     0.072 C 
HETATM   28  C13 UNL     1       6.997  14.632 -39.067  1.00  0.00     0.023 C 
HETATM   29  C14 UNL     1       8.147  14.181 -38.182  1.00  0.00     0.080 C 
HETATM   30  C15 UNL     1       7.552  13.764 -36.867  1.00  0.00     0.244 C 
HETATM   31  F1  UNL     1       7.865  14.692 -35.895  1.00  0.00    -0.206 F 
HETATM   32  F2  UNL     1       7.948  12.498 -36.479  1.00  0.00    -0.206 F 
HETATM   33  C16 UNL     1       6.054  13.838 -37.066  1.00  0.00     0.096 C 
ENDBRANCH  26  27
ENDBRANCH  24  25
ENDBRANCH  22  23
ENDBRANCH  19  22
ENDBRANCH  18  19
ENDBRANCH   1  18
TORSDOF 15
ENDMDL
MODEL 4
REMARK VINA RESULT: -6.982943428      4.455      6.802
REMARK  15 active torsions:
REMARK  status: ('A' for Active; 'I' for Inactive)
REMARK    1  A    between atoms: C2_2  and  N1_3 
REMARK    2  A    between atoms: C2_2  and  C17_22 
REMARK    3  A    between atoms: N1_3  and  C3_5 
REMARK    4  A    between atoms: C3_5  and  C4_6 
REMARK    5  A    between atoms: C4_6  and  N2_7 
REMARK    6  A    between atoms: N2_7  and  C7_10 
REMARK    7  A    between atoms: C7_10  and  C8_11 
REMARK    8  A    between atoms: C9_12  and  C10_13 
REMARK    9  A    between atoms: C11_14  and  C12_15 
REMARK   10  A    between atoms: C17_22  and  N3_24 
REMARK   11  A    between atoms: N3_24  and  C18_26 
REMARK   12  A    between atoms: C18_26  and  C19_27 
REMARK   13  A    between atoms: C19_27  and  C20_28 
REMARK   14  A    between atoms: C20_28  and  C21_29 
REMARK   15  A    between atoms: C21_29  and  N4_30 
ROOT
HETATM    1  C3  UNL     1       2.285  15.196 -40.398  1.00  0.00     0.147 C 
ENDROOT
BRANCH   1   2
HETATM    2  N1  UNL     1       1.235  15.410 -41.334  1.00  0.00    -0.389 N 
ATOM      3  H1  UNL     1       1.021  16.337 -41.702  1.00  0.00     0.159 HD
BRANCH   2   4
HETATM    4  C2  UNL     1       0.511  14.275 -41.720  1.00  0.00     0.039 C 
HETATM    5  C1  UNL     1       1.433  13.173 -42.225  1.00  0.00     0.071 C 
BRANCH   4   6
HETATM    6  C17 UNL     1      -0.592  13.822 -40.889  1.00  0.00     0.118 C 
HETATM    7  S1  UNL     1      -2.098  13.757 -41.674  1.00  0.00    -0.059 SA
BRANCH   6   8
HETATM    8  N3  UNL     1      -0.588  13.444 -39.554  1.00  0.00    -0.379 N 
ATOM      9  H3  UNL     1       0.135  12.771 -39.299  1.00  0.00     0.160 HD
BRANCH   8  10
HETATM   10  C18 UNL     1      -1.432  13.848 -38.489  1.00  0.00     0.120 C 
BRANCH  10  11
HETATM   11  C19 UNL     1      -1.776  12.722 -37.574  1.00  0.00     0.021 C 
BRANCH  11  12
HETATM   12  C20 UNL     1      -2.332  13.260 -36.263  1.00  0.00     0.029 C 
BRANCH  12  13
HETATM   13  C21 UNL     1      -3.228  14.425 -36.473  1.00  0.00     0.229 C 
BRANCH  13  14
HETATM   14  N4  UNL     1      -3.960  14.659 -35.211  1.00  0.00    -0.079 N 
ATOM     15  H43 UNL     1      -3.556  14.160 -34.419  1.00  0.00     0.274 HD
ATOM     16  H42 UNL     1      -3.837  15.606 -34.850  1.00  0.00     0.274 HD
ATOM     17  H41 UNL     1      -4.939  14.421 -35.373  1.00  0.00     0.274 HD
ENDBRANCH  13  14
ENDBRANCH  12  13
ENDBRANCH  11  12
ENDBRANCH  10  11
ENDBRANCH   8  10
ENDBRANCH   6   8
ENDBRANCH   4   6
ENDBRANCH   2   4
ENDBRANCH   1   2
BRANCH   1  18
HETATM   18  C4  UNL     1       3.497  16.001 -40.702  1.00  0.00     0.257 C 
BRANCH  18  19
HETATM   19  N2  UNL     1       4.567  15.840 -39.733  1.00  0.00    -0.063 N 
HETATM   20  C5  UNL     1       4.949  17.152 -39.282  1.00  0.00     0.273 C 
HETATM   21  C6  UNL     1       5.747  15.265 -40.372  1.00  0.00     0.273 C 
BRANCH  19  22
HETATM   22  C7  UNL     1       4.136  15.003 -38.645  1.00  0.00     0.330 C 
BRANCH  22  23
HETATM   23  C8  UNL     1       5.289  14.717 -37.781  1.00  0.00    -0.065 C 
HETATM   24  C9  UNL     1       6.216  14.477 -37.047  1.00  0.00    -0.013 C 
BRANCH  24  25
HETATM   25  C10 UNL     1       7.285  14.185 -36.158  1.00  0.00    -0.015 C 
HETATM   26  C11 UNL     1       8.175  13.941 -35.383  1.00  0.00    -0.087 C 
BRANCH  26  27
HETATM   27  C12 UNL     1       9.235  13.623 -34.426  1.00  0.00     0.072 C 
HETATM   28  C13 UNL     1       9.066  14.495 -33.230  1.00  0.00     0.023 C 
HETATM   29  C14 UNL     1      10.452  14.457 -32.606  1.00  0.00     0.080 C 
HETATM   30  C15 UNL     1      11.415  14.093 -33.700  1.00  0.00     0.244 C 
HETATM   31  F1  UNL     1      11.874  12.806 -33.512  1.00  0.00    -0.206 F 
HETATM   32  F2  UNL     1      12.472  14.979 -33.798  1.00  0.00    -0.206 F 
HETATM   33  C16 UNL     1      10.591  14.075 -34.969  1.00  0.00     0.096 C 
ENDBRANCH  26  27
ENDBRANCH  24  25
ENDBRANCH  22  23
ENDBRANCH  19  22
ENDBRANCH  18  19
ENDBRANCH   1  18
TORSDOF 15
ENDMDL
MODEL 5
REMARK VINA RESULT: -6.940006462      1.257      1.540
REMARK  15 active torsions:
REMARK  status: ('A' for Active; 'I' for Inactive)
REMARK    1  A    between atoms: C2_2  and  N1_3 
REMARK    2  A    between atoms: C2_2  and  C17_22 
REMARK    3  A    between atoms: N1_3  and  C3_5 
REMARK    4  A    between atoms: C3_5  and  C4_6 
REMARK    5  A    between atoms: C4_6  and  N2_7 
REMARK    6  A    between atoms: N2_7  and  C7_10 
REMARK    7  A    between atoms: C7_10  and  C8_11 
REMARK    8  A    between atoms: C9_12  and  C10_13 
REMARK    9  A    between atoms: C11_14  and  C12_15 
REMARK   10  A    between atoms: C17_22  and  N3_24 
REMARK   11  A    between atoms: N3_24  and  C18_26 
REMARK   12  A    between atoms: C18_26  and  C19_27 
REMARK   13  A    between atoms: C19_27  and  C20_28 
REMARK   14  A    between atoms: C20_28  and  C21_29 
REMARK   15  A    between atoms: C21_29  and  N4_30 
ROOT
HETATM    1  C3  UNL     1      -3.598  15.032 -44.571  1.00  0.00     0.147 C 
ENDROOT
BRANCH   1   2
HETATM    2  N1  UNL     1      -3.662  14.072 -43.522  1.00  0.00    -0.389 N 
ATOM      3  H1  UNL     1      -3.844  13.085 -43.705  1.00  0.00     0.159 HD
BRANCH   2   4
HETATM    4  C2  UNL     1      -3.461  14.561 -42.226  1.00  0.00     0.039 C 
HETATM    5  C1  UNL     1      -4.783  14.774 -41.500  1.00  0.00     0.071 C 
BRANCH   4   6
HETATM    6  C17 UNL     1      -2.397  13.995 -41.413  1.00  0.00     0.118 C 
HETATM    7  S1  UNL     1      -1.952  12.408 -41.823  1.00  0.00    -0.059 SA
BRANCH   6   8
HETATM    8  N3  UNL     1      -1.704  14.564 -40.354  1.00  0.00    -0.379 N 
ATOM      9  H3  UNL     1      -0.781  14.930 -40.590  1.00  0.00     0.160 HD
BRANCH   8  10
HETATM   10  C18 UNL     1      -2.078  14.715 -38.994  1.00  0.00     0.120 C 
BRANCH  10  11
HETATM   11  C19 UNL     1      -1.545  13.624 -38.130  1.00  0.00     0.021 C 
BRANCH  11  12
HETATM   12  C20 UNL     1      -2.236  13.642 -36.774  1.00  0.00     0.029 C 
BRANCH  12  13
HETATM   13  C21 UNL     1      -3.259  14.714 -36.683  1.00  0.00     0.229 C 
BRANCH  13  14
HETATM   14  N4  UNL     1      -3.902  14.609 -35.357  1.00  0.00    -0.079 N 
ATOM     15  H43 UNL     1      -4.541  15.380 -35.163  1.00  0.00     0.274 HD
ATOM     16  H42 UNL     1      -4.584  13.852 -35.305  1.00  0.00     0.274 HD
ATOM     17  H41 UNL     1      -3.161  14.523 -34.660  1.00  0.00     0.274 HD
ENDBRANCH  13  14
ENDBRANCH  12  13
ENDBRANCH  11  12
ENDBRANCH  10  11
ENDBRANCH   8  10
ENDBRANCH   6   8
ENDBRANCH   4   6
ENDBRANCH   2   4
ENDBRANCH   1   2
BRANCH   1  18
HETATM   18  C4  UNL     1      -2.234  15.596 -44.749  1.00  0.00     0.257 C 
BRANCH  18  19
HETATM   19  N2  UNL     1      -1.523  15.064 -45.899  1.00  0.00    -0.063 N 
HETATM   20  C5  UNL     1      -0.787  16.145 -46.497  1.00  0.00     0.273 C 
HETATM   21  C6  UNL     1      -2.471  14.602 -46.909  1.00  0.00     0.273 C 
BRANCH  19  22
HETATM   22  C7  UNL     1      -0.662  13.983 -45.499  1.00  0.00     0.330 C 
BRANCH  22  23
HETATM   23  C8  UNL     1       0.133  14.415 -44.342  1.00  0.00    -0.065 C 
HETATM   24  C9  UNL     1       0.776  14.744 -43.376  1.00  0.00    -0.013 C 
BRANCH  24  25
HETATM   25  C10 UNL     1       1.526  15.101 -42.222  1.00  0.00    -0.015 C 
HETATM   26  C11 UNL     1       2.164  15.430 -41.254  1.00  0.00    -0.087 C 
BRANCH  26  27
HETATM   27  C12 UNL     1       2.918  15.854 -40.075  1.00  0.00     0.072 C 
HETATM   28  C13 UNL     1       3.315  17.279 -40.258  1.00  0.00     0.023 C 
HETATM   29  C14 UNL     1       4.479  17.416 -39.289  1.00  0.00     0.080 C 
HETATM   30  C15 UNL     1       5.029  16.035 -39.067  1.00  0.00     0.244 C 
HETATM   31  F1  UNL     1       4.711  15.602 -37.797  1.00  0.00    -0.206 F 
HETATM   32  F2  UNL     1       6.392  15.962 -39.281  1.00  0.00    -0.206 F 
HETATM   33  C16 UNL     1       4.271  15.144 -40.027  1.00  0.00     0.096 C 
ENDBRANCH  26  27
ENDBRANCH  24  25
ENDBRANCH  22  23
ENDBRANCH  19  22
ENDBRANCH  18  19
ENDBRANCH   1  18
TORSDOF 15
ENDMDL
