MODEL 1
REMARK VINA RESULT: -6.696260875      0.000      0.000
REMARK  12 active torsions:
REMARK  status: ('A' for Active; 'I' for Inactive)
REMARK    1  A    between atoms: N1_2  and  C2_5 
REMARK    2  A    between atoms: C2_5  and  C3_6 
REMARK    3  A    between atoms: C3_6  and  C4_7 
REMARK    4  A    between atoms: C4_7  and  C5_8 
REMARK    5  A    between atoms: C5_8  and  C6_9 
REMARK    6  A    between atoms: C6_9  and  C7_10 
REMARK    7  A    between atoms: C6_9  and  N4_22 
REMARK    8  A    between atoms: C7_10  and  N2_11 
REMARK    9  A    between atoms: N3_14  and  C10_15 
REMARK   10  A    between atoms: C10_15  and  C11_16 
REMARK   11  A    between atoms: N4_22  and  C16_24 
REMARK   12  A    between atoms: C16_24  and  C17_26 
ROOT
HETATM    1  C6  UNL     1       1.083  14.295 -40.682  1.00  0.00     0.104 C 
ENDROOT
BRANCH   1   2
HETATM    2  C5  UNL     1      -0.061  14.755 -39.842  1.00  0.00     0.026 C 
BRANCH   2   3
HETATM    3  C4  UNL     1      -0.980  13.592 -39.428  1.00  0.00     0.004 C 
BRANCH   3   4
HETATM    4  C3  UNL     1      -1.931  14.046 -38.348  1.00  0.00     0.027 C 
BRANCH   4   5
HETATM    5  C2  UNL     1      -1.874  13.192 -37.107  1.00  0.00     0.231 C 
BRANCH   5   6
HETATM    6  N1  UNL     1      -2.660  13.761 -36.023  1.00  0.00    -0.079 N 
HETATM    7  C1  UNL     1      -3.479  14.885 -36.487  1.00  0.00     0.266 C 
ATOM      8  H12 UNL     1      -2.070  14.029 -35.235  1.00  0.00     0.276 HD
ATOM      9  H11 UNL     1      -3.228  13.051 -35.560  1.00  0.00     0.276 HD
ENDBRANCH   5   6
ENDBRANCH   4   5
ENDBRANCH   3   4
ENDBRANCH   2   3
ENDBRANCH   1   2
BRANCH   1  10
HETATM   10  C7  UNL     1       1.075  14.800 -42.049  1.00  0.00     0.262 C 
BRANCH  10  11
HETATM   11  N2  UNL     1       0.281  14.334 -43.119  1.00  0.00    -0.060 N 
HETATM   12  C8  UNL     1      -1.113  14.260 -43.048  1.00  0.00     0.265 C 
HETATM   13  C9  UNL     1      -1.755  14.013 -44.403  1.00  0.00     0.265 C 
HETATM   14  N3  UNL     1      -0.772  13.730 -45.396  1.00  0.00    -0.061 N 
HETATM   15  C12 UNL     1       0.035  14.943 -45.522  1.00  0.00     0.265 C 
HETATM   16  C14 UNL     1       0.145  12.696 -44.878  1.00  0.00     0.265 C 
HETATM   17  C13 UNL     1       0.681  15.241 -44.240  1.00  0.00     0.265 C 
HETATM   18  C15 UNL     1       0.770  13.025 -43.587  1.00  0.00     0.265 C 
BRANCH  14  19
HETATM   19  C10 UNL     1      -1.220  13.239 -46.643  1.00  0.00     0.252 C 
BRANCH  19  20
HETATM   20  C11 UNL     1      -0.899  13.972 -47.877  1.00  0.00     0.142 C 
HETATM   21 CL1  UNL     1      -2.158  15.063 -48.472  1.00  0.00    -0.129 Cl
ENDBRANCH  19  20
ENDBRANCH  14  19
ENDBRANCH  10  11
ENDBRANCH   1  10
BRANCH   1  22
HETATM   22  N4  UNL     1       2.356  14.561 -40.011  1.00  0.00    -0.399 N 
ATOM     23  H4  UNL     1       2.637  14.004 -39.204  1.00  0.00     0.155 HD
BRANCH  22  24
HETATM   24  C16 UNL     1       3.180  15.578 -40.484  1.00  0.00     0.182 C 
HETATM   25 CL2  UNL     1       2.565  17.252 -40.320  1.00  0.00    -0.102 Cl
BRANCH  24  26
HETATM   26  C17 UNL     1       4.521  15.615 -39.723  1.00  0.00    -0.018 C 
HETATM   27  C18 UNL     1       4.405  14.901 -38.403  1.00  0.00     0.018 C 
HETATM   28  C19 UNL     1       5.683  15.102 -40.473  1.00  0.00     0.018 C 
HETATM   29  C20 UNL     1       4.791  17.094 -39.442  1.00  0.00     0.018 C 
ENDBRANCH  24  26
ENDBRANCH  22  24
ENDBRANCH   1  22
TORSDOF 12
ENDMDL
MODEL 2
REMARK VINA RESULT: -6.668693691      0.733      1.610
REMARK  12 active torsions:
REMARK  status: ('A' for Active; 'I' for Inactive)
REMARK    1  A    between atoms: N1_2  and  C2_5 
REMARK    2  A    between atoms: C2_5  and  C3_6 
REMARK    3  A    between atoms: C3_6  and  C4_7 
REMARK    4  A    between atoms: C4_7  and  C5_8 
REMARK    5  A    between atoms: C5_8  and  C6_9 
REMARK    6  A    between atoms: C6_9  and  C7_10 
REMARK    7  A    between atoms: C6_9  and  N4_22 
REMARK    8  A    between atoms: C7_10  and  N2_11 
REMARK    9  A    between atoms: N3_14  and  C10_15 
REMARK   10  A    between atoms: C10_15  and  C11_16 
REMARK   11  A    between atoms: N4_22  and  C16_24 
REMARK   12  A    between atoms: C16_24  and  C17_26 
ROOT
HETATM    1  C6  UNL     1       0.569  14.215 -40.343  1.00  0.00     0.104 C 
ENDROOT
BRANCH   1   2
HETATM    2  C5  UNL     1      -0.629  14.299 -39.458  1.00  0.00     0.026 C 
BRANCH   2   3
HETATM    3  C4  UNL     1      -1.513  13.043 -39.560  1.00  0.00     0.004 C 
BRANCH   3   4
HETATM    4  C3  UNL     1      -1.862  12.546 -38.179  1.00  0.00     0.027 C 
BRANCH   4   5
HETATM    5  C2  UNL     1      -1.879  13.638 -37.139  1.00  0.00     0.231 C 
BRANCH   5   6
HETATM    6  N1  UNL     1      -3.234  14.067 -36.828  1.00  0.00    -0.079 N 
HETATM    7  C1  UNL     1      -3.439  15.479 -37.165  1.00  0.00     0.266 C 
ATOM      8  H12 UNL     1      -3.472  13.877 -35.855  1.00  0.00     0.276 HD
ATOM      9  H11 UNL     1      -3.927  13.471 -37.280  1.00  0.00     0.276 HD
ENDBRANCH   5   6
ENDBRANCH   4   5
ENDBRANCH   3   4
ENDBRANCH   2   3
ENDBRANCH   1   2
BRANCH   1  10
HETATM   10  C7  UNL     1       0.415  14.863 -41.640  1.00  0.00     0.262 C 
BRANCH  10  11
HETATM   11  N2  UNL     1       0.254  14.227 -42.889  1.00  0.00    -0.060 N 
HETATM   12  C8  UNL     1       0.785  12.964 -43.168  1.00  0.00     0.265 C 
HETATM   13  C9  UNL     1       0.237  12.372 -44.456  1.00  0.00     0.265 C 
HETATM   14  N3  UNL     1      -0.548  13.323 -45.169  1.00  0.00    -0.061 N 
HETATM   15  C12 UNL     1      -1.697  13.621 -44.315  1.00  0.00     0.265 C 
HETATM   16  C14 UNL     1       0.210  14.587 -45.270  1.00  0.00     0.265 C 
HETATM   17  C13 UNL     1      -1.233  14.194 -43.048  1.00  0.00     0.265 C 
HETATM   18  C15 UNL     1       0.664  15.130 -43.980  1.00  0.00     0.265 C 
BRANCH  14  19
HETATM   19  C10 UNL     1      -0.919  13.007 -46.496  1.00  0.00     0.252 C 
BRANCH  19  20
HETATM   20  C11 UNL     1      -0.622  13.951 -47.584  1.00  0.00     0.142 C 
HETATM   21 CL1  UNL     1      -1.994  14.894 -48.181  1.00  0.00    -0.129 Cl
ENDBRANCH  19  20
ENDBRANCH  14  19
ENDBRANCH  10  11
ENDBRANCH   1  10
BRANCH   1  22
HETATM   22  N4  UNL     1       1.765  14.683 -39.640  1.00  0.00    -0.399 N 
ATOM     23  H4  UNL     1       1.858  14.538 -38.635  1.00  0.00     0.155 HD
BRANCH  22  24
HETATM   24  C16 UNL     1       2.772  15.326 -40.354  1.00  0.00     0.182 C 
HETATM   25 CL2  UNL     1       2.788  17.115 -40.284  1.00  0.00    -0.102 Cl
BRANCH  24  26
HETATM   26  C17 UNL     1       4.169  14.935 -39.831  1.00  0.00    -0.018 C 
HETATM   27  C18 UNL     1       5.229  15.821 -40.431  1.00  0.00     0.018 C 
HETATM   28  C19 UNL     1       4.305  14.910 -38.362  1.00  0.00     0.018 C 
HETATM   29  C20 UNL     1       4.407  13.508 -40.326  1.00  0.00     0.018 C 
ENDBRANCH  24  26
ENDBRANCH  22  24
ENDBRANCH   1  22
TORSDOF 12
ENDMDL
MODEL 3
REMARK VINA RESULT: -6.579043843      1.108      1.199
REMARK  12 active torsions:
REMARK  status: ('A' for Active; 'I' for Inactive)
REMARK    1  A    between atoms: N1_2  and  C2_5 
REMARK    2  A    between atoms: C2_5  and  C3_6 
REMARK    3  A    between atoms: C3_6  and  C4_7 
REMARK    4  A    between atoms: C4_7  and  C5_8 
REMARK    5  A    between atoms: C5_8  and  C6_9 
REMARK    6  A    between atoms: C6_9  and  C7_10 
REMARK    7  A    between atoms: C6_9  and  N4_22 
REMARK    8  A    between atoms: C7_10  and  N2_11 
REMARK    9  A    between atoms: N3_14  and  C10_15 
REMARK   10  A    between atoms: C10_15  and  C11_16 
REMARK   11  A    between atoms: N4_22  and  C16_24 
REMARK   12  A    between atoms: C16_24  and  C17_26 
ROOT
HETATM    1  C6  UNL     1       0.978  14.284 -40.608  1.00  0.00     0.104 C 
ENDROOT
BRANCH   1   2
HETATM    2  C5  UNL     1      -0.177  14.770 -39.799  1.00  0.00     0.026 C 
BRANCH   2   3
HETATM    3  C4  UNL     1      -1.076  13.616 -39.321  1.00  0.00     0.004 C 
BRANCH   3   4
HETATM    4  C3  UNL     1      -1.948  14.080 -38.180  1.00  0.00     0.027 C 
BRANCH   4   5
HETATM    5  C2  UNL     1      -1.870  13.185 -36.969  1.00  0.00     0.231 C 
BRANCH   5   6
HETATM    6  N1  UNL     1      -2.685  13.687 -35.874  1.00  0.00    -0.079 N 
HETATM    7  C1  UNL     1      -3.563  14.776 -36.313  1.00  0.00     0.266 C 
ATOM      8  H12 UNL     1      -2.111  13.968 -35.079  1.00  0.00     0.276 HD
ATOM      9  H11 UNL     1      -3.215  12.937 -35.428  1.00  0.00     0.276 HD
ENDBRANCH   5   6
ENDBRANCH   4   5
ENDBRANCH   3   4
ENDBRANCH   2   3
ENDBRANCH   1   2
BRANCH   1  10
HETATM   10  C7  UNL     1       0.973  14.720 -41.999  1.00  0.00     0.262 C 
BRANCH  10  11
HETATM   11  N2  UNL     1       0.232  14.155 -43.060  1.00  0.00    -0.060 N 
HETATM   12  C8  UNL     1      -1.164  14.073 -43.047  1.00  0.00     0.265 C 
HETATM   13  C9  UNL     1      -1.739  13.703 -44.404  1.00  0.00     0.265 C 
HETATM   14  N3  UNL     1      -0.709  13.345 -45.322  1.00  0.00    -0.061 N 
HETATM   15  C12 UNL     1       0.096  14.551 -45.516  1.00  0.00     0.265 C 
HETATM   16  C14 UNL     1       0.188  12.369 -44.674  1.00  0.00     0.265 C 
HETATM   17  C13 UNL     1       0.679  14.965 -44.236  1.00  0.00     0.265 C 
HETATM   18  C15 UNL     1       0.751  12.815 -43.389  1.00  0.00     0.265 C 
BRANCH  14  19
HETATM   19  C10 UNL     1      -1.095  12.743 -46.541  1.00  0.00     0.252 C 
BRANCH  19  20
HETATM   20  C11 UNL     1      -1.703  11.404 -46.535  1.00  0.00     0.142 C 
HETATM   21 CL1  UNL     1      -0.821  10.155 -47.424  1.00  0.00    -0.129 Cl
ENDBRANCH  19  20
ENDBRANCH  14  19
ENDBRANCH  10  11
ENDBRANCH   1  10
BRANCH   1  22
HETATM   22  N4  UNL     1       2.243  14.601 -39.944  1.00  0.00    -0.399 N 
ATOM     23  H4  UNL     1       2.524  14.092 -39.106  1.00  0.00     0.155 HD
BRANCH  22  24
HETATM   24  C16 UNL     1       3.059  15.600 -40.466  1.00  0.00     0.182 C 
HETATM   25 CL2  UNL     1       2.465  17.283 -40.315  1.00  0.00    -0.102 Cl
BRANCH  24  26
HETATM   26  C17 UNL     1       4.426  15.639 -39.753  1.00  0.00    -0.018 C 
HETATM   27  C18 UNL     1       4.359  14.924 -38.430  1.00  0.00     0.018 C 
HETATM   28  C19 UNL     1       5.562  15.128 -40.545  1.00  0.00     0.018 C 
HETATM   29  C20 UNL     1       4.703  17.119 -39.481  1.00  0.00     0.018 C 
ENDBRANCH  24  26
ENDBRANCH  22  24
ENDBRANCH   1  22
TORSDOF 12
ENDMDL
MODEL 4
REMARK VINA RESULT: -6.558386961      0.725      1.348
REMARK  12 active torsions:
REMARK  status: ('A' for Active; 'I' for Inactive)
REMARK    1  A    between atoms: N1_2  and  C2_5 
REMARK    2  A    between atoms: C2_5  and  C3_6 
REMARK    3  A    between atoms: C3_6  and  C4_7 
REMARK    4  A    between atoms: C4_7  and  C5_8 
REMARK    5  A    between atoms: C5_8  and  C6_9 
REMARK    6  A    between atoms: C6_9  and  C7_10 
REMARK    7  A    between atoms: C6_9  and  N4_22 
REMARK    8  A    between atoms: C7_10  and  N2_11 
REMARK    9  A    between atoms: N3_14  and  C10_15 
REMARK   10  A    between atoms: C10_15  and  C11_16 
REMARK   11  A    between atoms: N4_22  and  C16_24 
REMARK   12  A    between atoms: C16_24  and  C17_26 
ROOT
HETATM    1  C6  UNL     1       1.043  14.294 -40.745  1.00  0.00     0.104 C 
ENDROOT
BRANCH   1   2
HETATM    2  C5  UNL     1      -0.050  14.722 -39.824  1.00  0.00     0.026 C 
BRANCH   2   3
HETATM    3  C4  UNL     1      -0.971  13.552 -39.435  1.00  0.00     0.004 C 
BRANCH   3   4
HETATM    4  C3  UNL     1      -1.919  13.983 -38.344  1.00  0.00     0.027 C 
BRANCH   4   5
HETATM    5  C2  UNL     1      -1.888  13.080 -37.136  1.00  0.00     0.231 C 
BRANCH   5   6
HETATM    6  N1  UNL     1      -2.549  13.687 -35.991  1.00  0.00    -0.079 N 
HETATM    7  C1  UNL     1      -3.475  14.746 -36.405  1.00  0.00     0.266 C 
ATOM      8  H12 UNL     1      -1.873  14.027 -35.307  1.00  0.00     0.276 HD
ATOM      9  H11 UNL     1      -3.017  12.986 -35.415  1.00  0.00     0.276 HD
ENDBRANCH   5   6
ENDBRANCH   4   5
ENDBRANCH   3   4
ENDBRANCH   2   3
ENDBRANCH   1   2
BRANCH   1  10
HETATM   10  C7  UNL     1       0.975  14.873 -42.081  1.00  0.00     0.262 C 
BRANCH  10  11
HETATM   11  N2  UNL     1       0.379  14.296 -43.223  1.00  0.00    -0.060 N 
HETATM   12  C8  UNL     1       0.557  14.811 -44.510  1.00  0.00     0.265 C 
HETATM   13  C9  UNL     1       0.068  13.861 -45.592  1.00  0.00     0.265 C 
HETATM   14  N3  UNL     1      -0.625  12.751 -45.029  1.00  0.00    -0.061 N 
HETATM   15  C12 UNL     1       0.361  12.019 -44.235  1.00  0.00     0.265 C 
HETATM   16  C14 UNL     1      -1.622  13.251 -44.062  1.00  0.00     0.265 C 
HETATM   17  C13 UNL     1       0.877  12.885 -43.171  1.00  0.00     0.265 C 
HETATM   18  C15 UNL     1      -1.070  14.122 -43.012  1.00  0.00     0.265 C 
BRANCH  14  19
HETATM   19  C10 UNL     1      -1.349  11.914 -45.909  1.00  0.00     0.252 C 
BRANCH  19  20
HETATM   20  C11 UNL     1      -1.479  12.281 -47.327  1.00  0.00     0.142 C 
HETATM   21 CL1  UNL     1      -2.861  13.307 -47.733  1.00  0.00    -0.129 Cl
ENDBRANCH  19  20
ENDBRANCH  14  19
ENDBRANCH  10  11
ENDBRANCH   1  10
BRANCH   1  22
HETATM   22  N4  UNL     1       2.352  14.508 -40.126  1.00  0.00    -0.399 N 
ATOM     23  H4  UNL     1       2.679  13.884 -39.388  1.00  0.00     0.155 HD
BRANCH  22  24
HETATM   24  C16 UNL     1       3.147  15.568 -40.552  1.00  0.00     0.182 C 
HETATM   25 CL2  UNL     1       2.479  17.214 -40.325  1.00  0.00    -0.102 Cl
BRANCH  24  26
HETATM   26  C17 UNL     1       4.482  15.615 -39.783  1.00  0.00    -0.018 C 
HETATM   27  C18 UNL     1       4.373  14.870 -38.480  1.00  0.00     0.018 C 
HETATM   28  C19 UNL     1       5.658  15.142 -40.538  1.00  0.00     0.018 C 
HETATM   29  C20 UNL     1       4.721  17.093 -39.468  1.00  0.00     0.018 C 
ENDBRANCH  24  26
ENDBRANCH  22  24
ENDBRANCH   1  22
TORSDOF 12
ENDMDL
MODEL 5
REMARK VINA RESULT: -6.524971642      2.279      4.681
REMARK  12 active torsions:
REMARK  status: ('A' for Active; 'I' for Inactive)
REMARK    1  A    between atoms: N1_2  and  C2_5 
REMARK    2  A    between atoms: C2_5  and  C3_6 
REMARK    3  A    between atoms: C3_6  and  C4_7 
REMARK    4  A    between atoms: C4_7  and  C5_8 
REMARK    5  A    between atoms: C5_8  and  C6_9 
REMARK    6  A    between atoms: C6_9  and  C7_10 
REMARK    7  A    between atoms: C6_9  and  N4_22 
REMARK    8  A    between atoms: C7_10  and  N2_11 
REMARK    9  A    between atoms: N3_14  and  C10_15 
REMARK   10  A    between atoms: C10_15  and  C11_16 
REMARK   11  A    between atoms: N4_22  and  C16_24 
REMARK   12  A    between atoms: C16_24  and  C17_26 
ROOT
HETATM    1  C6  UNL     1       0.670  14.378 -42.087  1.00  0.00     0.104 C 
ENDROOT
BRANCH   1   2
HETATM    2  C5  UNL     1       1.881  15.212 -41.836  1.00  0.00     0.026 C 
BRANCH   2   3
HETATM    3  C4  UNL     1       1.671  16.203 -40.676  1.00  0.00     0.004 C 
BRANCH   3   4
HETATM    4  C3  UNL     1       3.000  16.759 -40.227  1.00  0.00     0.027 C 
BRANCH   4   5
HETATM    5  C2  UNL     1       4.061  15.702 -40.054  1.00  0.00     0.231 C 
BRANCH   5   6
HETATM    6  N1  UNL     1       3.842  14.907 -38.856  1.00  0.00    -0.079 N 
HETATM    7  C1  UNL     1       4.933  15.078 -37.892  1.00  0.00     0.266 C 
ATOM      8  H12 UNL     1       3.694  13.923 -39.082  1.00  0.00     0.276 HD
ATOM      9  H11 UNL     1       2.936  15.109 -38.434  1.00  0.00     0.276 HD
ENDBRANCH   5   6
ENDBRANCH   4   5
ENDBRANCH   3   4
ENDBRANCH   2   3
ENDBRANCH   1   2
BRANCH   1  10
HETATM   10  C7  UNL     1       0.651  13.709 -43.382  1.00  0.00     0.262 C 
BRANCH  10  11
HETATM   11  N2  UNL     1      -0.238  13.958 -44.449  1.00  0.00    -0.060 N 
HETATM   12  C8  UNL     1      -1.611  14.144 -44.261  1.00  0.00     0.265 C 
HETATM   13  C9  UNL     1      -2.303  14.683 -45.503  1.00  0.00     0.265 C 
HETATM   14  N3  UNL     1      -1.420  14.696 -46.621  1.00  0.00    -0.061 N 
HETATM   15  C12 UNL     1      -0.355  15.639 -46.284  1.00  0.00     0.265 C 
HETATM   16  C14 UNL     1      -0.764  13.377 -46.726  1.00  0.00     0.265 C 
HETATM   17  C13 UNL     1       0.352  15.176 -45.086  1.00  0.00     0.265 C 
HETATM   18  C15 UNL     1      -0.070  12.942 -45.503  1.00  0.00     0.265 C 
BRANCH  14  19
HETATM   19  C10 UNL     1      -1.979  14.935 -47.897  1.00  0.00     0.252 C 
BRANCH  19  20
HETATM   20  C11 UNL     1      -3.169  15.788 -48.027  1.00  0.00     0.142 C 
HETATM   21 CL1  UNL     1      -2.891  17.526 -47.851  1.00  0.00    -0.129 Cl
ENDBRANCH  19  20
ENDBRANCH  14  19
ENDBRANCH  10  11
ENDBRANCH   1  10
BRANCH   1  22
HETATM   22  N4  UNL     1       0.453  13.439 -40.986  1.00  0.00    -0.399 N 
ATOM     23  H4  UNL     1       1.173  13.304 -40.276  1.00  0.00     0.155 HD
BRANCH  22  24
HETATM   24  C16 UNL     1      -0.744  12.732 -40.915  1.00  0.00     0.182 C 
HETATM   25 CL2  UNL     1      -0.619  10.967 -40.639  1.00  0.00    -0.102 Cl
BRANCH  24  26
HETATM   26  C17 UNL     1      -1.615  13.216 -39.738  1.00  0.00    -0.018 C 
HETATM   27  C18 UNL     1      -2.004  12.062 -38.853  1.00  0.00     0.018 C 
HETATM   28  C19 UNL     1      -1.027  14.298 -38.926  1.00  0.00     0.018 C 
HETATM   29  C20 UNL     1      -2.887  13.777 -40.374  1.00  0.00     0.018 C 
ENDBRANCH  24  26
ENDBRANCH  22  24
ENDBRANCH   1  22
TORSDOF 12
ENDMDL
