MODEL 1
REMARK VINA RESULT: -5.674389257      0.000      0.000
REMARK  3 active torsions:
REMARK  status: ('A' for Active; 'I' for Inactive)
REMARK    1  A    between atoms: C4_7  and  C5_8 
REMARK    2  A    between atoms: C5_8  and  C6_9 
REMARK    3  A    between atoms: C8_12  and  C9_13 
ROOT
HETATM    1  C1  UNL     1      -2.219  14.578 -40.807  1.00  0.00     0.048 C 
HETATM    2  C2  UNL     1      -1.287  13.368 -40.717  1.00  0.00     0.136 C 
HETATM    3  C3  UNL     1      -1.705  12.536 -39.509  1.00  0.00     0.048 C 
HETATM    4  N1  UNL     1       0.061  13.821 -40.456  1.00  0.00    -0.061 N 
ATOM      5  H11 UNL     1       0.632  13.067 -40.073  1.00  0.00     0.278 HD
ATOM      6  H12 UNL     1       0.083  14.464 -39.664  1.00  0.00     0.278 HD
HETATM    7  C4  UNL     1       0.692  14.408 -41.617  1.00  0.00     0.188 C 
HETATM    8  C7  UNL     1       0.868  13.389 -42.715  1.00  0.00     0.046 C 
HETATM    9  C8  UNL     1      -0.050  12.201 -42.553  1.00  0.00     0.070 C 
HETATM   10  C10 UNL     1      -1.397  12.601 -41.994  1.00  0.00     0.128 C 
HETATM   11 CL2  UNL     1      -2.345  11.115 -41.770  1.00  0.00    -0.122 Cl
ENDROOT
BRANCH   7  12
HETATM   12  C5  UNL     1       2.076  14.842 -41.180  1.00  0.00     0.048 C 
BRANCH  12  13
HETATM   13  C6  UNL     1       2.390  16.260 -41.599  1.00  0.00     0.116 C 
HETATM   14 CL1  UNL     1       4.085  16.573 -41.113  1.00  0.00    -0.130 Cl
ENDBRANCH  12  13
ENDBRANCH   7  12
BRANCH   9  15
HETATM   15  C9  UNL     1      -0.219  11.578 -43.881  1.00  0.00     0.237 C 
HETATM   16  O1  UNL     1       0.494  11.900 -44.800  1.00  0.00    -0.306 OA
ENDBRANCH   9  15
TORSDOF 3
ENDMDL
MODEL 2
REMARK VINA RESULT: -5.393607455      2.375      4.768
REMARK  3 active torsions:
REMARK  status: ('A' for Active; 'I' for Inactive)
REMARK    1  A    between atoms: C4_7  and  C5_8 
REMARK    2  A    between atoms: C5_8  and  C6_9 
REMARK    3  A    between atoms: C8_12  and  C9_13 
ROOT
HETATM    1  C1  UNL     1      -1.780  13.063 -38.833  1.00  0.00     0.048 C 
HETATM    2  C2  UNL     1      -1.967  13.365 -40.321  1.00  0.00     0.136 C 
HETATM    3  C3  UNL     1      -2.602  14.746 -40.448  1.00  0.00     0.048 C 
HETATM    4  N1  UNL     1      -2.912  12.427 -40.885  1.00  0.00    -0.061 N 
ATOM      5  H11 UNL     1      -3.303  12.783 -41.757  1.00  0.00     0.278 HD
ATOM      6  H12 UNL     1      -3.763  12.385 -40.325  1.00  0.00     0.278 HD
HETATM    7  C4  UNL     1      -2.350  11.107 -41.071  1.00  0.00     0.188 C 
HETATM    8  C7  UNL     1      -1.229  11.130 -42.080  1.00  0.00     0.046 C 
HETATM    9  C8  UNL     1      -0.652  12.513 -42.272  1.00  0.00     0.070 C 
HETATM   10  C10 UNL     1      -0.629  13.298 -40.981  1.00  0.00     0.128 C 
HETATM   11 CL2  UNL     1      -0.016  14.924 -41.356  1.00  0.00    -0.122 Cl
ENDROOT
BRANCH   7  12
HETATM   12  C5  UNL     1      -3.456  10.248 -41.647  1.00  0.00     0.048 C 
BRANCH  12  13
HETATM   13  C6  UNL     1      -4.610  11.076 -42.166  1.00  0.00     0.116 C 
HETATM   14 CL1  UNL     1      -4.376  11.223 -43.936  1.00  0.00    -0.130 Cl
ENDBRANCH  12  13
ENDBRANCH   7  12
BRANCH   9  15
HETATM   15  C9  UNL     1       0.719  12.359 -42.797  1.00  0.00     0.237 C 
HETATM   16  O1  UNL     1       0.987  12.717 -43.917  1.00  0.00    -0.306 OA
ENDBRANCH   9  15
TORSDOF 3
ENDMDL
MODEL 3
REMARK VINA RESULT: -5.386683472      1.039      1.045
REMARK  3 active torsions:
REMARK  status: ('A' for Active; 'I' for Inactive)
REMARK    1  A    between atoms: C4_7  and  C5_8 
REMARK    2  A    between atoms: C5_8  and  C6_9 
REMARK    3  A    between atoms: C8_12  and  C9_13 
ROOT
HETATM    1  C1  UNL     1      -2.173  14.641 -40.571  1.00  0.00     0.048 C 
HETATM    2  C2  UNL     1      -1.336  13.494 -41.141  1.00  0.00     0.136 C 
HETATM    3  C3  UNL     1      -1.763  12.205 -40.446  1.00  0.00     0.048 C 
HETATM    4  N1  UNL     1       0.054  13.701 -40.802  1.00  0.00    -0.061 N 
ATOM      5  H11 UNL     1       0.580  12.830 -40.870  1.00  0.00     0.278 HD
ATOM      6  H12 UNL     1       0.163  13.884 -39.804  1.00  0.00     0.278 HD
HETATM    7  C4  UNL     1       0.675  14.744 -41.589  1.00  0.00     0.188 C 
HETATM    8  C7  UNL     1       0.719  14.370 -43.049  1.00  0.00     0.046 C 
HETATM    9  C8  UNL     1      -0.282  13.295 -43.402  1.00  0.00     0.070 C 
HETATM   10  C10 UNL     1      -1.565  13.441 -42.615  1.00  0.00     0.128 C 
HETATM   11 CL2  UNL     1      -2.617  12.076 -43.053  1.00  0.00    -0.122 Cl
ENDROOT
BRANCH   7  12
HETATM   12  C5  UNL     1       2.107  14.848 -41.108  1.00  0.00     0.048 C 
BRANCH  12  13
HETATM   13  C6  UNL     1       2.783  16.110 -41.593  1.00  0.00     0.116 C 
HETATM   14 CL1  UNL     1       4.547  15.816 -41.492  1.00  0.00    -0.130 Cl
ENDBRANCH  12  13
ENDBRANCH   7  12
BRANCH   9  15
HETATM   15  C9  UNL     1      -0.560  13.396 -44.848  1.00  0.00     0.237 C 
HETATM   16  O1  UNL     1      -0.131  12.565 -45.610  1.00  0.00    -0.306 OA
ENDBRANCH   9  15
TORSDOF 3
ENDMDL
MODEL 4
REMARK VINA RESULT: -5.316056725      3.042      3.938
REMARK  3 active torsions:
REMARK  status: ('A' for Active; 'I' for Inactive)
REMARK    1  A    between atoms: C4_7  and  C5_8 
REMARK    2  A    between atoms: C5_8  and  C6_9 
REMARK    3  A    between atoms: C8_12  and  C9_13 
ROOT
HETATM    1  C1  UNL     1      -4.245  14.608 -41.655  1.00  0.00     0.048 C 
HETATM    2  C2  UNL     1      -3.411  13.357 -41.938  1.00  0.00     0.136 C 
HETATM    3  C3  UNL     1      -4.325  12.308 -42.563  1.00  0.00     0.048 C 
HETATM    4  N1  UNL     1      -2.944  12.800 -40.688  1.00  0.00    -0.061 N 
ATOM      5  H11 UNL     1      -2.676  11.823 -40.801  1.00  0.00     0.278 HD
ATOM      6  H12 UNL     1      -3.714  12.686 -40.029  1.00  0.00     0.278 HD
HETATM    7  C4  UNL     1      -1.868  13.567 -40.099  1.00  0.00     0.188 C 
HETATM    8  C7  UNL     1      -0.641  13.546 -40.976  1.00  0.00     0.046 C 
HETATM    9  C8  UNL     1      -0.959  13.180 -42.406  1.00  0.00     0.070 C 
HETATM   10  C10 UNL     1      -2.292  13.742 -42.848  1.00  0.00     0.128 C 
HETATM   11 CL2  UNL     1      -2.587  13.172 -44.506  1.00  0.00    -0.122 Cl
ENDROOT
BRANCH   7  12
HETATM   12  C5  UNL     1      -1.507  12.871 -38.803  1.00  0.00     0.048 C 
BRANCH  12  13
HETATM   13  C6  UNL     1      -2.236  13.459 -37.616  1.00  0.00     0.116 C 
HETATM   14 CL1  UNL     1      -1.681  12.552 -36.175  1.00  0.00    -0.130 Cl
ENDBRANCH  12  13
ENDBRANCH   7  12
BRANCH   9  15
HETATM   15  C9  UNL     1       0.123  13.714 -43.258  1.00  0.00     0.237 C 
HETATM   16  O1  UNL     1       0.903  12.965 -43.792  1.00  0.00    -0.306 OA
ENDBRANCH   9  15
TORSDOF 3
ENDMDL
MODEL 5
REMARK VINA RESULT: -5.277114845      2.130      3.205
REMARK  3 active torsions:
REMARK  status: ('A' for Active; 'I' for Inactive)
REMARK    1  A    between atoms: C4_7  and  C5_8 
REMARK    2  A    between atoms: C5_8  and  C6_9 
REMARK    3  A    between atoms: C8_12  and  C9_13 
ROOT
HETATM    1  C1  UNL     1       0.434  12.254 -43.894  1.00  0.00     0.048 C 
HETATM    2  C2  UNL     1      -0.578  13.316 -43.458  1.00  0.00     0.136 C 
HETATM    3  C3  UNL     1      -1.583  13.505 -44.588  1.00  0.00     0.048 C 
HETATM    4  N1  UNL     1       0.099  14.583 -43.294  1.00  0.00    -0.061 N 
ATOM      5  H11 UNL     1      -0.564  15.357 -43.327  1.00  0.00     0.278 HD
ATOM      6  H12 UNL     1       0.658  14.807 -44.117  1.00  0.00     0.278 HD
HETATM    7  C4  UNL     1       0.902  14.640 -42.093  1.00  0.00     0.188 C 
HETATM    8  C7  UNL     1       0.042  14.536 -40.858  1.00  0.00     0.046 C 
HETATM    9  C8  UNL     1      -1.310  13.927 -41.144  1.00  0.00     0.070 C 
HETATM   10  C10 UNL     1      -1.229  12.846 -42.198  1.00  0.00     0.128 C 
HETATM   11 CL2  UNL     1      -2.884  12.276 -42.506  1.00  0.00    -0.122 Cl
ENDROOT
BRANCH   7  12
HETATM   12  C5  UNL     1       1.550  16.009 -42.076  1.00  0.00     0.048 C 
BRANCH  12  13
HETATM   13  C6  UNL     1       2.990  15.954 -41.618  1.00  0.00     0.116 C 
HETATM   14 CL1  UNL     1       3.402  17.596 -41.033  1.00  0.00    -0.130 Cl
ENDBRANCH  12  13
ENDBRANCH   7  12
BRANCH   9  15
HETATM   15  C9  UNL     1      -1.826  13.364 -39.880  1.00  0.00     0.237 C 
HETATM   16  O1  UNL     1      -1.069  13.078 -38.986  1.00  0.00    -0.306 OA
ENDBRANCH   9  15
TORSDOF 3
ENDMDL
