MODEL 1
REMARK VINA RESULT: -5.060773459      0.000      0.000
REMARK  2 active torsions:
REMARK  status: ('A' for Active; 'I' for Inactive)
REMARK       I    between atoms: C1_2  and  N1_3 
REMARK    1  A    between atoms: C1_2  and  C7_10 
REMARK    2  A    between atoms: N1_3  and  C2_5 
ROOT
HETATM    1  O1  UNL     1      -0.911  13.426 -42.890  1.00  0.00    -0.271 OA
HETATM    2  C1  UNL     1      -0.740  13.313 -41.648  1.00  0.00     0.247 C 
HETATM    3  N1  UNL     1       0.439  13.821 -41.074  1.00  0.00    -0.354 N 
ATOM      4  H1  UNL     1       0.579  13.730 -40.067  1.00  0.00     0.162 HD
ENDROOT
BRANCH   3   5
HETATM    5  C2  UNL     1       1.454  14.464 -41.868  1.00  0.00     0.084 C 
HETATM    6  C3  UNL     1       2.808  13.912 -41.553  1.00  0.00     0.025 C 
HETATM    7  C4  UNL     1       3.419  14.977 -40.668  1.00  0.00     0.002 C 
HETATM    8  C5  UNL     1       2.979  16.236 -41.420  1.00  0.00     0.002 C 
HETATM    9  C6  UNL     1       1.508  15.961 -41.606  1.00  0.00     0.025 C 
ENDBRANCH   3   5
BRANCH   2  10
HETATM   10  C7  UNL     1      -1.806  12.645 -40.861  1.00  0.00     0.245 C 
HETATM   11 CL1  UNL     1      -1.594  10.874 -41.092  1.00  0.00    -0.103 Cl
HETATM   12 BR1  UNL     1      -1.648  13.042 -38.977  1.00  0.00    -0.064 Br
ENDBRANCH   2  10
TORSDOF 2
ENDMDL
MODEL 2
REMARK VINA RESULT: -5.054262555      4.472      5.579
REMARK  2 active torsions:
REMARK  status: ('A' for Active; 'I' for Inactive)
REMARK       I    between atoms: C1_2  and  N1_3 
REMARK    1  A    between atoms: C1_2  and  C7_10 
REMARK    2  A    between atoms: N1_3  and  C2_5 
ROOT
HETATM    1  O1  UNL     1       3.717  13.965 -41.666  1.00  0.00    -0.271 OA
HETATM    2  C1  UNL     1       4.008  15.085 -41.170  1.00  0.00     0.247 C 
HETATM    3  N1  UNL     1       5.020  15.157 -40.196  1.00  0.00    -0.354 N 
ATOM      4  H1  UNL     1       5.257  16.064 -39.793  1.00  0.00     0.162 HD
ENDROOT
BRANCH   3   5
HETATM    5  C2  UNL     1       5.730  13.986 -39.751  1.00  0.00     0.084 C 
HETATM    6  C3  UNL     1       5.812  13.946 -38.258  1.00  0.00     0.025 C 
HETATM    7  C4  UNL     1       7.229  14.397 -37.977  1.00  0.00     0.002 C 
HETATM    8  C5  UNL     1       7.978  13.619 -39.062  1.00  0.00     0.002 C 
HETATM    9  C6  UNL     1       7.155  13.957 -40.279  1.00  0.00     0.025 C 
ENDBRANCH   3   5
BRANCH   2  10
HETATM   10  C7  UNL     1       3.257  16.271 -41.652  1.00  0.00     0.245 C 
HETATM   11 CL1  UNL     1       1.512  15.930 -41.380  1.00  0.00    -0.103 Cl
HETATM   12 BR1  UNL     1       3.734  17.860 -40.662  1.00  0.00    -0.064 Br
ENDBRANCH   2  10
TORSDOF 2
ENDMDL
MODEL 3
REMARK VINA RESULT: -5.051679647      1.732      1.785
REMARK  2 active torsions:
REMARK  status: ('A' for Active; 'I' for Inactive)
REMARK       I    between atoms: C1_2  and  N1_3 
REMARK    1  A    between atoms: C1_2  and  C7_10 
REMARK    2  A    between atoms: N1_3  and  C2_5 
ROOT
HETATM    1  O1  UNL     1      -0.088  14.222 -42.503  1.00  0.00    -0.271 OA
HETATM    2  C1  UNL     1       0.104  14.054 -41.270  1.00  0.00     0.247 C 
HETATM    3  N1  UNL     1       1.393  14.259 -40.747  1.00  0.00    -0.354 N 
ATOM      4  H1  UNL     1       1.551  14.124 -39.748  1.00  0.00     0.162 HD
ENDROOT
BRANCH   3   5
HETATM    5  C2  UNL     1       2.497  14.653 -41.584  1.00  0.00     0.084 C 
HETATM    6  C3  UNL     1       3.739  13.905 -41.218  1.00  0.00     0.025 C 
HETATM    7  C4  UNL     1       4.531  14.917 -40.416  1.00  0.00     0.002 C 
HETATM    8  C5  UNL     1       4.306  16.168 -41.269  1.00  0.00     0.002 C 
HETATM    9  C6  UNL     1       2.809  16.135 -41.442  1.00  0.00     0.025 C 
ENDBRANCH   3   5
BRANCH   2  10
HETATM   10  C7  UNL     1      -1.056  13.648 -40.438  1.00  0.00     0.245 C 
HETATM   11 CL1  UNL     1      -2.328  14.898 -40.670  1.00  0.00    -0.103 Cl
HETATM   12 BR1  UNL     1      -1.763  11.940 -40.996  1.00  0.00    -0.064 Br
ENDBRANCH   2  10
TORSDOF 2
ENDMDL
MODEL 4
REMARK VINA RESULT: -4.965924693      2.061      2.351
REMARK  2 active torsions:
REMARK  status: ('A' for Active; 'I' for Inactive)
REMARK       I    between atoms: C1_2  and  N1_3 
REMARK    1  A    between atoms: C1_2  and  C7_10 
REMARK    2  A    between atoms: N1_3  and  C2_5 
ROOT
HETATM    1  O1  UNL     1       1.211  15.333 -43.839  1.00  0.00    -0.271 OA
HETATM    2  C1  UNL     1       1.124  14.689 -42.760  1.00  0.00     0.247 C 
HETATM    3  N1  UNL     1       2.127  14.851 -41.787  1.00  0.00    -0.354 N 
ATOM      4  H1  UNL     1       2.058  14.330 -40.912  1.00  0.00     0.162 HD
ENDROOT
BRANCH   3   5
HETATM    5  C2  UNL     1       3.247  15.733 -41.992  1.00  0.00     0.084 C 
HETATM    6  C3  UNL     1       4.517  15.102 -41.515  1.00  0.00     0.025 C 
HETATM    7  C4  UNL     1       4.763  15.782 -40.184  1.00  0.00     0.002 C 
HETATM    8  C5  UNL     1       4.416  17.226 -40.554  1.00  0.00     0.002 C 
HETATM    9  C6  UNL     1       3.082  17.039 -41.231  1.00  0.00     0.025 C 
ENDBRANCH   3   5
BRANCH   2  10
HETATM   10  C7  UNL     1      -0.043  13.790 -42.583  1.00  0.00     0.245 C 
HETATM   11 CL1  UNL     1       0.562  12.106 -42.763  1.00  0.00    -0.103 Cl
HETATM   12 BR1  UNL     1      -0.820  13.979 -40.824  1.00  0.00    -0.064 Br
ENDBRANCH   2  10
TORSDOF 2
ENDMDL
MODEL 5
REMARK VINA RESULT: -4.946974867      2.170      2.438
REMARK  2 active torsions:
REMARK  status: ('A' for Active; 'I' for Inactive)
REMARK       I    between atoms: C1_2  and  N1_3 
REMARK    1  A    between atoms: C1_2  and  C7_10 
REMARK    2  A    between atoms: N1_3  and  C2_5 
ROOT
HETATM    1  O1  UNL     1       1.211  14.273 -43.343  1.00  0.00    -0.271 OA
HETATM    2  C1  UNL     1       0.959  13.965 -42.149  1.00  0.00     0.247 C 
HETATM    3  N1  UNL     1       1.955  14.148 -41.173  1.00  0.00    -0.354 N 
ATOM      4  H1  UNL     1       1.753  13.899 -40.205  1.00  0.00     0.162 HD
ENDROOT
BRANCH   3   5
HETATM    5  C2  UNL     1       3.253  14.677 -41.504  1.00  0.00     0.084 C 
HETATM    6  C3  UNL     1       4.315  14.061 -40.649  1.00  0.00     0.025 C 
HETATM    7  C4  UNL     1       4.602  15.138 -39.624  1.00  0.00     0.002 C 
HETATM    8  C5  UNL     1       4.607  16.374 -40.527  1.00  0.00     0.002 C 
HETATM    9  C6  UNL     1       3.320  16.181 -41.288  1.00  0.00     0.025 C 
ENDBRANCH   3   5
BRANCH   2  10
HETATM   10  C7  UNL     1      -0.388  13.423 -41.843  1.00  0.00     0.245 C 
HETATM   11 CL1  UNL     1      -1.214  14.635 -40.801  1.00  0.00    -0.103 Cl
HETATM   12 BR1  UNL     1      -1.434  13.180 -43.449  1.00  0.00    -0.064 Br
ENDBRANCH   2  10
TORSDOF 2
ENDMDL
