MODEL 1
REMARK VINA RESULT: -4.948929747      0.000      0.000
REMARK  3 active torsions:
REMARK  status: ('A' for Active; 'I' for Inactive)
REMARK    1  A    between atoms: C2_2  and  C3_3 
REMARK    2  A    between atoms: N1_7  and  C7_8 
REMARK    3  A    between atoms: C7_8  and  C8_9 
ROOT
HETATM    1  C3  UNL     1       2.583  15.741 -41.908  1.00  0.00     0.032 C 
HETATM    2  C4  UNL     1       2.488  17.020 -41.090  1.00  0.00     0.013 C 
HETATM    3  C5  UNL     1       3.866  17.632 -41.050  1.00  0.00     0.045 C 
HETATM    4  C6  UNL     1       4.928  16.686 -40.601  1.00  0.00     0.060 C 
HETATM    5  N1  UNL     1       4.787  15.353 -41.034  1.00  0.00    -0.374 N 
HETATM    6  C9  UNL     1       3.481  14.821 -41.119  1.00  0.00     0.185 C 
HETATM    7 CL2  UNL     1       3.489  13.186 -41.797  1.00  0.00    -0.102 Cl
ENDROOT
BRANCH   1   8
HETATM    8  C2  UNL     1       1.220  15.130 -42.128  1.00  0.00    -0.037 A 
HETATM    9  C1  UNL     1       0.865  14.688 -43.537  1.00  0.00     0.015 C 
HETATM   10  C10 UNL     1       0.729  14.238 -41.031  1.00  0.00     0.010 A 
HETATM   11  C11 UNL     1       0.102  15.600 -41.261  1.00  0.00     0.010 A 
ENDBRANCH   1   8
BRANCH   5  12
HETATM   12  C7  UNL     1       5.810  14.440 -40.683  1.00  0.00     0.138 C 
BRANCH  12  13
HETATM   13  C8  UNL     1       6.538  14.760 -39.418  1.00  0.00     0.134 C 
HETATM   14 CL1  UNL     1       5.602  14.218 -38.021  1.00  0.00    -0.129 Cl
ENDBRANCH  12  13
ENDBRANCH   5  12
TORSDOF 3
ENDMDL
MODEL 2
REMARK VINA RESULT: -4.921342096      1.434      4.617
REMARK  3 active torsions:
REMARK  status: ('A' for Active; 'I' for Inactive)
REMARK    1  A    between atoms: C2_2  and  C3_3 
REMARK    2  A    between atoms: N1_7  and  C7_8 
REMARK    3  A    between atoms: C7_8  and  C8_9 
ROOT
HETATM    1  C3  UNL     1       4.669  15.563 -40.151  1.00  0.00     0.032 C 
HETATM    2  C4  UNL     1       5.084  16.996 -40.448  1.00  0.00     0.013 C 
HETATM    3  C5  UNL     1       3.822  17.815 -40.556  1.00  0.00     0.045 C 
HETATM    4  C6  UNL     1       2.820  17.250 -41.505  1.00  0.00     0.060 C 
HETATM    5  N1  UNL     1       2.724  15.844 -41.532  1.00  0.00    -0.374 N 
HETATM    6  C9  UNL     1       3.912  15.098 -41.369  1.00  0.00     0.185 C 
HETATM    7 CL2  UNL     1       3.582  13.360 -41.303  1.00  0.00    -0.102 Cl
ENDROOT
BRANCH   1   8
HETATM    8  C2  UNL     1       5.872  14.690 -39.879  1.00  0.00    -0.037 A 
HETATM    9  C1  UNL     1       5.770  13.680 -38.750  1.00  0.00     0.015 C 
HETATM   10  C10 UNL     1       6.618  14.227 -41.091  1.00  0.00     0.010 A 
HETATM   11  C11 UNL     1       7.219  15.262 -40.160  1.00  0.00     0.010 A 
ENDBRANCH   1   8
BRANCH   5  12
HETATM   12  C7  UNL     1       1.739  15.272 -42.370  1.00  0.00     0.138 C 
BRANCH  12  13
HETATM   13  C8  UNL     1       0.461  14.906 -41.688  1.00  0.00     0.134 C 
HETATM   14 CL1  UNL     1       0.005  13.248 -42.095  1.00  0.00    -0.129 Cl
ENDBRANCH  12  13
ENDBRANCH   5  12
TORSDOF 3
ENDMDL
MODEL 3
REMARK VINA RESULT: -4.879090067      3.780      6.325
REMARK  3 active torsions:
REMARK  status: ('A' for Active; 'I' for Inactive)
REMARK    1  A    between atoms: C2_2  and  C3_3 
REMARK    2  A    between atoms: N1_7  and  C7_8 
REMARK    3  A    between atoms: C7_8  and  C8_9 
ROOT
HETATM    1  C3  UNL     1      -0.175  13.866 -41.269  1.00  0.00     0.032 C 
HETATM    2  C4  UNL     1      -1.410  14.693 -40.943  1.00  0.00     0.013 C 
HETATM    3  C5  UNL     1      -2.227  13.906 -39.949  1.00  0.00     0.045 C 
HETATM    4  C6  UNL     1      -2.512  12.507 -40.383  1.00  0.00     0.060 C 
HETATM    5  N1  UNL     1      -1.475  11.856 -41.079  1.00  0.00    -0.374 N 
HETATM    6  C9  UNL     1      -0.685  12.627 -41.960  1.00  0.00     0.185 C 
HETATM    7 CL2  UNL     1       0.640  11.675 -42.646  1.00  0.00    -0.102 Cl
ENDROOT
BRANCH   1   8
HETATM    8  C2  UNL     1       0.782  14.636 -42.147  1.00  0.00    -0.037 A 
HETATM    9  C1  UNL     1       0.505  14.662 -43.640  1.00  0.00     0.015 C 
HETATM   10  C10 UNL     1       1.302  15.915 -41.569  1.00  0.00     0.010 A 
HETATM   11  C11 UNL     1       2.209  14.709 -41.721  1.00  0.00     0.010 A 
ENDBRANCH   1   8
BRANCH   5  12
HETATM   12  C7  UNL     1      -1.683  10.506 -41.448  1.00  0.00     0.138 C 
BRANCH  12  13
HETATM   13  C8  UNL     1      -2.875  10.263 -42.316  1.00  0.00     0.134 C 
HETATM   14 CL1  UNL     1      -2.364   9.717 -43.917  1.00  0.00    -0.129 Cl
ENDBRANCH  12  13
ENDBRANCH   5  12
TORSDOF 3
ENDMDL
MODEL 4
REMARK VINA RESULT: -4.780148981      3.605      5.341
REMARK  3 active torsions:
REMARK  status: ('A' for Active; 'I' for Inactive)
REMARK    1  A    between atoms: C2_2  and  C3_3 
REMARK    2  A    between atoms: N1_7  and  C7_8 
REMARK    3  A    between atoms: C7_8  and  C8_9 
ROOT
HETATM    1  C3  UNL     1       7.271  14.231 -39.893  1.00  0.00     0.032 C 
HETATM    2  C4  UNL     1       8.175  15.451 -39.995  1.00  0.00     0.013 C 
HETATM    3  C5  UNL     1       9.596  14.971 -39.839  1.00  0.00     0.045 C 
HETATM    4  C6  UNL     1       9.816  14.136 -38.624  1.00  0.00     0.060 C 
HETATM    5  N1  UNL     1       8.762  13.268 -38.275  1.00  0.00    -0.374 N 
HETATM    6  C9  UNL     1       7.440  13.717 -38.485  1.00  0.00     0.185 C 
HETATM    7 CL2  UNL     1       6.258  12.454 -38.110  1.00  0.00    -0.102 Cl
ENDROOT
BRANCH   1   8
HETATM    8  C2  UNL     1       5.833  14.590 -40.183  1.00  0.00    -0.037 A 
HETATM    9  C1  UNL     1       4.968  15.033 -39.017  1.00  0.00     0.015 C 
HETATM   10  C10 UNL     1       5.597  15.316 -41.471  1.00  0.00     0.010 A 
HETATM   11  C11 UNL     1       5.153  13.876 -41.301  1.00  0.00     0.010 A 
ENDBRANCH   1   8
BRANCH   5  12
HETATM   12  C7  UNL     1       8.960  12.412 -37.166  1.00  0.00     0.138 C 
BRANCH  12  13
HETATM   13  C8  UNL     1       9.770  12.993 -36.053  1.00  0.00     0.134 C 
HETATM   14 CL1  UNL     1       8.833  14.219 -35.192  1.00  0.00    -0.129 Cl
ENDBRANCH  12  13
ENDBRANCH   5  12
TORSDOF 3
ENDMDL
MODEL 5
REMARK VINA RESULT: -4.705450672      6.217      7.124
REMARK  3 active torsions:
REMARK  status: ('A' for Active; 'I' for Inactive)
REMARK    1  A    between atoms: C2_2  and  C3_3 
REMARK    2  A    between atoms: N1_7  and  C7_8 
REMARK    3  A    between atoms: C7_8  and  C8_9 
ROOT
HETATM    1  C3  UNL     1      -2.850  12.405 -42.300  1.00  0.00     0.032 C 
HETATM    2  C4  UNL     1      -4.023  13.372 -42.279  1.00  0.00     0.013 C 
HETATM    3  C5  UNL     1      -3.549  14.638 -41.609  1.00  0.00     0.045 C 
HETATM    4  C6  UNL     1      -2.909  14.409 -40.281  1.00  0.00     0.060 C 
HETATM    5  N1  UNL     1      -2.124  13.244 -40.170  1.00  0.00    -0.374 N 
HETATM    6  C9  UNL     1      -2.557  12.088 -40.855  1.00  0.00     0.185 C 
HETATM    7 CL2  UNL     1      -1.388  10.767 -40.705  1.00  0.00    -0.102 Cl
ENDROOT
BRANCH   1   8
HETATM    8  C2  UNL     1      -3.183  11.158 -43.084  1.00  0.00    -0.037 A 
HETATM    9  C1  UNL     1      -4.144  10.165 -42.455  1.00  0.00     0.015 C 
HETATM   10  C10 UNL     1      -3.330  11.345 -44.562  1.00  0.00     0.010 A 
HETATM   11  C11 UNL     1      -2.135  10.607 -43.989  1.00  0.00     0.010 A 
ENDBRANCH   1   8
BRANCH   5  12
HETATM   12  C7  UNL     1      -1.447  13.027 -38.947  1.00  0.00     0.138 C 
BRANCH  12  13
HETATM   13  C8  UNL     1      -2.192  13.457 -37.725  1.00  0.00     0.134 C 
HETATM   14 CL1  UNL     1      -1.630  12.551 -36.316  1.00  0.00    -0.129 Cl
ENDBRANCH  12  13
ENDBRANCH   5  12
TORSDOF 3
ENDMDL
