MODEL 1
REMARK VINA RESULT: -5.887499982      0.000      0.000
REMARK  3 active torsions:
REMARK  status: ('A' for Active; 'I' for Inactive)
REMARK    1  A    between atoms: C2_2  and  C3_3 
REMARK       I    between atoms: C3_3  and  N1_5 
REMARK    2  A    between atoms: N1_5  and  C4_7 
REMARK    3  A    between atoms: C4_7  and  C5_8 
ROOT
HETATM    1  C3  UNL     1       2.355  15.117 -41.250  1.00  0.00     0.229 C 
HETATM    2  O1  UNL     1       2.092  16.191 -41.827  1.00  0.00    -0.273 OA
HETATM    3  N1  UNL     1       1.283  14.263 -40.929  1.00  0.00    -0.360 N 
ATOM      4  H1  UNL     1       1.510  13.387 -40.458  1.00  0.00     0.162 HD
ENDROOT
BRANCH   1   5
HETATM    5  C2  UNL     1       3.728  14.777 -40.929  1.00  0.00     0.075 A 
HETATM    6  C1  UNL     1       4.203  13.426 -41.468  1.00  0.00     0.029 C 
HETATM    7  C9  UNL     1       4.144  14.989 -39.475  1.00  0.00     0.065 A 
HETATM    8  C10 UNL     1       4.778  15.756 -40.612  1.00  0.00     0.130 A 
HETATM    9 CL1  UNL     1       6.442  15.329 -41.079  1.00  0.00    -0.100 Cl
HETATM   10 CL2  UNL     1       4.463  17.495 -40.588  1.00  0.00    -0.100 Cl
ENDBRANCH   1   5
BRANCH   3  11
HETATM   11  C4  UNL     1      -0.098  14.517 -41.206  1.00  0.00     0.127 C 
BRANCH  11  12
HETATM   12  C5  UNL     1      -1.054  13.663 -40.393  1.00  0.00     0.003 C 
HETATM   13  C6  UNL     1      -2.494  14.122 -40.558  1.00  0.00     0.006 C 
HETATM   14  C7  UNL     1      -2.846  12.708 -40.960  1.00  0.00     0.001 C 
HETATM   15  C8  UNL     1      -1.402  12.343 -41.054  1.00  0.00     0.006 C 
ENDBRANCH  11  12
ENDBRANCH   3  11
TORSDOF 3
ENDMDL
MODEL 2
REMARK VINA RESULT: -5.859501712      3.360      6.054
REMARK  3 active torsions:
REMARK  status: ('A' for Active; 'I' for Inactive)
REMARK    1  A    between atoms: C2_2  and  C3_3 
REMARK       I    between atoms: C3_3  and  N1_5 
REMARK    2  A    between atoms: N1_5  and  C4_7 
REMARK    3  A    between atoms: C4_7  and  C5_8 
ROOT
HETATM    1  C3  UNL     1       0.712  13.739 -42.262  1.00  0.00     0.229 C 
HETATM    2  O1  UNL     1       1.096  14.202 -43.355  1.00  0.00    -0.273 OA
HETATM    3  N1  UNL     1       1.410  14.124 -41.103  1.00  0.00    -0.360 N 
ATOM      4  H1  UNL     1       1.087  13.739 -40.215  1.00  0.00     0.162 HD
ENDROOT
BRANCH   1   5
HETATM    5  C2  UNL     1      -0.420  12.833 -42.210  1.00  0.00     0.075 A 
HETATM    6  C1  UNL     1      -0.078  11.359 -42.432  1.00  0.00     0.029 C 
HETATM    7  C9  UNL     1      -1.652  13.259 -43.006  1.00  0.00     0.065 A 
HETATM    8  C10 UNL     1      -1.679  13.110 -41.502  1.00  0.00     0.130 A 
HETATM    9 CL1  UNL     1      -2.541  11.709 -40.821  1.00  0.00    -0.100 Cl
HETATM   10 CL2  UNL     1      -1.948  14.617 -40.621  1.00  0.00    -0.100 Cl
ENDBRANCH   1   5
BRANCH   3  11
HETATM   11  C4  UNL     1       2.535  15.008 -41.061  1.00  0.00     0.127 C 
BRANCH  11  12
HETATM   12  C5  UNL     1       3.860  14.304 -40.832  1.00  0.00     0.003 C 
HETATM   13  C6  UNL     1       4.999  15.005 -41.557  1.00  0.00     0.006 C 
HETATM   14  C7  UNL     1       5.728  15.079 -40.235  1.00  0.00     0.001 C 
HETATM   15  C8  UNL     1       4.505  14.640 -39.501  1.00  0.00     0.006 C 
ENDBRANCH  11  12
ENDBRANCH   3  11
TORSDOF 3
ENDMDL
MODEL 3
REMARK VINA RESULT: -5.772708868      1.340      1.784
REMARK  3 active torsions:
REMARK  status: ('A' for Active; 'I' for Inactive)
REMARK    1  A    between atoms: C2_2  and  C3_3 
REMARK       I    between atoms: C3_3  and  N1_5 
REMARK    2  A    between atoms: N1_5  and  C4_7 
REMARK    3  A    between atoms: C4_7  and  C5_8 
ROOT
HETATM    1  C3  UNL     1       2.403  15.080 -41.314  1.00  0.00     0.229 C 
HETATM    2  O1  UNL     1       2.150  16.140 -41.921  1.00  0.00    -0.273 OA
HETATM    3  N1  UNL     1       1.326  14.231 -40.997  1.00  0.00    -0.360 N 
ATOM      4  H1  UNL     1       1.544  13.367 -40.500  1.00  0.00     0.162 HD
ENDROOT
BRANCH   1   5
HETATM    5  C2  UNL     1       3.769  14.752 -40.954  1.00  0.00     0.075 A 
HETATM    6  C1  UNL     1       4.271  13.406 -41.482  1.00  0.00     0.029 C 
HETATM    7  C9  UNL     1       4.142  14.964 -39.489  1.00  0.00     0.065 A 
HETATM    8  C10 UNL     1       4.801  15.739 -40.606  1.00  0.00     0.130 A 
HETATM    9 CL1  UNL     1       6.481  15.327 -41.025  1.00  0.00    -0.100 Cl
HETATM   10 CL2  UNL     1       4.470  17.475 -40.588  1.00  0.00    -0.100 Cl
ENDBRANCH   1   5
BRANCH   3  11
HETATM   11  C4  UNL     1      -0.049  14.475 -41.311  1.00  0.00     0.127 C 
BRANCH  11  12
HETATM   12  C5  UNL     1      -0.593  13.588 -42.417  1.00  0.00     0.003 C 
HETATM   13  C6  UNL     1       0.023  13.933 -43.764  1.00  0.00     0.006 C 
HETATM   14  C7  UNL     1       0.423  12.481 -43.896  1.00  0.00     0.001 C 
HETATM   15  C8  UNL     1       0.059  12.219 -42.473  1.00  0.00     0.006 C 
ENDBRANCH  11  12
ENDBRANCH   3  11
TORSDOF 3
ENDMDL
MODEL 4
REMARK VINA RESULT: -5.720242776      3.470      6.053
REMARK  3 active torsions:
REMARK  status: ('A' for Active; 'I' for Inactive)
REMARK    1  A    between atoms: C2_2  and  C3_3 
REMARK       I    between atoms: C3_3  and  N1_5 
REMARK    2  A    between atoms: N1_5  and  C4_7 
REMARK    3  A    between atoms: C4_7  and  C5_8 
ROOT
HETATM    1  C3  UNL     1       1.090  13.758 -42.025  1.00  0.00     0.229 C 
HETATM    2  O1  UNL     1       1.704  13.399 -43.050  1.00  0.00    -0.273 OA
HETATM    3  N1  UNL     1       1.843  14.275 -40.954  1.00  0.00    -0.360 N 
ATOM      4  H1  UNL     1       1.330  14.565 -40.121  1.00  0.00     0.162 HD
ENDROOT
BRANCH   1   5
HETATM    5  C2  UNL     1      -0.354  13.636 -41.958  1.00  0.00     0.075 A 
HETATM    6  C1  UNL     1      -1.036  14.574 -40.961  1.00  0.00     0.029 C 
HETATM    7  C9  UNL     1      -0.900  12.213 -41.867  1.00  0.00     0.065 A 
HETATM    8  C10 UNL     1      -1.199  13.114 -43.042  1.00  0.00     0.130 A 
HETATM    9 CL1  UNL     1      -2.842  13.788 -43.176  1.00  0.00    -0.100 Cl
HETATM   10 CL2  UNL     1      -0.521  12.565 -44.578  1.00  0.00    -0.100 Cl
ENDBRANCH   1   5
BRANCH   3  11
HETATM   11  C4  UNL     1       3.265  14.430 -40.932  1.00  0.00     0.127 C 
BRANCH  11  12
HETATM   12  C5  UNL     1       3.753  15.713 -41.582  1.00  0.00     0.003 C 
HETATM   13  C6  UNL     1       2.868  16.896 -41.218  1.00  0.00     0.006 C 
HETATM   14  C7  UNL     1       4.111  17.613 -40.741  1.00  0.00     0.001 C 
HETATM   15  C8  UNL     1       4.914  16.360 -40.851  1.00  0.00     0.006 C 
ENDBRANCH  11  12
ENDBRANCH   3  11
TORSDOF 3
ENDMDL
MODEL 5
REMARK VINA RESULT: -5.710479661      3.423      6.037
REMARK  3 active torsions:
REMARK  status: ('A' for Active; 'I' for Inactive)
REMARK    1  A    between atoms: C2_2  and  C3_3 
REMARK       I    between atoms: C3_3  and  N1_5 
REMARK    2  A    between atoms: N1_5  and  C4_7 
REMARK    3  A    between atoms: C4_7  and  C5_8 
ROOT
HETATM    1  C3  UNL     1       0.750  12.968 -42.618  1.00  0.00     0.229 C 
HETATM    2  O1  UNL     1       1.186  13.045 -43.784  1.00  0.00    -0.273 OA
HETATM    3  N1  UNL     1       1.567  13.447 -41.577  1.00  0.00    -0.360 N 
ATOM      4  H1  UNL     1       1.200  13.378 -40.628  1.00  0.00     0.162 HD
ENDROOT
BRANCH   1   5
HETATM    5  C2  UNL     1      -0.559  12.397 -42.364  1.00  0.00     0.075 A 
HETATM    6  C1  UNL     1      -0.632  10.873 -42.477  1.00  0.00     0.029 C 
HETATM    7  C9  UNL     1      -1.731  13.077 -43.067  1.00  0.00     0.065 A 
HETATM    8  C10 UNL     1      -1.609  13.041 -41.561  1.00  0.00     0.130 A 
HETATM    9 CL1  UNL     1      -2.708  11.964 -40.664  1.00  0.00    -0.100 Cl
HETATM   10 CL2  UNL     1      -1.376  14.621 -40.806  1.00  0.00    -0.100 Cl
ENDBRANCH   1   5
BRANCH   3  11
HETATM   11  C4  UNL     1       2.868  14.022 -41.734  1.00  0.00     0.127 C 
BRANCH  11  12
HETATM   12  C5  UNL     1       3.174  15.128 -40.740  1.00  0.00     0.003 C 
HETATM   13  C6  UNL     1       4.671  15.282 -40.517  1.00  0.00     0.006 C 
HETATM   14  C7  UNL     1       4.522  16.743 -40.873  1.00  0.00     0.001 C 
HETATM   15  C8  UNL     1       3.124  16.519 -41.343  1.00  0.00     0.006 C 
ENDBRANCH  11  12
ENDBRANCH   3  11
TORSDOF 3
ENDMDL
