MODEL 1
REMARK VINA RESULT: -6.345295092      0.000      0.000
REMARK  8 active torsions:
REMARK  status: ('A' for Active; 'I' for Inactive)
REMARK    1  A    between atoms: C4_5  and  C5_6 
REMARK    2  A    between atoms: C6_7  and  C7_8 
REMARK    3  A    between atoms: C7_8  and  C8_9 
REMARK    4  A    between atoms: C8_9  and  C9_10 
REMARK    5  A    between atoms: C9_10  and  C10_11 
REMARK    6  A    between atoms: C10_11  and  N2_12 
REMARK    7  A    between atoms: N6_20  and  C13_22 
REMARK    8  A    between atoms: C13_22  and  C14_23 
ROOT
HETATM    1  C1  UNL     1      30.522 -11.706  16.444  1.00  0.00     0.038 C 
HETATM    2  C2  UNL     1      30.070 -10.837  15.747  1.00  0.00     0.022 C 
HETATM    3  N1  UNL     1      29.518  -9.842  14.929  1.00  0.00    -0.113 N 
HETATM    4  C3  UNL     1      28.423 -10.008  14.139  1.00  0.00     0.164 A 
HETATM    5  C4  UNL     1      28.124  -8.855  13.455  1.00  0.00     0.120 A 
HETATM    6  N5  UNL     1      29.057  -7.976  13.840  1.00  0.00    -0.181 N 
ATOM      7  H5  UNL     1      29.125  -7.012  13.516  1.00  0.00     0.185 HD
HETATM    8  C12 UNL     1      29.910  -8.575  14.740  1.00  0.00     0.697 A 
HETATM    9  N6  UNL     1      30.862  -7.950  15.239  1.00  0.00    -0.201 N 
ATOM     10  H6  UNL     1      30.896  -6.991  14.893  1.00  0.00     0.183 HD
ENDROOT
BRANCH   5  11
HETATM   11  C5  UNL     1      27.038  -8.642  12.524  1.00  0.00    -0.047 C 
HETATM   12  C6  UNL     1      26.144  -8.467  11.733  1.00  0.00    -0.100 C 
BRANCH  12  13
HETATM   13  C7  UNL     1      25.061  -8.259  10.744  1.00  0.00     0.094 C 
BRANCH  13  14
HETATM   14  C8  UNL     1      25.311  -6.965  10.003  1.00  0.00     0.014 C 
BRANCH  14  15
HETATM   15  C9  UNL     1      26.680  -6.984   9.392  1.00  0.00     0.021 C 
BRANCH  15  16
HETATM   16  C10 UNL     1      27.361  -5.646   9.582  1.00  0.00     0.122 C 
BRANCH  16  17
HETATM   17  N2  UNL     1      28.694  -5.884  10.094  1.00  0.00    -0.367 N 
HETATM   18  C11 UNL     1      28.983  -5.669  11.321  1.00  0.00     0.196 C 
HETATM   19  N3  UNL     1      27.996  -5.194  12.198  1.00  0.00    -0.067 NA
HETATM   20  N4  UNL     1      30.295  -5.912  11.782  1.00  0.00    -0.067 NA
ATOM     21  H2  UNL     1      29.417  -6.230   9.463  1.00  0.00     0.161 HD
ENDBRANCH  16  17
ENDBRANCH  15  16
ENDBRANCH  14  15
ENDBRANCH  13  14
ENDBRANCH  12  13
ENDBRANCH   5  11
BRANCH   9  22
HETATM   22  C13 UNL     1      31.897  -8.198  16.142  1.00  0.00     0.105 C 
BRANCH  22  23
HETATM   23  C14 UNL     1      33.014  -9.019  15.587  1.00  0.00     0.007 C 
HETATM   24  C15 UNL     1      33.186  -9.195  14.291  1.00  0.00     0.012 C 
ENDBRANCH  22  23
ENDBRANCH   9  22
TORSDOF 8
ENDMDL
MODEL 2
REMARK VINA RESULT: -6.180009942      1.170      1.477
REMARK  8 active torsions:
REMARK  status: ('A' for Active; 'I' for Inactive)
REMARK    1  A    between atoms: C4_5  and  C5_6 
REMARK    2  A    between atoms: C6_7  and  C7_8 
REMARK    3  A    between atoms: C7_8  and  C8_9 
REMARK    4  A    between atoms: C8_9  and  C9_10 
REMARK    5  A    between atoms: C9_10  and  C10_11 
REMARK    6  A    between atoms: C10_11  and  N2_12 
REMARK    7  A    between atoms: N6_20  and  C13_22 
REMARK    8  A    between atoms: C13_22  and  C14_23 
ROOT
HETATM    1  C1  UNL     1      29.406  -9.840  17.385  1.00  0.00     0.038 C 
HETATM    2  C2  UNL     1      29.289  -9.626  16.208  1.00  0.00     0.022 C 
HETATM    3  N1  UNL     1      29.121  -9.369  14.840  1.00  0.00    -0.113 N 
HETATM    4  C3  UNL     1      27.937  -9.053  14.251  1.00  0.00     0.164 A 
HETATM    5  C4  UNL     1      28.091  -8.858  12.900  1.00  0.00     0.120 A 
HETATM    6  N5  UNL     1      29.393  -9.060  12.670  1.00  0.00    -0.181 N 
ATOM      7  H5  UNL     1      29.847  -8.994  11.759  1.00  0.00     0.185 HD
HETATM    8  C12 UNL     1      30.026  -9.373  13.853  1.00  0.00     0.697 A 
HETATM    9  N6  UNL     1      31.248  -9.604  13.889  1.00  0.00    -0.201 N 
ATOM     10  H6  UNL     1      31.665  -9.526  12.961  1.00  0.00     0.183 HD
ENDROOT
BRANCH   5  11
HETATM   11  C5  UNL     1      27.067  -8.510  11.940  1.00  0.00    -0.047 C 
HETATM   12  C6  UNL     1      26.224  -8.206  11.131  1.00  0.00    -0.100 C 
BRANCH  12  13
HETATM   13  C7  UNL     1      25.206  -7.820  10.128  1.00  0.00     0.094 C 
BRANCH  13  14
HETATM   14  C8  UNL     1      25.555  -6.458   9.570  1.00  0.00     0.014 C 
BRANCH  14  15
HETATM   15  C9  UNL     1      26.940  -6.482   8.997  1.00  0.00     0.021 C 
BRANCH  15  16
HETATM   16  C10 UNL     1      27.710  -5.252   9.425  1.00  0.00     0.122 C 
BRANCH  16  17
HETATM   17  N2  UNL     1      28.942  -5.682  10.050  1.00  0.00    -0.367 N 
HETATM   18  C11 UNL     1      29.098  -5.632  11.319  1.00  0.00     0.196 C 
HETATM   19  N3  UNL     1      28.060  -5.152  12.131  1.00  0.00    -0.067 NA
HETATM   20  N4  UNL     1      30.315  -6.060  11.890  1.00  0.00    -0.067 NA
ATOM     21  H2  UNL     1      29.702  -6.033   9.466  1.00  0.00     0.161 HD
ENDBRANCH  16  17
ENDBRANCH  15  16
ENDBRANCH  14  15
ENDBRANCH  13  14
ENDBRANCH  12  13
ENDBRANCH   5  11
BRANCH   9  22
HETATM   22  C13 UNL     1      32.205  -9.940  14.846  1.00  0.00     0.105 C 
BRANCH  22  23
HETATM   23  C14 UNL     1      32.464 -11.406  14.969  1.00  0.00     0.007 C 
HETATM   24  C15 UNL     1      31.690 -12.203  15.680  1.00  0.00     0.012 C 
ENDBRANCH  22  23
ENDBRANCH   9  22
TORSDOF 8
ENDMDL
MODEL 3
REMARK VINA RESULT: -6.085752321      1.144      1.310
REMARK  8 active torsions:
REMARK  status: ('A' for Active; 'I' for Inactive)
REMARK    1  A    between atoms: C4_5  and  C5_6 
REMARK    2  A    between atoms: C6_7  and  C7_8 
REMARK    3  A    between atoms: C7_8  and  C8_9 
REMARK    4  A    between atoms: C8_9  and  C9_10 
REMARK    5  A    between atoms: C9_10  and  C10_11 
REMARK    6  A    between atoms: C10_11  and  N2_12 
REMARK    7  A    between atoms: N6_20  and  C13_22 
REMARK    8  A    between atoms: C13_22  and  C14_23 
ROOT
HETATM    1  C1  UNL     1      29.108  -9.876  17.361  1.00  0.00     0.038 C 
HETATM    2  C2  UNL     1      29.084  -9.668  16.176  1.00  0.00     0.022 C 
HETATM    3  N1  UNL     1      29.026  -9.417  14.799  1.00  0.00    -0.113 N 
HETATM    4  C3  UNL     1      27.890  -9.116  14.114  1.00  0.00     0.164 A 
HETATM    5  C4  UNL     1      28.151  -8.924  12.779  1.00  0.00     0.120 A 
HETATM    6  N5  UNL     1      29.470  -9.114  12.656  1.00  0.00    -0.181 N 
ATOM      7  H5  UNL     1      29.995  -9.047  11.785  1.00  0.00     0.185 HD
HETATM    8  C12 UNL     1      30.008  -9.416  13.887  1.00  0.00     0.697 A 
HETATM    9  N6  UNL     1      31.225  -9.635  14.023  1.00  0.00    -0.201 N 
ATOM     10  H6  UNL     1      31.715  -9.557  13.133  1.00  0.00     0.183 HD
ENDROOT
BRANCH   5  11
HETATM   11  C5  UNL     1      27.205  -8.590  11.738  1.00  0.00    -0.047 C 
HETATM   12  C6  UNL     1      26.424  -8.294  10.866  1.00  0.00    -0.100 C 
BRANCH  12  13
HETATM   13  C7  UNL     1      25.480  -7.912   9.791  1.00  0.00     0.094 C 
BRANCH  13  14
HETATM   14  C8  UNL     1      25.774  -6.494   9.356  1.00  0.00     0.014 C 
BRANCH  14  15
HETATM   15  C9  UNL     1      27.171  -6.406   8.817  1.00  0.00     0.021 C 
BRANCH  15  16
HETATM   16  C10 UNL     1      27.875  -5.188   9.374  1.00  0.00     0.122 C 
BRANCH  16  17
HETATM   17  N2  UNL     1      29.070  -5.628  10.059  1.00  0.00    -0.367 N 
HETATM   18  C11 UNL     1      29.149  -5.615  11.336  1.00  0.00     0.196 C 
HETATM   19  N3  UNL     1      28.059  -5.166  12.097  1.00  0.00    -0.067 NA
HETATM   20  N4  UNL     1      30.332  -6.052  11.968  1.00  0.00    -0.067 NA
ATOM     21  H2  UNL     1      29.867  -5.957   9.513  1.00  0.00     0.161 HD
ENDBRANCH  16  17
ENDBRANCH  15  16
ENDBRANCH  14  15
ENDBRANCH  13  14
ENDBRANCH  12  13
ENDBRANCH   5  11
BRANCH   9  22
HETATM   22  C13 UNL     1      32.104  -9.958  15.057  1.00  0.00     0.105 C 
BRANCH  22  23
HETATM   23  C14 UNL     1      32.738  -8.778  15.717  1.00  0.00     0.007 C 
HETATM   24  C15 UNL     1      32.038  -7.737  16.127  1.00  0.00     0.012 C 
ENDBRANCH  22  23
ENDBRANCH   9  22
TORSDOF 8
ENDMDL
MODEL 4
REMARK VINA RESULT: -6.060326668      1.196      2.231
REMARK  8 active torsions:
REMARK  status: ('A' for Active; 'I' for Inactive)
REMARK    1  A    between atoms: C4_5  and  C5_6 
REMARK    2  A    between atoms: C6_7  and  C7_8 
REMARK    3  A    between atoms: C7_8  and  C8_9 
REMARK    4  A    between atoms: C8_9  and  C9_10 
REMARK    5  A    between atoms: C9_10  and  C10_11 
REMARK    6  A    between atoms: C10_11  and  N2_12 
REMARK    7  A    between atoms: N6_20  and  C13_22 
REMARK    8  A    between atoms: C13_22  and  C14_23 
ROOT
HETATM    1  C1  UNL     1      31.712  -7.849  16.086  1.00  0.00     0.038 C 
HETATM    2  C2  UNL     1      31.030  -8.384  15.253  1.00  0.00     0.022 C 
HETATM    3  N1  UNL     1      30.221  -8.979  14.275  1.00  0.00    -0.113 N 
HETATM    4  C3  UNL     1      29.233  -8.340  13.592  1.00  0.00     0.164 A 
HETATM    5  C4  UNL     1      28.619  -9.186  12.701  1.00  0.00     0.120 A 
HETATM    6  N5  UNL     1      29.247 -10.357  12.849  1.00  0.00    -0.181 N 
ATOM      7  H5  UNL     1      29.034 -11.209  12.331  1.00  0.00     0.185 HD
HETATM    8  C12 UNL     1      30.227 -10.235  13.810  1.00  0.00     0.697 A 
HETATM    9  N6  UNL     1      30.948 -11.200  14.121  1.00  0.00    -0.201 N 
ATOM     10  H6  UNL     1      30.706 -12.030  13.581  1.00  0.00     0.183 HD
ENDROOT
BRANCH   5  11
HETATM   11  C5  UNL     1      27.530  -8.874  11.802  1.00  0.00    -0.047 C 
HETATM   12  C6  UNL     1      26.620  -8.632  11.047  1.00  0.00    -0.100 C 
BRANCH  12  13
HETATM   13  C7  UNL     1      25.499  -8.359  10.118  1.00  0.00     0.094 C 
BRANCH  13  14
HETATM   14  C8  UNL     1      25.586  -6.924   9.648  1.00  0.00     0.014 C 
BRANCH  14  15
HETATM   15  C9  UNL     1      26.920  -6.677   9.010  1.00  0.00     0.021 C 
BRANCH  15  16
HETATM   16  C10 UNL     1      27.474  -5.339   9.448  1.00  0.00     0.122 C 
BRANCH  16  17
HETATM   17  N2  UNL     1      28.801  -5.551   9.986  1.00  0.00    -0.367 N 
HETATM   18  C11 UNL     1      29.027  -5.486  11.243  1.00  0.00     0.196 C 
HETATM   19  N3  UNL     1      27.975  -5.203  12.128  1.00  0.00    -0.067 NA
HETATM   20  N4  UNL     1      30.335  -5.699  11.729  1.00  0.00    -0.067 NA
ATOM     21  H2  UNL     1      29.570  -5.758   9.349  1.00  0.00     0.161 HD
ENDBRANCH  16  17
ENDBRANCH  15  16
ENDBRANCH  14  15
ENDBRANCH  13  14
ENDBRANCH  12  13
ENDBRANCH   5  11
BRANCH   9  22
HETATM   22  C13 UNL     1      31.996 -11.459  15.004  1.00  0.00     0.105 C 
BRANCH  22  23
HETATM   23  C14 UNL     1      31.583 -12.139  16.268  1.00  0.00     0.007 C 
HETATM   24  C15 UNL     1      30.524 -12.922  16.335  1.00  0.00     0.012 C 
ENDBRANCH  22  23
ENDBRANCH   9  22
TORSDOF 8
ENDMDL
MODEL 5
REMARK VINA RESULT: -6.016996802      0.829      1.098
REMARK  8 active torsions:
REMARK  status: ('A' for Active; 'I' for Inactive)
REMARK    1  A    between atoms: C4_5  and  C5_6 
REMARK    2  A    between atoms: C6_7  and  C7_8 
REMARK    3  A    between atoms: C7_8  and  C8_9 
REMARK    4  A    between atoms: C8_9  and  C9_10 
REMARK    5  A    between atoms: C9_10  and  C10_11 
REMARK    6  A    between atoms: C10_11  and  N2_12 
REMARK    7  A    between atoms: N6_20  and  C13_22 
REMARK    8  A    between atoms: C13_22  and  C14_23 
ROOT
HETATM    1  C1  UNL     1      30.418 -12.246  16.080  1.00  0.00     0.038 C 
HETATM    2  C2  UNL     1      30.099 -11.451  15.236  1.00  0.00     0.022 C 
HETATM    3  N1  UNL     1      29.697 -10.536  14.254  1.00  0.00    -0.113 N 
HETATM    4  C3  UNL     1      28.472 -10.522  13.663  1.00  0.00     0.164 A 
HETATM    5  C4  UNL     1      28.378  -9.508  12.740  1.00  0.00     0.120 A 
HETATM    6  N5  UNL     1      29.569  -8.900  12.775  1.00  0.00    -0.181 N 
ATOM      7  H5  UNL     1      29.837  -8.098  12.205  1.00  0.00     0.185 HD
HETATM    8  C12 UNL     1      30.378  -9.525  13.698  1.00  0.00     0.697 A 
HETATM    9  N6  UNL     1      31.540  -9.133  13.907  1.00  0.00    -0.201 N 
ATOM     10  H6  UNL     1      31.769  -8.330  13.322  1.00  0.00     0.183 HD
ENDROOT
BRANCH   5  11
HETATM   11  C5  UNL     1      27.239  -9.176  11.914  1.00  0.00    -0.047 C 
HETATM   12  C6  UNL     1      26.299  -8.885  11.215  1.00  0.00    -0.100 C 
BRANCH  12  13
HETATM   13  C7  UNL     1      25.160  -8.514  10.344  1.00  0.00     0.094 C 
BRANCH  13  14
HETATM   14  C8  UNL     1      25.382  -7.117   9.809  1.00  0.00     0.014 C 
BRANCH  14  15
HETATM   15  C9  UNL     1      26.759  -7.009   9.226  1.00  0.00     0.021 C 
BRANCH  15  16
HETATM   16  C10 UNL     1      27.377  -5.673   9.578  1.00  0.00     0.122 C 
BRANCH  16  17
HETATM   17  N2  UNL     1      28.701  -5.911  10.110  1.00  0.00    -0.367 N 
HETATM   18  C11 UNL     1      28.968  -5.711  11.345  1.00  0.00     0.196 C 
HETATM   19  N3  UNL     1      27.964  -5.252  12.210  1.00  0.00    -0.067 NA
HETATM   20  N4  UNL     1      30.272  -5.955  11.826  1.00  0.00    -0.067 NA
ATOM     21  H2  UNL     1      29.437  -6.246   9.488  1.00  0.00     0.161 HD
ENDBRANCH  16  17
ENDBRANCH  15  16
ENDBRANCH  14  15
ENDBRANCH  13  14
ENDBRANCH  12  13
ENDBRANCH   5  11
BRANCH   9  22
HETATM   22  C13 UNL     1      32.616  -9.488  14.721  1.00  0.00     0.105 C 
BRANCH  22  23
HETATM   23  C14 UNL     1      32.698  -8.722  16.001  1.00  0.00     0.007 C 
HETATM   24  C15 UNL     1      31.974  -7.642  16.226  1.00  0.00     0.012 C 
ENDBRANCH  22  23
ENDBRANCH   9  22
TORSDOF 8
ENDMDL
