MODEL 1
REMARK VINA RESULT: -7.281429630      0.000      0.000
REMARK  9 active torsions:
REMARK  status: ('A' for Active; 'I' for Inactive)
REMARK    1  A    between atoms: C7_7  and  C8_8 
REMARK    2  A    between atoms: C8_8  and  C9_9 
REMARK    3  A    between atoms: C9_9  and  C10_10 
REMARK    4  A    between atoms: C10_10  and  N1_11 
REMARK    5  A    between atoms: N1_11  and  C11_13 
REMARK    6  A    between atoms: C14_18  and  N3_19 
REMARK    7  A    between atoms: N3_19  and  C15_21 
REMARK    8  A    between atoms: C15_21  and  C16_22 
REMARK    9  A    between atoms: C16_22  and  N4_23 
ROOT
HETATM    1  C1  UNL     1      25.282  -9.290  14.916  1.00  0.00     0.018 C 
HETATM    2  C2  UNL     1      26.338  -9.607  15.403  1.00  0.00    -0.078 C 
HETATM    3  C3  UNL     1      27.608  -9.970  15.969  1.00  0.00     0.017 A 
HETATM    4  C4  UNL     1      27.957  -9.427  17.188  1.00  0.00     0.020 A 
HETATM    5  C5  UNL     1      29.173  -9.758  17.754  1.00  0.00     0.002 A 
HETATM    6  C6  UNL     1      30.021 -10.631  17.091  1.00  0.00     0.007 A 
HETATM    7  C7  UNL     1      29.684 -11.174  15.883  1.00  0.00    -0.057 A 
HETATM    8  C17 UNL     1      28.450 -10.839  15.306  1.00  0.00     0.027 A 
ENDROOT
BRANCH   7   9
HETATM    9  C8  UNL     1      30.587 -12.099  15.202  1.00  0.00     0.040 C 
BRANCH   9  10
HETATM   10  C9  UNL     1      32.010 -12.060  15.619  1.00  0.00     0.024 C 
BRANCH  10  11
HETATM   11  C10 UNL     1      33.004 -11.770  14.534  1.00  0.00     0.121 C 
BRANCH  11  12
HETATM   12  N1  UNL     1      33.499 -10.433  14.578  1.00  0.00    -0.376 N 
ATOM     13  H1  UNL     1      34.500 -10.296  14.439  1.00  0.00     0.161 HD
BRANCH  12  14
HETATM   14  C11 UNL     1      32.777  -9.387  14.779  1.00  0.00     0.118 A 
HETATM   15  C12 UNL     1      32.831  -8.700  15.974  1.00  0.00     0.066 A 
HETATM   16  C13 UNL     1      32.039  -7.590  16.139  1.00  0.00     0.110 A 
HETATM   17  N2  UNL     1      31.220  -7.175  15.141  1.00  0.00    -0.202 N 
HETATM   18  C14 UNL     1      31.181  -7.857  13.982  1.00  0.00     0.679 A 
ATOM     19  H2  UNL     1      30.635  -6.350  15.268  1.00  0.00     0.183 HD
HETATM   20  N5  UNL     1      31.951  -8.944  13.814  1.00  0.00    -0.177 N 
ATOM     21  H5  UNL     1      31.908  -9.450  12.929  1.00  0.00     0.185 HD
BRANCH  18  22
HETATM   22  N3  UNL     1      30.409  -7.492  13.003  1.00  0.00    -0.224 N 
ATOM     23  H3  UNL     1      30.582  -6.621  12.501  1.00  0.00     0.177 HD
BRANCH  22  24
HETATM   24  C15 UNL     1      29.300  -8.343  12.640  1.00  0.00     0.165 C 
BRANCH  24  25
HETATM   25  C16 UNL     1      28.048  -7.480  12.694  1.00  0.00     0.249 C 
BRANCH  25  26
HETATM   26  N4  UNL     1      28.408  -6.164  12.170  1.00  0.00    -0.078 N 
ATOM     27  H43 UNL     1      28.387  -5.432  12.879  1.00  0.00     0.274 HD
ATOM     28  H42 UNL     1      29.396  -6.087  11.929  1.00  0.00     0.274 HD
ATOM     29  H41 UNL     1      27.789  -5.973  11.381  1.00  0.00     0.274 HD
ENDBRANCH  25  26
ENDBRANCH  24  25
ENDBRANCH  22  24
ENDBRANCH  18  22
ENDBRANCH  12  14
ENDBRANCH  11  12
ENDBRANCH  10  11
ENDBRANCH   9  10
ENDBRANCH   7   9
TORSDOF 9
ENDMDL
MODEL 2
REMARK VINA RESULT: -6.759390278      1.672      3.327
REMARK  9 active torsions:
REMARK  status: ('A' for Active; 'I' for Inactive)
REMARK    1  A    between atoms: C7_7  and  C8_8 
REMARK    2  A    between atoms: C8_8  and  C9_9 
REMARK    3  A    between atoms: C9_9  and  C10_10 
REMARK    4  A    between atoms: C10_10  and  N1_11 
REMARK    5  A    between atoms: N1_11  and  C11_13 
REMARK    6  A    between atoms: C14_18  and  N3_19 
REMARK    7  A    between atoms: N3_19  and  C15_21 
REMARK    8  A    between atoms: C15_21  and  C16_22 
REMARK    9  A    between atoms: C16_22  and  N4_23 
ROOT
HETATM    1  C1  UNL     1      27.299 -11.726  11.150  1.00  0.00     0.018 C 
HETATM    2  C2  UNL     1      26.923 -11.089  12.102  1.00  0.00    -0.078 C 
HETATM    3  C3  UNL     1      26.489 -10.313  13.231  1.00  0.00     0.017 A 
HETATM    4  C4  UNL     1      25.317  -9.594  13.117  1.00  0.00     0.020 A 
HETATM    5  C5  UNL     1      24.878  -8.839  14.188  1.00  0.00     0.002 A 
HETATM    6  C6  UNL     1      25.620  -8.816  15.358  1.00  0.00     0.007 A 
HETATM    7  C7  UNL     1      26.782  -9.524  15.480  1.00  0.00    -0.057 A 
HETATM    8  C17 UNL     1      27.230 -10.292  14.395  1.00  0.00     0.027 A 
ENDROOT
BRANCH   7   9
HETATM    9  C8  UNL     1      27.547  -9.495  16.726  1.00  0.00     0.040 C 
BRANCH   9  10
HETATM   10  C9  UNL     1      28.825 -10.249  16.734  1.00  0.00     0.024 C 
BRANCH  10  11
HETATM   11  C10 UNL     1      29.894  -9.717  17.639  1.00  0.00     0.121 C 
BRANCH  11  12
HETATM   12  N1  UNL     1      30.548  -8.566  17.110  1.00  0.00    -0.376 N 
ATOM     13  H1  UNL     1      30.508  -7.706  17.657  1.00  0.00     0.161 HD
BRANCH  12  14
HETATM   14  C11 UNL     1      31.186  -8.530  15.992  1.00  0.00     0.118 A 
HETATM   15  C12 UNL     1      32.406  -9.156  15.846  1.00  0.00     0.066 A 
HETATM   16  C13 UNL     1      33.047  -9.087  14.632  1.00  0.00     0.110 A 
HETATM   17  N2  UNL     1      32.486  -8.415  13.596  1.00  0.00    -0.202 N 
HETATM   18  C14 UNL     1      31.295  -7.812  13.757  1.00  0.00     0.679 A 
ATOM     19  H2  UNL     1      32.966  -8.368  12.697  1.00  0.00     0.183 HD
HETATM   20  N5  UNL     1      30.663  -7.874  14.941  1.00  0.00    -0.177 N 
ATOM     21  H5  UNL     1      29.761  -7.410  15.046  1.00  0.00     0.185 HD
BRANCH  18  22
HETATM   22  N3  UNL     1      30.726  -7.159  12.789  1.00  0.00    -0.224 N 
ATOM     23  H3  UNL     1      31.177  -6.342  12.377  1.00  0.00     0.177 HD
BRANCH  22  24
HETATM   24  C15 UNL     1      29.442  -7.613  12.306  1.00  0.00     0.165 C 
BRANCH  24  25
HETATM   25  C16 UNL     1      28.937  -6.552  11.341  1.00  0.00     0.249 C 
BRANCH  25  26
HETATM   26  N4  UNL     1      29.410  -5.260  11.832  1.00  0.00    -0.078 N 
ATOM     27  H43 UNL     1      29.807  -4.674  11.098  1.00  0.00     0.274 HD
ATOM     28  H42 UNL     1      28.652  -4.634  12.104  1.00  0.00     0.274 HD
ATOM     29  H41 UNL     1      30.066  -5.447  12.591  1.00  0.00     0.274 HD
ENDBRANCH  25  26
ENDBRANCH  24  25
ENDBRANCH  22  24
ENDBRANCH  18  22
ENDBRANCH  12  14
ENDBRANCH  11  12
ENDBRANCH  10  11
ENDBRANCH   9  10
ENDBRANCH   7   9
TORSDOF 9
ENDMDL
MODEL 3
REMARK VINA RESULT: -6.555276109      2.037      5.365
REMARK  9 active torsions:
REMARK  status: ('A' for Active; 'I' for Inactive)
REMARK    1  A    between atoms: C7_7  and  C8_8 
REMARK    2  A    between atoms: C8_8  and  C9_9 
REMARK    3  A    between atoms: C9_9  and  C10_10 
REMARK    4  A    between atoms: C10_10  and  N1_11 
REMARK    5  A    between atoms: N1_11  and  C11_13 
REMARK    6  A    between atoms: C14_18  and  N3_19 
REMARK    7  A    between atoms: N3_19  and  C15_21 
REMARK    8  A    between atoms: C15_21  and  C16_22 
REMARK    9  A    between atoms: C16_22  and  N4_23 
ROOT
HETATM    1  C1  UNL     1      29.325  -7.232  10.555  1.00  0.00     0.018 C 
HETATM    2  C2  UNL     1      28.552  -7.975  11.106  1.00  0.00    -0.078 C 
HETATM    3  C3  UNL     1      27.612  -8.850  11.751  1.00  0.00     0.017 A 
HETATM    4  C4  UNL     1      27.496 -10.142  11.280  1.00  0.00     0.020 A 
HETATM    5  C5  UNL     1      26.599 -11.004  11.882  1.00  0.00     0.002 A 
HETATM    6  C6  UNL     1      25.832 -10.559  12.947  1.00  0.00     0.007 A 
HETATM    7  C7  UNL     1      25.941  -9.281  13.420  1.00  0.00    -0.057 A 
HETATM    8  C17 UNL     1      26.851  -8.404  12.811  1.00  0.00     0.027 A 
ENDROOT
BRANCH   7   9
HETATM    9  C8  UNL     1      25.130  -8.832  14.551  1.00  0.00     0.040 C 
BRANCH   9  10
HETATM   10  C9  UNL     1      25.869  -8.381  15.755  1.00  0.00     0.024 C 
BRANCH  10  11
HETATM   11  C10 UNL     1      26.812  -9.379  16.358  1.00  0.00     0.121 C 
BRANCH  11  12
HETATM   12  N1  UNL     1      28.180  -9.083  16.090  1.00  0.00    -0.376 N 
ATOM     13  H1  UNL     1      28.448  -8.101  16.030  1.00  0.00     0.161 HD
BRANCH  12  14
HETATM   14  C11 UNL     1      29.104  -9.963  15.918  1.00  0.00     0.118 A 
HETATM   15  C12 UNL     1      28.818 -11.208  15.397  1.00  0.00     0.066 A 
HETATM   16  C13 UNL     1      29.839 -12.112  15.234  1.00  0.00     0.110 A 
HETATM   17  N2  UNL     1      31.109 -11.783  15.579  1.00  0.00    -0.202 N 
HETATM   18  C14 UNL     1      31.370 -10.564  16.085  1.00  0.00     0.679 A 
ATOM     19  H2  UNL     1      31.864 -12.458  15.456  1.00  0.00     0.183 HD
HETATM   20  N5  UNL     1      30.376  -9.676  16.248  1.00  0.00    -0.177 N 
ATOM     21  H5  UNL     1      30.591  -8.757  16.634  1.00  0.00     0.185 HD
BRANCH  18  22
HETATM   22  N3  UNL     1      32.573 -10.213  16.428  1.00  0.00    -0.224 N 
ATOM     23  H3  UNL     1      33.080 -10.728  17.147  1.00  0.00     0.177 HD
BRANCH  22  24
HETATM   24  C15 UNL     1      33.177  -9.077  15.770  1.00  0.00     0.165 C 
BRANCH  24  25
HETATM   25  C16 UNL     1      33.659  -9.563  14.411  1.00  0.00     0.249 C 
BRANCH  25  26
HETATM   26  N4  UNL     1      33.297  -8.539  13.433  1.00  0.00    -0.078 N 
ATOM     27  H43 UNL     1      32.521  -8.817  12.833  1.00  0.00     0.274 HD
ATOM     28  H42 UNL     1      32.852  -7.724  13.855  1.00  0.00     0.274 HD
ATOM     29  H41 UNL     1      34.142  -8.308  12.911  1.00  0.00     0.274 HD
ENDBRANCH  25  26
ENDBRANCH  24  25
ENDBRANCH  22  24
ENDBRANCH  18  22
ENDBRANCH  12  14
ENDBRANCH  11  12
ENDBRANCH  10  11
ENDBRANCH   9  10
ENDBRANCH   7   9
TORSDOF 9
ENDMDL
MODEL 4
REMARK VINA RESULT: -6.548533302      1.885      4.357
REMARK  9 active torsions:
REMARK  status: ('A' for Active; 'I' for Inactive)
REMARK    1  A    between atoms: C7_7  and  C8_8 
REMARK    2  A    between atoms: C8_8  and  C9_9 
REMARK    3  A    between atoms: C9_9  and  C10_10 
REMARK    4  A    between atoms: C10_10  and  N1_11 
REMARK    5  A    between atoms: N1_11  and  C11_13 
REMARK    6  A    between atoms: C14_18  and  N3_19 
REMARK    7  A    between atoms: N3_19  and  C15_21 
REMARK    8  A    between atoms: C15_21  and  C16_22 
REMARK    9  A    between atoms: C16_22  and  N4_23 
ROOT
HETATM    1  C1  UNL     1      30.237 -13.052  16.020  1.00  0.00     0.018 C 
HETATM    2  C2  UNL     1      29.499 -12.422  15.305  1.00  0.00    -0.078 C 
HETATM    3  C3  UNL     1      28.627 -11.683  14.433  1.00  0.00     0.017 A 
HETATM    4  C4  UNL     1      27.287 -12.011  14.422  1.00  0.00     0.020 A 
HETATM    5  C5  UNL     1      26.426 -11.317  13.593  1.00  0.00     0.002 A 
HETATM    6  C6  UNL     1      26.921 -10.304  12.788  1.00  0.00     0.007 A 
HETATM    7  C7  UNL     1      28.247  -9.973  12.792  1.00  0.00    -0.057 A 
HETATM    8  C17 UNL     1      29.123 -10.675  13.633  1.00  0.00     0.027 A 
ENDROOT
BRANCH   7   9
HETATM    9  C8  UNL     1      28.750  -8.895  11.942  1.00  0.00     0.040 C 
BRANCH   9  10
HETATM   10  C9  UNL     1      29.125  -7.634  12.627  1.00  0.00     0.024 C 
BRANCH  10  11
HETATM   11  C10 UNL     1      30.464  -7.064  12.263  1.00  0.00     0.121 C 
BRANCH  11  12
HETATM   12  N1  UNL     1      31.344  -6.959  13.380  1.00  0.00    -0.376 N 
ATOM     13  H1  UNL     1      31.864  -6.088  13.492  1.00  0.00     0.161 HD
BRANCH  12  14
HETATM   14  C11 UNL     1      31.533  -7.882  14.258  1.00  0.00     0.118 A 
HETATM   15  C12 UNL     1      32.473  -8.872  14.063  1.00  0.00     0.066 A 
HETATM   16  C13 UNL     1      32.636  -9.834  15.030  1.00  0.00     0.110 A 
HETATM   17  N2  UNL     1      31.884  -9.808  16.159  1.00  0.00    -0.202 N 
HETATM   18  C14 UNL     1      30.972  -8.834  16.331  1.00  0.00     0.679 A 
ATOM     19  H2  UNL     1      32.009 -10.524  16.874  1.00  0.00     0.183 HD
HETATM   20  N5  UNL     1      30.807  -7.891  15.390  1.00  0.00    -0.177 N 
ATOM     21  H5  UNL     1      30.111  -7.161  15.537  1.00  0.00     0.185 HD
BRANCH  18  22
HETATM   22  N3  UNL     1      30.232  -8.776  17.398  1.00  0.00    -0.224 N 
ATOM     23  H3  UNL     1      30.150  -7.908  17.927  1.00  0.00     0.177 HD
BRANCH  22  24
HETATM   24  C15 UNL     1      29.528  -9.965  17.819  1.00  0.00     0.165 C 
BRANCH  24  25
HETATM   25  C16 UNL     1      28.123  -9.529  18.204  1.00  0.00     0.249 C 
BRANCH  25  26
HETATM   26  N4  UNL     1      27.367  -9.363  16.964  1.00  0.00    -0.078 N 
ATOM     27  H43 UNL     1      27.684  -9.981  16.217  1.00  0.00     0.274 HD
ATOM     28  H42 UNL     1      26.412  -9.714  17.029  1.00  0.00     0.274 HD
ATOM     29  H41 UNL     1      27.413  -8.376  16.712  1.00  0.00     0.274 HD
ENDBRANCH  25  26
ENDBRANCH  24  25
ENDBRANCH  22  24
ENDBRANCH  18  22
ENDBRANCH  12  14
ENDBRANCH  11  12
ENDBRANCH  10  11
ENDBRANCH   9  10
ENDBRANCH   7   9
TORSDOF 9
ENDMDL
MODEL 5
REMARK VINA RESULT: -6.508248705      1.915      4.605
REMARK  9 active torsions:
REMARK  status: ('A' for Active; 'I' for Inactive)
REMARK    1  A    between atoms: C7_7  and  C8_8 
REMARK    2  A    between atoms: C8_8  and  C9_9 
REMARK    3  A    between atoms: C9_9  and  C10_10 
REMARK    4  A    between atoms: C10_10  and  N1_11 
REMARK    5  A    between atoms: N1_11  and  C11_13 
REMARK    6  A    between atoms: C14_18  and  N3_19 
REMARK    7  A    between atoms: N3_19  and  C15_21 
REMARK    8  A    between atoms: C15_21  and  C16_22 
REMARK    9  A    between atoms: C16_22  and  N4_23 
ROOT
HETATM    1  C1  UNL     1      29.303  -9.773  17.741  1.00  0.00     0.018 C 
HETATM    2  C2  UNL     1      28.407  -9.740  16.935  1.00  0.00    -0.078 C 
HETATM    3  C3  UNL     1      27.328  -9.719  15.986  1.00  0.00     0.017 A 
HETATM    4  C4  UNL     1      26.382  -8.721  16.097  1.00  0.00     0.020 A 
HETATM    5  C5  UNL     1      25.334  -8.678  15.198  1.00  0.00     0.002 A 
HETATM    6  C6  UNL     1      25.250  -9.635  14.199  1.00  0.00     0.007 A 
HETATM    7  C7  UNL     1      26.182 -10.627  14.081  1.00  0.00    -0.057 A 
HETATM    8  C17 UNL     1      27.248 -10.673  14.993  1.00  0.00     0.027 A 
ENDROOT
BRANCH   7   9
HETATM    9  C8  UNL     1      26.083 -11.623  13.016  1.00  0.00     0.040 C 
BRANCH   9  10
HETATM   10  C9  UNL     1      25.984 -11.101  11.631  1.00  0.00     0.024 C 
BRANCH  10  11
HETATM   11  C10 UNL     1      27.244 -11.152  10.820  1.00  0.00     0.121 C 
BRANCH  11  12
HETATM   12  N1  UNL     1      27.874  -9.880  10.691  1.00  0.00    -0.376 N 
ATOM     13  H1  UNL     1      28.008  -9.512   9.748  1.00  0.00     0.161 HD
BRANCH  12  14
HETATM   14  C11 UNL     1      28.285  -9.159  11.675  1.00  0.00     0.118 A 
HETATM   15  C12 UNL     1      27.687  -7.953  11.977  1.00  0.00     0.066 A 
HETATM   16  C13 UNL     1      28.165  -7.221  13.036  1.00  0.00     0.110 A 
HETATM   17  N2  UNL     1      29.207  -7.678  13.774  1.00  0.00    -0.202 N 
HETATM   18  C14 UNL     1      29.777  -8.857  13.464  1.00  0.00     0.679 A 
ATOM     19  H2  UNL     1      29.558  -7.131  14.560  1.00  0.00     0.183 HD
HETATM   20  N5  UNL     1      29.317  -9.577  12.429  1.00  0.00    -0.177 N 
ATOM     21  H5  UNL     1      29.762 -10.468  12.209  1.00  0.00     0.185 HD
BRANCH  18  22
HETATM   22  N3  UNL     1      30.778  -9.328  14.146  1.00  0.00    -0.224 N 
ATOM     23  H3  UNL     1      30.727 -10.253  14.573  1.00  0.00     0.177 HD
BRANCH  22  24
HETATM   24  C15 UNL     1      31.965  -8.516  14.287  1.00  0.00     0.165 C 
BRANCH  24  25
HETATM   25  C16 UNL     1      32.219  -8.368  15.780  1.00  0.00     0.249 C 
BRANCH  25  26
HETATM   26  N4  UNL     1      31.685  -7.068  16.183  1.00  0.00    -0.078 N 
ATOM     27  H43 UNL     1      32.172  -6.285  15.749  1.00  0.00     0.274 HD
ATOM     28  H42 UNL     1      30.761  -6.879  15.795  1.00  0.00     0.274 HD
ATOM     29  H41 UNL     1      31.705  -7.036  17.202  1.00  0.00     0.274 HD
ENDBRANCH  25  26
ENDBRANCH  24  25
ENDBRANCH  22  24
ENDBRANCH  18  22
ENDBRANCH  12  14
ENDBRANCH  11  12
ENDBRANCH  10  11
ENDBRANCH   9  10
ENDBRANCH   7   9
TORSDOF 9
ENDMDL
