MODEL 1
REMARK VINA RESULT: -7.403284483      0.000      0.000
REMARK  7 active torsions:
REMARK  status: ('A' for Active; 'I' for Inactive)
REMARK    1  A    between atoms: C3_3  and  C4_4 
REMARK    2  A    between atoms: C4_4  and  N1_5 
REMARK    3  A    between atoms: N1_5  and  C5_7 
REMARK    4  A    between atoms: C7_14  and  N4_15 
REMARK    5  A    between atoms: N4_15  and  C8_17 
REMARK    6  A    between atoms: C8_17  and  C9_18 
REMARK    7  A    between atoms: C9_18  and  C10_19 
ROOT
HETATM    1  C1  UNL     1      26.259  -8.459  11.209  1.00  0.00     0.012 C 
HETATM    2  C2  UNL     1      27.145  -8.043  11.911  1.00  0.00    -0.116 C 
HETATM    3  C3  UNL     1      28.197  -7.535  12.778  1.00  0.00     0.113 C 
ENDROOT
BRANCH   3   4
HETATM    4  C4  UNL     1      29.572  -7.553  12.109  1.00  0.00     0.150 C 
BRANCH   4   5
HETATM    5  N1  UNL     1      30.619  -7.137  12.983  1.00  0.00    -0.225 N 
ATOM      6  H1  UNL     1      30.963  -6.183  12.865  1.00  0.00     0.177 HD
BRANCH   5   7
HETATM    7  C5  UNL     1      31.167  -7.834  13.896  1.00  0.00     0.696 A 
HETATM    8  N2  UNL     1      32.376  -8.383  13.717  1.00  0.00    -0.140 N 
HETATM    9  C6  UNL     1      32.975  -9.127  14.678  1.00  0.00     0.352 A 
ATOM     10  H2  UNL     1      32.860  -8.238  12.830  1.00  0.00     0.189 HD
HETATM   11  O1  UNL     1      34.114  -9.612  14.437  1.00  0.00    -0.246 OA
HETATM   12  N3  UNL     1      32.333  -9.309  15.831  1.00  0.00    -0.140 N 
HETATM   13  C7  UNL     1      31.136  -8.787  16.059  1.00  0.00     0.696 A 
ATOM     14  H3  UNL     1      32.776  -9.868  16.560  1.00  0.00     0.189 HD
HETATM   15  N5  UNL     1      30.561  -8.053  15.091  1.00  0.00    -0.022 N 
ATOM     16  H5  UNL     1      29.640  -7.648  15.259  1.00  0.00     0.203 HD
BRANCH  13  17
HETATM   17  N4  UNL     1      30.480  -8.938  17.158  1.00  0.00    -0.225 N 
ATOM     18  H4  UNL     1      30.854  -8.496  17.996  1.00  0.00     0.177 HD
BRANCH  17  19
HETATM   19  C8  UNL     1      29.259  -9.683  17.286  1.00  0.00     0.142 C 
BRANCH  19  20
HETATM   20  C9  UNL     1      29.047 -10.477  15.989  1.00  0.00     0.058 C 
BRANCH  20  21
HETATM   21  C10 UNL     1      27.671 -10.146  15.534  1.00  0.00    -0.057 A 
HETATM   22  C11 UNL     1      27.093  -9.005  16.050  1.00  0.00     0.007 A 
HETATM   23  C12 UNL     1      25.812  -8.658  15.654  1.00  0.00     0.001 A 
HETATM   24  C13 UNL     1      25.117  -9.436  14.755  1.00  0.00     0.000 A 
HETATM   25  C14 UNL     1      25.736 -10.562  14.270  1.00  0.00     0.001 A 
HETATM   26  C15 UNL     1      27.009 -10.952  14.631  1.00  0.00     0.007 A 
ENDBRANCH  20  21
ENDBRANCH  19  20
ENDBRANCH  17  19
ENDBRANCH  13  17
ENDBRANCH   5   7
ENDBRANCH   4   5
ENDBRANCH   3   4
TORSDOF 7
ENDMDL
MODEL 2
REMARK VINA RESULT: -7.394503104      1.007      3.636
REMARK  7 active torsions:
REMARK  status: ('A' for Active; 'I' for Inactive)
REMARK    1  A    between atoms: C3_3  and  C4_4 
REMARK    2  A    between atoms: C4_4  and  N1_5 
REMARK    3  A    between atoms: N1_5  and  C5_7 
REMARK    4  A    between atoms: C7_14  and  N4_15 
REMARK    5  A    between atoms: N4_15  and  C8_17 
REMARK    6  A    between atoms: C8_17  and  C9_18 
REMARK    7  A    between atoms: C9_18  and  C10_19 
ROOT
HETATM    1  C1  UNL     1      26.437  -8.882  16.049  1.00  0.00     0.012 C 
HETATM    2  C2  UNL     1      27.474  -9.493  16.104  1.00  0.00    -0.116 C 
HETATM    3  C3  UNL     1      28.718 -10.245  16.150  1.00  0.00     0.113 C 
ENDROOT
BRANCH   3   4
HETATM    4  C4  UNL     1      29.599  -9.856  17.337  1.00  0.00     0.150 C 
BRANCH   4   5
HETATM    5  N1  UNL     1      30.532  -8.825  17.021  1.00  0.00    -0.225 N 
ATOM      6  H1  UNL     1      30.746  -8.156  17.762  1.00  0.00     0.177 HD
BRANCH   5   7
HETATM    7  C5  UNL     1      31.125  -8.654  15.908  1.00  0.00     0.696 A 
HETATM    8  N2  UNL     1      32.323  -9.205  15.669  1.00  0.00    -0.140 N 
HETATM    9  C6  UNL     1      32.967  -9.035  14.489  1.00  0.00     0.352 A 
ATOM     10  H2  UNL     1      32.763  -9.769  16.397  1.00  0.00     0.189 HD
HETATM   11  O1  UNL     1      34.092  -9.585  14.337  1.00  0.00    -0.246 OA
HETATM   12  N3  UNL     1      32.382  -8.296  13.547  1.00  0.00    -0.140 N 
HETATM   13  C7  UNL     1      31.198  -7.730  13.733  1.00  0.00     0.696 A 
ATOM     14  H3  UNL     1      32.860  -8.162  12.657  1.00  0.00     0.189 HD
HETATM   15  N5  UNL     1      30.578  -7.913  14.911  1.00  0.00    -0.022 N 
ATOM     16  H5  UNL     1      29.666  -7.480  15.061  1.00  0.00     0.203 HD
BRANCH  13  17
HETATM   17  N4  UNL     1      30.596  -7.009  12.851  1.00  0.00    -0.225 N 
ATOM     18  H4  UNL     1      30.792  -6.009  12.845  1.00  0.00     0.177 HD
BRANCH  17  19
HETATM   19  C8  UNL     1      29.670  -7.513  11.876  1.00  0.00     0.142 C 
BRANCH  19  20
HETATM   20  C9  UNL     1      28.248  -7.294  12.413  1.00  0.00     0.058 C 
BRANCH  20  21
HETATM   21  C10 UNL     1      27.620  -8.641  12.454  1.00  0.00    -0.057 A 
HETATM   22  C11 UNL     1      26.242  -8.695  12.468  1.00  0.00     0.007 A 
HETATM   23  C12 UNL     1      25.614  -9.928  12.506  1.00  0.00     0.001 A 
HETATM   24  C13 UNL     1      26.348 -11.093  12.528  1.00  0.00     0.000 A 
HETATM   25  C14 UNL     1      27.718 -10.987  12.513  1.00  0.00     0.001 A 
HETATM   26  C15 UNL     1      28.393  -9.784  12.475  1.00  0.00     0.007 A 
ENDBRANCH  20  21
ENDBRANCH  19  20
ENDBRANCH  17  19
ENDBRANCH  13  17
ENDBRANCH   5   7
ENDBRANCH   4   5
ENDBRANCH   3   4
TORSDOF 7
ENDMDL
MODEL 3
REMARK VINA RESULT: -7.373502608      0.590      1.205
REMARK  7 active torsions:
REMARK  status: ('A' for Active; 'I' for Inactive)
REMARK    1  A    between atoms: C3_3  and  C4_4 
REMARK    2  A    between atoms: C4_4  and  N1_5 
REMARK    3  A    between atoms: N1_5  and  C5_7 
REMARK    4  A    between atoms: C7_14  and  N4_15 
REMARK    5  A    between atoms: N4_15  and  C8_17 
REMARK    6  A    between atoms: C8_17  and  C9_18 
REMARK    7  A    between atoms: C9_18  and  C10_19 
ROOT
HETATM    1  C1  UNL     1      26.557  -7.953  10.566  1.00  0.00     0.012 C 
HETATM    2  C2  UNL     1      27.375  -7.636  11.393  1.00  0.00    -0.116 C 
HETATM    3  C3  UNL     1      28.342  -7.250  12.408  1.00  0.00     0.113 C 
ENDROOT
BRANCH   3   4
HETATM    4  C4  UNL     1      29.776  -7.226  11.878  1.00  0.00     0.150 C 
BRANCH   4   5
HETATM    5  N1  UNL     1      30.734  -6.904  12.884  1.00  0.00    -0.225 N 
ATOM      6  H1  UNL     1      31.060  -5.938  12.915  1.00  0.00     0.177 HD
BRANCH   5   7
HETATM    7  C5  UNL     1      31.224  -7.701  13.747  1.00  0.00     0.696 A 
HETATM    8  N2  UNL     1      32.439  -8.240  13.582  1.00  0.00    -0.140 N 
HETATM    9  C6  UNL     1      32.977  -9.089  14.492  1.00  0.00     0.352 A 
ATOM     10  H2  UNL     1      32.976  -8.005  12.747  1.00  0.00     0.189 HD
HETATM   11  O1  UNL     1      34.126  -9.556  14.268  1.00  0.00    -0.246 OA
HETATM   12  N3  UNL     1      32.266  -9.387  15.578  1.00  0.00    -0.140 N 
HETATM   13  C7  UNL     1      31.059  -8.881  15.789  1.00  0.00     0.696 A 
ATOM     14  H3  UNL     1      32.662 -10.026  16.268  1.00  0.00     0.189 HD
HETATM   15  N5  UNL     1      30.546  -8.042  14.873  1.00  0.00    -0.022 N 
ATOM     16  H5  UNL     1      29.618  -7.647  15.029  1.00  0.00     0.203 HD
BRANCH  13  17
HETATM   17  N4  UNL     1      30.337  -9.142  16.824  1.00  0.00    -0.225 N 
ATOM     18  H4  UNL     1      30.496  -8.587  17.664  1.00  0.00     0.177 HD
BRANCH  17  19
HETATM   19  C8  UNL     1      29.325 -10.159  16.880  1.00  0.00     0.142 C 
BRANCH  19  20
HETATM   20  C9  UNL     1      28.001  -9.492  17.279  1.00  0.00     0.058 C 
BRANCH  20  21
HETATM   21  C10 UNL     1      27.145  -9.535  16.065  1.00  0.00    -0.057 A 
HETATM   22  C11 UNL     1      27.423 -10.512  15.131  1.00  0.00     0.007 A 
HETATM   23  C12 UNL     1      26.652 -10.590  13.984  1.00  0.00     0.001 A 
HETATM   24  C13 UNL     1      25.616  -9.708  13.770  1.00  0.00     0.000 A 
HETATM   25  C14 UNL     1      25.379  -8.753  14.728  1.00  0.00     0.001 A 
HETATM   26  C15 UNL     1      26.118  -8.632  15.888  1.00  0.00     0.007 A 
ENDBRANCH  20  21
ENDBRANCH  19  20
ENDBRANCH  17  19
ENDBRANCH  13  17
ENDBRANCH   5   7
ENDBRANCH   4   5
ENDBRANCH   3   4
TORSDOF 7
ENDMDL
MODEL 4
REMARK VINA RESULT: -7.263162207      1.074      3.626
REMARK  7 active torsions:
REMARK  status: ('A' for Active; 'I' for Inactive)
REMARK    1  A    between atoms: C3_3  and  C4_4 
REMARK    2  A    between atoms: C4_4  and  N1_5 
REMARK    3  A    between atoms: N1_5  and  C5_7 
REMARK    4  A    between atoms: C7_14  and  N4_15 
REMARK    5  A    between atoms: N4_15  and  C8_17 
REMARK    6  A    between atoms: C8_17  and  C9_18 
REMARK    7  A    between atoms: C9_18  and  C10_19 
ROOT
HETATM    1  C1  UNL     1      30.529 -12.713  15.811  1.00  0.00     0.012 C 
HETATM    2  C2  UNL     1      29.898 -11.731  16.112  1.00  0.00    -0.116 C 
HETATM    3  C3  UNL     1      29.119 -10.552  16.455  1.00  0.00     0.113 C 
ENDROOT
BRANCH   3   4
HETATM    4  C4  UNL     1      29.732  -9.755  17.606  1.00  0.00     0.150 C 
BRANCH   4   5
HETATM    5  N1  UNL     1      30.567  -8.689  17.160  1.00  0.00    -0.225 N 
ATOM      6  H1  UNL     1      30.714  -7.918  17.811  1.00  0.00     0.177 HD
BRANCH   5   7
HETATM    7  C5  UNL     1      31.148  -8.603  16.031  1.00  0.00     0.696 A 
HETATM    8  N2  UNL     1      32.379  -9.097  15.844  1.00  0.00    -0.140 N 
HETATM    9  C6  UNL     1      33.010  -9.015  14.647  1.00  0.00     0.352 A 
ATOM     10  H2  UNL     1      32.855  -9.549  16.625  1.00  0.00     0.189 HD
HETATM   11  O1  UNL     1      34.168  -9.504  14.548  1.00  0.00    -0.246 OA
HETATM   12  N3  UNL     1      32.378  -8.423  13.636  1.00  0.00    -0.140 N 
HETATM   13  C7  UNL     1      31.159  -7.918  13.767  1.00  0.00     0.696 A 
ATOM     14  H3  UNL     1      32.846  -8.356  12.732  1.00  0.00     0.189 HD
HETATM   15  N5  UNL     1      30.552  -8.011  14.963  1.00  0.00    -0.022 N 
ATOM     16  H5  UNL     1      29.614  -7.625  15.072  1.00  0.00     0.203 HD
BRANCH  13  17
HETATM   17  N4  UNL     1      30.512  -7.338  12.817  1.00  0.00    -0.225 N 
ATOM     18  H4  UNL     1      31.043  -6.760  12.167  1.00  0.00     0.177 HD
BRANCH  17  19
HETATM   19  C8  UNL     1      29.095  -7.446  12.608  1.00  0.00     0.142 C 
BRANCH  19  20
HETATM   20  C9  UNL     1      28.777  -8.906  12.252  1.00  0.00     0.058 C 
BRANCH  20  21
HETATM   21  C10 UNL     1      27.702  -9.324  13.190  1.00  0.00    -0.057 A 
HETATM   22  C11 UNL     1      27.189  -8.360  14.033  1.00  0.00     0.007 A 
HETATM   23  C12 UNL     1      26.186  -8.704  14.923  1.00  0.00     0.001 A 
HETATM   24  C13 UNL     1      25.700  -9.991  14.974  1.00  0.00     0.000 A 
HETATM   25  C14 UNL     1      26.244 -10.916  14.116  1.00  0.00     0.001 A 
HETATM   26  C15 UNL     1      27.244 -10.625  13.210  1.00  0.00     0.007 A 
ENDBRANCH  20  21
ENDBRANCH  19  20
ENDBRANCH  17  19
ENDBRANCH  13  17
ENDBRANCH   5   7
ENDBRANCH   4   5
ENDBRANCH   3   4
TORSDOF 7
ENDMDL
MODEL 5
REMARK VINA RESULT: -7.137560630      1.116      1.317
REMARK  7 active torsions:
REMARK  status: ('A' for Active; 'I' for Inactive)
REMARK    1  A    between atoms: C3_3  and  C4_4 
REMARK    2  A    between atoms: C4_4  and  N1_5 
REMARK    3  A    between atoms: N1_5  and  C5_7 
REMARK    4  A    between atoms: C7_14  and  N4_15 
REMARK    5  A    between atoms: N4_15  and  C8_17 
REMARK    6  A    between atoms: C8_17  and  C9_18 
REMARK    7  A    between atoms: C9_18  and  C10_19 
ROOT
HETATM    1  C1  UNL     1      27.260  -5.723   9.929  1.00  0.00     0.012 C 
HETATM    2  C2  UNL     1      28.374  -5.923  10.343  1.00  0.00    -0.116 C 
HETATM    3  C3  UNL     1      29.729  -6.148  10.822  1.00  0.00     0.113 C 
ENDROOT
BRANCH   3   4
HETATM    4  C4  UNL     1      29.784  -7.134  11.989  1.00  0.00     0.150 C 
BRANCH   4   5
HETATM    5  N1  UNL     1      30.885  -6.897  12.864  1.00  0.00    -0.225 N 
ATOM      6  H1  UNL     1      31.358  -5.997  12.773  1.00  0.00     0.177 HD
BRANCH   5   7
HETATM    7  C5  UNL     1      31.338  -7.694  13.746  1.00  0.00     0.696 A 
HETATM    8  N2  UNL     1      32.546  -8.259  13.617  1.00  0.00    -0.140 N 
HETATM    9  C6  UNL     1      33.044  -9.108  14.548  1.00  0.00     0.352 A 
ATOM     10  H2  UNL     1      33.107  -8.044  12.792  1.00  0.00     0.189 HD
HETATM   11  O1  UNL     1      34.188  -9.601  14.357  1.00  0.00    -0.246 OA
HETATM   12  N3  UNL     1      32.301  -9.381  15.620  1.00  0.00    -0.140 N 
HETATM   13  C7  UNL     1      31.100  -8.848  15.797  1.00  0.00     0.696 A 
ATOM     14  H3  UNL     1      32.667 -10.019  16.325  1.00  0.00     0.189 HD
HETATM   15  N5  UNL     1      30.627  -8.008  14.860  1.00  0.00    -0.022 N 
ATOM     16  H5  UNL     1      29.704  -7.593  14.989  1.00  0.00     0.203 HD
BRANCH  13  17
HETATM   17  N4  UNL     1      30.349  -9.083  16.816  1.00  0.00    -0.225 N 
ATOM     18  H4  UNL     1      30.450  -8.475  17.628  1.00  0.00     0.177 HD
BRANCH  17  19
HETATM   19  C8  UNL     1      29.379 -10.140  16.892  1.00  0.00     0.142 C 
BRANCH  19  20
HETATM   20  C9  UNL     1      28.037  -9.525  17.315  1.00  0.00     0.058 C 
BRANCH  20  21
HETATM   21  C10 UNL     1      27.168  -9.586  16.110  1.00  0.00    -0.057 A 
HETATM   22  C11 UNL     1      26.154  -8.656  16.016  1.00  0.00     0.007 A 
HETATM   23  C12 UNL     1      25.320  -8.674  14.911  1.00  0.00     0.001 A 
HETATM   24  C13 UNL     1      25.494  -9.605  13.912  1.00  0.00     0.000 A 
HETATM   25  C14 UNL     1      26.517 -10.511  14.052  1.00  0.00     0.001 A 
HETATM   26  C15 UNL     1      27.376 -10.536  15.132  1.00  0.00     0.007 A 
ENDBRANCH  20  21
ENDBRANCH  19  20
ENDBRANCH  17  19
ENDBRANCH  13  17
ENDBRANCH   5   7
ENDBRANCH   4   5
ENDBRANCH   3   4
TORSDOF 7
ENDMDL
