MODEL 1
REMARK VINA RESULT: -6.929272610      0.000      0.000
REMARK  9 active torsions:
REMARK  status: ('A' for Active; 'I' for Inactive)
REMARK    1  A    between atoms: N1_2  and  C3_4 
REMARK    2  A    between atoms: C3_4  and  C4_5 
REMARK    3  A    between atoms: C4_5  and  N2_6 
REMARK    4  A    between atoms: N2_6  and  C5_8 
REMARK    5  A    between atoms: C8_13  and  N4_14 
REMARK    6  A    between atoms: N4_14  and  C9_16 
REMARK    7  A    between atoms: C9_16  and  C10_17 
REMARK    8  A    between atoms: C10_17  and  C11_18 
REMARK    9  A    between atoms: C11_18  and  C12_19 
ROOT
HETATM    1  C5  UNL     1      31.652  -7.596  13.780  1.00  0.00     0.679 A 
HETATM    2  N3  UNL     1      32.724  -8.378  13.600  1.00  0.00    -0.202 N 
ATOM      3  H3  UNL     1      33.261  -8.320  12.735  1.00  0.00     0.183 HD
HETATM    4  C6  UNL     1      33.084  -9.235  14.561  1.00  0.00     0.110 A 
HETATM    5  C7  UNL     1      32.373  -9.333  15.739  1.00  0.00     0.066 A 
HETATM    6  C8  UNL     1      31.272  -8.507  15.884  1.00  0.00     0.118 A 
HETATM    7  N6  UNL     1      30.919  -7.654  14.921  1.00  0.00    -0.177 N 
ATOM      8  H6  UNL     1      30.106  -7.052  15.041  1.00  0.00     0.185 HD
ENDROOT
BRANCH   6   9
HETATM    9  N4  UNL     1      30.594  -8.577  16.967  1.00  0.00    -0.376 N 
ATOM     10  H4  UNL     1      30.519  -7.739  17.544  1.00  0.00     0.161 HD
BRANCH   9  11
HETATM   11  C9  UNL     1      29.935  -9.765  17.412  1.00  0.00     0.121 C 
BRANCH  11  12
HETATM   12  C10 UNL     1      28.442  -9.731  17.166  1.00  0.00     0.024 C 
BRANCH  12  13
HETATM   13  C11 UNL     1      28.075 -10.177  15.773  1.00  0.00     0.041 C 
BRANCH  13  14
HETATM   14  C12 UNL     1      26.692  -9.692  15.509  1.00  0.00    -0.041 A 
HETATM   15  C13 UNL     1      26.159  -8.431  15.674  1.00  0.00     0.025 A 
HETATM   16  C14 UNL     1      24.834  -8.404  15.312  1.00  0.00     0.088 A 
HETATM   17  N5  UNL     1      24.529  -9.662  14.913  1.00  0.00    -0.375 N 
HETATM   18  C15 UNL     1      25.625 -10.454  15.021  1.00  0.00     0.094 A 
ATOM     19  H5  UNL     1      23.614  -9.967  14.582  1.00  0.00     0.164 HD
ENDBRANCH  13  14
ENDBRANCH  12  13
ENDBRANCH  11  12
ENDBRANCH   9  11
ENDBRANCH   6   9
BRANCH   1  20
HETATM   20  N2  UNL     1      31.262  -6.757  12.895  1.00  0.00    -0.224 N 
ATOM     21  H2  UNL     1      31.727  -5.856  12.783  1.00  0.00     0.177 HD
BRANCH  20  22
HETATM   22  C4  UNL     1      30.141  -7.126  12.056  1.00  0.00     0.168 C 
BRANCH  22  23
HETATM   23  C3  UNL     1      29.471  -5.857  11.570  1.00  0.00     0.291 C 
BRANCH  23  24
HETATM   24  N1  UNL     1      28.048  -6.052  11.637  1.00  0.00     0.081 N 
HETATM   25  C1  UNL     1      27.721  -7.288  12.302  1.00  0.00     0.309 C 
HETATM   26  C2  UNL     1      27.520  -6.047  10.299  1.00  0.00     0.309 C 
ENDBRANCH  23  24
ENDBRANCH  22  23
ENDBRANCH  20  22
ENDBRANCH   1  20
TORSDOF 9
ENDMDL
MODEL 2
REMARK VINA RESULT: -6.922123449      1.812      3.291
REMARK  9 active torsions:
REMARK  status: ('A' for Active; 'I' for Inactive)
REMARK    1  A    between atoms: N1_2  and  C3_4 
REMARK    2  A    between atoms: C3_4  and  C4_5 
REMARK    3  A    between atoms: C4_5  and  N2_6 
REMARK    4  A    between atoms: N2_6  and  C5_8 
REMARK    5  A    between atoms: C8_13  and  N4_14 
REMARK    6  A    between atoms: N4_14  and  C9_16 
REMARK    7  A    between atoms: C9_16  and  C10_17 
REMARK    8  A    between atoms: C10_17  and  C11_18 
REMARK    9  A    between atoms: C11_18  and  C12_19 
ROOT
HETATM    1  C5  UNL     1      31.139  -7.862  14.018  1.00  0.00     0.679 A 
HETATM    2  N3  UNL     1      31.250  -7.151  15.147  1.00  0.00    -0.202 N 
ATOM      3  H3  UNL     1      30.730  -6.282  15.260  1.00  0.00     0.183 HD
HETATM    4  C6  UNL     1      32.050  -7.590  16.126  1.00  0.00     0.110 A 
HETATM    5  C7  UNL     1      32.765  -8.761  15.998  1.00  0.00     0.066 A 
HETATM    6  C8  UNL     1      32.621  -9.465  14.814  1.00  0.00     0.118 A 
HETATM    7  N6  UNL     1      31.822  -9.022  13.843  1.00  0.00    -0.177 N 
ATOM      8  H6  UNL     1      31.725  -9.550  12.976  1.00  0.00     0.185 HD
ENDROOT
BRANCH   6   9
HETATM    9  N4  UNL     1      33.274 -10.556  14.668  1.00  0.00    -0.376 N 
ATOM     10  H4  UNL     1      34.292 -10.507  14.629  1.00  0.00     0.161 HD
BRANCH   9  11
HETATM   11  C9  UNL     1      32.655 -11.839  14.558  1.00  0.00     0.121 C 
BRANCH  11  12
HETATM   12  C10 UNL     1      31.890 -12.228  15.804  1.00  0.00     0.024 C 
BRANCH  12  13
HETATM   13  C11 UNL     1      30.402 -12.305  15.569  1.00  0.00     0.041 C 
BRANCH  13  14
HETATM   14  C12 UNL     1      29.789 -11.139  16.262  1.00  0.00    -0.041 A 
HETATM   15  C13 UNL     1      30.071 -10.609  17.503  1.00  0.00     0.025 A 
HETATM   16  C14 UNL     1      29.271  -9.524  17.771  1.00  0.00     0.088 A 
HETATM   17  N5  UNL     1      28.476  -9.369  16.685  1.00  0.00    -0.375 N 
HETATM   18  C15 UNL     1      28.765 -10.323  15.766  1.00  0.00     0.094 A 
ATOM     19  H5  UNL     1      27.767  -8.644  16.576  1.00  0.00     0.164 HD
ENDBRANCH  13  14
ENDBRANCH  12  13
ENDBRANCH  11  12
ENDBRANCH   9  11
ENDBRANCH   6   9
BRANCH   1  20
HETATM   20  N2  UNL     1      30.388  -7.491  13.049  1.00  0.00    -0.224 N 
ATOM     21  H2  UNL     1      30.540  -6.599  12.578  1.00  0.00     0.177 HD
BRANCH  20  22
HETATM   22  C4  UNL     1      29.317  -8.376  12.641  1.00  0.00     0.168 C 
BRANCH  22  23
HETATM   23  C3  UNL     1      28.009  -7.808  13.154  1.00  0.00     0.291 C 
BRANCH  23  24
HETATM   24  N1  UNL     1      26.966  -8.750  12.846  1.00  0.00     0.081 N 
HETATM   25  C1  UNL     1      26.355  -8.455  11.575  1.00  0.00     0.309 C 
HETATM   26  C2  UNL     1      25.984  -8.706  13.897  1.00  0.00     0.309 C 
ENDBRANCH  23  24
ENDBRANCH  22  23
ENDBRANCH  20  22
ENDBRANCH   1  20
TORSDOF 9
ENDMDL
MODEL 3
REMARK VINA RESULT: -6.893992654      1.888      3.087
REMARK  9 active torsions:
REMARK  status: ('A' for Active; 'I' for Inactive)
REMARK    1  A    between atoms: N1_2  and  C3_4 
REMARK    2  A    between atoms: C3_4  and  C4_5 
REMARK    3  A    between atoms: C4_5  and  N2_6 
REMARK    4  A    between atoms: N2_6  and  C5_8 
REMARK    5  A    between atoms: C8_13  and  N4_14 
REMARK    6  A    between atoms: N4_14  and  C9_16 
REMARK    7  A    between atoms: C9_16  and  C10_17 
REMARK    8  A    between atoms: C10_17  and  C11_18 
REMARK    9  A    between atoms: C11_18  and  C12_19 
ROOT
HETATM    1  C5  UNL     1      31.127  -7.853  14.048  1.00  0.00     0.679 A 
HETATM    2  N3  UNL     1      31.276  -7.127  15.164  1.00  0.00    -0.202 N 
ATOM      3  H3  UNL     1      30.784  -6.240  15.269  1.00  0.00     0.183 HD
HETATM    4  C6  UNL     1      32.074  -7.575  16.139  1.00  0.00     0.110 A 
HETATM    5  C7  UNL     1      32.751  -8.770  16.021  1.00  0.00     0.066 A 
HETATM    6  C8  UNL     1      32.569  -9.488  14.851  1.00  0.00     0.118 A 
HETATM    7  N6  UNL     1      31.771  -9.036  13.883  1.00  0.00    -0.177 N 
ATOM      8  H6  UNL     1      31.646  -9.574  13.027  1.00  0.00     0.185 HD
ENDROOT
BRANCH   6   9
HETATM    9  N4  UNL     1      33.186 -10.601  14.715  1.00  0.00    -0.376 N 
ATOM     10  H4  UNL     1      34.202 -10.582  14.631  1.00  0.00     0.161 HD
BRANCH   9  11
HETATM   11  C9  UNL     1      32.529 -11.870  14.674  1.00  0.00     0.121 C 
BRANCH  11  12
HETATM   12  C10 UNL     1      31.750 -12.165  15.938  1.00  0.00     0.024 C 
BRANCH  12  13
HETATM   13  C11 UNL     1      30.301 -12.479  15.664  1.00  0.00     0.041 C 
BRANCH  13  14
HETATM   14  C12 UNL     1      29.520 -11.251  15.978  1.00  0.00    -0.041 A 
HETATM   15  C13 UNL     1      28.427 -10.718  15.328  1.00  0.00     0.025 A 
HETATM   16  C14 UNL     1      28.001  -9.565  15.941  1.00  0.00     0.088 A 
HETATM   17  N5  UNL     1      28.836  -9.369  16.990  1.00  0.00    -0.375 N 
HETATM   18  C15 UNL     1      29.755 -10.364  17.035  1.00  0.00     0.094 A 
ATOM     19  H5  UNL     1      28.781  -8.590  17.646  1.00  0.00     0.164 HD
ENDBRANCH  13  14
ENDBRANCH  12  13
ENDBRANCH  11  12
ENDBRANCH   9  11
ENDBRANCH   6   9
BRANCH   1  20
HETATM   20  N2  UNL     1      30.375  -7.474  13.083  1.00  0.00    -0.224 N 
ATOM     21  H2  UNL     1      30.498  -6.560  12.649  1.00  0.00     0.177 HD
BRANCH  20  22
HETATM   22  C4  UNL     1      29.345  -8.383  12.626  1.00  0.00     0.168 C 
BRANCH  22  23
HETATM   23  C3  UNL     1      28.003  -7.696  12.772  1.00  0.00     0.291 C 
BRANCH  23  24
HETATM   24  N1  UNL     1      27.018  -8.496  12.093  1.00  0.00     0.081 N 
HETATM   25  C1  UNL     1      25.917  -8.817  12.964  1.00  0.00     0.309 C 
HETATM   26  C2  UNL     1      27.650  -9.697  11.619  1.00  0.00     0.309 C 
ENDBRANCH  23  24
ENDBRANCH  22  23
ENDBRANCH  20  22
ENDBRANCH   1  20
TORSDOF 9
ENDMDL
MODEL 4
REMARK VINA RESULT: -6.747219952      1.793      2.905
REMARK  9 active torsions:
REMARK  status: ('A' for Active; 'I' for Inactive)
REMARK    1  A    between atoms: N1_2  and  C3_4 
REMARK    2  A    between atoms: C3_4  and  C4_5 
REMARK    3  A    between atoms: C4_5  and  N2_6 
REMARK    4  A    between atoms: N2_6  and  C5_8 
REMARK    5  A    between atoms: C8_13  and  N4_14 
REMARK    6  A    between atoms: N4_14  and  C9_16 
REMARK    7  A    between atoms: C9_16  and  C10_17 
REMARK    8  A    between atoms: C10_17  and  C11_18 
REMARK    9  A    between atoms: C11_18  and  C12_19 
ROOT
HETATM    1  C5  UNL     1      31.152  -7.875  13.990  1.00  0.00     0.679 A 
HETATM    2  N3  UNL     1      31.287  -7.124  15.091  1.00  0.00    -0.202 N 
ATOM      3  H3  UNL     1      30.808  -6.227  15.163  1.00  0.00     0.183 HD
HETATM    4  C6  UNL     1      32.056  -7.560  16.095  1.00  0.00     0.110 A 
HETATM    5  C7  UNL     1      32.716  -8.769  16.022  1.00  0.00     0.066 A 
HETATM    6  C8  UNL     1      32.549  -9.512  14.866  1.00  0.00     0.118 A 
HETATM    7  N6  UNL     1      31.780  -9.071  13.870  1.00  0.00    -0.177 N 
ATOM      8  H6  UNL     1      31.666  -9.629  13.024  1.00  0.00     0.185 HD
ENDROOT
BRANCH   6   9
HETATM    9  N4  UNL     1      33.150 -10.638  14.772  1.00  0.00    -0.376 N 
ATOM     10  H4  UNL     1      34.168 -10.638  14.718  1.00  0.00     0.161 HD
BRANCH   9  11
HETATM   11  C9  UNL     1      32.472 -11.896  14.736  1.00  0.00     0.121 C 
BRANCH  11  12
HETATM   12  C10 UNL     1      31.691 -12.174  16.003  1.00  0.00     0.024 C 
BRANCH  12  13
HETATM   13  C11 UNL     1      30.247 -12.510  15.730  1.00  0.00     0.041 C 
BRANCH  13  14
HETATM   14  C12 UNL     1      29.459 -11.267  15.949  1.00  0.00    -0.041 A 
HETATM   15  C13 UNL     1      28.388 -10.771  15.235  1.00  0.00     0.025 A 
HETATM   16  C14 UNL     1      27.945  -9.585  15.769  1.00  0.00     0.088 A 
HETATM   17  N5  UNL     1      28.745  -9.331  16.832  1.00  0.00    -0.375 N 
HETATM   18  C15 UNL     1      29.661 -10.323  16.962  1.00  0.00     0.094 A 
ATOM     19  H5  UNL     1      28.670  -8.517  17.442  1.00  0.00     0.164 HD
ENDBRANCH  13  14
ENDBRANCH  12  13
ENDBRANCH  11  12
ENDBRANCH   9  11
ENDBRANCH   6   9
BRANCH   1  20
HETATM   20  N2  UNL     1      30.428  -7.508  12.999  1.00  0.00    -0.224 N 
ATOM     21  H2  UNL     1      30.618  -6.637  12.504  1.00  0.00     0.177 HD
BRANCH  20  22
HETATM   22  C4  UNL     1      29.332  -8.367  12.603  1.00  0.00     0.168 C 
BRANCH  22  23
HETATM   23  C3  UNL     1      28.068  -7.534  12.552  1.00  0.00     0.291 C 
BRANCH  23  24
HETATM   24  N1  UNL     1      27.684  -7.393  11.174  1.00  0.00     0.081 N 
HETATM   25  C1  UNL     1      27.725  -6.014  10.759  1.00  0.00     0.309 C 
HETATM   26  C2  UNL     1      26.359  -7.927  11.009  1.00  0.00     0.309 C 
ENDBRANCH  23  24
ENDBRANCH  22  23
ENDBRANCH  20  22
ENDBRANCH   1  20
TORSDOF 9
ENDMDL
MODEL 5
REMARK VINA RESULT: -6.700887224      1.101      1.241
REMARK  9 active torsions:
REMARK  status: ('A' for Active; 'I' for Inactive)
REMARK    1  A    between atoms: N1_2  and  C3_4 
REMARK    2  A    between atoms: C3_4  and  C4_5 
REMARK    3  A    between atoms: C4_5  and  N2_6 
REMARK    4  A    between atoms: N2_6  and  C5_8 
REMARK    5  A    between atoms: C8_13  and  N4_14 
REMARK    6  A    between atoms: N4_14  and  C9_16 
REMARK    7  A    between atoms: C9_16  and  C10_17 
REMARK    8  A    between atoms: C10_17  and  C11_18 
REMARK    9  A    between atoms: C11_18  and  C12_19 
ROOT
HETATM    1  C5  UNL     1      31.592  -7.639  13.789  1.00  0.00     0.679 A 
HETATM    2  N3  UNL     1      32.688  -8.391  13.626  1.00  0.00    -0.202 N 
ATOM      3  H3  UNL     1      33.245  -8.310  12.776  1.00  0.00     0.183 HD
HETATM    4  C6  UNL     1      33.045  -9.251  14.587  1.00  0.00     0.110 A 
HETATM    5  C7  UNL     1      32.309  -9.381  15.745  1.00  0.00     0.066 A 
HETATM    6  C8  UNL     1      31.183  -8.584  15.872  1.00  0.00     0.118 A 
HETATM    7  N6  UNL     1      30.833  -7.729  14.910  1.00  0.00    -0.177 N 
ATOM      8  H6  UNL     1      30.002  -7.148  15.017  1.00  0.00     0.185 HD
ENDROOT
BRANCH   6   9
HETATM    9  N4  UNL     1      30.480  -8.684  16.937  1.00  0.00    -0.376 N 
ATOM     10  H4  UNL     1      30.442  -7.882  17.566  1.00  0.00     0.161 HD
BRANCH   9  11
HETATM   11  C9  UNL     1      29.746  -9.857  17.292  1.00  0.00     0.121 C 
BRANCH  11  12
HETATM   12  C10 UNL     1      28.626 -10.161  16.321  1.00  0.00     0.024 C 
BRANCH  12  13
HETATM   13  C11 UNL     1      27.360  -9.409  16.644  1.00  0.00     0.041 C 
BRANCH  13  14
HETATM   14  C12 UNL     1      26.658  -9.159  15.355  1.00  0.00    -0.041 A 
HETATM   15  C13 UNL     1      25.344  -9.398  15.012  1.00  0.00     0.025 A 
HETATM   16  C14 UNL     1      25.097  -9.023  13.713  1.00  0.00     0.088 A 
HETATM   17  N5  UNL     1      26.268  -8.540  13.233  1.00  0.00    -0.375 N 
HETATM   18  C15 UNL     1      27.220  -8.611  14.196  1.00  0.00     0.094 A 
ATOM     19  H5  UNL     1      26.411  -8.179  12.291  1.00  0.00     0.164 HD
ENDBRANCH  13  14
ENDBRANCH  12  13
ENDBRANCH  11  12
ENDBRANCH   9  11
ENDBRANCH   6   9
BRANCH   1  20
HETATM   20  N2  UNL     1      31.203  -6.799  12.903  1.00  0.00    -0.224 N 
ATOM     21  H2  UNL     1      31.733  -5.948  12.717  1.00  0.00     0.177 HD
BRANCH  20  22
HETATM   22  C4  UNL     1      29.988  -7.096  12.173  1.00  0.00     0.168 C 
BRANCH  22  23
HETATM   23  C3  UNL     1      30.107  -6.497  10.786  1.00  0.00     0.291 C 
BRANCH  23  24
HETATM   24  N1  UNL     1      29.068  -5.514  10.636  1.00  0.00     0.081 N 
HETATM   25  C1  UNL     1      27.835  -5.963  11.231  1.00  0.00     0.309 C 
HETATM   26  C2  UNL     1      28.883  -5.253   9.234  1.00  0.00     0.309 C 
ENDBRANCH  23  24
ENDBRANCH  22  23
ENDBRANCH  20  22
ENDBRANCH   1  20
TORSDOF 9
ENDMDL
