MODEL 1
REMARK VINA RESULT: -7.664327455      0.000      0.000
REMARK  11 active torsions:
REMARK  status: ('A' for Active; 'I' for Inactive)
REMARK    1  A    between atoms: C2_2  and  C3_3 
REMARK    2  A    between atoms: C3_3  and  O1_4 
REMARK    3  A    between atoms: O1_4  and  C4_5 
REMARK    4  A    between atoms: C8_10  and  O3_11 
REMARK    5  A    between atoms: O3_11  and  C9_12 
REMARK    6  A    between atoms: C9_12  and  C10_14 
REMARK    7  A    between atoms: C11_15  and  C13_17 
REMARK    8  A    between atoms: C17_21  and  O5_22 
REMARK    9  A    between atoms: C18_24  and  O6_25 
REMARK   10  A    between atoms: C18_24  and  O7_27 
REMARK   11  A    between atoms: C23_33  and  O8_35 
ROOT
HETATM    1  C4  UNL     1       3.674   0.841   6.027  1.00  0.00     0.158 C 
HETATM    2  C5  UNL     1       4.156   0.962   7.426  1.00  0.00     0.067 C 
HETATM    3  C6  UNL     1       3.094   0.856   8.491  1.00  0.00     0.133 C 
HETATM    4  O2  UNL     1       3.643   1.280   9.682  1.00  0.00    -0.377 OA
HETATM    5  C7  UNL     1       2.938   2.326  10.171  1.00  0.00     0.162 C 
HETATM    6  C8  UNL     1       3.759   3.363  10.904  1.00  0.00     0.164 C 
HETATM    7  C16 UNL     1       2.877   4.473  11.297  1.00  0.00     0.072 C 
HETATM    8  C17 UNL     1       1.903   5.008  10.322  1.00  0.00     0.183 C 
HETATM    9  C18 UNL     1       1.542   4.136   9.156  1.00  0.00     0.193 C 
HETATM   10  C19 UNL     1       2.425   2.994   8.928  1.00  0.00     0.093 C 
HETATM   11  C20 UNL     1       1.904   1.793   8.214  1.00  0.00    -0.004 C 
HETATM   12  C21 UNL     1       0.714   1.141   8.849  1.00  0.00     0.018 C 
HETATM   13  C22 UNL     1       1.672   1.992   6.758  1.00  0.00     0.052 C 
HETATM   14  C23 UNL     1       2.171   0.835   5.905  1.00  0.00     0.081 C 
HETATM   15  C24 UNL     1       1.714   1.103   4.487  1.00  0.00     0.049 C 
ENDROOT
BRANCH   6  16
HETATM   16  O3  UNL     1       4.957   3.665  10.269  1.00  0.00    -0.310 OA
BRANCH  16  17
HETATM   17  C9  UNL     1       6.218   3.653  10.761  1.00  0.00     0.283 C 
HETATM   18  O4  UNL     1       6.344   4.537  11.668  1.00  0.00    -0.260 OA
BRANCH  17  19
HETATM   19  C10 UNL     1       7.360   2.857  10.446  1.00  0.00     0.085 C 
HETATM   20  C11 UNL     1       7.610   1.602  10.621  1.00  0.00    -0.075 C 
HETATM   21  C12 UNL     1       8.913   1.038  10.184  1.00  0.00     0.044 C 
BRANCH  20  22
HETATM   22  C13 UNL     1       6.673   0.668  11.240  1.00  0.00     0.006 C 
HETATM   23  C14 UNL     1       6.195  -0.401  10.263  1.00  0.00     0.014 C 
HETATM   24  C15 UNL     1       7.341  -0.026  12.447  1.00  0.00     0.014 C 
ENDBRANCH  20  22
ENDBRANCH  17  19
ENDBRANCH  16  17
ENDBRANCH   6  16
BRANCH   8  25
HETATM   25  O5  UNL     1       0.685   5.376  10.929  1.00  0.00    -0.390 OA
ATOM     26  H5  UNL     1      -0.069   5.082  10.432  1.00  0.00     0.210 HD
ENDBRANCH   8  25
BRANCH   9  27
HETATM   27  O6  UNL     1       0.171   3.751   9.180  1.00  0.00    -0.363 OA
ATOM     28  H6  UNL     1       0.040   2.875   8.836  1.00  0.00     0.213 HD
ENDBRANCH   9  27
BRANCH   9  29
HETATM   29  O7  UNL     1       1.588   4.957   7.999  1.00  0.00    -0.363 OA
ATOM     30  H7  UNL     1       0.703   4.995   7.654  1.00  0.00     0.213 HD
ENDBRANCH   9  29
BRANCH   1  31
HETATM   31  O1  UNL     1       4.208  -0.233   5.331  1.00  0.00    -0.379 OA
BRANCH  31  32
HETATM   32  C3  UNL     1       4.932  -1.086   6.168  1.00  0.00     0.195 C 
BRANCH  32  33
HETATM   33  C2  UNL     1       4.390  -2.472   6.110  1.00  0.00    -0.011 C 
HETATM   34  C1  UNL     1       3.823  -2.978   7.184  1.00  0.00     0.009 C 
ENDBRANCH  32  33
ENDBRANCH  31  32
ENDBRANCH   1  31
BRANCH  14  35
HETATM   35  O8  UNL     1       1.608  -0.372   6.294  1.00  0.00    -0.388 OA
ATOM     36  H8  UNL     1       1.527  -0.451   7.236  1.00  0.00     0.210 HD
ENDBRANCH  14  35
TORSDOF 11
ENDMDL
MODEL 2
REMARK VINA RESULT: -7.618718673      1.464      1.948
REMARK  11 active torsions:
REMARK  status: ('A' for Active; 'I' for Inactive)
REMARK    1  A    between atoms: C2_2  and  C3_3 
REMARK    2  A    between atoms: C3_3  and  O1_4 
REMARK    3  A    between atoms: O1_4  and  C4_5 
REMARK    4  A    between atoms: C8_10  and  O3_11 
REMARK    5  A    between atoms: O3_11  and  C9_12 
REMARK    6  A    between atoms: C9_12  and  C10_14 
REMARK    7  A    between atoms: C11_15  and  C13_17 
REMARK    8  A    between atoms: C17_21  and  O5_22 
REMARK    9  A    between atoms: C18_24  and  O6_25 
REMARK   10  A    between atoms: C18_24  and  O7_27 
REMARK   11  A    between atoms: C23_33  and  O8_35 
ROOT
HETATM    1  C4  UNL     1       4.700  -0.679   6.867  1.00  0.00     0.158 C 
HETATM    2  C5  UNL     1       4.282  -0.228   8.217  1.00  0.00     0.067 C 
HETATM    3  C6  UNL     1       2.932   0.438   8.293  1.00  0.00     0.133 C 
HETATM    4  O2  UNL     1       2.829   1.052   9.522  1.00  0.00    -0.377 OA
HETATM    5  C7  UNL     1       2.616   2.378   9.362  1.00  0.00     0.162 C 
HETATM    6  C8  UNL     1       3.257   3.261  10.409  1.00  0.00     0.164 C 
HETATM    7  C16 UNL     1       3.015   4.668  10.055  1.00  0.00     0.072 C 
HETATM    8  C17 UNL     1       3.200   5.108   8.657  1.00  0.00     0.183 C 
HETATM    9  C18 UNL     1       3.187   4.051   7.592  1.00  0.00     0.193 C 
HETATM   10  C19 UNL     1       3.320   2.676   8.069  1.00  0.00     0.093 C 
HETATM   11  C20 UNL     1       2.782   1.556   7.245  1.00  0.00    -0.004 C 
HETATM   12  C21 UNL     1       1.316   1.637   6.940  1.00  0.00     0.018 C 
HETATM   13  C22 UNL     1       3.555   1.275   6.006  1.00  0.00     0.052 C 
HETATM   14  C23 UNL     1       3.784  -0.210   5.763  1.00  0.00     0.081 C 
HETATM   15  C24 UNL     1       4.423  -0.342   4.398  1.00  0.00     0.049 C 
ENDROOT
BRANCH   6  16
HETATM   16  O3  UNL     1       4.551   2.874  10.734  1.00  0.00    -0.310 OA
BRANCH  16  17
HETATM   17  C9  UNL     1       5.494   3.537  11.446  1.00  0.00     0.283 C 
HETATM   18  O4  UNL     1       4.976   4.053  12.487  1.00  0.00    -0.260 OA
BRANCH  17  19
HETATM   19  C10 UNL     1       6.890   3.737  11.229  1.00  0.00     0.085 C 
HETATM   20  C11 UNL     1       7.839   2.921  10.913  1.00  0.00    -0.075 C 
HETATM   21  C12 UNL     1       9.227   3.424  10.751  1.00  0.00     0.044 C 
BRANCH  20  22
HETATM   22  C13 UNL     1       7.638   1.489  10.697  1.00  0.00     0.006 C 
HETATM   23  C14 UNL     1       8.812   0.846   9.967  1.00  0.00     0.014 C 
HETATM   24  C15 UNL     1       7.443   0.775  12.051  1.00  0.00     0.014 C 
ENDBRANCH  20  22
ENDBRANCH  17  19
ENDBRANCH  16  17
ENDBRANCH   6  16
BRANCH   8  25
HETATM   25  O5  UNL     1       2.245   6.069   8.268  1.00  0.00    -0.390 OA
ATOM     26  H5  UNL     1       1.680   5.754   7.572  1.00  0.00     0.210 HD
ENDBRANCH   8  25
BRANCH   9  27
HETATM   27  O6  UNL     1       2.085   4.201   6.703  1.00  0.00    -0.363 OA
ATOM     28  H6  UNL     1       2.022   3.480   6.088  1.00  0.00     0.213 HD
ENDBRANCH   9  27
BRANCH   9  29
HETATM   29  O7  UNL     1       4.285   4.320   6.733  1.00  0.00    -0.363 OA
ATOM     30  H7  UNL     1       4.015   4.072   5.857  1.00  0.00     0.213 HD
ENDBRANCH   9  29
BRANCH   1  31
HETATM   31  O1  UNL     1       4.904  -2.047   6.760  1.00  0.00    -0.379 OA
BRANCH  31  32
HETATM   32  C3  UNL     1       4.086  -2.763   7.639  1.00  0.00     0.195 C 
BRANCH  32  33
HETATM   33  C2  UNL     1       3.905  -4.165   7.170  1.00  0.00    -0.011 C 
HETATM   34  C1  UNL     1       4.507  -4.549   6.066  1.00  0.00     0.009 C 
ENDBRANCH  32  33
ENDBRANCH  31  32
ENDBRANCH   1  31
BRANCH  14  35
HETATM   35  O8  UNL     1       2.590  -0.916   5.725  1.00  0.00    -0.388 OA
ATOM     36  H8  UNL     1       2.080  -0.729   4.946  1.00  0.00     0.210 HD
ENDBRANCH  14  35
TORSDOF 11
ENDMDL
MODEL 3
REMARK VINA RESULT: -7.505787965      0.834      1.030
REMARK  11 active torsions:
REMARK  status: ('A' for Active; 'I' for Inactive)
REMARK    1  A    between atoms: C2_2  and  C3_3 
REMARK    2  A    between atoms: C3_3  and  O1_4 
REMARK    3  A    between atoms: O1_4  and  C4_5 
REMARK    4  A    between atoms: C8_10  and  O3_11 
REMARK    5  A    between atoms: O3_11  and  C9_12 
REMARK    6  A    between atoms: C9_12  and  C10_14 
REMARK    7  A    between atoms: C11_15  and  C13_17 
REMARK    8  A    between atoms: C17_21  and  O5_22 
REMARK    9  A    between atoms: C18_24  and  O6_25 
REMARK   10  A    between atoms: C18_24  and  O7_27 
REMARK   11  A    between atoms: C23_33  and  O8_35 
ROOT
HETATM    1  C4  UNL     1       3.406   1.523   6.035  1.00  0.00     0.158 C 
HETATM    2  C5  UNL     1       4.015   1.457   7.386  1.00  0.00     0.067 C 
HETATM    3  C6  UNL     1       3.053   1.219   8.523  1.00  0.00     0.133 C 
HETATM    4  O2  UNL     1       3.716   1.481   9.703  1.00  0.00    -0.377 OA
HETATM    5  C7  UNL     1       3.076   2.458  10.386  1.00  0.00     0.162 C 
HETATM    6  C8  UNL     1       3.978   3.387  11.168  1.00  0.00     0.164 C 
HETATM    7  C16 UNL     1       3.155   4.440  11.781  1.00  0.00     0.072 C 
HETATM    8  C17 UNL     1       2.106   5.103  10.978  1.00  0.00     0.183 C 
HETATM    9  C18 UNL     1       1.625   4.393   9.747  1.00  0.00     0.193 C 
HETATM   10  C19 UNL     1       2.464   3.286   9.293  1.00  0.00     0.093 C 
HETATM   11  C20 UNL     1       1.859   2.191   8.480  1.00  0.00    -0.004 C 
HETATM   12  C21 UNL     1       0.720   1.468   9.133  1.00  0.00     0.018 C 
HETATM   13  C22 UNL     1       1.499   2.580   7.090  1.00  0.00     0.052 C 
HETATM   14  C23 UNL     1       1.898   1.542   6.052  1.00  0.00     0.081 C 
HETATM   15  C24 UNL     1       1.319   1.994   4.729  1.00  0.00     0.049 C 
ENDROOT
BRANCH   6  16
HETATM   16  O3  UNL     1       5.118   3.762  10.469  1.00  0.00    -0.310 OA
BRANCH  16  17
HETATM   17  C9  UNL     1       6.412   3.756  10.868  1.00  0.00     0.283 C 
HETATM   18  O4  UNL     1       6.617   4.687  11.711  1.00  0.00    -0.260 OA
BRANCH  17  19
HETATM   19  C10 UNL     1       7.517   2.923  10.516  1.00  0.00     0.085 C 
HETATM   20  C11 UNL     1       7.703   1.649  10.620  1.00  0.00    -0.075 C 
HETATM   21  C12 UNL     1       8.981   1.047  10.161  1.00  0.00     0.044 C 
BRANCH  20  22
HETATM   22  C13 UNL     1       6.714   0.728  11.176  1.00  0.00     0.006 C 
HETATM   23  C14 UNL     1       6.245  -0.299  10.152  1.00  0.00     0.014 C 
HETATM   24  C15 UNL     1       7.312  -0.016  12.389  1.00  0.00     0.014 C 
ENDBRANCH  20  22
ENDBRANCH  17  19
ENDBRANCH  16  17
ENDBRANCH   6  16
BRANCH   8  25
HETATM   25  O5  UNL     1       0.955   5.395  11.738  1.00  0.00    -0.390 OA
ATOM     26  H5  UNL     1       0.156   5.302  11.232  1.00  0.00     0.210 HD
ENDBRANCH   8  25
BRANCH   9  27
HETATM   27  O6  UNL     1       0.255   4.016   9.848  1.00  0.00    -0.363 OA
ATOM     28  H6  UNL     1       0.006   3.393   9.175  1.00  0.00     0.213 HD
ENDBRANCH   9  27
BRANCH   9  29
HETATM   29  O7  UNL     1       1.580   5.357   8.707  1.00  0.00    -0.363 OA
ATOM     30  H7  UNL     1       2.407   5.823   8.729  1.00  0.00     0.213 HD
ENDBRANCH   9  29
BRANCH   1  31
HETATM   31  O1  UNL     1       3.855   0.546   5.159  1.00  0.00    -0.379 OA
BRANCH  31  32
HETATM   32  C3  UNL     1       4.611  -0.430   5.814  1.00  0.00     0.195 C 
BRANCH  32  33
HETATM   33  C2  UNL     1       5.339  -1.283   4.834  1.00  0.00    -0.011 C 
HETATM   34  C1  UNL     1       5.704  -0.760   3.684  1.00  0.00     0.009 C 
ENDBRANCH  32  33
ENDBRANCH  31  32
ENDBRANCH   1  31
BRANCH  14  35
HETATM   35  O8  UNL     1       1.352   0.297   6.331  1.00  0.00    -0.388 OA
ATOM     36  H8  UNL     1       0.498   0.175   5.935  1.00  0.00     0.210 HD
ENDBRANCH  14  35
TORSDOF 11
ENDMDL
MODEL 4
REMARK VINA RESULT: -7.453371909      1.644      2.074
REMARK  11 active torsions:
REMARK  status: ('A' for Active; 'I' for Inactive)
REMARK    1  A    between atoms: C2_2  and  C3_3 
REMARK    2  A    between atoms: C3_3  and  O1_4 
REMARK    3  A    between atoms: O1_4  and  C4_5 
REMARK    4  A    between atoms: C8_10  and  O3_11 
REMARK    5  A    between atoms: O3_11  and  C9_12 
REMARK    6  A    between atoms: C9_12  and  C10_14 
REMARK    7  A    between atoms: C11_15  and  C13_17 
REMARK    8  A    between atoms: C17_21  and  O5_22 
REMARK    9  A    between atoms: C18_24  and  O6_25 
REMARK   10  A    between atoms: C18_24  and  O7_27 
REMARK   11  A    between atoms: C23_33  and  O8_35 
ROOT
HETATM    1  C4  UNL     1       2.994  -0.891   7.601  1.00  0.00     0.158 C 
HETATM    2  C5  UNL     1       2.563  -0.146   8.810  1.00  0.00     0.067 C 
HETATM    3  C6  UNL     1       1.434   0.832   8.604  1.00  0.00     0.133 C 
HETATM    4  O2  UNL     1       1.360   1.638   9.720  1.00  0.00    -0.377 OA
HETATM    5  C7  UNL     1       1.521   2.934   9.367  1.00  0.00     0.162 C 
HETATM    6  C8  UNL     1       2.251   3.786  10.379  1.00  0.00     0.164 C 
HETATM    7  C16 UNL     1       2.426   5.137   9.824  1.00  0.00     0.072 C 
HETATM    8  C17 UNL     1       2.873   5.294   8.423  1.00  0.00     0.183 C 
HETATM    9  C18 UNL     1       2.701   4.119   7.507  1.00  0.00     0.193 C 
HETATM   10  C19 UNL     1       2.416   2.845   8.165  1.00  0.00     0.093 C 
HETATM   11  C20 UNL     1       1.697   1.775   7.415  1.00  0.00    -0.004 C 
HETATM   12  C21 UNL     1       0.347   2.161   6.892  1.00  0.00     0.018 C 
HETATM   13  C22 UNL     1       2.502   1.123   6.347  1.00  0.00     0.052 C 
HETATM   14  C23 UNL     1       2.359  -0.392   6.326  1.00  0.00     0.081 C 
HETATM   15  C24 UNL     1       3.088  -0.888   5.096  1.00  0.00     0.049 C 
ENDROOT
BRANCH   6  16
HETATM   16  O3  UNL     1       3.355   3.153  10.936  1.00  0.00    -0.310 OA
BRANCH  16  17
HETATM   17  C9  UNL     1       4.426   3.689  11.569  1.00  0.00     0.283 C 
HETATM   18  O4  UNL     1       4.051   4.328  12.604  1.00  0.00    -0.260 OA
BRANCH  17  19
HETATM   19  C10 UNL     1       5.823   3.653  11.281  1.00  0.00     0.085 C 
HETATM   20  C11 UNL     1       6.636   2.671  11.073  1.00  0.00    -0.075 C 
HETATM   21  C12 UNL     1       8.069   2.942  10.790  1.00  0.00     0.044 C 
BRANCH  20  22
HETATM   22  C13 UNL     1       6.234   1.267  11.100  1.00  0.00     0.006 C 
HETATM   23  C14 UNL     1       6.157   0.663   9.702  1.00  0.00     0.014 C 
HETATM   24  C15 UNL     1       7.236   0.448  11.941  1.00  0.00     0.014 C 
ENDBRANCH  20  22
ENDBRANCH  17  19
ENDBRANCH  16  17
ENDBRANCH   6  16
BRANCH   8  25
HETATM   25  O5  UNL     1       2.251   6.385   7.783  1.00  0.00    -0.390 OA
ATOM     26  H5  UNL     1       2.793   6.758   7.097  1.00  0.00     0.210 HD
ENDBRANCH   8  25
BRANCH   9  27
HETATM   27  O6  UNL     1       1.781   4.391   6.454  1.00  0.00    -0.363 OA
ATOM     28  H6  UNL     1       0.937   3.980   6.602  1.00  0.00     0.213 HD
ENDBRANCH   9  27
BRANCH   9  29
HETATM   29  O7  UNL     1       3.918   3.974   6.791  1.00  0.00    -0.363 OA
ATOM     30  H7  UNL     1       4.459   3.371   7.288  1.00  0.00     0.213 HD
ENDBRANCH   9  29
BRANCH   1  31
HETATM   31  O1  UNL     1       2.844  -2.266   7.695  1.00  0.00    -0.379 OA
BRANCH  31  32
HETATM   32  C3  UNL     1       4.078  -2.919   7.766  1.00  0.00     0.195 C 
BRANCH  32  33
HETATM   33  C2  UNL     1       4.066  -4.165   6.952  1.00  0.00    -0.011 C 
HETATM   34  C1  UNL     1       4.814  -4.225   5.871  1.00  0.00     0.009 C 
ENDBRANCH  32  33
ENDBRANCH  31  32
ENDBRANCH   1  31
BRANCH  14  35
HETATM   35  O8  UNL     1       1.034  -0.784   6.201  1.00  0.00    -0.388 OA
ATOM     36  H8  UNL     1       0.862  -1.233   5.382  1.00  0.00     0.210 HD
ENDBRANCH  14  35
TORSDOF 11
ENDMDL
MODEL 5
REMARK VINA RESULT: -7.307742076      1.681      5.404
REMARK  11 active torsions:
REMARK  status: ('A' for Active; 'I' for Inactive)
REMARK    1  A    between atoms: C2_2  and  C3_3 
REMARK    2  A    between atoms: C3_3  and  O1_4 
REMARK    3  A    between atoms: O1_4  and  C4_5 
REMARK    4  A    between atoms: C8_10  and  O3_11 
REMARK    5  A    between atoms: O3_11  and  C9_12 
REMARK    6  A    between atoms: C9_12  and  C10_14 
REMARK    7  A    between atoms: C11_15  and  C13_17 
REMARK    8  A    between atoms: C17_21  and  O5_22 
REMARK    9  A    between atoms: C18_24  and  O6_25 
REMARK   10  A    between atoms: C18_24  and  O7_27 
REMARK   11  A    between atoms: C23_33  and  O8_35 
ROOT
HETATM    1  C4  UNL     1       5.023   2.177   9.934  1.00  0.00     0.158 C 
HETATM    2  C5  UNL     1       4.228   1.899   8.713  1.00  0.00     0.067 C 
HETATM    3  C6  UNL     1       3.371   3.038   8.220  1.00  0.00     0.133 C 
HETATM    4  O2  UNL     1       2.491   2.534   7.286  1.00  0.00    -0.377 OA
HETATM    5  C7  UNL     1       1.217   2.763   7.678  1.00  0.00     0.162 C 
HETATM    6  C8  UNL     1       0.229   1.681   7.303  1.00  0.00     0.164 C 
HETATM    7  C16 UNL     1      -1.085   2.023   7.868  1.00  0.00     0.072 C 
HETATM    8  C17 UNL     1      -1.173   2.505   9.262  1.00  0.00     0.183 C 
HETATM    9  C18 UNL     1       0.080   3.045   9.888  1.00  0.00     0.193 C 
HETATM   10  C19 UNL     1       1.319   2.740   9.176  1.00  0.00     0.093 C 
HETATM   11  C20 UNL     1       2.502   3.633   9.344  1.00  0.00    -0.004 C 
HETATM   12  C21 UNL     1       2.276   5.066   8.970  1.00  0.00     0.018 C 
HETATM   13  C22 UNL     1       3.161   3.540  10.674  1.00  0.00     0.052 C 
HETATM   14  C23 UNL     1       4.680   3.491  10.592  1.00  0.00     0.081 C 
HETATM   15  C24 UNL     1       5.203   3.573  12.009  1.00  0.00     0.049 C 
ENDROOT
BRANCH   6  16
HETATM   16  O3  UNL     1       0.720   0.397   7.501  1.00  0.00    -0.310 OA
BRANCH  16  17
HETATM   17  C9  UNL     1       1.166  -0.504   6.593  1.00  0.00     0.283 C 
HETATM   18  O4  UNL     1       0.243  -1.332   6.306  1.00  0.00    -0.260 OA
BRANCH  17  19
HETATM   19  C10 UNL     1       2.428  -0.664   5.947  1.00  0.00     0.085 C 
HETATM   20  C11 UNL     1       3.442  -1.420   6.209  1.00  0.00    -0.075 C 
HETATM   21  C12 UNL     1       4.647  -1.372   5.342  1.00  0.00     0.044 C 
BRANCH  20  22
HETATM   22  C13 UNL     1       3.489  -2.349   7.337  1.00  0.00     0.006 C 
HETATM   23  C14 UNL     1       4.002  -3.724   6.928  1.00  0.00     0.014 C 
HETATM   24  C15 UNL     1       4.405  -1.785   8.444  1.00  0.00     0.014 C 
ENDBRANCH  20  22
ENDBRANCH  17  19
ENDBRANCH  16  17
ENDBRANCH   6  16
BRANCH   8  25
HETATM   25  O5  UNL     1      -2.154   3.505   9.421  1.00  0.00    -0.390 OA
ATOM     26  H5  UNL     1      -1.964   4.084  10.151  1.00  0.00     0.210 HD
ENDBRANCH   8  25
BRANCH   9  27
HETATM   27  O6  UNL     1      -0.030   4.432  10.194  1.00  0.00    -0.363 OA
ATOM     28  H6  UNL     1       0.462   4.665  10.972  1.00  0.00     0.213 HD
ENDBRANCH   9  27
BRANCH   9  29
HETATM   29  O7  UNL     1       0.172   2.473  11.183  1.00  0.00    -0.363 OA
ATOM     30  H7  UNL     1       1.096   2.427  11.398  1.00  0.00     0.213 HD
ENDBRANCH   9  29
BRANCH   1  31
HETATM   31  O1  UNL     1       6.395   2.084   9.756  1.00  0.00    -0.379 OA
BRANCH  31  32
HETATM   32  C3  UNL     1       6.847   0.769   9.896  1.00  0.00     0.195 C 
BRANCH  32  33
HETATM   33  C2  UNL     1       6.349   0.168  11.164  1.00  0.00    -0.011 C 
HETATM   34  C1  UNL     1       7.165   0.088  12.193  1.00  0.00     0.009 C 
ENDBRANCH  32  33
ENDBRANCH  31  32
ENDBRANCH   1  31
BRANCH  14  35
HETATM   35  O8  UNL     1       5.194   4.582   9.904  1.00  0.00    -0.388 OA
ATOM     36  H8  UNL     1       4.517   5.112   9.502  1.00  0.00     0.210 HD
ENDBRANCH  14  35
TORSDOF 11
ENDMDL
