MODEL 1
REMARK VINA RESULT: -7.836397977      0.000      0.000
REMARK  7 active torsions:
REMARK  status: ('A' for Active; 'I' for Inactive)
REMARK    1  A    between atoms: S1_2  and  C2_3 
REMARK    2  A    between atoms: C4_8  and  C5_9 
REMARK    3  A    between atoms: C5_9  and  C6_13 
REMARK    4  A    between atoms: C6_13  and  N3_14 
REMARK    5  A    between atoms: C8_16  and  C9_17 
REMARK       I    between atoms: C9_17  and  N4_19 
REMARK    6  A    between atoms: C13_27  and  N6_28 
REMARK       I    between atoms: N6_28  and  C14_30 
REMARK    7  A    between atoms: C14_30  and  C15_32 
ROOT
HETATM    1  C2  UNL     1       6.777   1.217  10.117  1.00  0.00     0.148 A 
HETATM    2  N1  UNL     1       6.620   0.120   9.390  1.00  0.00    -0.303 N 
ATOM      3  H1  UNL     1       7.426  -0.466   9.174  1.00  0.00     0.171 HD
HETATM    4  C3  UNL     1       5.381  -0.230   8.928  1.00  0.00     0.263 A 
HETATM    5  O1  UNL     1       5.300  -1.266   8.257  1.00  0.00    -0.267 OA
HETATM    6  C4  UNL     1       4.252   0.531   9.192  1.00  0.00     0.100 A 
HETATM    7  C13 UNL     1       4.432   1.671   9.955  1.00  0.00     0.127 A 
HETATM    8  N7  UNL     1       5.705   1.956  10.381  1.00  0.00    -0.322 N 
ATOM      9  H7  UNL     1       5.838   2.798  10.941  1.00  0.00     0.169 HD
ENDROOT
BRANCH   6  10
HETATM   10  C5  UNL     1       2.963   0.166   8.625  1.00  0.00     0.041 C 
HETATM   11  N2  UNL     1       2.309  -0.840   8.992  1.00  0.00    -0.400 N 
ATOM     12  H22 UNL     1       2.736  -1.417   9.716  1.00  0.00     0.156 HD
ATOM     13  H21 UNL     1       1.405  -1.095   8.594  1.00  0.00     0.156 HD
BRANCH  10  14
HETATM   14  C6  UNL     1       2.331   1.020   7.553  1.00  0.00     0.188 C 
BRANCH  14  15
HETATM   15  N3  UNL     1       2.573   0.416   6.206  1.00  0.00    -0.331 N 
HETATM   16  C7  UNL     1       3.779   0.282   5.724  1.00  0.00     0.118 A 
HETATM   17  C8  UNL     1       3.912  -0.261   4.476  1.00  0.00     0.091 A 
HETATM   18  S2  UNL     1       2.282  -0.560   4.044  1.00  0.00    -0.047 SA
HETATM   19  C12 UNL     1       1.544   0.020   5.462  1.00  0.00     0.145 A 
HETATM   20  N5  UNL     1       0.269   0.077   5.792  1.00  0.00    -0.379 N 
ATOM     21  H52 UNL     1      -0.174   0.424   6.642  1.00  0.00     0.158 HD
ATOM     22  H51 UNL     1      -0.520  -0.227   5.222  1.00  0.00     0.158 HD
BRANCH  17  23
HETATM   23  C9  UNL     1       5.149  -0.518   3.715  1.00  0.00     0.261 C 
HETATM   24  O2  UNL     1       5.833  -1.511   4.113  1.00  0.00    -0.267 OA
HETATM   25  N4  UNL     1       5.565   0.262   2.627  1.00  0.00    -0.356 N 
HETATM   26  C10 UNL     1       4.793   1.384   2.166  1.00  0.00     0.152 C 
HETATM   27  C11 UNL     1       6.803  -0.073   1.959  1.00  0.00     0.152 C 
ENDBRANCH  17  23
ENDBRANCH  14  15
ENDBRANCH  10  14
ENDBRANCH   6  10
BRANCH   7  28
HETATM   28  N6  UNL     1       3.359   2.458  10.393  1.00  0.00    -0.311 N 
HETATM   29  C14 UNL     1       3.199   3.859  10.170  1.00  0.00     0.230 C 
HETATM   30  O3  UNL     1       3.931   4.586   9.483  1.00  0.00    -0.272 OA
ATOM     31  H6  UNL     1       2.623   1.986  10.920  1.00  0.00     0.170 HD
BRANCH  29  32
HETATM   32  C15 UNL     1       2.044   4.577  10.815  1.00  0.00     0.030 C 
HETATM   33  C16 UNL     1       0.849   3.703  10.840  1.00  0.00     0.025 C 
HETATM   34  C17 UNL     1       2.391   5.213  12.115  1.00  0.00     0.025 C 
HETATM   35  C18 UNL     1       1.751   5.735   9.838  1.00  0.00     0.025 C 
ENDBRANCH  29  32
ENDBRANCH   7  28
BRANCH   1  36
HETATM   36  S1  UNL     1       8.410   1.665  10.713  1.00  0.00    -0.098 SA
HETATM   37  C1  UNL     1       8.550   3.467  10.902  1.00  0.00     0.099 C 
ENDBRANCH   1  36
TORSDOF 7
ENDMDL
MODEL 2
REMARK VINA RESULT: -7.836359585      2.603      4.513
REMARK  7 active torsions:
REMARK  status: ('A' for Active; 'I' for Inactive)
REMARK    1  A    between atoms: S1_2  and  C2_3 
REMARK    2  A    between atoms: C4_8  and  C5_9 
REMARK    3  A    between atoms: C5_9  and  C6_13 
REMARK    4  A    between atoms: C6_13  and  N3_14 
REMARK    5  A    between atoms: C8_16  and  C9_17 
REMARK       I    between atoms: C9_17  and  N4_19 
REMARK    6  A    between atoms: C13_27  and  N6_28 
REMARK       I    between atoms: N6_28  and  C14_30 
REMARK    7  A    between atoms: C14_30  and  C15_32 
ROOT
HETATM    1  C2  UNL     1       1.583   3.201  10.028  1.00  0.00     0.148 A 
HETATM    2  N1  UNL     1       0.670   2.539   9.331  1.00  0.00    -0.303 N 
ATOM      3  H1  UNL     1      -0.233   2.972   9.138  1.00  0.00     0.171 HD
HETATM    4  C3  UNL     1       0.934   1.278   8.871  1.00  0.00     0.263 A 
HETATM    5  O1  UNL     1       0.041   0.715   8.227  1.00  0.00    -0.267 OA
HETATM    6  C4  UNL     1       2.144   0.644   9.105  1.00  0.00     0.100 A 
HETATM    7  C13 UNL     1       3.088   1.349   9.830  1.00  0.00     0.127 A 
HETATM    8  N7  UNL     1       2.750   2.608  10.259  1.00  0.00    -0.322 N 
ATOM      9  H7  UNL     1       3.445   3.127  10.796  1.00  0.00     0.169 HD
ENDROOT
BRANCH   6  10
HETATM   10  C5  UNL     1       2.362  -0.724   8.661  1.00  0.00     0.041 C 
HETATM   11  N2  UNL     1       1.463  -1.434   8.151  1.00  0.00    -0.400 N 
ATOM     12  H22 UNL     1       0.541  -1.006   8.070  1.00  0.00     0.156 HD
ATOM     13  H21 UNL     1       1.616  -2.393   7.839  1.00  0.00     0.156 HD
BRANCH  10  14
HETATM   14  C6  UNL     1       3.727  -1.358   8.781  1.00  0.00     0.188 C 
BRANCH  14  15
HETATM   15  N3  UNL     1       4.192  -1.835   7.441  1.00  0.00    -0.331 N 
HETATM   16  C7  UNL     1       4.608  -1.002   6.526  1.00  0.00     0.118 A 
HETATM   17  C8  UNL     1       4.996  -1.519   5.321  1.00  0.00     0.091 A 
HETATM   18  S2  UNL     1       4.745  -3.197   5.557  1.00  0.00    -0.047 SA
HETATM   19  C12 UNL     1       4.167  -3.134   7.155  1.00  0.00     0.145 A 
HETATM   20  N5  UNL     1       3.783  -4.107   7.957  1.00  0.00    -0.379 N 
ATOM     21  H52 UNL     1       3.437  -4.070   8.916  1.00  0.00     0.158 HD
ATOM     22  H51 UNL     1       3.765  -5.103   7.738  1.00  0.00     0.158 HD
BRANCH  17  23
HETATM   23  C9  UNL     1       5.502  -0.802   4.136  1.00  0.00     0.261 C 
HETATM   24  O2  UNL     1       6.765  -0.774   4.017  1.00  0.00    -0.267 OA
HETATM   25  N4  UNL     1       4.669  -0.183   3.192  1.00  0.00    -0.356 N 
HETATM   26  C10 UNL     1       3.237  -0.216   3.315  1.00  0.00     0.152 C 
HETATM   27  C11 UNL     1       5.272   0.504   2.071  1.00  0.00     0.152 C 
ENDBRANCH  17  23
ENDBRANCH  14  15
ENDBRANCH  10  14
ENDBRANCH   6  10
BRANCH   7  28
HETATM   28  N6  UNL     1       4.390   0.872  10.031  1.00  0.00    -0.311 N 
HETATM   29  C14 UNL     1       5.468   1.596  10.625  1.00  0.00     0.230 C 
HETATM   30  O3  UNL     1       5.407   2.723  11.138  1.00  0.00    -0.272 OA
ATOM     31  H6  UNL     1       4.586  -0.082   9.725  1.00  0.00     0.170 HD
BRANCH  29  32
HETATM   32  C15 UNL     1       6.839   0.976  10.656  1.00  0.00     0.030 C 
HETATM   33  C16 UNL     1       7.045   0.134   9.455  1.00  0.00     0.025 C 
HETATM   34  C17 UNL     1       7.926   1.951  10.939  1.00  0.00     0.025 C 
HETATM   35  C18 UNL     1       6.781   0.035  11.877  1.00  0.00     0.025 C 
ENDBRANCH  29  32
ENDBRANCH   7  28
BRANCH   1  36
HETATM   36  S1  UNL     1       1.222   4.853  10.628  1.00  0.00    -0.098 SA
HETATM   37  C1  UNL     1      -0.392   4.892  11.462  1.00  0.00     0.099 C 
ENDBRANCH   1  36
TORSDOF 7
ENDMDL
MODEL 3
REMARK VINA RESULT: -7.816535428      1.014      1.340
REMARK  7 active torsions:
REMARK  status: ('A' for Active; 'I' for Inactive)
REMARK    1  A    between atoms: S1_2  and  C2_3 
REMARK    2  A    between atoms: C4_8  and  C5_9 
REMARK    3  A    between atoms: C5_9  and  C6_13 
REMARK    4  A    between atoms: C6_13  and  N3_14 
REMARK    5  A    between atoms: C8_16  and  C9_17 
REMARK       I    between atoms: C9_17  and  N4_19 
REMARK    6  A    between atoms: C13_27  and  N6_28 
REMARK       I    between atoms: N6_28  and  C14_30 
REMARK    7  A    between atoms: C14_30  and  C15_32 
ROOT
HETATM    1  C2  UNL     1       7.314   2.569  10.731  1.00  0.00     0.148 A 
HETATM    2  N1  UNL     1       7.399   1.408  10.097  1.00  0.00    -0.303 N 
ATOM      3  H1  UNL     1       8.311   0.976   9.949  1.00  0.00     0.171 HD
HETATM    4  C3  UNL     1       6.269   0.787   9.640  1.00  0.00     0.263 A 
HETATM    5  O1  UNL     1       6.416  -0.294   9.058  1.00  0.00    -0.267 OA
HETATM    6  C4  UNL     1       5.006   1.330   9.814  1.00  0.00     0.100 A 
HETATM    7  C13 UNL     1       4.933   2.540  10.481  1.00  0.00     0.127 A 
HETATM    8  N7  UNL     1       6.109   3.102  10.909  1.00  0.00    -0.322 N 
ATOM      9  H7  UNL     1       6.056   3.996  11.399  1.00  0.00     0.169 HD
ENDROOT
BRANCH   6  10
HETATM   10  C5  UNL     1       3.834   0.676   9.252  1.00  0.00     0.041 C 
HETATM   11  N2  UNL     1       3.406  -0.432   9.652  1.00  0.00    -0.400 N 
ATOM     12  H22 UNL     1       3.937  -0.878  10.400  1.00  0.00     0.156 HD
ATOM     13  H21 UNL     1       2.584  -0.891   9.258  1.00  0.00     0.156 HD
BRANCH  10  14
HETATM   14  C6  UNL     1       3.049   1.336   8.144  1.00  0.00     0.188 C 
BRANCH  14  15
HETATM   15  N3  UNL     1       3.098   0.494   6.908  1.00  0.00    -0.331 N 
HETATM   16  C7  UNL     1       4.190   0.381   6.202  1.00  0.00     0.118 A 
HETATM   17  C8  UNL     1       4.145  -0.392   5.075  1.00  0.00     0.091 A 
HETATM   18  S2  UNL     1       2.519  -0.929   5.078  1.00  0.00    -0.047 SA
HETATM   19  C12 UNL     1       2.006  -0.144   6.497  1.00  0.00     0.145 A 
HETATM   20  N5  UNL     1       0.827  -0.142   7.086  1.00  0.00    -0.379 N 
ATOM     21  H52 UNL     1       0.519   0.329   7.937  1.00  0.00     0.158 HD
ATOM     22  H51 UNL     1      -0.010  -0.632   6.771  1.00  0.00     0.158 HD
BRANCH  17  23
HETATM   23  C9  UNL     1       5.228  -0.681   4.117  1.00  0.00     0.261 C 
HETATM   24  O2  UNL     1       5.991  -1.645   4.435  1.00  0.00    -0.267 OA
HETATM   25  N4  UNL     1       5.427   0.043   2.932  1.00  0.00    -0.356 N 
HETATM   26  C10 UNL     1       4.564   1.131   2.560  1.00  0.00     0.152 C 
HETATM   27  C11 UNL     1       6.530  -0.319   2.069  1.00  0.00     0.152 C 
ENDBRANCH  17  23
ENDBRANCH  14  15
ENDBRANCH  10  14
ENDBRANCH   6  10
BRANCH   7  28
HETATM   28  N6  UNL     1       3.712   3.134  10.828  1.00  0.00    -0.311 N 
HETATM   29  C14 UNL     1       3.084   4.221  10.148  1.00  0.00     0.230 C 
HETATM   30  O3  UNL     1       3.467   4.754   9.096  1.00  0.00    -0.272 OA
ATOM     31  H6  UNL     1       3.227   2.754  11.641  1.00  0.00     0.170 HD
BRANCH  29  32
HETATM   32  C15 UNL     1       1.830   4.820  10.724  1.00  0.00     0.030 C 
HETATM   33  C16 UNL     1       1.514   6.097  10.043  1.00  0.00     0.025 C 
HETATM   34  C17 UNL     1       0.700   3.857  10.819  1.00  0.00     0.025 C 
HETATM   35  C18 UNL     1       2.227   5.156  12.177  1.00  0.00     0.025 C 
ENDBRANCH  29  32
ENDBRANCH   7  28
BRANCH   1  36
HETATM   36  S1  UNL     1       8.805   3.374  11.323  1.00  0.00    -0.098 SA
HETATM   37  C1  UNL     1      10.213   2.988  10.240  1.00  0.00     0.099 C 
ENDBRANCH   1  36
TORSDOF 7
ENDMDL
MODEL 4
REMARK VINA RESULT: -7.794743371      1.603      1.661
REMARK  7 active torsions:
REMARK  status: ('A' for Active; 'I' for Inactive)
REMARK    1  A    between atoms: S1_2  and  C2_3 
REMARK    2  A    between atoms: C4_8  and  C5_9 
REMARK    3  A    between atoms: C5_9  and  C6_13 
REMARK    4  A    between atoms: C6_13  and  N3_14 
REMARK    5  A    between atoms: C8_16  and  C9_17 
REMARK       I    between atoms: C9_17  and  N4_19 
REMARK    6  A    between atoms: C13_27  and  N6_28 
REMARK       I    between atoms: N6_28  and  C14_30 
REMARK    7  A    between atoms: C14_30  and  C15_32 
ROOT
HETATM    1  C2  UNL     1       7.108   2.722  10.564  1.00  0.00     0.148 A 
HETATM    2  N1  UNL     1       7.206   1.401  10.608  1.00  0.00    -0.303 N 
ATOM      3  H1  UNL     1       8.099   0.965  10.841  1.00  0.00     0.171 HD
HETATM    4  C3  UNL     1       6.116   0.619  10.342  1.00  0.00     0.263 A 
HETATM    5  O1  UNL     1       6.273  -0.607  10.401  1.00  0.00    -0.267 OA
HETATM    6  C4  UNL     1       4.880   1.158  10.020  1.00  0.00     0.100 A 
HETATM    7  C13 UNL     1       4.793   2.539   9.983  1.00  0.00     0.127 A 
HETATM    8  N7  UNL     1       5.929   3.255  10.260  1.00  0.00    -0.322 N 
ATOM      9  H7  UNL     1       5.866   4.273  10.230  1.00  0.00     0.169 HD
ENDROOT
BRANCH   6  10
HETATM   10  C5  UNL     1       3.762   0.295   9.674  1.00  0.00     0.041 C 
HETATM   11  N2  UNL     1       3.420  -0.698  10.360  1.00  0.00    -0.400 N 
ATOM     12  H22 UNL     1       3.983  -0.890  11.188  1.00  0.00     0.156 HD
ATOM     13  H21 UNL     1       2.636  -1.303  10.118  1.00  0.00     0.156 HD
BRANCH  10  14
HETATM   14  C6  UNL     1       2.928   0.579   8.448  1.00  0.00     0.188 C 
BRANCH  14  15
HETATM   15  N3  UNL     1       3.328  -0.334   7.332  1.00  0.00    -0.331 N 
HETATM   16  C7  UNL     1       4.222   0.018   6.449  1.00  0.00     0.118 A 
HETATM   17  C8  UNL     1       4.515  -0.868   5.449  1.00  0.00     0.091 A 
HETATM   18  S2  UNL     1       3.484  -2.182   5.825  1.00  0.00    -0.047 SA
HETATM   19  C12 UNL     1       2.753  -1.527   7.214  1.00  0.00     0.145 A 
HETATM   20  N5  UNL     1       1.840  -2.041   8.014  1.00  0.00    -0.379 N 
ATOM     21  H52 UNL     1       1.401  -1.649   8.847  1.00  0.00     0.158 HD
ATOM     22  H51 UNL     1       1.399  -2.957   7.924  1.00  0.00     0.158 HD
BRANCH  17  23
HETATM   23  C9  UNL     1       5.478  -0.715   4.342  1.00  0.00     0.261 C 
HETATM   24  O2  UNL     1       6.675  -1.038   4.615  1.00  0.00    -0.267 OA
HETATM   25  N4  UNL     1       5.125  -0.247   3.068  1.00  0.00    -0.356 N 
HETATM   26  C10 UNL     1       3.770   0.113   2.747  1.00  0.00     0.152 C 
HETATM   27  C11 UNL     1       6.152  -0.126   2.058  1.00  0.00     0.152 C 
ENDBRANCH  17  23
ENDBRANCH  14  15
ENDBRANCH  10  14
ENDBRANCH   6  10
BRANCH   7  28
HETATM   28  N6  UNL     1       3.577   3.208   9.790  1.00  0.00    -0.311 N 
HETATM   29  C14 UNL     1       2.860   3.947  10.779  1.00  0.00     0.230 C 
HETATM   30  O3  UNL     1       3.235   4.192  11.935  1.00  0.00    -0.272 OA
ATOM     31  H6  UNL     1       3.167   3.164   8.857  1.00  0.00     0.170 HD
BRANCH  29  32
HETATM   32  C15 UNL     1       1.504   4.505  10.438  1.00  0.00     0.030 C 
HETATM   33  C16 UNL     1       0.747   3.537   9.613  1.00  0.00     0.025 C 
HETATM   34  C17 UNL     1       0.771   5.046  11.613  1.00  0.00     0.025 C 
HETATM   35  C18 UNL     1       1.831   5.720   9.543  1.00  0.00     0.025 C 
ENDBRANCH  29  32
ENDBRANCH   7  28
BRANCH   1  36
HETATM   36  S1  UNL     1       8.548   3.735  10.912  1.00  0.00    -0.098 SA
HETATM   37  C1  UNL     1      10.061   2.925  10.313  1.00  0.00     0.099 C 
ENDBRANCH   1  36
TORSDOF 7
ENDMDL
MODEL 5
REMARK VINA RESULT: -7.702841206      2.670      4.528
REMARK  7 active torsions:
REMARK  status: ('A' for Active; 'I' for Inactive)
REMARK    1  A    between atoms: S1_2  and  C2_3 
REMARK    2  A    between atoms: C4_8  and  C5_9 
REMARK    3  A    between atoms: C5_9  and  C6_13 
REMARK    4  A    between atoms: C6_13  and  N3_14 
REMARK    5  A    between atoms: C8_16  and  C9_17 
REMARK       I    between atoms: C9_17  and  N4_19 
REMARK    6  A    between atoms: C13_27  and  N6_28 
REMARK       I    between atoms: N6_28  and  C14_30 
REMARK    7  A    between atoms: C14_30  and  C15_32 
ROOT
HETATM    1  C2  UNL     1       1.848   2.917  10.243  1.00  0.00     0.148 A 
HETATM    2  N1  UNL     1       1.172   2.200   9.355  1.00  0.00    -0.303 N 
ATOM      3  H1  UNL     1       0.249   2.510   9.050  1.00  0.00     0.171 HD
HETATM    4  C3  UNL     1       1.706   1.049   8.847  1.00  0.00     0.263 A 
HETATM    5  O1  UNL     1       1.026   0.427   8.022  1.00  0.00    -0.267 OA
HETATM    6  C4  UNL     1       2.956   0.583   9.226  1.00  0.00     0.100 A 
HETATM    7  C13 UNL     1       3.651   1.343  10.150  1.00  0.00     0.127 A 
HETATM    8  N7  UNL     1       3.048   2.485  10.616  1.00  0.00    -0.322 N 
ATOM      9  H7  UNL     1       3.560   3.045  11.299  1.00  0.00     0.169 HD
ENDROOT
BRANCH   6  10
HETATM   10  C5  UNL     1       3.461  -0.683   8.718  1.00  0.00     0.041 C 
HETATM   11  N2  UNL     1       2.974  -1.794   9.033  1.00  0.00    -0.400 N 
ATOM     12  H22 UNL     1       2.195  -1.777   9.691  1.00  0.00     0.156 HD
ATOM     13  H21 UNL     1       3.329  -2.682   8.676  1.00  0.00     0.156 HD
BRANCH  10  14
HETATM   14  C6  UNL     1       4.615  -0.709   7.745  1.00  0.00     0.188 C 
BRANCH  14  15
HETATM   15  N3  UNL     1       4.123  -0.434   6.358  1.00  0.00    -0.331 N 
HETATM   16  C7  UNL     1       3.857   0.779   5.956  1.00  0.00     0.118 A 
HETATM   17  C8  UNL     1       3.392   0.942   4.680  1.00  0.00     0.091 A 
HETATM   18  S2  UNL     1       3.358  -0.672   4.107  1.00  0.00    -0.047 SA
HETATM   19  C12 UNL     1       3.930  -1.441   5.511  1.00  0.00     0.145 A 
HETATM   20  N5  UNL     1       4.149  -2.719   5.749  1.00  0.00    -0.379 N 
ATOM     21  H52 UNL     1       4.492  -3.181   6.591  1.00  0.00     0.158 HD
ATOM     22  H51 UNL     1       4.002  -3.492   5.099  1.00  0.00     0.158 HD
BRANCH  17  23
HETATM   23  C9  UNL     1       3.024   2.192   3.990  1.00  0.00     0.261 C 
HETATM   24  O2  UNL     1       3.913   2.669   3.219  1.00  0.00    -0.267 OA
HETATM   25  N4  UNL     1       1.788   2.833   4.158  1.00  0.00    -0.356 N 
HETATM   26  C10 UNL     1       0.773   2.298   5.024  1.00  0.00     0.152 C 
HETATM   27  C11 UNL     1       1.535   4.063   3.441  1.00  0.00     0.152 C 
ENDBRANCH  17  23
ENDBRANCH  14  15
ENDBRANCH  10  14
ENDBRANCH   6  10
BRANCH   7  28
HETATM   28  N6  UNL     1       4.968   1.049  10.525  1.00  0.00    -0.311 N 
HETATM   29  C14 UNL     1       5.959   1.996  10.924  1.00  0.00     0.230 C 
HETATM   30  O3  UNL     1       5.793   3.214  11.089  1.00  0.00    -0.272 OA
ATOM     31  H6  UNL     1       5.245   0.067  10.512  1.00  0.00     0.170 HD
BRANCH  29  32
HETATM   32  C15 UNL     1       7.365   1.524  11.178  1.00  0.00     0.030 C 
HETATM   33  C16 UNL     1       8.277   2.683  11.311  1.00  0.00     0.025 C 
HETATM   34  C17 UNL     1       7.465   0.511  12.263  1.00  0.00     0.025 C 
HETATM   35  C18 UNL     1       7.738   0.788   9.873  1.00  0.00     0.025 C 
ENDBRANCH  29  32
ENDBRANCH   7  28
BRANCH   1  36
HETATM   36  S1  UNL     1       1.132   4.424  10.904  1.00  0.00    -0.098 SA
HETATM   37  C1  UNL     1       2.300   5.247  12.027  1.00  0.00     0.099 C 
ENDBRANCH   1  36
TORSDOF 7
ENDMDL
