MODEL 1
REMARK VINA RESULT: -6.565211272      0.000      0.000
REMARK  10 active torsions:
REMARK  status: ('A' for Active; 'I' for Inactive)
REMARK    1  A    between atoms: C5_5  and  O1_6 
REMARK    2  A    between atoms: C9_11  and  C10_12 
REMARK    3  A    between atoms: C10_12  and  O2_13 
REMARK    4  A    between atoms: C10_12  and  C11_15 
REMARK    5  A    between atoms: C11_15  and  O3_16 
REMARK    6  A    between atoms: C12_18  and  C13_19 
REMARK    7  A    between atoms: C19_27  and  C20_28 
REMARK    8  A    between atoms: C21_29  and  C22_30 
REMARK    9  A    between atoms: C22_30  and  C23_31 
REMARK   10  A    between atoms: C23_31  and  C24_33 
ROOT
HETATM    1  C11 UNL     1       2.988   0.922   6.186  1.00  0.00     0.123 C 
HETATM    2  C12 UNL     1       1.790   0.316   5.554  1.00  0.00     0.026 C 
HETATM    3  C15 UNL     1       2.248  -0.670   4.450  1.00  0.00     0.210 C 
HETATM    4  O5  UNL     1       3.584  -0.816   4.342  1.00  0.00    -0.376 OA
HETATM    5  C16 UNL     1       4.310  -1.019   5.458  1.00  0.00     0.064 C 
HETATM    6  C17 UNL     1       4.053  -2.431   5.954  1.00  0.00     0.046 C 
HETATM    7  C18 UNL     1       5.789  -1.030   5.024  1.00  0.00     0.046 C 
HETATM    8  C19 UNL     1       4.109   0.021   6.580  1.00  0.00     0.083 C 
ENDROOT
BRANCH   1   9
HETATM    9  C10 UNL     1       2.938   2.314   6.713  1.00  0.00     0.166 C 
BRANCH   9  10
HETATM   10  C9  UNL     1       2.594   2.695   8.056  1.00  0.00     0.056 C 
HETATM   11  C2  UNL     1       1.289   2.429   8.679  1.00  0.00    -0.082 C 
HETATM   12  C1  UNL     1       0.085   2.553   8.204  1.00  0.00     0.015 C 
HETATM   13  C3  UNL     1       1.359   2.013  10.149  1.00  0.00     0.036 C 
HETATM   14  C4  UNL     1       2.278   3.102  10.729  1.00  0.00     0.037 C 
HETATM   15  C5  UNL     1       2.206   4.322   9.886  1.00  0.00     0.127 C 
HETATM   16  C6  UNL     1       2.826   4.157   8.482  1.00  0.00    -0.012 C 
HETATM   17  C7  UNL     1       4.260   4.526   8.676  1.00  0.00     0.018 C 
HETATM   18  C8  UNL     1       2.154   5.145   7.605  1.00  0.00     0.018 C 
BRANCH  15  19
HETATM   19  O1  UNL     1       0.955   4.923   9.839  1.00  0.00    -0.395 OA
ATOM     20  H1  UNL     1       0.906   5.772  10.264  1.00  0.00     0.210 HD
ENDBRANCH  15  19
ENDBRANCH   9  10
BRANCH   9  21
HETATM   21  O2  UNL     1       4.324   2.790   6.594  1.00  0.00    -0.391 OA
ATOM     22  H2  UNL     1       4.232   3.547   6.027  1.00  0.00     0.210 HD
ENDBRANCH   9  21
ENDBRANCH   1   9
BRANCH   1  23
HETATM   23  O3  UNL     1       3.599   1.342   4.864  1.00  0.00    -0.382 OA
ATOM     24  H3  UNL     1       2.811   1.150   4.370  1.00  0.00     0.211 HD
ENDBRANCH   1  23
BRANCH   2  25
HETATM   25  C13 UNL     1       0.627  -0.205   6.189  1.00  0.00     0.153 C 
HETATM   26  C14 UNL     1       0.424  -1.072   7.363  1.00  0.00     0.096 C 
HETATM   27  O4  UNL     1      -0.514   0.077   5.721  1.00  0.00    -0.293 OA
ENDBRANCH   2  25
BRANCH   8  28
HETATM   28  C20 UNL     1       4.064  -0.742   7.802  1.00  0.00    -0.019 C 
HETATM   29  C21 UNL     1       4.640  -0.400   8.920  1.00  0.00    -0.022 C 
BRANCH  29  30
HETATM   30  C22 UNL     1       5.453   0.783   9.233  1.00  0.00     0.117 C 
BRANCH  30  31
HETATM   31  C23 UNL     1       6.388   0.420  10.349  1.00  0.00     0.228 C 
HETATM   32  O6  UNL     1       6.032  -0.404  11.214  1.00  0.00    -0.285 OA
BRANCH  31  33
HETATM   33  C24 UNL     1       7.692   1.025  10.418  1.00  0.00     0.247 C 
HETATM   34  O7  UNL     1       7.963   1.839  11.329  1.00  0.00    -0.642 OA
HETATM   35  O8  UNL     1       8.674   0.727   9.489  1.00  0.00    -0.642 OA
ENDBRANCH  31  33
ENDBRANCH  30  31
ENDBRANCH  29  30
ENDBRANCH   8  28
TORSDOF 10
ENDMDL
MODEL 2
REMARK VINA RESULT: -6.438539826      1.920      6.691
REMARK  10 active torsions:
REMARK  status: ('A' for Active; 'I' for Inactive)
REMARK    1  A    between atoms: C5_5  and  O1_6 
REMARK    2  A    between atoms: C9_11  and  C10_12 
REMARK    3  A    between atoms: C10_12  and  O2_13 
REMARK    4  A    between atoms: C10_12  and  C11_15 
REMARK    5  A    between atoms: C11_15  and  O3_16 
REMARK    6  A    between atoms: C12_18  and  C13_19 
REMARK    7  A    between atoms: C19_27  and  C20_28 
REMARK    8  A    between atoms: C21_29  and  C22_30 
REMARK    9  A    between atoms: C22_30  and  C23_31 
REMARK   10  A    between atoms: C23_31  and  C24_33 
ROOT
HETATM    1  C11 UNL     1       4.287   2.565   8.930  1.00  0.00     0.123 C 
HETATM    2  C12 UNL     1       5.489   2.679   9.793  1.00  0.00     0.026 C 
HETATM    3  C15 UNL     1       5.526   4.095  10.420  1.00  0.00     0.210 C 
HETATM    4  O5  UNL     1       4.469   4.874  10.116  1.00  0.00    -0.376 OA
HETATM    5  C16 UNL     1       3.228   4.364  10.229  1.00  0.00     0.064 C 
HETATM    6  C17 UNL     1       2.888   4.233  11.704  1.00  0.00     0.046 C 
HETATM    7  C18 UNL     1       2.259   5.443   9.708  1.00  0.00     0.046 C 
HETATM    8  C19 UNL     1       2.982   3.041   9.472  1.00  0.00     0.083 C 
ENDROOT
BRANCH   1   9
HETATM    9  C10 UNL     1       4.313   1.706   7.713  1.00  0.00     0.166 C 
BRANCH   9  10
HETATM   10  C9  UNL     1       3.317   0.739   7.341  1.00  0.00     0.056 C 
HETATM   11  C2  UNL     1       2.807  -0.305   8.241  1.00  0.00    -0.082 C 
HETATM   12  C1  UNL     1       3.435  -1.088   9.068  1.00  0.00     0.015 C 
HETATM   13  C3  UNL     1       1.304  -0.564   8.127  1.00  0.00     0.036 C 
HETATM   14  C4  UNL     1       1.136  -0.714   6.606  1.00  0.00     0.037 C 
HETATM   15  C5  UNL     1       2.421  -1.142   5.997  1.00  0.00     0.127 C 
HETATM   16  C6  UNL     1       3.531  -0.070   6.049  1.00  0.00    -0.012 C 
HETATM   17  C7  UNL     1       3.337   0.709   4.789  1.00  0.00     0.018 C 
HETATM   18  C8  UNL     1       4.822  -0.797   6.011  1.00  0.00     0.018 C 
BRANCH  15  19
HETATM   19  O1  UNL     1       2.875  -2.387   6.413  1.00  0.00    -0.395 OA
ATOM     20  H1  UNL     1       3.679  -2.676   5.996  1.00  0.00     0.210 HD
ENDBRANCH  15  19
ENDBRANCH   9  10
BRANCH   9  21
HETATM   21  O2  UNL     1       4.256   2.665   6.599  1.00  0.00    -0.391 OA
ATOM     22  H2  UNL     1       3.975   3.463   7.030  1.00  0.00     0.210 HD
ENDBRANCH   9  21
ENDBRANCH   1   9
BRANCH   1  23
HETATM   23  O3  UNL     1       4.595   3.833   8.160  1.00  0.00    -0.382 OA
ATOM     24  H3  UNL     1       5.444   3.947   8.569  1.00  0.00     0.211 HD
ENDBRANCH   1  23
BRANCH   2  25
HETATM   25  C13 UNL     1       5.987   1.738  10.740  1.00  0.00     0.153 C 
HETATM   26  C14 UNL     1       5.904   0.270  10.839  1.00  0.00     0.096 C 
HETATM   27  O4  UNL     1       6.646   2.152  11.737  1.00  0.00    -0.293 OA
ENDBRANCH   2  25
BRANCH   8  28
HETATM   28  C20 UNL     1       2.201   2.228  10.370  1.00  0.00    -0.019 C 
HETATM   29  C21 UNL     1       0.904   2.106  10.333  1.00  0.00    -0.022 C 
BRANCH  29  30
HETATM   30  C22 UNL     1      -0.071   2.727   9.427  1.00  0.00     0.117 C 
BRANCH  30  31
HETATM   31  C23 UNL     1      -1.227   3.212  10.252  1.00  0.00     0.228 C 
HETATM   32  O6  UNL     1      -2.363   2.729  10.072  1.00  0.00    -0.285 OA
BRANCH  31  33
HETATM   33  C24 UNL     1      -1.022   4.231  11.245  1.00  0.00     0.247 C 
HETATM   34  O7  UNL     1      -1.011   5.439  10.918  1.00  0.00    -0.642 OA
HETATM   35  O8  UNL     1      -0.834   3.910  12.579  1.00  0.00    -0.642 OA
ENDBRANCH  31  33
ENDBRANCH  30  31
ENDBRANCH  29  30
ENDBRANCH   8  28
TORSDOF 10
ENDMDL
MODEL 3
REMARK VINA RESULT: -6.437036544      1.753      5.419
REMARK  10 active torsions:
REMARK  status: ('A' for Active; 'I' for Inactive)
REMARK    1  A    between atoms: C5_5  and  O1_6 
REMARK    2  A    between atoms: C9_11  and  C10_12 
REMARK    3  A    between atoms: C10_12  and  O2_13 
REMARK    4  A    between atoms: C10_12  and  C11_15 
REMARK    5  A    between atoms: C11_15  and  O3_16 
REMARK    6  A    between atoms: C12_18  and  C13_19 
REMARK    7  A    between atoms: C19_27  and  C20_28 
REMARK    8  A    between atoms: C21_29  and  C22_30 
REMARK    9  A    between atoms: C22_30  and  C23_31 
REMARK   10  A    between atoms: C23_31  and  C24_33 
ROOT
HETATM    1  C11 UNL     1       3.606   3.291   8.883  1.00  0.00     0.123 C 
HETATM    2  C12 UNL     1       2.430   4.173   9.079  1.00  0.00     0.026 C 
HETATM    3  C15 UNL     1       2.008   4.761   7.710  1.00  0.00     0.210 C 
HETATM    4  O5  UNL     1       2.726   4.316   6.659  1.00  0.00    -0.376 OA
HETATM    5  C16 UNL     1       2.947   2.994   6.533  1.00  0.00     0.064 C 
HETATM    6  C17 UNL     1       1.651   2.322   6.114  1.00  0.00     0.046 C 
HETATM    7  C18 UNL     1       3.879   2.817   5.319  1.00  0.00     0.046 C 
HETATM    8  C19 UNL     1       3.569   2.304   7.766  1.00  0.00     0.083 C 
ENDROOT
BRANCH   1   9
HETATM    9  C10 UNL     1       4.634   3.157   9.953  1.00  0.00     0.166 C 
BRANCH   9  10
HETATM   10  C9  UNL     1       5.712   2.206   9.974  1.00  0.00     0.056 C 
HETATM   11  C2  UNL     1       5.525   0.754  10.102  1.00  0.00    -0.082 C 
HETATM   12  C1  UNL     1       4.741   0.068  10.879  1.00  0.00     0.015 C 
HETATM   13  C3  UNL     1       6.462  -0.086   9.233  1.00  0.00     0.036 C 
HETATM   14  C4  UNL     1       7.826   0.543   9.562  1.00  0.00     0.037 C 
HETATM   15  C5  UNL     1       7.775   1.188  10.898  1.00  0.00     0.127 C 
HETATM   16  C6  UNL     1       6.871   2.438  10.961  1.00  0.00    -0.012 C 
HETATM   17  C7  UNL     1       7.784   3.561  10.593  1.00  0.00     0.018 C 
HETATM   18  C8  UNL     1       6.433   2.572  12.370  1.00  0.00     0.018 C 
BRANCH  15  19
HETATM   19  O1  UNL     1       7.539   0.317  11.955  1.00  0.00    -0.395 OA
ATOM     20  H1  UNL     1       7.369  -0.582  11.698  1.00  0.00     0.210 HD
ENDBRANCH  15  19
ENDBRANCH   9  10
BRANCH   9  21
HETATM   21  O2  UNL     1       5.347   4.443   9.925  1.00  0.00    -0.391 OA
ATOM     22  H2  UNL     1       5.215   4.731   9.029  1.00  0.00     0.210 HD
ENDBRANCH   9  21
ENDBRANCH   1   9
BRANCH   1  23
HETATM   23  O3  UNL     1       4.394   4.339   8.124  1.00  0.00    -0.382 OA
ATOM     24  H3  UNL     1       3.668   4.951   8.095  1.00  0.00     0.211 HD
ENDBRANCH   1  23
BRANCH   2  25
HETATM   25  C13 UNL     1       1.263   3.927   9.859  1.00  0.00     0.153 C 
HETATM   26  C14 UNL     1       0.698   2.711  10.467  1.00  0.00     0.096 C 
HETATM   27  O4  UNL     1       0.490   4.889  10.138  1.00  0.00    -0.293 OA
ENDBRANCH   2  25
BRANCH   8  28
HETATM   28  C20 UNL     1       2.868   1.051   7.895  1.00  0.00    -0.019 C 
HETATM   29  C21 UNL     1       3.288  -0.093   7.433  1.00  0.00    -0.022 C 
BRANCH  29  30
HETATM   30  C22 UNL     1       4.516  -0.411   6.692  1.00  0.00     0.117 C 
BRANCH  30  31
HETATM   31  C23 UNL     1       4.123  -0.848   5.311  1.00  0.00     0.228 C 
HETATM   32  O6  UNL     1       2.974  -1.283   5.101  1.00  0.00    -0.285 OA
BRANCH  31  33
HETATM   33  C24 UNL     1       5.073  -0.763   4.235  1.00  0.00     0.247 C 
HETATM   34  O7  UNL     1       4.720  -0.336   3.113  1.00  0.00    -0.642 OA
HETATM   35  O8  UNL     1       6.392  -1.148   4.406  1.00  0.00    -0.642 OA
ENDBRANCH  31  33
ENDBRANCH  30  31
ENDBRANCH  29  30
ENDBRANCH   8  28
TORSDOF 10
ENDMDL
MODEL 4
REMARK VINA RESULT: -6.370818437      1.861      5.451
REMARK  10 active torsions:
REMARK  status: ('A' for Active; 'I' for Inactive)
REMARK    1  A    between atoms: C5_5  and  O1_6 
REMARK    2  A    between atoms: C9_11  and  C10_12 
REMARK    3  A    between atoms: C10_12  and  O2_13 
REMARK    4  A    between atoms: C10_12  and  C11_15 
REMARK    5  A    between atoms: C11_15  and  O3_16 
REMARK    6  A    between atoms: C12_18  and  C13_19 
REMARK    7  A    between atoms: C19_27  and  C20_28 
REMARK    8  A    between atoms: C21_29  and  C22_30 
REMARK    9  A    between atoms: C22_30  and  C23_31 
REMARK   10  A    between atoms: C23_31  and  C24_33 
ROOT
HETATM    1  C11 UNL     1       1.755   2.017   9.232  1.00  0.00     0.123 C 
HETATM    2  C12 UNL     1       0.475   2.453   8.621  1.00  0.00     0.026 C 
HETATM    3  C15 UNL     1      -0.250   3.409   9.601  1.00  0.00     0.210 C 
HETATM    4  O5  UNL     1       0.434   3.687  10.728  1.00  0.00    -0.376 OA
HETATM    5  C16 UNL     1       1.732   4.036  10.635  1.00  0.00     0.064 C 
HETATM    6  C17 UNL     1       1.817   5.442  10.067  1.00  0.00     0.046 C 
HETATM    7  C18 UNL     1       2.255   4.174  12.078  1.00  0.00     0.046 C 
HETATM    8  C19 UNL     1       2.629   3.053   9.852  1.00  0.00     0.083 C 
ENDROOT
BRANCH   1   9
HETATM    9  C10 UNL     1       2.305   0.664   8.941  1.00  0.00     0.166 C 
BRANCH   9  10
HETATM   10  C9  UNL     1       2.973   0.266   7.731  1.00  0.00     0.056 C 
HETATM   11  C2  UNL     1       2.291   0.048   6.448  1.00  0.00    -0.082 C 
HETATM   12  C1  UNL     1       1.174  -0.560   6.178  1.00  0.00     0.015 C 
HETATM   13  C3  UNL     1       3.059   0.553   5.226  1.00  0.00     0.036 C 
HETATM   14  C4  UNL     1       4.450  -0.058   5.468  1.00  0.00     0.037 C 
HETATM   15  C5  UNL     1       4.328  -1.263   6.327  1.00  0.00     0.127 C 
HETATM   16  C6  UNL     1       3.900  -0.962   7.779  1.00  0.00    -0.012 C 
HETATM   17  C7  UNL     1       5.192  -0.737   8.495  1.00  0.00     0.018 C 
HETATM   18  C8  UNL     1       3.238  -2.186   8.287  1.00  0.00     0.018 C 
BRANCH  15  19
HETATM   19  O1  UNL     1       3.593  -2.302   5.769  1.00  0.00    -0.395 OA
ATOM     20  H1  UNL     1       2.857  -2.025   5.236  1.00  0.00     0.210 HD
ENDBRANCH  15  19
ENDBRANCH   9  10
BRANCH   9  21
HETATM   21  O2  UNL     1       3.353   0.480   9.956  1.00  0.00    -0.391 OA
ATOM     22  H2  UNL     1       3.328   1.304  10.429  1.00  0.00     0.210 HD
ENDBRANCH   9  21
ENDBRANCH   1   9
BRANCH   1  23
HETATM   23  O3  UNL     1       1.105   1.580  10.529  1.00  0.00    -0.382 OA
ATOM     24  H3  UNL     1       1.915   1.633  11.022  1.00  0.00     0.211 HD
ENDBRANCH   1  23
BRANCH   2  25
HETATM   25  C13 UNL     1       0.238   2.888   7.285  1.00  0.00     0.153 C 
HETATM   26  C14 UNL     1       1.093   3.524   6.268  1.00  0.00     0.096 C 
HETATM   27  O4  UNL     1      -0.913   2.743   6.781  1.00  0.00    -0.293 OA
ENDBRANCH   2  25
BRANCH   8  28
HETATM   28  C20 UNL     1       3.493   3.884   9.051  1.00  0.00    -0.019 C 
HETATM   29  C21 UNL     1       4.794   3.802   9.023  1.00  0.00    -0.022 C 
BRANCH  29  30
HETATM   30  C22 UNL     1       5.693   2.902   9.756  1.00  0.00     0.117 C 
BRANCH  30  31
HETATM   31  C23 UNL     1       6.626   3.744  10.575  1.00  0.00     0.228 C 
HETATM   32  O6  UNL     1       6.229   4.826  11.051  1.00  0.00    -0.285 OA
BRANCH  31  33
HETATM   33  C24 UNL     1       7.974   3.302  10.810  1.00  0.00     0.247 C 
HETATM   34  O7  UNL     1       8.190   2.212  11.388  1.00  0.00    -0.642 OA
HETATM   35  O8  UNL     1       9.061   4.059  10.408  1.00  0.00    -0.642 OA
ENDBRANCH  31  33
ENDBRANCH  30  31
ENDBRANCH  29  30
ENDBRANCH   8  28
TORSDOF 10
ENDMDL
MODEL 5
REMARK VINA RESULT: -6.314473684      2.394      4.168
REMARK  10 active torsions:
REMARK  status: ('A' for Active; 'I' for Inactive)
REMARK    1  A    between atoms: C5_5  and  O1_6 
REMARK    2  A    between atoms: C9_11  and  C10_12 
REMARK    3  A    between atoms: C10_12  and  O2_13 
REMARK    4  A    between atoms: C10_12  and  C11_15 
REMARK    5  A    between atoms: C11_15  and  O3_16 
REMARK    6  A    between atoms: C12_18  and  C13_19 
REMARK    7  A    between atoms: C19_27  and  C20_28 
REMARK    8  A    between atoms: C21_29  and  C22_30 
REMARK    9  A    between atoms: C22_30  and  C23_31 
REMARK   10  A    between atoms: C23_31  and  C24_33 
ROOT
HETATM    1  C11 UNL     1       2.619   2.572   5.703  1.00  0.00     0.123 C 
HETATM    2  C12 UNL     1       2.273   3.693   4.795  1.00  0.00     0.026 C 
HETATM    3  C15 UNL     1       2.230   3.165   3.339  1.00  0.00     0.210 C 
HETATM    4  O5  UNL     1       2.441   1.840   3.212  1.00  0.00    -0.376 OA
HETATM    5  C16 UNL     1       1.775   0.992   4.018  1.00  0.00     0.064 C 
HETATM    6  C17 UNL     1       0.321   0.946   3.580  1.00  0.00     0.046 C 
HETATM    7  C18 UNL     1       2.311  -0.419   3.713  1.00  0.00     0.046 C 
HETATM    8  C19 UNL     1       1.901   1.277   5.531  1.00  0.00     0.083 C 
ENDROOT
BRANCH   1   9
HETATM    9  C10 UNL     1       3.399   2.824   6.947  1.00  0.00     0.166 C 
BRANCH   9  10
HETATM   10  C9  UNL     1       2.853   2.991   8.266  1.00  0.00     0.056 C 
HETATM   11  C2  UNL     1       2.078   4.165   8.694  1.00  0.00    -0.082 C 
HETATM   12  C1  UNL     1       2.277   5.431   8.482  1.00  0.00     0.015 C 
HETATM   13  C3  UNL     1       0.887   3.844   9.599  1.00  0.00     0.036 C 
HETATM   14  C4  UNL     1       1.542   2.934  10.651  1.00  0.00     0.037 C 
HETATM   15  C5  UNL     1       2.996   3.221  10.730  1.00  0.00     0.127 C 
HETATM   16  C6  UNL     1       3.791   2.808   9.473  1.00  0.00    -0.012 C 
HETATM   17  C7  UNL     1       4.183   1.393   9.746  1.00  0.00     0.018 C 
HETATM   18  C8  UNL     1       4.992   3.675   9.429  1.00  0.00     0.018 C 
BRANCH  15  19
HETATM   19  O1  UNL     1       3.312   4.507  11.150  1.00  0.00    -0.395 OA
ATOM     20  H1  UNL     1       4.093   4.875  10.752  1.00  0.00     0.210 HD
ENDBRANCH  15  19
ENDBRANCH   9  10
BRANCH   9  21
HETATM   21  O2  UNL     1       4.229   1.619   7.098  1.00  0.00    -0.391 OA
ATOM     22  H2  UNL     1       3.698   1.075   7.667  1.00  0.00     0.210 HD
ENDBRANCH   9  21
ENDBRANCH   1   9
BRANCH   1  23
HETATM   23  O3  UNL     1       3.841   2.167   4.904  1.00  0.00    -0.382 OA
ATOM     24  H3  UNL     1       3.334   1.702   4.250  1.00  0.00     0.211 HD
ENDBRANCH   1  23
BRANCH   2  25
HETATM   25  C13 UNL     1       1.262   4.682   4.962  1.00  0.00     0.153 C 
HETATM   26  C14 UNL     1       1.098   6.050   4.442  1.00  0.00     0.096 C 
HETATM   27  O4  UNL     1       0.260   4.427   5.690  1.00  0.00    -0.293 OA
ENDBRANCH   2  25
BRANCH   8  28
HETATM   28  C20 UNL     1       0.578   1.075   6.067  1.00  0.00    -0.019 C 
HETATM   29  C21 UNL     1       0.307   0.426   7.164  1.00  0.00    -0.022 C 
BRANCH  29  30
HETATM   30  C22 UNL     1       1.212  -0.246   8.105  1.00  0.00     0.117 C 
BRANCH  30  31
HETATM   31  C23 UNL     1       1.516  -1.611   7.562  1.00  0.00     0.228 C 
HETATM   32  O6  UNL     1       0.589  -2.423   7.369  1.00  0.00    -0.285 OA
BRANCH  31  33
HETATM   33  C24 UNL     1       2.874  -1.981   7.267  1.00  0.00     0.247 C 
HETATM   34  O7  UNL     1       3.798  -1.147   7.396  1.00  0.00    -0.642 OA
HETATM   35  O8  UNL     1       3.196  -3.256   6.835  1.00  0.00    -0.642 OA
ENDBRANCH  31  33
ENDBRANCH  30  31
ENDBRANCH  29  30
ENDBRANCH   8  28
TORSDOF 10
ENDMDL
