MODEL 1
REMARK VINA RESULT: -7.301135261      0.000      0.000
REMARK  7 active torsions:
REMARK  status: ('A' for Active; 'I' for Inactive)
REMARK    1  A    between atoms: C2_2  and  C3_3 
REMARK    2  A    between atoms: C3_3  and  N1_4 
REMARK    3  A    between atoms: N1_4  and  C4_6 
REMARK    4  A    between atoms: C6_13  and  N4_14 
REMARK    5  A    between atoms: C7_16  and  C8_17 
REMARK    6  A    between atoms: C8_17  and  C9_18 
REMARK    7  A    between atoms: C9_18  and  C10_19 
ROOT
HETATM    1  C4  UNL     1      23.839  19.995 -40.982  1.00  0.00     0.697 A 
HETATM    2  N2  UNL     1      24.886  19.553 -41.725  1.00  0.00    -0.140 N 
ATOM      3  H2  UNL     1      24.973  18.556 -41.923  1.00  0.00     0.189 HD
HETATM    4  C5  UNL     1      25.804  20.396 -42.203  1.00  0.00     0.352 A 
HETATM    5  O1  UNL     1      26.791  19.981 -42.903  1.00  0.00    -0.246 OA
HETATM    6  N3  UNL     1      25.698  21.708 -41.947  1.00  0.00    -0.140 N 
ATOM      7  H3  UNL     1      26.402  22.347 -42.314  1.00  0.00     0.189 HD
HETATM    8  C6  UNL     1      24.689  22.194 -41.223  1.00  0.00     0.700 A 
HETATM    9  N5  UNL     1      23.756  21.295 -40.744  1.00  0.00    -0.022 N 
ATOM     10  H5  UNL     1      22.976  21.646 -40.187  1.00  0.00     0.203 HD
ENDROOT
BRANCH   8  11
HETATM   11  N4  UNL     1      24.531  23.394 -40.949  1.00  0.00    -0.205 N 
HETATM   12  C7  UNL     1      23.751  24.502 -41.092  1.00  0.00     0.079 C 
ATOM     13  H4  UNL     1      25.325  23.668 -40.370  1.00  0.00     0.183 HD
BRANCH  12  14
HETATM   14  C8  UNL     1      22.436  24.412 -41.820  1.00  0.00     0.049 C 
BRANCH  14  15
HETATM   15  C9  UNL     1      21.382  23.750 -40.937  1.00  0.00     0.043 C 
BRANCH  15  16
HETATM   16  C10 UNL     1      20.667  22.684 -41.643  1.00  0.00    -0.058 A 
HETATM   17  C11 UNL     1      19.519  22.071 -41.176  1.00  0.00     0.007 A 
HETATM   18  C12 UNL     1      18.885  21.072 -41.882  1.00  0.00     0.001 A 
HETATM   19  C13 UNL     1      19.375  20.637 -43.095  1.00  0.00     0.000 A 
HETATM   20  C14 UNL     1      20.519  21.235 -43.580  1.00  0.00     0.001 A 
HETATM   21  C15 UNL     1      21.138  22.233 -42.859  1.00  0.00     0.007 A 
ENDBRANCH  15  16
ENDBRANCH  14  15
ENDBRANCH  12  14
ENDBRANCH   8  11
BRANCH   1  22
HETATM   22  N1  UNL     1      22.999  19.127 -40.560  1.00  0.00    -0.222 N 
ATOM     23  H1  UNL     1      23.246  18.143 -40.662  1.00  0.00     0.178 HD
BRANCH  22  24
HETATM   24  C3  UNL     1      21.739  19.432 -39.955  1.00  0.00     0.164 C 
BRANCH  24  25
HETATM   25  C2  UNL     1      20.679  18.431 -40.328  1.00  0.00    -0.017 C 
HETATM   26  C1  UNL     1      20.830  17.624 -41.354  1.00  0.00     0.008 C 
ENDBRANCH  24  25
ENDBRANCH  22  24
ENDBRANCH   1  22
TORSDOF 7
ENDMDL
MODEL 2
REMARK VINA RESULT: -7.061481689      1.203      4.222
REMARK  7 active torsions:
REMARK  status: ('A' for Active; 'I' for Inactive)
REMARK    1  A    between atoms: C2_2  and  C3_3 
REMARK    2  A    between atoms: C3_3  and  N1_4 
REMARK    3  A    between atoms: N1_4  and  C4_6 
REMARK    4  A    between atoms: C6_13  and  N4_14 
REMARK    5  A    between atoms: C7_16  and  C8_17 
REMARK    6  A    between atoms: C8_17  and  C9_18 
REMARK    7  A    between atoms: C9_18  and  C10_19 
ROOT
HETATM    1  C4  UNL     1      24.477  21.461 -40.892  1.00  0.00     0.697 A 
HETATM    2  N2  UNL     1      25.583  20.684 -41.026  1.00  0.00    -0.140 N 
ATOM      3  H2  UNL     1      26.483  21.125 -41.219  1.00  0.00     0.189 HD
HETATM    4  C5  UNL     1      25.518  19.355 -40.913  1.00  0.00     0.352 A 
HETATM    5  O1  UNL     1      26.559  18.623 -41.040  1.00  0.00    -0.246 OA
HETATM    6  N3  UNL     1      24.340  18.768 -40.661  1.00  0.00    -0.140 N 
ATOM      7  H3  UNL     1      24.295  17.753 -40.575  1.00  0.00     0.189 HD
HETATM    8  C6  UNL     1      23.223  19.484 -40.519  1.00  0.00     0.700 A 
HETATM    9  N5  UNL     1      23.325  20.856 -40.642  1.00  0.00    -0.022 N 
ATOM     10  H5  UNL     1      22.484  21.424 -40.538  1.00  0.00     0.203 HD
ENDROOT
BRANCH   8  11
HETATM   11  N4  UNL     1      22.103  19.005 -40.286  1.00  0.00    -0.205 N 
HETATM   12  C7  UNL     1      20.860  18.724 -40.770  1.00  0.00     0.079 C 
ATOM     13  H4  UNL     1      22.118  18.684 -39.318  1.00  0.00     0.183 HD
BRANCH  12  14
HETATM   14  C8  UNL     1      20.536  18.988 -42.217  1.00  0.00     0.049 C 
BRANCH  14  15
HETATM   15  C9  UNL     1      19.519  20.121 -42.337  1.00  0.00     0.043 C 
BRANCH  15  16
HETATM   16  C10 UNL     1      20.084  21.408 -41.927  1.00  0.00    -0.058 A 
HETATM   17  C11 UNL     1      19.837  22.018 -40.711  1.00  0.00     0.007 A 
HETATM   18  C12 UNL     1      20.395  23.232 -40.375  1.00  0.00     0.001 A 
HETATM   19  C13 UNL     1      21.232  23.896 -41.247  1.00  0.00     0.000 A 
HETATM   20  C14 UNL     1      21.493  23.306 -42.465  1.00  0.00     0.001 A 
HETATM   21  C15 UNL     1      20.924  22.091 -42.783  1.00  0.00     0.007 A 
ENDBRANCH  15  16
ENDBRANCH  14  15
ENDBRANCH  12  14
ENDBRANCH   8  11
BRANCH   1  22
HETATM   22  N1  UNL     1      24.619  22.726 -41.013  1.00  0.00    -0.222 N 
ATOM     23  H1  UNL     1      24.296  23.312 -40.243  1.00  0.00     0.178 HD
BRANCH  22  24
HETATM   24  C3  UNL     1      25.194  23.383 -42.146  1.00  0.00     0.164 C 
BRANCH  24  25
HETATM   25  C2  UNL     1      24.804  24.834 -42.213  1.00  0.00    -0.017 C 
HETATM   26  C1  UNL     1      24.368  25.477 -41.153  1.00  0.00     0.008 C 
ENDBRANCH  24  25
ENDBRANCH  22  24
ENDBRANCH   1  22
TORSDOF 7
ENDMDL
MODEL 3
REMARK VINA RESULT: -6.892325637      1.353      2.089
REMARK  7 active torsions:
REMARK  status: ('A' for Active; 'I' for Inactive)
REMARK    1  A    between atoms: C2_2  and  C3_3 
REMARK    2  A    between atoms: C3_3  and  N1_4 
REMARK    3  A    between atoms: N1_4  and  C4_6 
REMARK    4  A    between atoms: C6_13  and  N4_14 
REMARK    5  A    between atoms: C7_16  and  C8_17 
REMARK    6  A    between atoms: C8_17  and  C9_18 
REMARK    7  A    between atoms: C9_18  and  C10_19 
ROOT
HETATM    1  C4  UNL     1      24.159  19.941 -41.055  1.00  0.00     0.697 A 
HETATM    2  N2  UNL     1      25.134  19.480 -40.230  1.00  0.00    -0.140 N 
ATOM      3  H2  UNL     1      24.952  18.658 -39.653  1.00  0.00     0.189 HD
HETATM    4  C5  UNL     1      26.325  20.079 -40.156  1.00  0.00     0.352 A 
HETATM    5  O1  UNL     1      27.243  19.645 -39.377  1.00  0.00    -0.246 OA
HETATM    6  N3  UNL     1      26.571  21.159 -40.909  1.00  0.00    -0.140 N 
ATOM      7  H3  UNL     1      27.482  21.614 -40.849  1.00  0.00     0.189 HD
HETATM    8  C6  UNL     1      25.650  21.654 -41.737  1.00  0.00     0.700 A 
HETATM    9  N5  UNL     1      24.428  21.010 -41.790  1.00  0.00    -0.022 N 
ATOM     10  H5  UNL     1      23.709  21.371 -42.417  1.00  0.00     0.203 HD
ENDROOT
BRANCH   8  11
HETATM   11  N4  UNL     1      25.812  22.649 -42.461  1.00  0.00    -0.205 N 
HETATM   12  C7  UNL     1      25.473  23.945 -42.708  1.00  0.00     0.079 C 
ATOM     13  H4  UNL     1      26.488  22.382 -43.176  1.00  0.00     0.183 HD
BRANCH  12  14
HETATM   14  C8  UNL     1      24.556  24.679 -41.765  1.00  0.00     0.049 C 
BRANCH  14  15
HETATM   15  C9  UNL     1      23.234  25.007 -42.456  1.00  0.00     0.043 C 
BRANCH  15  16
HETATM   16  C10 UNL     1      22.210  23.995 -42.186  1.00  0.00    -0.058 A 
HETATM   17  C11 UNL     1      21.810  23.030 -43.090  1.00  0.00     0.007 A 
HETATM   18  C12 UNL     1      20.840  22.099 -42.784  1.00  0.00     0.001 A 
HETATM   19  C13 UNL     1      20.223  22.094 -41.551  1.00  0.00     0.000 A 
HETATM   20  C14 UNL     1      20.608  23.048 -40.633  1.00  0.00     0.001 A 
HETATM   21  C15 UNL     1      21.580  23.970 -40.959  1.00  0.00     0.007 A 
ENDBRANCH  15  16
ENDBRANCH  14  15
ENDBRANCH  12  14
ENDBRANCH   8  11
BRANCH   1  22
HETATM   22  N1  UNL     1      23.045  19.314 -41.072  1.00  0.00    -0.222 N 
ATOM     23  H1  UNL     1      22.887  18.653 -41.833  1.00  0.00     0.178 HD
BRANCH  22  24
HETATM   24  C3  UNL     1      22.002  19.468 -40.105  1.00  0.00     0.164 C 
BRANCH  24  25
HETATM   25  C2  UNL     1      20.789  18.649 -40.451  1.00  0.00    -0.017 C 
HETATM   26  C1  UNL     1      20.875  17.589 -41.223  1.00  0.00     0.008 C 
ENDBRANCH  24  25
ENDBRANCH  22  24
ENDBRANCH   1  22
TORSDOF 7
ENDMDL
MODEL 4
REMARK VINA RESULT: -6.856899795      1.643      2.379
REMARK  7 active torsions:
REMARK  status: ('A' for Active; 'I' for Inactive)
REMARK    1  A    between atoms: C2_2  and  C3_3 
REMARK    2  A    between atoms: C3_3  and  N1_4 
REMARK    3  A    between atoms: N1_4  and  C4_6 
REMARK    4  A    between atoms: C6_13  and  N4_14 
REMARK    5  A    between atoms: C7_16  and  C8_17 
REMARK    6  A    between atoms: C8_17  and  C9_18 
REMARK    7  A    between atoms: C9_18  and  C10_19 
ROOT
HETATM    1  C4  UNL     1      24.283  19.977 -41.326  1.00  0.00     0.697 A 
HETATM    2  N2  UNL     1      25.327  20.319 -40.527  1.00  0.00    -0.140 N 
ATOM      3  H2  UNL     1      25.364  19.958 -39.573  1.00  0.00     0.189 HD
HETATM    4  C5  UNL     1      26.306  21.116 -40.963  1.00  0.00     0.352 A 
HETATM    5  O1  UNL     1      27.289  21.438 -40.210  1.00  0.00    -0.246 OA
HETATM    6  N3  UNL     1      26.264  21.594 -42.214  1.00  0.00    -0.140 N 
ATOM      7  H3  UNL     1      27.013  22.203 -42.542  1.00  0.00     0.189 HD
HETATM    8  C6  UNL     1      25.262  21.290 -43.040  1.00  0.00     0.700 A 
HETATM    9  N5  UNL     1      24.266  20.463 -42.559  1.00  0.00    -0.022 N 
ATOM     10  H5  UNL     1      23.490  20.217 -43.174  1.00  0.00     0.203 HD
ENDROOT
BRANCH   8  11
HETATM   11  N4  UNL     1      25.162  21.698 -44.208  1.00  0.00    -0.205 N 
HETATM   12  C7  UNL     1      24.462  22.465 -45.091  1.00  0.00     0.079 C 
ATOM     13  H4  UNL     1      25.933  21.281 -44.730  1.00  0.00     0.183 HD
BRANCH  12  14
HETATM   14  C8  UNL     1      23.305  23.302 -44.614  1.00  0.00     0.049 C 
BRANCH  14  15
HETATM   15  C9  UNL     1      22.013  22.490 -44.641  1.00  0.00     0.043 C 
BRANCH  15  16
HETATM   16  C10 UNL     1      21.352  22.467 -43.334  1.00  0.00    -0.058 A 
HETATM   17  C11 UNL     1      21.830  23.108 -42.207  1.00  0.00     0.007 A 
HETATM   18  C12 UNL     1      21.168  23.056 -40.998  1.00  0.00     0.001 A 
HETATM   19  C13 UNL     1      19.990  22.353 -40.864  1.00  0.00     0.000 A 
HETATM   20  C14 UNL     1      19.494  21.706 -41.977  1.00  0.00     0.001 A 
HETATM   21  C15 UNL     1      20.172  21.771 -43.175  1.00  0.00     0.007 A 
ENDBRANCH  15  16
ENDBRANCH  14  15
ENDBRANCH  12  14
ENDBRANCH   8  11
BRANCH   1  22
HETATM   22  N1  UNL     1      23.385  19.209 -40.839  1.00  0.00    -0.222 N 
ATOM     23  H1  UNL     1      23.441  18.216 -41.063  1.00  0.00     0.178 HD
BRANCH  22  24
HETATM   24  C3  UNL     1      22.305  19.636 -40.002  1.00  0.00     0.164 C 
BRANCH  24  25
HETATM   25  C2  UNL     1      21.029  18.904 -40.314  1.00  0.00    -0.017 C 
HETATM   26  C1  UNL     1      20.972  17.998 -41.266  1.00  0.00     0.008 C 
ENDBRANCH  24  25
ENDBRANCH  22  24
ENDBRANCH   1  22
TORSDOF 7
ENDMDL
MODEL 5
REMARK VINA RESULT: -6.841858069      2.448      4.537
REMARK  7 active torsions:
REMARK  status: ('A' for Active; 'I' for Inactive)
REMARK    1  A    between atoms: C2_2  and  C3_3 
REMARK    2  A    between atoms: C3_3  and  N1_4 
REMARK    3  A    between atoms: N1_4  and  C4_6 
REMARK    4  A    between atoms: C6_13  and  N4_14 
REMARK    5  A    between atoms: C7_16  and  C8_17 
REMARK    6  A    between atoms: C8_17  and  C9_18 
REMARK    7  A    between atoms: C9_18  and  C10_19 
ROOT
HETATM    1  C4  UNL     1      23.192  19.445 -40.192  1.00  0.00     0.697 A 
HETATM    2  N2  UNL     1      22.525  18.407 -40.759  1.00  0.00    -0.140 N 
ATOM      3  H2  UNL     1      23.033  17.552 -40.989  1.00  0.00     0.189 HD
HETATM    4  C5  UNL     1      21.218  18.480 -41.023  1.00  0.00     0.352 A 
HETATM    5  O1  UNL     1      20.590  17.502 -41.557  1.00  0.00    -0.246 OA
HETATM    6  N3  UNL     1      20.544  19.599 -40.725  1.00  0.00    -0.140 N 
ATOM      7  H3  UNL     1      19.546  19.651 -40.929  1.00  0.00     0.189 HD
HETATM    8  C6  UNL     1      21.150  20.648 -40.167  1.00  0.00     0.700 A 
HETATM    9  N5  UNL     1      22.503  20.540 -39.907  1.00  0.00    -0.022 N 
ATOM     10  H5  UNL     1      22.987  21.330 -39.481  1.00  0.00     0.203 HD
ENDROOT
BRANCH   8  11
HETATM   11  N4  UNL     1      20.586  21.712 -39.868  1.00  0.00    -0.205 N 
HETATM   12  C7  UNL     1      20.395  23.026 -40.174  1.00  0.00     0.079 C 
ATOM     13  H4  UNL     1      20.027  21.522 -39.037  1.00  0.00     0.183 HD
BRANCH  12  14
HETATM   14  C8  UNL     1      21.011  23.609 -41.419  1.00  0.00     0.049 C 
BRANCH  14  15
HETATM   15  C9  UNL     1      22.258  24.418 -41.067  1.00  0.00     0.043 C 
BRANCH  15  16
HETATM   16  C10 UNL     1      23.291  24.307 -42.099  1.00  0.00    -0.058 A 
HETATM   17  C11 UNL     1      24.475  25.021 -42.098  1.00  0.00     0.007 A 
HETATM   18  C12 UNL     1      25.415  24.878 -43.096  1.00  0.00     0.001 A 
HETATM   19  C13 UNL     1      25.211  24.009 -44.146  1.00  0.00     0.000 A 
HETATM   20  C14 UNL     1      24.037  23.285 -44.166  1.00  0.00     0.001 A 
HETATM   21  C15 UNL     1      23.109  23.443 -43.159  1.00  0.00     0.007 A 
ENDBRANCH  15  16
ENDBRANCH  14  15
ENDBRANCH  12  14
ENDBRANCH   8  11
BRANCH   1  22
HETATM   22  N1  UNL     1      24.443  19.300 -39.969  1.00  0.00    -0.222 N 
ATOM     23  H1  UNL     1      24.738  19.176 -39.000  1.00  0.00     0.178 HD
BRANCH  22  24
HETATM   24  C3  UNL     1      25.462  19.299 -40.974  1.00  0.00     0.164 C 
BRANCH  24  25
HETATM   25  C2  UNL     1      25.439  20.558 -41.798  1.00  0.00    -0.017 C 
HETATM   26  C1  UNL     1      26.011  21.664 -41.376  1.00  0.00     0.008 C 
ENDBRANCH  24  25
ENDBRANCH  22  24
ENDBRANCH   1  22
TORSDOF 7
ENDMDL
