MODEL 1
REMARK VINA RESULT: -6.444564899      0.000      0.000
REMARK  7 active torsions:
REMARK  status: ('A' for Active; 'I' for Inactive)
REMARK    1  A    between atoms: N1_1  and  C1_5 
REMARK    2  A    between atoms: C1_5  and  C2_6 
REMARK    3  A    between atoms: C2_6  and  C3_7 
REMARK    4  A    between atoms: N2_9  and  C5_10 
REMARK    5  A    between atoms: C5_10  and  C6_11 
REMARK    6  A    between atoms: C7_12  and  C8_13 
REMARK    7  A    between atoms: C8_13  and  N3_14 
ROOT
HETATM    1  C3  UNL     1      25.441  20.098 -41.257  1.00  0.00    -0.017 A 
HETATM    2  C4  UNL     1      25.118  20.728 -42.437  1.00  0.00     0.099 A 
HETATM    3  N2  UNL     1      26.010  21.524 -43.082  1.00  0.00    -0.362 N 
HETATM    4  C14 UNL     1      27.235  21.707 -42.563  1.00  0.00     0.092 A 
HETATM    5  C15 UNL     1      27.636  21.107 -41.375  1.00  0.00     0.044 A 
HETATM    6  C16 UNL     1      26.705  20.307 -40.751  1.00  0.00     0.055 A 
HETATM    7  N5  UNL     1      27.124  19.686 -39.518  1.00  0.00    -0.102 NA
ENDROOT
BRANCH   3   8
HETATM    8  C5  UNL     1      25.651  22.178 -44.326  1.00  0.00     0.154 C 
BRANCH   8   9
HETATM    9  C6  UNL     1      24.998  23.479 -44.112  1.00  0.00    -0.009 C 
HETATM   10  C7  UNL     1      23.708  23.730 -44.143  1.00  0.00    -0.009 C 
BRANCH  10  11
HETATM   11  C8  UNL     1      22.639  22.762 -44.399  1.00  0.00     0.154 C 
BRANCH  11  12
HETATM   12  N3  UNL     1      21.792  22.598 -43.207  1.00  0.00    -0.361 N 
HETATM   13  C9  UNL     1      22.055  23.308 -42.111  1.00  0.00     0.091 A 
HETATM   14  C10 UNL     1      21.288  23.180 -40.986  1.00  0.00     0.019 A 
HETATM   15  C11 UNL     1      20.230  22.300 -41.000  1.00  0.00     0.029 A 
HETATM   16  C12 UNL     1      19.959  21.567 -42.137  1.00  0.00     0.061 A 
HETATM   17  N4  UNL     1      18.879  20.651 -42.193  1.00  0.00    -0.101 NA
HETATM   18  C13 UNL     1      20.760  21.737 -43.233  1.00  0.00     0.117 A 
ENDBRANCH  11  12
ENDBRANCH  10  11
ENDBRANCH   8   9
ENDBRANCH   3   8
BRANCH   1  19
HETATM   19  C2  UNL     1      24.451  19.249 -40.594  1.00  0.00     0.069 C 
BRANCH  19  20
HETATM   20  C1  UNL     1      23.088  19.870 -40.493  1.00  0.00     0.234 C 
BRANCH  20  21
HETATM   21  N1  UNL     1      22.576  19.905 -39.159  1.00  0.00    -0.079 N 
ATOM     22  H13 UNL     1      21.796  19.257 -39.054  1.00  0.00     0.274 HD
ATOM     23  H12 UNL     1      23.237  19.482 -38.507  1.00  0.00     0.274 HD
ATOM     24  H11 UNL     1      22.312  20.841 -38.849  1.00  0.00     0.274 HD
ENDBRANCH  20  21
ENDBRANCH  19  20
ENDBRANCH   1  19
TORSDOF 7
ENDMDL
MODEL 2
REMARK VINA RESULT: -6.434716713      2.136      4.664
REMARK  7 active torsions:
REMARK  status: ('A' for Active; 'I' for Inactive)
REMARK    1  A    between atoms: N1_1  and  C1_5 
REMARK    2  A    between atoms: C1_5  and  C2_6 
REMARK    3  A    between atoms: C2_6  and  C3_7 
REMARK    4  A    between atoms: N2_9  and  C5_10 
REMARK    5  A    between atoms: C5_10  and  C6_11 
REMARK    6  A    between atoms: C7_12  and  C8_13 
REMARK    7  A    between atoms: C8_13  and  N3_14 
ROOT
HETATM    1  C3  UNL     1      22.928  23.544 -42.653  1.00  0.00    -0.017 A 
HETATM    2  C4  UNL     1      23.613  22.501 -42.073  1.00  0.00     0.099 A 
HETATM    3  N2  UNL     1      23.929  21.383 -42.777  1.00  0.00    -0.362 N 
HETATM    4  C14 UNL     1      23.567  21.284 -44.067  1.00  0.00     0.092 A 
HETATM    5  C15 UNL     1      22.873  22.294 -44.723  1.00  0.00     0.044 A 
HETATM    6  C16 UNL     1      22.571  23.411 -43.977  1.00  0.00     0.055 A 
HETATM    7  N5  UNL     1      21.849  24.457 -44.660  1.00  0.00    -0.102 NA
ENDROOT
BRANCH   3   8
HETATM    8  C5  UNL     1      24.654  20.295 -42.148  1.00  0.00     0.154 C 
BRANCH   8   9
HETATM    9  C6  UNL     1      24.261  20.092 -40.745  1.00  0.00    -0.009 C 
HETATM   10  C7  UNL     1      23.177  19.491 -40.308  1.00  0.00    -0.009 C 
BRANCH  10  11
HETATM   11  C8  UNL     1      22.122  18.891 -41.129  1.00  0.00     0.154 C 
BRANCH  11  12
HETATM   12  N3  UNL     1      21.148  19.910 -41.547  1.00  0.00    -0.361 N 
HETATM   13  C9  UNL     1      20.515  19.776 -42.712  1.00  0.00     0.091 A 
HETATM   14  C10 UNL     1      19.603  20.705 -43.131  1.00  0.00     0.019 A 
HETATM   15  C11 UNL     1      19.344  21.792 -42.327  1.00  0.00     0.029 A 
HETATM   16  C12 UNL     1      20.001  21.928 -41.121  1.00  0.00     0.061 A 
HETATM   17  N4  UNL     1      19.763  23.031 -40.264  1.00  0.00    -0.101 NA
HETATM   18  C13 UNL     1      20.902  20.968 -40.753  1.00  0.00     0.117 A 
ENDBRANCH  11  12
ENDBRANCH  10  11
ENDBRANCH   8   9
ENDBRANCH   3   8
BRANCH   1  19
HETATM   19  C2  UNL     1      22.606  24.730 -41.860  1.00  0.00     0.069 C 
BRANCH  19  20
HETATM   20  C1  UNL     1      23.692  25.136 -40.906  1.00  0.00     0.234 C 
BRANCH  20  21
HETATM   21  N1  UNL     1      24.717  25.927 -41.511  1.00  0.00    -0.079 N 
ATOM     22  H13 UNL     1      24.443  26.214 -42.451  1.00  0.00     0.274 HD
ATOM     23  H12 UNL     1      24.778  26.842 -41.065  1.00  0.00     0.274 HD
ATOM     24  H11 UNL     1      25.629  25.470 -41.524  1.00  0.00     0.274 HD
ENDBRANCH  20  21
ENDBRANCH  19  20
ENDBRANCH   1  19
TORSDOF 7
ENDMDL
MODEL 3
REMARK VINA RESULT: -6.416397518      2.242      3.645
REMARK  7 active torsions:
REMARK  status: ('A' for Active; 'I' for Inactive)
REMARK    1  A    between atoms: N1_1  and  C1_5 
REMARK    2  A    between atoms: C1_5  and  C2_6 
REMARK    3  A    between atoms: C2_6  and  C3_7 
REMARK    4  A    between atoms: N2_9  and  C5_10 
REMARK    5  A    between atoms: C5_10  and  C6_11 
REMARK    6  A    between atoms: C7_12  and  C8_13 
REMARK    7  A    between atoms: C8_13  and  N3_14 
ROOT
HETATM    1  C3  UNL     1      21.444  20.194 -42.169  1.00  0.00    -0.017 A 
HETATM    2  C4  UNL     1      21.970  20.474 -43.408  1.00  0.00     0.099 A 
HETATM    3  N2  UNL     1      23.282  20.788 -43.567  1.00  0.00    -0.362 N 
HETATM    4  C14 UNL     1      24.090  20.830 -42.494  1.00  0.00     0.092 A 
HETATM    5  C15 UNL     1      23.634  20.561 -41.209  1.00  0.00     0.044 A 
HETATM    6  C16 UNL     1      22.298  20.246 -41.089  1.00  0.00     0.055 A 
HETATM    7  N5  UNL     1      21.827  19.968 -39.754  1.00  0.00    -0.102 NA
ENDROOT
BRANCH   3   8
HETATM    8  C5  UNL     1      23.819  21.079 -44.883  1.00  0.00     0.154 C 
BRANCH   8   9
HETATM    9  C6  UNL     1      25.045  21.889 -44.825  1.00  0.00    -0.009 C 
HETATM   10  C7  UNL     1      25.124  23.195 -44.705  1.00  0.00    -0.009 C 
BRANCH  10  11
HETATM   11  C8  UNL     1      24.000  24.129 -44.600  1.00  0.00     0.154 C 
BRANCH  11  12
HETATM   12  N3  UNL     1      23.757  24.492 -43.196  1.00  0.00    -0.361 N 
HETATM   13  C9  UNL     1      24.663  25.211 -42.536  1.00  0.00     0.091 A 
HETATM   14  C10 UNL     1      24.469  25.566 -41.229  1.00  0.00     0.019 A 
HETATM   15  C11 UNL     1      23.313  25.166 -40.597  1.00  0.00     0.029 A 
HETATM   16  C12 UNL     1      22.375  24.421 -41.284  1.00  0.00     0.061 A 
HETATM   17  N4  UNL     1      21.172  23.991 -40.671  1.00  0.00    -0.101 NA
HETATM   18  C13 UNL     1      22.623  24.097 -42.589  1.00  0.00     0.117 A 
ENDBRANCH  11  12
ENDBRANCH  10  11
ENDBRANCH   8   9
ENDBRANCH   3   8
BRANCH   1  19
HETATM   19  C2  UNL     1      20.025  19.860 -42.042  1.00  0.00     0.069 C 
BRANCH  19  20
HETATM   20  C1  UNL     1      19.120  21.057 -42.013  1.00  0.00     0.234 C 
BRANCH  20  21
HETATM   21  N1  UNL     1      19.167  21.778 -40.780  1.00  0.00    -0.079 N 
ATOM     22  H13 UNL     1      19.057  21.145 -39.987  1.00  0.00     0.274 HD
ATOM     23  H12 UNL     1      20.110  22.118 -40.596  1.00  0.00     0.274 HD
ATOM     24  H11 UNL     1      18.491  22.541 -40.729  1.00  0.00     0.274 HD
ENDBRANCH  20  21
ENDBRANCH  19  20
ENDBRANCH   1  19
TORSDOF 7
ENDMDL
MODEL 4
REMARK VINA RESULT: -6.359919928      1.777      6.112
REMARK  7 active torsions:
REMARK  status: ('A' for Active; 'I' for Inactive)
REMARK    1  A    between atoms: N1_1  and  C1_5 
REMARK    2  A    between atoms: C1_5  and  C2_6 
REMARK    3  A    between atoms: C2_6  and  C3_7 
REMARK    4  A    between atoms: N2_9  and  C5_10 
REMARK    5  A    between atoms: C5_10  and  C6_11 
REMARK    6  A    between atoms: C7_12  and  C8_13 
REMARK    7  A    between atoms: C8_13  and  N3_14 
ROOT
HETATM    1  C3  UNL     1      21.824  23.674 -41.850  1.00  0.00    -0.017 A 
HETATM    2  C4  UNL     1      21.190  22.604 -41.265  1.00  0.00     0.099 A 
HETATM    3  N2  UNL     1      20.652  21.604 -42.010  1.00  0.00    -0.362 N 
HETATM    4  C14 UNL     1      20.738  21.654 -43.350  1.00  0.00     0.092 A 
HETATM    5  C15 UNL     1      21.362  22.702 -44.016  1.00  0.00     0.044 A 
HETATM    6  C16 UNL     1      21.894  23.697 -43.226  1.00  0.00     0.055 A 
HETATM    7  N5  UNL     1      22.541  24.784 -43.920  1.00  0.00    -0.102 NA
ENDROOT
BRANCH   3   8
HETATM    8  C5  UNL     1      19.988  20.482 -41.373  1.00  0.00     0.154 C 
BRANCH   8   9
HETATM    9  C6  UNL     1      20.645  19.199 -41.665  1.00  0.00    -0.009 C 
HETATM   10  C7  UNL     1      21.803  18.782 -41.205  1.00  0.00    -0.009 C 
BRANCH  10  11
HETATM   11  C8  UNL     1      22.694  19.511 -40.299  1.00  0.00     0.154 C 
BRANCH  11  12
HETATM   12  N3  UNL     1      23.977  19.803 -40.956  1.00  0.00    -0.361 N 
HETATM   13  C9  UNL     1      23.994  20.532 -42.071  1.00  0.00     0.091 A 
HETATM   14  C10 UNL     1      25.169  20.823 -42.708  1.00  0.00     0.019 A 
HETATM   15  C11 UNL     1      26.347  20.347 -42.178  1.00  0.00     0.029 A 
HETATM   16  C12 UNL     1      26.327  19.592 -41.023  1.00  0.00     0.061 A 
HETATM   17  N4  UNL     1      27.516  19.084 -40.444  1.00  0.00    -0.101 NA
HETATM   18  C13 UNL     1      25.122  19.334 -40.429  1.00  0.00     0.117 A 
ENDBRANCH  11  12
ENDBRANCH  10  11
ENDBRANCH   8   9
ENDBRANCH   3   8
BRANCH   1  19
HETATM   19  C2  UNL     1      22.389  24.731 -41.011  1.00  0.00     0.069 C 
BRANCH  19  20
HETATM   20  C1  UNL     1      23.889  24.743 -40.976  1.00  0.00     0.234 C 
BRANCH  20  21
HETATM   21  N1  UNL     1      24.467  25.846 -41.676  1.00  0.00    -0.079 N 
ATOM     22  H13 UNL     1      24.214  26.729 -41.232  1.00  0.00     0.274 HD
ATOM     23  H12 UNL     1      25.478  25.872 -41.539  1.00  0.00     0.274 HD
ATOM     24  H11 UNL     1      24.238  25.863 -42.670  1.00  0.00     0.274 HD
ENDBRANCH  20  21
ENDBRANCH  19  20
ENDBRANCH   1  19
TORSDOF 7
ENDMDL
MODEL 5
REMARK VINA RESULT: -6.344613488      1.813      4.356
REMARK  7 active torsions:
REMARK  status: ('A' for Active; 'I' for Inactive)
REMARK    1  A    between atoms: N1_1  and  C1_5 
REMARK    2  A    between atoms: C1_5  and  C2_6 
REMARK    3  A    between atoms: C2_6  and  C3_7 
REMARK    4  A    between atoms: N2_9  and  C5_10 
REMARK    5  A    between atoms: C5_10  and  C6_11 
REMARK    6  A    between atoms: C7_12  and  C8_13 
REMARK    7  A    between atoms: C8_13  and  N3_14 
ROOT
HETATM    1  C3  UNL     1      24.115  20.448 -41.575  1.00  0.00    -0.017 A 
HETATM    2  C4  UNL     1      23.216  21.225 -42.267  1.00  0.00     0.099 A 
HETATM    3  N2  UNL     1      21.916  21.317 -41.884  1.00  0.00    -0.362 N 
HETATM    4  C14 UNL     1      21.490  20.636 -40.806  1.00  0.00     0.092 A 
HETATM    5  C15 UNL     1      22.337  19.830 -40.056  1.00  0.00     0.044 A 
HETATM    6  C16 UNL     1      23.647  19.762 -40.475  1.00  0.00     0.055 A 
HETATM    7  N5  UNL     1      24.524  18.923 -39.694  1.00  0.00    -0.102 NA
ENDROOT
BRANCH   3   8
HETATM    8  C5  UNL     1      20.983  22.143 -42.627  1.00  0.00     0.154 C 
BRANCH   8   9
HETATM    9  C6  UNL     1      21.117  21.975 -44.082  1.00  0.00    -0.009 C 
HETATM   10  C7  UNL     1      21.493  22.887 -44.951  1.00  0.00    -0.009 C 
BRANCH  10  11
HETATM   11  C8  UNL     1      21.863  24.273 -44.653  1.00  0.00     0.154 C 
BRANCH  11  12
HETATM   12  N3  UNL     1      23.210  24.336 -44.066  1.00  0.00    -0.361 N 
HETATM   13  C9  UNL     1      24.236  23.790 -44.716  1.00  0.00     0.091 A 
HETATM   14  C10 UNL     1      25.502  23.830 -44.199  1.00  0.00     0.019 A 
HETATM   15  C11 UNL     1      25.705  24.448 -42.986  1.00  0.00     0.029 A 
HETATM   16  C12 UNL     1      24.640  25.014 -42.315  1.00  0.00     0.061 A 
HETATM   17  N4  UNL     1      24.806  25.660 -41.065  1.00  0.00    -0.101 NA
HETATM   18  C13 UNL     1      23.397  24.944 -42.881  1.00  0.00     0.117 A 
ENDBRANCH  11  12
ENDBRANCH  10  11
ENDBRANCH   8   9
ENDBRANCH   3   8
BRANCH   1  19
HETATM   19  C2  UNL     1      25.506  20.375 -42.021  1.00  0.00     0.069 C 
BRANCH  19  20
HETATM   20  C1  UNL     1      26.422  21.332 -41.314  1.00  0.00     0.234 C 
BRANCH  20  21
HETATM   21  N1  UNL     1      27.048  20.771 -40.158  1.00  0.00    -0.079 N 
ATOM     22  H13 UNL     1      26.564  19.925 -39.859  1.00  0.00     0.274 HD
ATOM     23  H12 UNL     1      27.956  20.372 -40.397  1.00  0.00     0.274 HD
ATOM     24  H11 UNL     1      27.137  21.430 -39.384  1.00  0.00     0.274 HD
ENDBRANCH  20  21
ENDBRANCH  19  20
ENDBRANCH   1  19
TORSDOF 7
ENDMDL
