MODEL 1
REMARK VINA RESULT: -6.087200440      0.000      0.000
REMARK  8 active torsions:
REMARK  status: ('A' for Active; 'I' for Inactive)
REMARK    1  A    between atoms: C2_2  and  O2_4 
REMARK    2  A    between atoms: O2_4  and  C3_5 
REMARK    3  A    between atoms: C3_5  and  C4_6 
REMARK    4  A    between atoms: C4_6  and  N1_7 
REMARK    5  A    between atoms: C4_6  and  C23_32 
REMARK       I    between atoms: N1_7  and  C5_9 
REMARK    6  A    between atoms: C5_9  and  O4_11 
REMARK    7  A    between atoms: O4_11  and  C6_12 
REMARK    8  A    between atoms: C6_12  and  C7_13 
ROOT
HETATM    1  C6  UNL     1      -6.064  34.755  -3.714  1.00  0.00     0.075 C 
HETATM    2  C10 UNL     1      -7.130  35.182  -4.671  1.00  0.00     0.039 C 
HETATM    3  C11 UNL     1      -8.495  35.306  -4.093  1.00  0.00     0.007 C 
HETATM    4  C12 UNL     1      -9.494  35.925  -5.062  1.00  0.00     0.027 C 
HETATM    5  C13 UNL     1     -10.255  37.026  -4.412  1.00  0.00    -0.031 C 
HETATM    6  C14 UNL     1     -10.427  38.212  -4.989  1.00  0.00    -0.031 C 
HETATM    7  C15 UNL     1      -9.887  38.567  -6.322  1.00  0.00     0.027 C 
HETATM    8  C16 UNL     1      -8.492  39.131  -6.292  1.00  0.00     0.004 C 
HETATM    9  C17 UNL     1      -8.365  40.099  -5.144  1.00  0.00     0.010 C 
HETATM   10  C18 UNL     1      -6.965  40.169  -4.606  1.00  0.00     0.103 C 
HETATM   11  C19 UNL     1      -6.960  40.117  -3.121  1.00  0.00     0.217 C 
HETATM   12  O5  UNL     1      -7.968  40.638  -2.536  1.00  0.00    -0.274 OA
HETATM   13  N2  UNL     1      -5.942  39.543  -2.337  1.00  0.00    -0.361 N 
ATOM     14  H2  UNL     1      -5.700  39.959  -1.437  1.00  0.00     0.162 HD
HETATM   15  C20 UNL     1      -5.234  38.362  -2.799  1.00  0.00     0.122 C 
HETATM   16  C21 UNL     1      -6.176  37.189  -2.910  1.00  0.00     0.023 C 
HETATM   17  C22 UNL     1      -5.581  35.861  -2.798  1.00  0.00     0.041 C 
ENDROOT
BRANCH   1  18
HETATM   18  O4  UNL     1      -6.529  33.734  -2.855  1.00  0.00    -0.292 OA
BRANCH  18  19
HETATM   19  C5  UNL     1      -6.464  33.651  -1.517  1.00  0.00     0.362 C 
HETATM   20  N1  UNL     1      -7.544  34.095  -0.708  1.00  0.00    -0.320 N 
ATOM     21  H1  UNL     1      -8.377  34.483  -1.149  1.00  0.00     0.165 HD
HETATM   22  O3  UNL     1      -5.466  33.188  -0.970  1.00  0.00    -0.238 OA
BRANCH  20  23
HETATM   23  C4  UNL     1      -7.476  34.004   0.765  1.00  0.00     0.212 C 
BRANCH  23  24
HETATM   24  C3  UNL     1      -8.064  35.289   1.269  1.00  0.00     0.214 C 
BRANCH  24  25
HETATM   25  O2  UNL     1      -7.073  36.170   1.696  1.00  0.00    -0.319 OA
BRANCH  25  26
HETATM   26  C2  UNL     1      -6.522  37.122   0.875  1.00  0.00     0.254 C 
HETATM   27  C1  UNL     1      -5.027  37.194   0.718  1.00  0.00     0.126 C 
HETATM   28  O1  UNL     1      -7.188  37.959   0.232  1.00  0.00    -0.266 OA
ENDBRANCH  25  26
ENDBRANCH  24  25
ENDBRANCH  23  24
BRANCH  23  29
HETATM   29  C23 UNL     1      -8.272  32.842   1.203  1.00  0.00     0.199 C 
HETATM   30  O6  UNL     1      -7.716  31.795   1.610  1.00  0.00    -0.646 OA
HETATM   31  O7  UNL     1      -9.647  32.903   1.168  1.00  0.00    -0.646 OA
ENDBRANCH  23  29
ENDBRANCH  20  23
ENDBRANCH  18  19
ENDBRANCH   1  18
BRANCH   1  32
HETATM   32  C7  UNL     1      -4.866  34.144  -4.461  1.00  0.00     0.013 C 
HETATM   33  C8  UNL     1      -5.300  33.036  -5.386  1.00  0.00     0.012 C 
HETATM   34  C9  UNL     1      -4.076  35.223  -5.166  1.00  0.00     0.012 C 
ENDBRANCH   1  32
TORSDOF 8
ENDMDL
MODEL 2
REMARK VINA RESULT: -5.942531240      0.983      1.161
REMARK  8 active torsions:
REMARK  status: ('A' for Active; 'I' for Inactive)
REMARK    1  A    between atoms: C2_2  and  O2_4 
REMARK    2  A    between atoms: O2_4  and  C3_5 
REMARK    3  A    between atoms: C3_5  and  C4_6 
REMARK    4  A    between atoms: C4_6  and  N1_7 
REMARK    5  A    between atoms: C4_6  and  C23_32 
REMARK       I    between atoms: N1_7  and  C5_9 
REMARK    6  A    between atoms: C5_9  and  O4_11 
REMARK    7  A    between atoms: O4_11  and  C6_12 
REMARK    8  A    between atoms: C6_12  and  C7_13 
ROOT
HETATM    1  C6  UNL     1      -6.473  34.685  -3.494  1.00  0.00     0.075 C 
HETATM    2  C10 UNL     1      -7.436  35.150  -4.539  1.00  0.00     0.039 C 
HETATM    3  C11 UNL     1      -8.819  35.415  -4.060  1.00  0.00     0.007 C 
HETATM    4  C12 UNL     1      -9.698  36.066  -5.121  1.00  0.00     0.027 C 
HETATM    5  C13 UNL     1     -10.402  37.257  -4.574  1.00  0.00    -0.031 C 
HETATM    6  C14 UNL     1     -10.435  38.423  -5.214  1.00  0.00    -0.031 C 
HETATM    7  C15 UNL     1      -9.784  38.663  -6.522  1.00  0.00     0.027 C 
HETATM    8  C16 UNL     1      -8.350  39.111  -6.424  1.00  0.00     0.004 C 
HETATM    9  C17 UNL     1      -8.213  40.122  -5.316  1.00  0.00     0.010 C 
HETATM   10  C18 UNL     1      -6.849  40.103  -4.689  1.00  0.00     0.103 C 
HETATM   11  C19 UNL     1      -6.942  40.126  -3.206  1.00  0.00     0.217 C 
HETATM   12  O5  UNL     1      -7.936  40.758  -2.713  1.00  0.00    -0.274 OA
HETATM   13  N2  UNL     1      -6.029  39.511  -2.329  1.00  0.00    -0.361 N 
ATOM     14  H2  UNL     1      -5.809  39.950  -1.436  1.00  0.00     0.162 HD
HETATM   15  C20 UNL     1      -5.397  38.254  -2.690  1.00  0.00     0.122 C 
HETATM   16  C21 UNL     1      -6.427  37.158  -2.810  1.00  0.00     0.023 C 
HETATM   17  C22 UNL     1      -5.956  35.793  -2.599  1.00  0.00     0.041 C 
ENDROOT
BRANCH   1  18
HETATM   18  O4  UNL     1      -7.077  33.751  -2.624  1.00  0.00    -0.292 OA
BRANCH  18  19
HETATM   19  C5  UNL     1      -6.823  33.506  -1.329  1.00  0.00     0.362 C 
HETATM   20  N1  UNL     1      -7.811  33.746  -0.336  1.00  0.00    -0.320 N 
ATOM     21  H1  UNL     1      -8.723  34.110  -0.611  1.00  0.00     0.165 HD
HETATM   22  O3  UNL     1      -5.729  33.069  -0.981  1.00  0.00    -0.238 OA
BRANCH  20  23
HETATM   23  C4  UNL     1      -7.535  33.475   1.090  1.00  0.00     0.212 C 
BRANCH  23  24
HETATM   24  C3  UNL     1      -7.263  34.818   1.702  1.00  0.00     0.214 C 
BRANCH  24  25
HETATM   25  O2  UNL     1      -5.972  34.889   2.221  1.00  0.00    -0.319 OA
BRANCH  25  26
HETATM   26  C2  UNL     1      -4.916  35.407   1.514  1.00  0.00     0.254 C 
HETATM   27  C1  UNL     1      -5.033  36.775   0.896  1.00  0.00     0.126 C 
HETATM   28  O1  UNL     1      -3.834  34.811   1.337  1.00  0.00    -0.266 OA
ENDBRANCH  25  26
ENDBRANCH  24  25
ENDBRANCH  23  24
BRANCH  23  29
HETATM   29  C23 UNL     1      -8.726  32.844   1.690  1.00  0.00     0.199 C 
HETATM   30  O6  UNL     1      -9.022  33.039   2.892  1.00  0.00    -0.646 OA
HETATM   31  O7  UNL     1      -9.527  32.030   0.923  1.00  0.00    -0.646 OA
ENDBRANCH  23  29
ENDBRANCH  20  23
ENDBRANCH  18  19
ENDBRANCH   1  18
BRANCH   1  32
HETATM   32  C7  UNL     1      -5.287  33.941  -4.131  1.00  0.00     0.013 C 
HETATM   33  C8  UNL     1      -5.661  33.349  -5.466  1.00  0.00     0.012 C 
HETATM   34  C9  UNL     1      -4.075  34.841  -4.205  1.00  0.00     0.012 C 
ENDBRANCH   1  32
TORSDOF 8
ENDMDL
MODEL 3
REMARK VINA RESULT: -5.753628197      2.644      4.518
REMARK  8 active torsions:
REMARK  status: ('A' for Active; 'I' for Inactive)
REMARK    1  A    between atoms: C2_2  and  O2_4 
REMARK    2  A    between atoms: O2_4  and  C3_5 
REMARK    3  A    between atoms: C3_5  and  C4_6 
REMARK    4  A    between atoms: C4_6  and  N1_7 
REMARK    5  A    between atoms: C4_6  and  C23_32 
REMARK       I    between atoms: N1_7  and  C5_9 
REMARK    6  A    between atoms: C5_9  and  O4_11 
REMARK    7  A    between atoms: O4_11  and  C6_12 
REMARK    8  A    between atoms: C6_12  and  C7_13 
ROOT
HETATM    1  C6  UNL     1      -6.716  34.938  -3.477  1.00  0.00     0.075 C 
HETATM    2  C10 UNL     1      -5.591  34.547  -4.380  1.00  0.00     0.039 C 
HETATM    3  C11 UNL     1      -5.719  33.208  -5.015  1.00  0.00     0.007 C 
HETATM    4  C12 UNL     1      -4.648  32.946  -6.066  1.00  0.00     0.027 C 
HETATM    5  C13 UNL     1      -5.252  32.445  -7.330  1.00  0.00    -0.031 C 
HETATM    6  C14 UNL     1      -4.931  32.943  -8.521  1.00  0.00    -0.031 C 
HETATM    7  C15 UNL     1      -3.953  34.037  -8.721  1.00  0.00     0.027 C 
HETATM    8  C16 UNL     1      -4.548  35.417  -8.651  1.00  0.00     0.004 C 
HETATM    9  C17 UNL     1      -5.863  35.436  -9.387  1.00  0.00     0.010 C 
HETATM   10  C18 UNL     1      -6.818  36.450  -8.827  1.00  0.00     0.103 C 
HETATM   11  C19 UNL     1      -8.177  35.872  -8.663  1.00  0.00     0.217 C 
HETATM   12  O5  UNL     1      -8.514  34.977  -9.510  1.00  0.00    -0.274 OA
HETATM   13  N2  UNL     1      -9.095  36.235  -7.660  1.00  0.00    -0.361 N 
ATOM     14  H2  UNL     1     -10.093  36.249  -7.867  1.00  0.00     0.162 HD
HETATM   15  C20 UNL     1      -8.628  36.592  -6.331  1.00  0.00     0.122 C 
HETATM   16  C21 UNL     1      -7.966  35.410  -5.668  1.00  0.00     0.023 C 
HETATM   17  C22 UNL     1      -7.960  35.399  -4.209  1.00  0.00     0.041 C 
ENDROOT
BRANCH   1  18
HETATM   18  O4  UNL     1      -7.132  33.849  -2.678  1.00  0.00    -0.292 OA
BRANCH  18  19
HETATM   19  C5  UNL     1      -6.841  33.573  -1.398  1.00  0.00     0.362 C 
HETATM   20  N1  UNL     1      -7.817  33.739  -0.378  1.00  0.00    -0.320 N 
ATOM     21  H1  UNL     1      -8.749  34.074  -0.623  1.00  0.00     0.165 HD
HETATM   22  O3  UNL     1      -5.723  33.171  -1.086  1.00  0.00    -0.238 OA
BRANCH  20  23
HETATM   23  C4  UNL     1      -7.501  33.434   1.032  1.00  0.00     0.212 C 
BRANCH  23  24
HETATM   24  C3  UNL     1      -7.159  34.756   1.656  1.00  0.00     0.214 C 
BRANCH  24  25
HETATM   25  O2  UNL     1      -5.788  34.879   1.868  1.00  0.00    -0.319 OA
BRANCH  25  26
HETATM   26  C2  UNL     1      -5.008  35.775   1.180  1.00  0.00     0.254 C 
HETATM   27  C1  UNL     1      -3.616  35.381   0.763  1.00  0.00     0.126 C 
HETATM   28  O1  UNL     1      -5.377  36.925   0.865  1.00  0.00    -0.266 OA
ENDBRANCH  25  26
ENDBRANCH  24  25
ENDBRANCH  23  24
BRANCH  23  29
HETATM   29  C23 UNL     1      -8.692  32.835   1.664  1.00  0.00     0.199 C 
HETATM   30  O6  UNL     1      -8.956  33.045   2.871  1.00  0.00    -0.646 OA
HETATM   31  O7  UNL     1      -9.530  32.034   0.922  1.00  0.00    -0.646 OA
ENDBRANCH  23  29
ENDBRANCH  20  23
ENDBRANCH  18  19
ENDBRANCH   1  18
BRANCH   1  32
HETATM   32  C7  UNL     1      -6.271  36.025  -2.483  1.00  0.00     0.013 C 
HETATM   33  C8  UNL     1      -4.825  36.399  -2.687  1.00  0.00     0.012 C 
HETATM   34  C9  UNL     1      -7.201  37.215  -2.548  1.00  0.00     0.012 C 
ENDBRANCH   1  32
TORSDOF 8
ENDMDL
MODEL 4
REMARK VINA RESULT: -5.549644248      2.954      4.001
REMARK  8 active torsions:
REMARK  status: ('A' for Active; 'I' for Inactive)
REMARK    1  A    between atoms: C2_2  and  O2_4 
REMARK    2  A    between atoms: O2_4  and  C3_5 
REMARK    3  A    between atoms: C3_5  and  C4_6 
REMARK    4  A    between atoms: C4_6  and  N1_7 
REMARK    5  A    between atoms: C4_6  and  C23_32 
REMARK       I    between atoms: N1_7  and  C5_9 
REMARK    6  A    between atoms: C5_9  and  O4_11 
REMARK    7  A    between atoms: O4_11  and  C6_12 
REMARK    8  A    between atoms: C6_12  and  C7_13 
ROOT
HETATM    1  C6  UNL     1      -5.644  34.996  -1.027  1.00  0.00     0.075 C 
HETATM    2  C10 UNL     1      -6.290  34.587  -2.312  1.00  0.00     0.039 C 
HETATM    3  C11 UNL     1      -7.774  34.493  -2.278  1.00  0.00     0.007 C 
HETATM    4  C12 UNL     1      -8.385  34.263  -3.655  1.00  0.00     0.027 C 
HETATM    5  C13 UNL     1      -9.496  35.218  -3.913  1.00  0.00    -0.031 C 
HETATM    6  C14 UNL     1      -9.597  35.905  -5.047  1.00  0.00    -0.031 C 
HETATM    7  C15 UNL     1      -8.630  35.799  -6.164  1.00  0.00     0.027 C 
HETATM    8  C16 UNL     1      -7.463  36.744  -6.061  1.00  0.00     0.004 C 
HETATM    9  C17 UNL     1      -7.949  38.097  -5.608  1.00  0.00     0.010 C 
HETATM   10  C18 UNL     1      -6.907  38.849  -4.833  1.00  0.00     0.103 C 
HETATM   11  C19 UNL     1      -7.486  39.453  -3.605  1.00  0.00     0.217 C 
HETATM   12  O5  UNL     1      -8.708  39.814  -3.677  1.00  0.00    -0.274 OA
HETATM   13  N2  UNL     1      -6.792  39.649  -2.396  1.00  0.00    -0.361 N 
ATOM     14  H2  UNL     1      -6.993  40.468  -1.823  1.00  0.00     0.162 HD
HETATM   15  C20 UNL     1      -5.792  38.690  -1.959  1.00  0.00     0.122 C 
HETATM   16  C21 UNL     1      -6.426  37.349  -1.686  1.00  0.00     0.023 C 
HETATM   17  C22 UNL     1      -5.735  36.480  -0.739  1.00  0.00     0.041 C 
ENDROOT
BRANCH   1  18
HETATM   18  O4  UNL     1      -6.255  34.361   0.076  1.00  0.00    -0.292 OA
BRANCH  18  19
HETATM   19  C5  UNL     1      -6.595  34.870   1.270  1.00  0.00     0.362 C 
HETATM   20  N1  UNL     1      -5.681  34.846   2.358  1.00  0.00    -0.320 N 
ATOM     21  H1  UNL     1      -4.756  34.436   2.229  1.00  0.00     0.165 HD
HETATM   22  O3  UNL     1      -7.706  35.366   1.442  1.00  0.00    -0.238 OA
BRANCH  20  23
HETATM   23  C4  UNL     1      -6.051  35.408   3.673  1.00  0.00     0.212 C 
BRANCH  23  24
HETATM   24  C3  UNL     1      -6.463  34.228   4.505  1.00  0.00     0.214 C 
BRANCH  24  25
HETATM   25  O2  UNL     1      -6.573  34.569   5.851  1.00  0.00    -0.319 OA
BRANCH  25  26
HETATM   26  C2  UNL     1      -5.972  33.845   6.851  1.00  0.00     0.254 C 
HETATM   27  C1  UNL     1      -6.509  32.485   7.210  1.00  0.00     0.126 C 
HETATM   28  O1  UNL     1      -4.986  34.242   7.505  1.00  0.00    -0.266 OA
ENDBRANCH  25  26
ENDBRANCH  24  25
ENDBRANCH  23  24
BRANCH  23  29
HETATM   29  C23 UNL     1      -4.873  36.084   4.247  1.00  0.00     0.199 C 
HETATM   30  O6  UNL     1      -3.764  35.502   4.313  1.00  0.00    -0.646 OA
HETATM   31  O7  UNL     1      -4.985  37.373   4.717  1.00  0.00    -0.646 OA
ENDBRANCH  23  29
ENDBRANCH  20  23
ENDBRANCH  18  19
ENDBRANCH   1  18
BRANCH   1  32
HETATM   32  C7  UNL     1      -4.171  34.553  -0.988  1.00  0.00     0.013 C 
HETATM   33  C8  UNL     1      -3.939  33.334  -1.844  1.00  0.00     0.012 C 
HETATM   34  C9  UNL     1      -3.262  35.706  -1.347  1.00  0.00     0.012 C 
ENDBRANCH   1  32
TORSDOF 8
ENDMDL
MODEL 5
REMARK VINA RESULT: -5.415551709      4.642      9.168
REMARK  8 active torsions:
REMARK  status: ('A' for Active; 'I' for Inactive)
REMARK    1  A    between atoms: C2_2  and  O2_4 
REMARK    2  A    between atoms: O2_4  and  C3_5 
REMARK    3  A    between atoms: C3_5  and  C4_6 
REMARK    4  A    between atoms: C4_6  and  N1_7 
REMARK    5  A    between atoms: C4_6  and  C23_32 
REMARK       I    between atoms: N1_7  and  C5_9 
REMARK    6  A    between atoms: C5_9  and  O4_11 
REMARK    7  A    between atoms: O4_11  and  C6_12 
REMARK    8  A    between atoms: C6_12  and  C7_13 
ROOT
HETATM    1  C6  UNL     1      -5.755  37.564   3.482  1.00  0.00     0.075 C 
HETATM    2  C10 UNL     1      -5.872  37.183   4.923  1.00  0.00     0.039 C 
HETATM    3  C11 UNL     1      -6.323  35.788   5.180  1.00  0.00     0.007 C 
HETATM    4  C12 UNL     1      -6.238  35.400   6.651  1.00  0.00     0.027 C 
HETATM    5  C13 UNL     1      -5.546  34.094   6.819  1.00  0.00    -0.031 C 
HETATM    6  C14 UNL     1      -4.576  33.910   7.710  1.00  0.00    -0.031 C 
HETATM    7  C15 UNL     1      -4.083  34.968   8.622  1.00  0.00     0.027 C 
HETATM    8  C16 UNL     1      -2.972  35.806   8.050  1.00  0.00     0.004 C 
HETATM    9  C17 UNL     1      -1.994  34.918   7.324  1.00  0.00     0.010 C 
HETATM   10  C18 UNL     1      -1.304  35.628   6.196  1.00  0.00     0.103 C 
HETATM   11  C19 UNL     1      -1.283  34.790   4.969  1.00  0.00     0.217 C 
HETATM   12  O5  UNL     1      -1.222  33.527   5.151  1.00  0.00    -0.274 OA
HETATM   13  N2  UNL     1      -1.327  35.283   3.652  1.00  0.00    -0.361 N 
ATOM     14  H2  UNL     1      -0.808  34.806   2.915  1.00  0.00     0.162 HD
HETATM   15  C20 UNL     1      -2.106  36.468   3.336  1.00  0.00     0.122 C 
HETATM   16  C21 UNL     1      -3.574  36.214   3.572  1.00  0.00     0.023 C 
HETATM   17  C22 UNL     1      -4.509  37.030   2.805  1.00  0.00     0.041 C 
ENDROOT
BRANCH   1  18
HETATM   18  O4  UNL     1      -6.838  37.056   2.731  1.00  0.00    -0.292 OA
BRANCH  18  19
HETATM   19  C5  UNL     1      -6.874  36.666   1.447  1.00  0.00     0.362 C 
HETATM   20  N1  UNL     1      -6.638  35.310   1.092  1.00  0.00    -0.320 N 
ATOM     21  H1  UNL     1      -6.437  34.626   1.821  1.00  0.00     0.165 HD
HETATM   22  O3  UNL     1      -7.114  37.477   0.557  1.00  0.00    -0.238 OA
BRANCH  20  23
HETATM   23  C4  UNL     1      -6.680  34.878  -0.320  1.00  0.00     0.212 C 
BRANCH  23  24
HETATM   24  C3  UNL     1      -5.245  34.692  -0.719  1.00  0.00     0.214 C 
BRANCH  24  25
HETATM   25  O2  UNL     1      -4.431  34.481   0.391  1.00  0.00    -0.319 OA
BRANCH  25  26
HETATM   26  C2  UNL     1      -3.060  34.491   0.317  1.00  0.00     0.254 C 
HETATM   27  C1  UNL     1      -2.370  35.497  -0.566  1.00  0.00     0.126 C 
HETATM   28  O1  UNL     1      -2.320  33.705   0.944  1.00  0.00    -0.266 OA
ENDBRANCH  25  26
ENDBRANCH  24  25
ENDBRANCH  23  24
BRANCH  23  29
HETATM   29  C23 UNL     1      -7.428  33.609  -0.403  1.00  0.00     0.199 C 
HETATM   30  O6  UNL     1      -8.279  33.420  -1.304  1.00  0.00    -0.646 OA
HETATM   31  O7  UNL     1      -7.192  32.614   0.518  1.00  0.00    -0.646 OA
ENDBRANCH  23  29
ENDBRANCH  20  23
ENDBRANCH  18  19
ENDBRANCH   1  18
BRANCH   1  32
HETATM   32  C7  UNL     1      -5.821  39.091   3.310  1.00  0.00     0.013 C 
HETATM   33  C8  UNL     1      -5.987  39.788   4.637  1.00  0.00     0.012 C 
HETATM   34  C9  UNL     1      -4.626  39.588   2.530  1.00  0.00     0.012 C 
ENDBRANCH   1  32
TORSDOF 8
ENDMDL
