MODEL 1
REMARK VINA RESULT: -7.565084983      0.000      0.000
REMARK  8 active torsions:
REMARK  status: ('A' for Active; 'I' for Inactive)
REMARK       I    between atoms: C1_2  and  N1_3 
REMARK       I    between atoms: C1_2  and  N7_29 
REMARK    1  A    between atoms: N1_3  and  C2_5 
REMARK    2  A    between atoms: C2_5  and  O2_6 
REMARK    3  A    between atoms: C2_5  and  C3_8 
REMARK    4  A    between atoms: N5_20  and  C8_21 
REMARK    5  A    between atoms: C8_21  and  C9_22 
REMARK    6  A    between atoms: C9_22  and  C10_23 
REMARK    7  A    between atoms: C10_23  and  N6_24 
REMARK    8  A    between atoms: N7_29  and  C15_31 
ROOT
HETATM    1  C3  UNL     1      -5.491  36.800   7.184  1.00  0.00     0.166 A 
HETATM    2  N2  UNL     1      -6.501  37.617   7.697  1.00  0.00    -0.323 N 
ATOM      3  H2  UNL     1      -7.435  37.712   7.300  1.00  0.00     0.169 HD
HETATM    4  C4  UNL     1      -6.064  38.252   8.775  1.00  0.00     0.141 A 
HETATM    5  N3  UNL     1      -6.684  39.126   9.614  1.00  0.00    -0.336 N 
ATOM      6  H3  UNL     1      -7.648  39.418   9.457  1.00  0.00     0.168 HD
HETATM    7  C5  UNL     1      -5.980  39.586  10.649  1.00  0.00     0.185 A 
HETATM    8  N4  UNL     1      -4.719  39.218  10.873  1.00  0.00    -0.318 N 
ATOM      9  H4  UNL     1      -4.226  39.598  11.681  1.00  0.00     0.169 HD
HETATM   10  C6  UNL     1      -4.067  38.339  10.044  1.00  0.00     0.277 A 
HETATM   11  O3  UNL     1      -2.893  38.037  10.313  1.00  0.00    -0.266 OA
HETATM   12  C7  UNL     1      -4.776  37.858   8.973  1.00  0.00     0.153 A 
HETATM   13  N5  UNL     1      -4.437  36.963   7.983  1.00  0.00    -0.300 N 
ENDROOT
BRANCH   1  14
HETATM   14  C2  UNL     1      -5.754  36.024   6.003  1.00  0.00     0.190 C 
BRANCH  14  15
HETATM   15  N1  UNL     1      -4.912  35.675   4.954  1.00  0.00    -0.286 N 
HETATM   16  C1  UNL     1      -5.245  35.546   3.588  1.00  0.00     0.322 C 
HETATM   17  O1  UNL     1      -4.273  35.204   2.804  1.00  0.00    -0.247 OA
HETATM   18  N7  UNL     1      -6.486  35.736   2.958  1.00  0.00    -0.338 N 
ATOM     19  H7  UNL     1      -7.302  36.006   3.508  1.00  0.00     0.164 HD
ATOM     20  H1  UNL     1      -3.940  35.489   5.201  1.00  0.00     0.172 HD
BRANCH  18  21
HETATM   21  C15 UNL     1      -6.612  35.541   1.483  1.00  0.00     0.086 C 
HETATM   22  C16 UNL     1      -6.830  36.909   0.926  1.00  0.00     0.025 C 
HETATM   23  C17 UNL     1      -6.876  37.037  -0.547  1.00  0.00     0.002 C 
HETATM   24  C18 UNL     1      -6.073  36.088  -1.353  1.00  0.00     0.000 C 
HETATM   25  C19 UNL     1      -6.939  35.163  -2.220  1.00  0.00     0.000 C 
HETATM   26  C20 UNL     1      -6.890  33.737  -1.714  1.00  0.00     0.000 C 
HETATM   27  C21 UNL     1      -8.048  33.441  -0.786  1.00  0.00     0.000 C 
HETATM   28  C22 UNL     1      -7.626  33.386   0.669  1.00  0.00     0.002 C 
HETATM   29  C23 UNL     1      -7.842  34.700   1.330  1.00  0.00     0.025 C 
ENDBRANCH  18  21
ENDBRANCH  14  15
BRANCH  14  30
HETATM   30  O2  UNL     1      -6.990  35.587   5.929  1.00  0.00    -0.343 OA
ATOM     31  H2  UNL     1      -7.440  35.455   6.755  1.00  0.00     0.219 HD
ENDBRANCH  14  30
ENDBRANCH   1  14
BRANCH  13  32
HETATM   32  C8  UNL     1      -3.185  36.326   7.921  1.00  0.00     0.074 C 
BRANCH  32  33
HETATM   33  C9  UNL     1      -3.087  34.871   8.212  1.00  0.00     0.075 C 
BRANCH  33  34
HETATM   34  C10 UNL     1      -3.545  34.361   9.529  1.00  0.00     0.277 C 
BRANCH  34  35
HETATM   35  N6  UNL     1      -4.626  33.422   9.496  1.00  0.00     0.088 N 
HETATM   36  C11 UNL     1      -4.814  33.047   8.080  1.00  0.00     0.272 C 
HETATM   37  C12 UNL     1      -5.751  31.865   8.232  1.00  0.00     0.032 C 
HETATM   38  C13 UNL     1      -5.119  31.112   9.386  1.00  0.00     0.032 C 
HETATM   39  C14 UNL     1      -4.251  32.139  10.079  1.00  0.00     0.272 C 
ENDBRANCH  34  35
ENDBRANCH  33  34
ENDBRANCH  32  33
ENDBRANCH  13  32
TORSDOF 8
ENDMDL
MODEL 2
REMARK VINA RESULT: -7.361457213      2.109      3.985
REMARK  8 active torsions:
REMARK  status: ('A' for Active; 'I' for Inactive)
REMARK       I    between atoms: C1_2  and  N1_3 
REMARK       I    between atoms: C1_2  and  N7_29 
REMARK    1  A    between atoms: N1_3  and  C2_5 
REMARK    2  A    between atoms: C2_5  and  O2_6 
REMARK    3  A    between atoms: C2_5  and  C3_8 
REMARK    4  A    between atoms: N5_20  and  C8_21 
REMARK    5  A    between atoms: C8_21  and  C9_22 
REMARK    6  A    between atoms: C9_22  and  C10_23 
REMARK    7  A    between atoms: C10_23  and  N6_24 
REMARK    8  A    between atoms: N7_29  and  C15_31 
ROOT
HETATM    1  C3  UNL     1      -5.335  34.666   7.147  1.00  0.00     0.166 A 
HETATM    2  N2  UNL     1      -5.788  33.347   7.098  1.00  0.00    -0.323 N 
ATOM      3  H2  UNL     1      -6.373  32.956   6.360  1.00  0.00     0.169 HD
HETATM    4  C4  UNL     1      -5.345  32.678   8.152  1.00  0.00     0.141 A 
HETATM    5  N3  UNL     1      -5.506  31.377   8.522  1.00  0.00    -0.336 N 
ATOM      6  H3  UNL     1      -6.063  30.732   7.963  1.00  0.00     0.168 HD
HETATM    7  C5  UNL     1      -4.906  30.981   9.646  1.00  0.00     0.185 A 
HETATM    8  N4  UNL     1      -4.173  31.807  10.391  1.00  0.00    -0.318 N 
ATOM      9  H4  UNL     1      -3.734  31.453  11.241  1.00  0.00     0.169 HD
HETATM   10  C6  UNL     1      -3.994  33.124  10.044  1.00  0.00     0.277 A 
HETATM   11  O3  UNL     1      -3.296  33.837  10.783  1.00  0.00    -0.266 OA
HETATM   12  C7  UNL     1      -4.605  33.548   8.893  1.00  0.00     0.153 A 
HETATM   13  N5  UNL     1      -4.610  34.772   8.261  1.00  0.00    -0.300 N 
ENDROOT
BRANCH   1  14
HETATM   14  C2  UNL     1      -5.711  35.573   6.096  1.00  0.00     0.190 C 
BRANCH  14  15
HETATM   15  N1  UNL     1      -4.985  36.028   5.003  1.00  0.00    -0.286 N 
HETATM   16  C1  UNL     1      -5.325  35.919   3.637  1.00  0.00     0.322 C 
HETATM   17  O1  UNL     1      -4.473  36.427   2.805  1.00  0.00    -0.247 OA
HETATM   18  N7  UNL     1      -6.459  35.333   3.051  1.00  0.00    -0.338 N 
ATOM     19  H7  UNL     1      -7.177  34.910   3.641  1.00  0.00     0.164 HD
ATOM     20  H1  UNL     1      -4.104  36.497   5.212  1.00  0.00     0.172 HD
BRANCH  18  21
HETATM   21  C15 UNL     1      -6.614  35.327   1.566  1.00  0.00     0.086 C 
HETATM   22  C16 UNL     1      -6.895  36.747   1.197  1.00  0.00     0.025 C 
HETATM   23  C17 UNL     1      -6.980  37.063  -0.245  1.00  0.00     0.002 C 
HETATM   24  C18 UNL     1      -6.164  36.260  -1.184  1.00  0.00     0.000 C 
HETATM   25  C19 UNL     1      -7.017  35.422  -2.147  1.00  0.00     0.000 C 
HETATM   26  C20 UNL     1      -6.904  33.945  -1.834  1.00  0.00     0.000 C 
HETATM   27  C21 UNL     1      -8.028  33.486  -0.930  1.00  0.00     0.000 C 
HETATM   28  C22 UNL     1      -7.569  33.258   0.497  1.00  0.00     0.002 C 
HETATM   29  C23 UNL     1      -7.816  34.466   1.329  1.00  0.00     0.025 C 
ENDBRANCH  18  21
ENDBRANCH  14  15
BRANCH  14  30
HETATM   30  O2  UNL     1      -6.939  36.024   6.210  1.00  0.00    -0.343 OA
ATOM     31  H2  UNL     1      -7.575  35.672   5.598  1.00  0.00     0.219 HD
ENDBRANCH  14  30
ENDBRANCH   1  14
BRANCH  13  32
HETATM   32  C8  UNL     1      -3.900  35.886   8.740  1.00  0.00     0.074 C 
BRANCH  32  33
HETATM   33  C9  UNL     1      -2.680  36.342   8.024  1.00  0.00     0.075 C 
BRANCH  33  34
HETATM   34  C10 UNL     1      -1.539  35.405   7.862  1.00  0.00     0.277 C 
BRANCH  34  35
HETATM   35  N6  UNL     1      -1.021  35.273   6.533  1.00  0.00     0.088 N 
HETATM   36  C11 UNL     1      -1.875  34.284   5.845  1.00  0.00     0.272 C 
HETATM   37  C12 UNL     1      -1.413  34.469   4.415  1.00  0.00     0.032 C 
HETATM   38  C13 UNL     1      -1.349  35.980   4.300  1.00  0.00     0.032 C 
HETATM   39  C14 UNL     1      -1.271  36.466   5.731  1.00  0.00     0.272 C 
ENDBRANCH  34  35
ENDBRANCH  33  34
ENDBRANCH  32  33
ENDBRANCH  13  32
TORSDOF 8
ENDMDL
MODEL 3
REMARK VINA RESULT: -7.355886462      1.611      4.093
REMARK  8 active torsions:
REMARK  status: ('A' for Active; 'I' for Inactive)
REMARK       I    between atoms: C1_2  and  N1_3 
REMARK       I    between atoms: C1_2  and  N7_29 
REMARK    1  A    between atoms: N1_3  and  C2_5 
REMARK    2  A    between atoms: C2_5  and  O2_6 
REMARK    3  A    between atoms: C2_5  and  C3_8 
REMARK    4  A    between atoms: N5_20  and  C8_21 
REMARK    5  A    between atoms: C8_21  and  C9_22 
REMARK    6  A    between atoms: C9_22  and  C10_23 
REMARK    7  A    between atoms: C10_23  and  N6_24 
REMARK    8  A    between atoms: N7_29  and  C15_31 
ROOT
HETATM    1  C3  UNL     1      -5.289  34.423   7.105  1.00  0.00     0.166 A 
HETATM    2  N2  UNL     1      -5.859  33.154   7.217  1.00  0.00    -0.323 N 
ATOM      3  H2  UNL     1      -6.527  32.752   6.559  1.00  0.00     0.169 HD
HETATM    4  C4  UNL     1      -5.405  32.550   8.305  1.00  0.00     0.141 A 
HETATM    5  N3  UNL     1      -5.654  31.311   8.814  1.00  0.00    -0.336 N 
ATOM      6  H3  UNL     1      -6.304  30.672   8.357  1.00  0.00     0.168 HD
HETATM    7  C5  UNL     1      -5.015  30.969   9.933  1.00  0.00     0.185 A 
HETATM    8  N4  UNL     1      -4.163  31.789  10.546  1.00  0.00    -0.318 N 
ATOM      9  H4  UNL     1      -3.699  31.478  11.399  1.00  0.00     0.169 HD
HETATM   10  C6  UNL     1      -3.892  33.044  10.057  1.00  0.00     0.277 A 
HETATM   11  O3  UNL     1      -3.085  33.755  10.677  1.00  0.00    -0.266 OA
HETATM   12  C7  UNL     1      -4.542  33.413   8.908  1.00  0.00     0.153 A 
HETATM   13  N5  UNL     1      -4.483  34.565   8.156  1.00  0.00    -0.300 N 
ENDROOT
BRANCH   1  14
HETATM   14  C2  UNL     1      -5.655  35.257   5.992  1.00  0.00     0.190 C 
BRANCH  14  15
HETATM   15  N1  UNL     1      -4.901  35.689   4.909  1.00  0.00    -0.286 N 
HETATM   16  C1  UNL     1      -5.257  35.660   3.543  1.00  0.00     0.322 C 
HETATM   17  O1  UNL     1      -4.371  36.124   2.722  1.00  0.00    -0.247 OA
HETATM   18  N7  UNL     1      -6.441  35.195   2.948  1.00  0.00    -0.338 N 
ATOM     19  H7  UNL     1      -7.189  34.814   3.529  1.00  0.00     0.164 HD
ATOM     20  H1  UNL     1      -3.981  36.073   5.126  1.00  0.00     0.172 HD
BRANCH  18  21
HETATM   21  C15 UNL     1      -6.607  35.257   1.465  1.00  0.00     0.086 C 
HETATM   22  C16 UNL     1      -6.875  36.695   1.162  1.00  0.00     0.025 C 
HETATM   23  C17 UNL     1      -6.966  37.077  -0.263  1.00  0.00     0.002 C 
HETATM   24  C18 UNL     1      -6.165  36.308  -1.243  1.00  0.00     0.000 C 
HETATM   25  C19 UNL     1      -7.033  35.523  -2.237  1.00  0.00     0.000 C 
HETATM   26  C20 UNL     1      -6.933  34.033  -1.991  1.00  0.00     0.000 C 
HETATM   27  C21 UNL     1      -8.056  33.545  -1.101  1.00  0.00     0.000 C 
HETATM   28  C22 UNL     1      -7.590  33.249   0.311  1.00  0.00     0.002 C 
HETATM   29  C23 UNL     1      -7.819  34.420   1.198  1.00  0.00     0.025 C 
ENDBRANCH  18  21
ENDBRANCH  14  15
BRANCH  14  30
HETATM   30  O2  UNL     1      -6.906  35.657   6.028  1.00  0.00    -0.343 OA
ATOM     31  H2  UNL     1      -7.054  36.553   6.306  1.00  0.00     0.219 HD
ENDBRANCH  14  30
ENDBRANCH   1  14
BRANCH  13  32
HETATM   32  C8  UNL     1      -3.645  35.648   8.477  1.00  0.00     0.074 C 
BRANCH  32  33
HETATM   33  C9  UNL     1      -4.237  36.992   8.704  1.00  0.00     0.075 C 
BRANCH  33  34
HETATM   34  C10 UNL     1      -5.305  37.153   9.724  1.00  0.00     0.277 C 
BRANCH  34  35
HETATM   35  N6  UNL     1      -4.860  37.365  11.069  1.00  0.00     0.088 N 
HETATM   36  C11 UNL     1      -5.430  38.657  11.502  1.00  0.00     0.272 C 
HETATM   37  C12 UNL     1      -5.137  38.602  12.987  1.00  0.00     0.032 C 
HETATM   38  C13 UNL     1      -5.526  37.178  13.330  1.00  0.00     0.032 C 
HETATM   39  C14 UNL     1      -5.501  36.448  12.005  1.00  0.00     0.272 C 
ENDBRANCH  34  35
ENDBRANCH  33  34
ENDBRANCH  32  33
ENDBRANCH  13  32
TORSDOF 8
ENDMDL
MODEL 4
REMARK VINA RESULT: -7.295894014      1.586      4.372
REMARK  8 active torsions:
REMARK  status: ('A' for Active; 'I' for Inactive)
REMARK       I    between atoms: C1_2  and  N1_3 
REMARK       I    between atoms: C1_2  and  N7_29 
REMARK    1  A    between atoms: N1_3  and  C2_5 
REMARK    2  A    between atoms: C2_5  and  O2_6 
REMARK    3  A    between atoms: C2_5  and  C3_8 
REMARK    4  A    between atoms: N5_20  and  C8_21 
REMARK    5  A    between atoms: C8_21  and  C9_22 
REMARK    6  A    between atoms: C9_22  and  C10_23 
REMARK    7  A    between atoms: C10_23  and  N6_24 
REMARK    8  A    between atoms: N7_29  and  C15_31 
ROOT
HETATM    1  C3  UNL     1      -5.357  34.366   7.128  1.00  0.00     0.166 A 
HETATM    2  N2  UNL     1      -5.855  33.063   7.194  1.00  0.00    -0.323 N 
ATOM      3  H2  UNL     1      -6.474  32.637   6.504  1.00  0.00     0.169 HD
HETATM    4  C4  UNL     1      -5.404  32.462   8.285  1.00  0.00     0.141 A 
HETATM    5  N3  UNL     1      -5.598  31.200   8.760  1.00  0.00    -0.336 N 
ATOM      6  H3  UNL     1      -6.192  30.534   8.267  1.00  0.00     0.168 HD
HETATM    7  C5  UNL     1      -4.979  30.871   9.895  1.00  0.00     0.185 A 
HETATM    8  N4  UNL     1      -4.199  31.726  10.554  1.00  0.00    -0.318 N 
ATOM      9  H4  UNL     1      -3.747  31.423  11.418  1.00  0.00     0.169 HD
HETATM   10  C6  UNL     1      -3.986  33.005  10.101  1.00  0.00     0.277 A 
HETATM   11  O3  UNL     1      -3.244  33.748  10.764  1.00  0.00    -0.266 OA
HETATM   12  C7  UNL     1      -4.616  33.361   8.937  1.00  0.00     0.153 A 
HETATM   13  N5  UNL     1      -4.598  34.531   8.211  1.00  0.00    -0.300 N 
ENDROOT
BRANCH   1  14
HETATM   14  C2  UNL     1      -5.733  35.201   6.020  1.00  0.00     0.190 C 
BRANCH  14  15
HETATM   15  N1  UNL     1      -4.978  35.664   4.950  1.00  0.00    -0.286 N 
HETATM   16  C1  UNL     1      -5.316  35.636   3.580  1.00  0.00     0.322 C 
HETATM   17  O1  UNL     1      -4.433  36.133   2.774  1.00  0.00    -0.247 OA
HETATM   18  N7  UNL     1      -6.479  35.143   2.966  1.00  0.00    -0.338 N 
ATOM     19  H7  UNL     1      -7.223  34.736   3.534  1.00  0.00     0.164 HD
ATOM     20  H1  UNL     1      -4.072  36.072   5.182  1.00  0.00     0.172 HD
BRANCH  18  21
HETATM   21  C15 UNL     1      -6.628  35.214   1.481  1.00  0.00     0.086 C 
HETATM   22  C16 UNL     1      -6.918  36.649   1.186  1.00  0.00     0.025 C 
HETATM   23  C17 UNL     1      -7.000  37.039  -0.237  1.00  0.00     0.002 C 
HETATM   24  C18 UNL     1      -6.173  36.293  -1.213  1.00  0.00     0.000 C 
HETATM   25  C19 UNL     1      -7.015  35.500  -2.223  1.00  0.00     0.000 C 
HETATM   26  C20 UNL     1      -6.891  34.010  -1.988  1.00  0.00     0.000 C 
HETATM   27  C21 UNL     1      -8.015  33.495  -1.115  1.00  0.00     0.000 C 
HETATM   28  C22 UNL     1      -7.561  33.197   0.301  1.00  0.00     0.002 C 
HETATM   29  C23 UNL     1      -7.822  34.357   1.194  1.00  0.00     0.025 C 
ENDBRANCH  18  21
ENDBRANCH  14  15
BRANCH  14  30
HETATM   30  O2  UNL     1      -6.993  35.567   6.046  1.00  0.00    -0.343 OA
ATOM     31  H2  UNL     1      -7.631  34.899   5.821  1.00  0.00     0.219 HD
ENDBRANCH  14  30
ENDBRANCH   1  14
BRANCH  13  32
HETATM   32  C8  UNL     1      -3.837  35.653   8.584  1.00  0.00     0.074 C 
BRANCH  32  33
HETATM   33  C9  UNL     1      -4.466  36.730   9.391  1.00  0.00     0.075 C 
BRANCH  33  34
HETATM   34  C10 UNL     1      -4.558  38.101   8.829  1.00  0.00     0.277 C 
BRANCH  34  35
HETATM   35  N6  UNL     1      -4.643  38.187   7.401  1.00  0.00     0.088 N 
HETATM   36  C11 UNL     1      -5.941  38.819   7.093  1.00  0.00     0.272 C 
HETATM   37  C12 UNL     1      -5.762  39.112   5.618  1.00  0.00     0.032 C 
HETATM   38  C13 UNL     1      -4.352  39.666   5.579  1.00  0.00     0.032 C 
HETATM   39  C14 UNL     1      -3.715  39.176   6.861  1.00  0.00     0.272 C 
ENDBRANCH  34  35
ENDBRANCH  33  34
ENDBRANCH  32  33
ENDBRANCH  13  32
TORSDOF 8
ENDMDL
MODEL 5
REMARK VINA RESULT: -7.238583047      2.870      8.046
REMARK  8 active torsions:
REMARK  status: ('A' for Active; 'I' for Inactive)
REMARK       I    between atoms: C1_2  and  N1_3 
REMARK       I    between atoms: C1_2  and  N7_29 
REMARK    1  A    between atoms: N1_3  and  C2_5 
REMARK    2  A    between atoms: C2_5  and  O2_6 
REMARK    3  A    between atoms: C2_5  and  C3_8 
REMARK    4  A    between atoms: N5_20  and  C8_21 
REMARK    5  A    between atoms: C8_21  and  C9_22 
REMARK    6  A    between atoms: C9_22  and  C10_23 
REMARK    7  A    between atoms: C10_23  and  N6_24 
REMARK    8  A    between atoms: N7_29  and  C15_31 
ROOT
HETATM    1  C3  UNL     1      -4.220  38.196   3.524  1.00  0.00     0.166 A 
HETATM    2  N2  UNL     1      -3.903  39.223   2.633  1.00  0.00    -0.323 N 
ATOM      3  H2  UNL     1      -3.003  39.702   2.588  1.00  0.00     0.169 HD
HETATM    4  C4  UNL     1      -4.943  39.484   1.855  1.00  0.00     0.141 A 
HETATM    5  N3  UNL     1      -5.102  40.375   0.838  1.00  0.00    -0.336 N 
ATOM      6  H3  UNL     1      -4.351  41.008   0.566  1.00  0.00     0.168 HD
HETATM    7  C5  UNL     1      -6.281  40.387   0.213  1.00  0.00     0.185 A 
HETATM    8  N4  UNL     1      -7.276  39.570   0.553  1.00  0.00    -0.318 N 
ATOM      9  H4  UNL     1      -8.157  39.619   0.041  1.00  0.00     0.169 HD
HETATM   10  C6  UNL     1      -7.145  38.662   1.575  1.00  0.00     0.277 A 
HETATM   11  O3  UNL     1      -8.112  37.928   1.837  1.00  0.00    -0.266 OA
HETATM   12  C7  UNL     1      -5.941  38.636   2.230  1.00  0.00     0.153 A 
HETATM   13  N5  UNL     1      -5.480  37.849   3.261  1.00  0.00    -0.300 N 
ENDROOT
BRANCH   1  14
HETATM   14  C2  UNL     1      -3.229  37.761   4.469  1.00  0.00     0.190 C 
BRANCH  14  15
HETATM   15  N1  UNL     1      -2.700  36.497   4.696  1.00  0.00    -0.286 N 
HETATM   16  C1  UNL     1      -3.154  35.524   5.614  1.00  0.00     0.322 C 
HETATM   17  O1  UNL     1      -2.483  34.418   5.635  1.00  0.00    -0.247 OA
HETATM   18  N7  UNL     1      -4.233  35.589   6.510  1.00  0.00    -0.338 N 
ATOM     19  H7  UNL     1      -4.811  36.429   6.552  1.00  0.00     0.164 HD
ATOM     20  H1  UNL     1      -1.888  36.241   4.134  1.00  0.00     0.172 HD
BRANCH  18  21
HETATM   21  C15 UNL     1      -4.535  34.430   7.401  1.00  0.00     0.086 C 
HETATM   22  C16 UNL     1      -5.844  33.896   6.918  1.00  0.00     0.025 C 
HETATM   23  C17 UNL     1      -6.341  32.656   7.552  1.00  0.00     0.002 C 
HETATM   24  C18 UNL     1      -5.344  31.679   8.047  1.00  0.00     0.000 C 
HETATM   25  C19 UNL     1      -5.383  31.510   9.572  1.00  0.00     0.000 C 
HETATM   26  C20 UNL     1      -4.146  32.094  10.219  1.00  0.00     0.000 C 
HETATM   27  C21 UNL     1      -4.383  33.515  10.681  1.00  0.00     0.000 C 
HETATM   28  C22 UNL     1      -3.719  34.537   9.779  1.00  0.00     0.002 C 
HETATM   29  C23 UNL     1      -4.678  35.042   8.760  1.00  0.00     0.025 C 
ENDBRANCH  18  21
ENDBRANCH  14  15
BRANCH  14  30
HETATM   30  O2  UNL     1      -2.763  38.731   5.222  1.00  0.00    -0.343 OA
ATOM     31  H2  UNL     1      -2.495  39.523   4.771  1.00  0.00     0.219 HD
ENDBRANCH  14  30
ENDBRANCH   1  14
BRANCH  13  32
HETATM   32  C8  UNL     1      -6.249  36.832   3.852  1.00  0.00     0.074 C 
BRANCH  32  33
HETATM   33  C9  UNL     1      -6.075  35.426   3.404  1.00  0.00     0.075 C 
BRANCH  33  34
HETATM   34  C10 UNL     1      -6.086  35.119   1.951  1.00  0.00     0.277 C 
BRANCH  34  35
HETATM   35  N6  UNL     1      -7.290  34.530   1.445  1.00  0.00     0.088 N 
HETATM   36  C11 UNL     1      -6.952  33.941   0.135  1.00  0.00     0.272 C 
HETATM   37  C12 UNL     1      -8.198  33.121  -0.128  1.00  0.00     0.032 C 
HETATM   38  C13 UNL     1      -8.437  32.474   1.222  1.00  0.00     0.032 C 
HETATM   39  C14 UNL     1      -7.671  33.340   2.198  1.00  0.00     0.272 C 
ENDBRANCH  34  35
ENDBRANCH  33  34
ENDBRANCH  32  33
ENDBRANCH  13  32
TORSDOF 8
ENDMDL
