MODEL 1
REMARK VINA RESULT: -6.578517943      0.000      0.000
REMARK  9 active torsions:
REMARK  status: ('A' for Active; 'I' for Inactive)
REMARK       I    between atoms: C2_2  and  N1_4 
REMARK    1  A    between atoms: N1_4  and  C3_6 
REMARK    2  A    between atoms: C9_12  and  C10_13 
REMARK    3  A    between atoms: C10_13  and  C12_15 
REMARK    4  A    between atoms: C12_15  and  C13_16 
REMARK    5  A    between atoms: C13_16  and  C14_17 
REMARK    6  A    between atoms: C14_17  and  O2_20 
REMARK    7  A    between atoms: C19_24  and  O3_25 
REMARK    8  A    between atoms: O3_25  and  C20_26 
REMARK    9  A    between atoms: C24_32  and  O6_33 
ROOT
HETATM    1  C3  UNL     1      -6.135  37.174   3.962  1.00  0.00     0.087 C 
HETATM    2  C4  UNL     1      -6.873  37.726   2.767  1.00  0.00     0.033 C 
HETATM    3  C5  UNL     1      -6.744  36.587   1.770  1.00  0.00     0.030 C 
HETATM    4  C6  UNL     1      -6.770  37.098   0.400  1.00  0.00     0.004 C 
HETATM    5  C7  UNL     1      -5.883  38.222   0.023  1.00  0.00     0.006 C 
HETATM    6  C8  UNL     1      -5.818  38.146  -1.520  1.00  0.00     0.006 C 
HETATM    7  C9  UNL     1      -6.621  36.932  -1.824  1.00  0.00     0.000 C 
HETATM    8  C17 UNL     1      -6.391  36.035  -0.661  1.00  0.00    -0.006 C 
HETATM    9  C18 UNL     1      -7.485  34.947  -0.621  1.00  0.00     0.019 C 
HETATM   10  C19 UNL     1      -5.071  35.493  -0.368  1.00  0.00     0.180 C 
HETATM   11  C22 UNL     1      -4.529  35.696   1.036  1.00  0.00     0.140 A 
HETATM   12  C23 UNL     1      -3.131  35.856   1.338  1.00  0.00     0.213 A 
HETATM   13  O5  UNL     1      -3.599  34.553   1.356  1.00  0.00    -0.369 OA
HETATM   14  C24 UNL     1      -5.528  35.783   2.116  1.00  0.00     0.099 C 
HETATM   15  C25 UNL     1      -4.908  36.611   3.259  1.00  0.00     0.066 C 
ENDROOT
BRANCH   7  16
HETATM   16  C10 UNL     1      -6.724  36.447  -3.191  1.00  0.00    -0.014 C 
HETATM   17  C11 UNL     1      -5.700  36.870  -4.179  1.00  0.00     0.010 C 
BRANCH  16  18
HETATM   18  C12 UNL     1      -8.095  36.829  -3.730  1.00  0.00     0.007 C 
BRANCH  18  19
HETATM   19  C13 UNL     1      -9.037  35.709  -3.929  1.00  0.00     0.037 C 
BRANCH  19  20
HETATM   20  C14 UNL     1     -10.131  36.231  -4.881  1.00  0.00     0.051 C 
HETATM   21  C15 UNL     1     -10.233  37.739  -4.772  1.00  0.00     0.045 C 
HETATM   22  C16 UNL     1     -11.477  35.657  -4.497  1.00  0.00     0.045 C 
BRANCH  20  23
HETATM   23  O2  UNL     1      -9.840  35.846  -6.177  1.00  0.00    -0.391 OA
ATOM     24  H2  UNL     1     -10.637  35.846  -6.695  1.00  0.00     0.210 HD
ENDBRANCH  20  23
ENDBRANCH  19  20
ENDBRANCH  18  19
ENDBRANCH  16  18
ENDBRANCH   7  16
BRANCH  10  25
HETATM   25  O3  UNL     1      -5.160  34.068  -0.610  1.00  0.00    -0.312 OA
BRANCH  25  26
HETATM   26  C20 UNL     1      -4.402  33.428  -1.536  1.00  0.00     0.255 C 
HETATM   27  C21 UNL     1      -4.589  33.581  -3.013  1.00  0.00     0.126 C 
HETATM   28  O4  UNL     1      -3.493  32.666  -1.179  1.00  0.00    -0.266 OA
ENDBRANCH  25  26
ENDBRANCH  10  25
BRANCH  14  29
HETATM   29  O6  UNL     1      -5.848  34.551   2.696  1.00  0.00    -0.386 OA
ATOM     30  H6  UNL     1      -5.405  33.825   2.275  1.00  0.00     0.210 HD
ENDBRANCH  14  29
BRANCH   1  31
HETATM   31  N1  UNL     1      -5.832  38.181   4.921  1.00  0.00    -0.357 N 
HETATM   32  C2  UNL     1      -6.173  38.237   6.278  1.00  0.00     0.213 C 
HETATM   33  C1  UNL     1      -5.773  39.380   7.165  1.00  0.00     0.117 C 
HETATM   34  O1  UNL     1      -6.834  37.332   6.825  1.00  0.00    -0.274 OA
ATOM     35  H1  UNL     1      -5.291  38.972   4.571  1.00  0.00     0.162 HD
ENDBRANCH   1  31
TORSDOF 9
ENDMDL
MODEL 2
REMARK VINA RESULT: -6.407232196      1.158      1.286
REMARK  9 active torsions:
REMARK  status: ('A' for Active; 'I' for Inactive)
REMARK       I    between atoms: C2_2  and  N1_4 
REMARK    1  A    between atoms: N1_4  and  C3_6 
REMARK    2  A    between atoms: C9_12  and  C10_13 
REMARK    3  A    between atoms: C10_13  and  C12_15 
REMARK    4  A    between atoms: C12_15  and  C13_16 
REMARK    5  A    between atoms: C13_16  and  C14_17 
REMARK    6  A    between atoms: C14_17  and  O2_20 
REMARK    7  A    between atoms: C19_24  and  O3_25 
REMARK    8  A    between atoms: O3_25  and  C20_26 
REMARK    9  A    between atoms: C24_32  and  O6_33 
ROOT
HETATM    1  C3  UNL     1      -6.340  37.497   2.886  1.00  0.00     0.087 C 
HETATM    2  C4  UNL     1      -7.206  37.461   1.650  1.00  0.00     0.033 C 
HETATM    3  C5  UNL     1      -6.700  36.210   0.953  1.00  0.00     0.030 C 
HETATM    4  C6  UNL     1      -6.878  36.320  -0.494  1.00  0.00     0.004 C 
HETATM    5  C7  UNL     1      -6.406  37.534  -1.197  1.00  0.00     0.006 C 
HETATM    6  C8  UNL     1      -6.303  37.093  -2.676  1.00  0.00     0.006 C 
HETATM    7  C9  UNL     1      -6.660  35.651  -2.616  1.00  0.00     0.000 C 
HETATM    8  C17 UNL     1      -6.160  35.201  -1.290  1.00  0.00    -0.006 C 
HETATM    9  C18 UNL     1      -6.837  33.868  -0.906  1.00  0.00     0.019 C 
HETATM   10  C19 UNL     1      -4.738  35.204  -0.973  1.00  0.00     0.180 C 
HETATM   11  C22 UNL     1      -4.308  35.919   0.296  1.00  0.00     0.140 A 
HETATM   12  C23 UNL     1      -3.042  36.588   0.446  1.00  0.00     0.213 A 
HETATM   13  O5  UNL     1      -3.058  35.254   0.815  1.00  0.00    -0.369 OA
HETATM   14  C24 UNL     1      -5.291  35.952   1.394  1.00  0.00     0.099 C 
HETATM   15  C25 UNL     1      -4.989  37.197   2.251  1.00  0.00     0.066 C 
ENDROOT
BRANCH   7  16
HETATM   16  C10 UNL     1      -6.584  34.828  -3.813  1.00  0.00    -0.014 C 
HETATM   17  C11 UNL     1      -5.806  35.326  -4.974  1.00  0.00     0.010 C 
BRANCH  16  18
HETATM   18  C12 UNL     1      -8.002  34.533  -4.279  1.00  0.00     0.007 C 
BRANCH  18  19
HETATM   19  C13 UNL     1      -9.070  35.285  -3.588  1.00  0.00     0.037 C 
BRANCH  19  20
HETATM   20  C14 UNL     1      -9.866  36.013  -4.690  1.00  0.00     0.051 C 
HETATM   21  C15 UNL     1      -9.650  37.509  -4.579  1.00  0.00     0.045 C 
HETATM   22  C16 UNL     1     -11.348  35.755  -4.522  1.00  0.00     0.045 C 
BRANCH  20  23
HETATM   23  O2  UNL     1      -9.474  35.545  -5.930  1.00  0.00    -0.391 OA
ATOM     24  H2  UNL     1      -9.666  36.199  -6.592  1.00  0.00     0.210 HD
ENDBRANCH  20  23
ENDBRANCH  19  20
ENDBRANCH  18  19
ENDBRANCH  16  18
ENDBRANCH   7  16
BRANCH  10  25
HETATM   25  O3  UNL     1      -4.353  33.812  -0.853  1.00  0.00    -0.312 OA
BRANCH  25  26
HETATM   26  C20 UNL     1      -3.437  33.229  -1.667  1.00  0.00     0.255 C 
HETATM   27  C21 UNL     1      -3.701  32.874  -3.097  1.00  0.00     0.126 C 
HETATM   28  O4  UNL     1      -2.305  32.959  -1.240  1.00  0.00    -0.266 OA
ENDBRANCH  25  26
ENDBRANCH  10  25
BRANCH  14  29
HETATM   29  O6  UNL     1      -5.195  34.873   2.277  1.00  0.00    -0.386 OA
ATOM     30  H6  UNL     1      -4.760  34.123   1.890  1.00  0.00     0.210 HD
ENDBRANCH  14  29
BRANCH   1  31
HETATM   31  N1  UNL     1      -6.394  38.756   3.545  1.00  0.00    -0.357 N 
HETATM   32  C2  UNL     1      -5.954  39.097   4.830  1.00  0.00     0.213 C 
HETATM   33  C1  UNL     1      -6.083  40.486   5.387  1.00  0.00     0.117 C 
HETATM   34  O1  UNL     1      -5.425  38.258   5.586  1.00  0.00    -0.274 OA
ATOM     35  H1  UNL     1      -6.812  39.516   3.008  1.00  0.00     0.162 HD
ENDBRANCH   1  31
TORSDOF 9
ENDMDL
MODEL 3
REMARK VINA RESULT: -6.327055539      4.342     10.371
REMARK  9 active torsions:
REMARK  status: ('A' for Active; 'I' for Inactive)
REMARK       I    between atoms: C2_2  and  N1_4 
REMARK    1  A    between atoms: N1_4  and  C3_6 
REMARK    2  A    between atoms: C9_12  and  C10_13 
REMARK    3  A    between atoms: C10_13  and  C12_15 
REMARK    4  A    between atoms: C12_15  and  C13_16 
REMARK    5  A    between atoms: C13_16  and  C14_17 
REMARK    6  A    between atoms: C14_17  and  O2_20 
REMARK    7  A    between atoms: C19_24  and  O3_25 
REMARK    8  A    between atoms: O3_25  and  C20_26 
REMARK    9  A    between atoms: C24_32  and  O6_33 
ROOT
HETATM    1  C3  UNL     1      -6.247  35.599   3.184  1.00  0.00     0.087 C 
HETATM    2  C4  UNL     1      -6.061  34.717   4.394  1.00  0.00     0.033 C 
HETATM    3  C5  UNL     1      -5.828  35.740   5.492  1.00  0.00     0.030 C 
HETATM    4  C6  UNL     1      -4.997  35.174   6.553  1.00  0.00     0.004 C 
HETATM    5  C7  UNL     1      -3.732  34.491   6.204  1.00  0.00     0.006 C 
HETATM    6  C8  UNL     1      -2.931  34.485   7.527  1.00  0.00     0.006 C 
HETATM    7  C9  UNL     1      -3.818  35.241   8.452  1.00  0.00     0.000 C 
HETATM    8  C17 UNL     1      -4.508  36.228   7.580  1.00  0.00    -0.006 C 
HETATM    9  C18 UNL     1      -5.759  36.771   8.301  1.00  0.00     0.019 C 
HETATM   10  C19 UNL     1      -3.771  37.280   6.893  1.00  0.00     0.180 C 
HETATM   11  C22 UNL     1      -3.974  37.410   5.393  1.00  0.00     0.140 A 
HETATM   12  C23 UNL     1      -2.952  37.858   4.484  1.00  0.00     0.213 A 
HETATM   13  O5  UNL     1      -3.760  38.852   5.009  1.00  0.00    -0.369 OA
HETATM   14  C24 UNL     1      -5.288  36.993   4.873  1.00  0.00     0.099 C 
HETATM   15  C25 UNL     1      -5.093  36.569   3.404  1.00  0.00     0.066 C 
ENDROOT
BRANCH   7  16
HETATM   16  C10 UNL     1      -3.374  35.549   9.802  1.00  0.00    -0.014 C 
HETATM   17  C11 UNL     1      -1.992  36.052  10.002  1.00  0.00     0.010 C 
BRANCH  16  18
HETATM   18  C12 UNL     1      -3.560  34.307  10.660  1.00  0.00     0.007 C 
BRANCH  18  19
HETATM   19  C13 UNL     1      -4.933  33.763  10.706  1.00  0.00     0.037 C 
BRANCH  19  20
HETATM   20  C14 UNL     1      -4.803  32.246  10.466  1.00  0.00     0.051 C 
HETATM   21  C15 UNL     1      -5.222  31.911   9.048  1.00  0.00     0.045 C 
HETATM   22  C16 UNL     1      -5.720  31.488  11.400  1.00  0.00     0.045 C 
BRANCH  20  23
HETATM   23  O2  UNL     1      -3.501  31.849  10.706  1.00  0.00    -0.391 OA
ATOM     24  H2  UNL     1      -3.068  31.663   9.881  1.00  0.00     0.210 HD
ENDBRANCH  20  23
ENDBRANCH  19  20
ENDBRANCH  18  19
ENDBRANCH  16  18
ENDBRANCH   7  16
BRANCH  10  25
HETATM   25  O3  UNL     1      -4.186  38.525   7.509  1.00  0.00    -0.312 OA
BRANCH  25  26
HETATM   26  C20 UNL     1      -3.387  39.235   8.345  1.00  0.00     0.255 C 
HETATM   27  C21 UNL     1      -3.676  39.436   9.799  1.00  0.00     0.126 C 
HETATM   28  O4  UNL     1      -2.350  39.764   7.918  1.00  0.00    -0.266 OA
ENDBRANCH  25  26
ENDBRANCH  10  25
BRANCH  14  29
HETATM   29  O6  UNL     1      -6.236  38.020   4.829  1.00  0.00    -0.386 OA
ATOM     30  H6  UNL     1      -5.908  38.834   5.194  1.00  0.00     0.210 HD
ENDBRANCH  14  29
BRANCH   1  31
HETATM   31  N1  UNL     1      -6.157  34.871   1.966  1.00  0.00    -0.357 N 
HETATM   32  C2  UNL     1      -7.182  34.472   1.099  1.00  0.00     0.213 C 
HETATM   33  C1  UNL     1      -6.920  33.701  -0.162  1.00  0.00     0.117 C 
HETATM   34  O1  UNL     1      -8.377  34.740   1.332  1.00  0.00    -0.274 OA
ATOM     35  H1  UNL     1      -5.214  34.602   1.684  1.00  0.00     0.162 HD
ENDBRANCH   1  31
TORSDOF 9
ENDMDL
MODEL 4
REMARK VINA RESULT: -6.265816006      3.834      9.840
REMARK  9 active torsions:
REMARK  status: ('A' for Active; 'I' for Inactive)
REMARK       I    between atoms: C2_2  and  N1_4 
REMARK    1  A    between atoms: N1_4  and  C3_6 
REMARK    2  A    between atoms: C9_12  and  C10_13 
REMARK    3  A    between atoms: C10_13  and  C12_15 
REMARK    4  A    between atoms: C12_15  and  C13_16 
REMARK    5  A    between atoms: C13_16  and  C14_17 
REMARK    6  A    between atoms: C14_17  and  O2_20 
REMARK    7  A    between atoms: C19_24  and  O3_25 
REMARK    8  A    between atoms: O3_25  and  C20_26 
REMARK    9  A    between atoms: C24_32  and  O6_33 
ROOT
HETATM    1  C3  UNL     1      -5.527  36.251   1.146  1.00  0.00     0.087 C 
HETATM    2  C4  UNL     1      -5.002  35.234   2.130  1.00  0.00     0.033 C 
HETATM    3  C5  UNL     1      -5.626  35.711   3.431  1.00  0.00     0.030 C 
HETATM    4  C6  UNL     1      -4.787  35.339   4.569  1.00  0.00     0.004 C 
HETATM    5  C7  UNL     1      -3.341  35.650   4.542  1.00  0.00     0.006 C 
HETATM    6  C8  UNL     1      -2.916  35.582   6.027  1.00  0.00     0.006 C 
HETATM    7  C9  UNL     1      -4.201  35.313   6.726  1.00  0.00     0.000 C 
HETATM    8  C17 UNL     1      -5.224  36.005   5.898  1.00  0.00    -0.006 C 
HETATM    9  C18 UNL     1      -6.625  35.456   6.240  1.00  0.00     0.019 C 
HETATM   10  C19 UNL     1      -5.226  37.454   5.747  1.00  0.00     0.180 C 
HETATM   11  C22 UNL     1      -5.248  38.008   4.333  1.00  0.00     0.140 A 
HETATM   12  C23 UNL     1      -4.619  39.245   3.950  1.00  0.00     0.213 A 
HETATM   13  O5  UNL     1      -5.938  39.349   4.360  1.00  0.00    -0.369 OA
HETATM   14  C24 UNL     1      -5.914  37.177   3.315  1.00  0.00     0.099 C 
HETATM   15  C25 UNL     1      -5.288  37.522   1.950  1.00  0.00     0.066 C 
ENDROOT
BRANCH   7  16
HETATM   16  C10 UNL     1      -4.249  35.275   8.179  1.00  0.00    -0.014 C 
HETATM   17  C11 UNL     1      -3.189  35.973   8.948  1.00  0.00     0.010 C 
BRANCH  16  18
HETATM   18  C12 UNL     1      -4.277  33.818   8.617  1.00  0.00     0.007 C 
BRANCH  18  19
HETATM   19  C13 UNL     1      -4.495  33.589  10.059  1.00  0.00     0.037 C 
BRANCH  19  20
HETATM   20  C14 UNL     1      -4.681  32.068  10.231  1.00  0.00     0.051 C 
HETATM   21  C15 UNL     1      -5.007  31.435   8.893  1.00  0.00     0.045 C 
HETATM   22  C16 UNL     1      -5.840  31.785  11.161  1.00  0.00     0.045 C 
BRANCH  20  23
HETATM   23  O2  UNL     1      -3.534  31.520  10.774  1.00  0.00    -0.391 OA
ATOM     24  H2  UNL     1      -3.756  30.731  11.256  1.00  0.00     0.210 HD
ENDBRANCH  20  23
ENDBRANCH  19  20
ENDBRANCH  18  19
ENDBRANCH  16  18
ENDBRANCH   7  16
BRANCH  10  25
HETATM   25  O3  UNL     1      -6.415  37.925   6.430  1.00  0.00    -0.312 OA
BRANCH  25  26
HETATM   26  C20 UNL     1      -6.380  38.494   7.661  1.00  0.00     0.255 C 
HETATM   27  C21 UNL     1      -5.155  39.112   8.258  1.00  0.00     0.126 C 
HETATM   28  O4  UNL     1      -7.402  38.525   8.363  1.00  0.00    -0.266 OA
ENDBRANCH  25  26
ENDBRANCH  10  25
BRANCH  14  29
HETATM   29  O6  UNL     1      -7.278  37.444   3.165  1.00  0.00    -0.386 OA
ATOM     30  H6  UNL     1      -7.824  36.834   3.646  1.00  0.00     0.210 HD
ENDBRANCH  14  29
BRANCH   1  31
HETATM   31  N1  UNL     1      -4.825  36.217  -0.090  1.00  0.00    -0.357 N 
HETATM   32  C2  UNL     1      -5.077  35.438  -1.226  1.00  0.00     0.213 C 
HETATM   33  C1  UNL     1      -4.236  35.520  -2.467  1.00  0.00     0.117 C 
HETATM   34  O1  UNL     1      -6.024  34.627  -1.267  1.00  0.00    -0.274 OA
ATOM     35  H1  UNL     1      -4.027  36.848  -0.160  1.00  0.00     0.162 HD
ENDBRANCH   1  31
TORSDOF 9
ENDMDL
MODEL 5
REMARK VINA RESULT: -6.219665272      5.037     10.770
REMARK  9 active torsions:
REMARK  status: ('A' for Active; 'I' for Inactive)
REMARK       I    between atoms: C2_2  and  N1_4 
REMARK    1  A    between atoms: N1_4  and  C3_6 
REMARK    2  A    between atoms: C9_12  and  C10_13 
REMARK    3  A    between atoms: C10_13  and  C12_15 
REMARK    4  A    between atoms: C12_15  and  C13_16 
REMARK    5  A    between atoms: C13_16  and  C14_17 
REMARK    6  A    between atoms: C14_17  and  O2_20 
REMARK    7  A    between atoms: C19_24  and  O3_25 
REMARK    8  A    between atoms: O3_25  and  C20_26 
REMARK    9  A    between atoms: C24_32  and  O6_33 
ROOT
HETATM    1  C3  UNL     1      -7.091  34.523   4.135  1.00  0.00     0.087 C 
HETATM    2  C4  UNL     1      -6.885  34.111   5.573  1.00  0.00     0.033 C 
HETATM    3  C5  UNL     1      -6.366  35.396   6.193  1.00  0.00     0.030 C 
HETATM    4  C6  UNL     1      -5.499  35.102   7.333  1.00  0.00     0.004 C 
HETATM    5  C7  UNL     1      -4.404  34.119   7.183  1.00  0.00     0.006 C 
HETATM    6  C8  UNL     1      -3.451  34.438   8.359  1.00  0.00     0.006 C 
HETATM    7  C9  UNL     1      -4.091  35.622   8.991  1.00  0.00     0.000 C 
HETATM    8  C17 UNL     1      -4.734  36.343   7.860  1.00  0.00    -0.006 C 
HETATM    9  C18 UNL     1      -5.789  37.327   8.406  1.00  0.00     0.019 C 
HETATM   10  C19 UNL     1      -3.944  36.928   6.785  1.00  0.00     0.180 C 
HETATM   11  C22 UNL     1      -4.314  36.551   5.361  1.00  0.00     0.140 A 
HETATM   12  C23 UNL     1      -3.361  36.450   4.287  1.00  0.00     0.213 A 
HETATM   13  O5  UNL     1      -3.941  37.696   4.455  1.00  0.00    -0.369 OA
HETATM   14  C24 UNL     1      -5.731  36.225   5.119  1.00  0.00     0.099 C 
HETATM   15  C25 UNL     1      -5.789  35.278   3.904  1.00  0.00     0.066 C 
ENDROOT
BRANCH   7  16
HETATM   16  C10 UNL     1      -3.439  36.303  10.097  1.00  0.00    -0.014 C 
HETATM   17  C11 UNL     1      -1.962  36.219  10.217  1.00  0.00     0.010 C 
BRANCH  16  18
HETATM   18  C12 UNL     1      -4.053  35.800  11.395  1.00  0.00     0.007 C 
BRANCH  18  19
HETATM   19  C13 UNL     1      -5.466  36.169  11.617  1.00  0.00     0.037 C 
BRANCH  19  20
HETATM   20  C14 UNL     1      -5.456  37.324  12.638  1.00  0.00     0.051 C 
HETATM   21  C15 UNL     1      -5.323  38.649  11.915  1.00  0.00     0.045 C 
HETATM   22  C16 UNL     1      -4.267  37.192  13.565  1.00  0.00     0.045 C 
BRANCH  20  23
HETATM   23  O2  UNL     1      -6.612  37.285  13.394  1.00  0.00    -0.391 OA
ATOM     24  H2  UNL     1      -6.654  36.463  13.870  1.00  0.00     0.210 HD
ENDBRANCH  20  23
ENDBRANCH  19  20
ENDBRANCH  18  19
ENDBRANCH  16  18
ENDBRANCH   7  16
BRANCH  10  25
HETATM   25  O3  UNL     1      -4.089  38.363   6.918  1.00  0.00    -0.312 OA
BRANCH  25  26
HETATM   26  C20 UNL     1      -3.091  39.166   7.369  1.00  0.00     0.255 C 
HETATM   27  C21 UNL     1      -3.080  39.796   8.726  1.00  0.00     0.126 C 
HETATM   28  O4  UNL     1      -2.117  39.416   6.645  1.00  0.00    -0.266 OA
ENDBRANCH  25  26
ENDBRANCH  10  25
BRANCH  14  29
HETATM   29  O6  UNL     1      -6.514  37.325   4.757  1.00  0.00    -0.386 OA
ATOM     30  H6  UNL     1      -6.707  37.893   5.493  1.00  0.00     0.210 HD
ENDBRANCH  14  29
BRANCH   1  31
HETATM   31  N1  UNL     1      -7.265  33.406   3.273  1.00  0.00    -0.357 N 
HETATM   32  C2  UNL     1      -7.963  33.328   2.061  1.00  0.00     0.213 C 
HETATM   33  C1  UNL     1      -8.053  32.061   1.260  1.00  0.00     0.117 C 
HETATM   34  O1  UNL     1      -8.551  34.316   1.579  1.00  0.00    -0.274 OA
ATOM     35  H1  UNL     1      -6.819  32.541   3.579  1.00  0.00     0.162 HD
ENDBRANCH   1  31
TORSDOF 9
ENDMDL
