MODEL 1
REMARK VINA RESULT: -10.030778256      0.000      0.000
REMARK  12 active torsions:
REMARK  status: ('A' for Active; 'I' for Inactive)
REMARK    1  A    between atoms: N2_6  and  C3_7 
REMARK    2  A    between atoms: C3_7  and  C4_8 
REMARK    3  A    between atoms: C5_9  and  N3_10 
REMARK    4  A    between atoms: N3_10  and  N4_12 
REMARK    5  A    between atoms: N4_12  and  N5_14 
REMARK    6  A    between atoms: C6_19  and  N7_20 
REMARK    7  A    between atoms: N9_25  and  C7_26 
REMARK    8  A    between atoms: C7_26  and  C8_27 
REMARK    9  A    between atoms: C9_28  and  C10_29 
REMARK   10  A    between atoms: C10_29  and  C11_30 
REMARK   11  A    between atoms: C11_30  and  C12_31 
REMARK   12  A    between atoms: C12_31  and  N10_32 
ROOT
HETATM    1  C4  UNL     1      13.376 -12.520  21.960  1.00  0.00     0.115 A 
HETATM    2  C5  UNL     1      12.368 -11.604  21.976  1.00  0.00     0.166 A 
HETATM    3  N6  UNL     1      12.604 -10.310  21.604  1.00  0.00    -0.172 N 
ATOM      4  H6  UNL     1      11.836  -9.638  21.614  1.00  0.00     0.186 HD
HETATM    5  C6  UNL     1      13.822  -9.908  21.228  1.00  0.00     0.692 A 
HETATM    6  N8  UNL     1      14.803 -10.815  21.231  1.00  0.00    -0.129 N 
ATOM      7  H8  UNL     1      15.735 -10.509  20.948  1.00  0.00     0.206 HD
HETATM    8  N9  UNL     1      14.652 -12.070  21.571  1.00  0.00    -0.270 N 
ENDROOT
BRANCH   8   9
HETATM    9  C7  UNL     1      15.767 -12.965  21.667  1.00  0.00     0.177 C 
BRANCH   9  10
HETATM   10  C8  UNL     1      16.547 -13.167  20.442  1.00  0.00    -0.009 C 
HETATM   11  C9  UNL     1      17.425 -12.222  19.799  1.00  0.00    -0.029 C 
BRANCH  11  12
HETATM   12  C10 UNL     1      18.667 -11.719  20.411  1.00  0.00     0.028 C 
BRANCH  12  13
HETATM   13  C11 UNL     1      19.608 -12.944  20.501  1.00  0.00     0.024 C 
BRANCH  13  14
HETATM   14  C12 UNL     1      20.435 -12.868  21.760  1.00  0.00     0.130 C 
BRANCH  14  15
HETATM   15  N10 UNL     1      19.888 -13.753  22.768  1.00  0.00    -0.341 N 
HETATM   16  C13 UNL     1      19.071 -14.809  22.625  1.00  0.00     0.183 A 
HETATM   17  N11 UNL     1      18.811 -15.352  23.843  1.00  0.00    -0.350 N 
HETATM   18  C14 UNL     1      19.462 -14.645  24.773  1.00  0.00     0.060 A 
ATOM     19  H11 UNL     1      18.218 -16.163  24.019  1.00  0.00     0.166 HD
HETATM   20  C15 UNL     1      19.545 -14.761  26.158  1.00  0.00     0.032 A 
HETATM   21  C19 UNL     1      20.131 -13.650  24.094  1.00  0.00     0.062 A 
HETATM   22  C16 UNL     1      20.313 -13.867  26.882  1.00  0.00     0.002 A 
HETATM   23  C17 UNL     1      20.975 -12.879  26.194  1.00  0.00     0.002 A 
HETATM   24  C18 UNL     1      20.890 -12.768  24.830  1.00  0.00     0.032 A 
ENDBRANCH  14  15
ENDBRANCH  13  14
ENDBRANCH  12  13
ENDBRANCH  11  12
ENDBRANCH   9  10
ENDBRANCH   8   9
BRANCH   1  25
HETATM   25  C3  UNL     1      13.198 -13.922  21.920  1.00  0.00     0.161 C 
BRANCH  25  26
HETATM   26  N2  UNL     1      13.593 -15.045  21.512  1.00  0.00    -0.204 N 
HETATM   27  O1  UNL     1      13.928 -16.074  22.435  1.00  0.00    -0.149 OA
HETATM   28  N1  UNL     1      14.481 -17.145  21.906  1.00  0.00    -0.240 N 
HETATM   29  C2  UNL     1      14.585 -16.934  20.474  1.00  0.00     0.076 A 
ATOM     30  H1  UNL     1      14.783 -17.977  22.413  1.00  0.00     0.197 HD
HETATM   31  C1  UNL     1      15.091 -17.847  19.663  1.00  0.00     0.047 C 
HETATM   32  C20 UNL     1      14.024 -15.608  20.274  1.00  0.00     0.088 A 
HETATM   33  C21 UNL     1      14.056 -15.018  19.094  1.00  0.00     0.003 C 
HETATM   34  C22 UNL     1      14.617 -15.533  17.834  1.00  0.00     0.038 C 
ENDBRANCH  25  26
ENDBRANCH   1  25
BRANCH   2  35
HETATM   35  N3  UNL     1      11.222 -11.770  22.586  1.00  0.00    -0.269 N 
ATOM     36  H3  UNL     1      10.432 -11.978  21.976  1.00  0.00     0.190 HD
BRANCH  35  37
HETATM   37  N4  UNL     1      10.934 -11.709  23.886  1.00  0.00    -0.248 N 
ATOM     38  H4  UNL     1      10.768 -12.568  24.409  1.00  0.00     0.207 HD
BRANCH  37  39
HETATM   39  N5  UNL     1      10.865 -10.571  24.487  1.00  0.00    -0.331 N 
ATOM     40  H52 UNL     1       9.997 -10.039  24.430  1.00  0.00     0.178 HD
ATOM     41  H51 UNL     1      11.664 -10.212  25.008  1.00  0.00     0.178 HD
ENDBRANCH  37  39
ENDBRANCH  35  37
ENDBRANCH   2  35
BRANCH   5  42
HETATM   42  N7  UNL     1      14.086  -8.692  20.867  1.00  0.00    -0.233 N 
ATOM     43  H72 UNL     1      14.581  -8.531  19.989  1.00  0.00     0.174 HD
ATOM     44  H71 UNL     1      13.824  -7.877  21.420  1.00  0.00     0.174 HD
ENDBRANCH   5  42
TORSDOF 12
ENDMDL
MODEL 2
REMARK VINA RESULT: -9.981922153      1.219      1.594
REMARK  12 active torsions:
REMARK  status: ('A' for Active; 'I' for Inactive)
REMARK    1  A    between atoms: N2_6  and  C3_7 
REMARK    2  A    between atoms: C3_7  and  C4_8 
REMARK    3  A    between atoms: C5_9  and  N3_10 
REMARK    4  A    between atoms: N3_10  and  N4_12 
REMARK    5  A    between atoms: N4_12  and  N5_14 
REMARK    6  A    between atoms: C6_19  and  N7_20 
REMARK    7  A    between atoms: N9_25  and  C7_26 
REMARK    8  A    between atoms: C7_26  and  C8_27 
REMARK    9  A    between atoms: C9_28  and  C10_29 
REMARK   10  A    between atoms: C10_29  and  C11_30 
REMARK   11  A    between atoms: C11_30  and  C12_31 
REMARK   12  A    between atoms: C12_31  and  N10_32 
ROOT
HETATM    1  C4  UNL     1      14.202 -12.428  21.168  1.00  0.00     0.115 A 
HETATM    2  C5  UNL     1      13.148 -11.753  21.704  1.00  0.00     0.166 A 
HETATM    3  N6  UNL     1      13.109 -10.387  21.664  1.00  0.00    -0.172 N 
ATOM      4  H6  UNL     1      12.308  -9.898  22.064  1.00  0.00     0.186 HD
HETATM    5  C6  UNL     1      14.100  -9.681  21.112  1.00  0.00     0.692 A 
HETATM    6  N8  UNL     1      15.134 -10.357  20.602  1.00  0.00    -0.129 N 
ATOM      7  H8  UNL     1      15.894  -9.819  20.185  1.00  0.00     0.206 HD
HETATM    8  N9  UNL     1      15.239 -11.661  20.602  1.00  0.00    -0.270 N 
ENDROOT
BRANCH   8   9
HETATM    9  C7  UNL     1      16.426 -12.323  20.147  1.00  0.00     0.177 C 
BRANCH   9  10
HETATM   10  C8  UNL     1      17.699 -11.667  20.463  1.00  0.00    -0.009 C 
HETATM   11  C9  UNL     1      18.853 -12.256  21.094  1.00  0.00    -0.029 C 
BRANCH  11  12
HETATM   12  C10 UNL     1      19.653 -13.333  20.485  1.00  0.00     0.028 C 
BRANCH  12  13
HETATM   13  C11 UNL     1      19.649 -14.484  21.519  1.00  0.00     0.024 C 
BRANCH  13  14
HETATM   14  C12 UNL     1      18.403 -14.411  22.367  1.00  0.00     0.130 C 
BRANCH  14  15
HETATM   15  N10 UNL     1      18.704 -14.809  23.727  1.00  0.00    -0.341 N 
HETATM   16  C13 UNL     1      18.312 -15.900  24.404  1.00  0.00     0.183 A 
HETATM   17  N11 UNL     1      18.833 -15.869  25.659  1.00  0.00    -0.350 N 
HETATM   18  C14 UNL     1      19.561 -14.755  25.791  1.00  0.00     0.060 A 
ATOM     19  H11 UNL     1      18.692 -16.576  26.380  1.00  0.00     0.166 HD
HETATM   20  C15 UNL     1      20.300 -14.232  26.848  1.00  0.00     0.032 A 
HETATM   21  C19 UNL     1      19.475 -14.101  24.581  1.00  0.00     0.062 A 
HETATM   22  C16 UNL     1      20.969 -13.031  26.697  1.00  0.00     0.002 A 
HETATM   23  C17 UNL     1      20.876 -12.387  25.487  1.00  0.00     0.002 A 
HETATM   24  C18 UNL     1      20.146 -12.906  24.448  1.00  0.00     0.032 A 
ENDBRANCH  14  15
ENDBRANCH  13  14
ENDBRANCH  12  13
ENDBRANCH  11  12
ENDBRANCH   9  10
ENDBRANCH   8   9
BRANCH   1  25
HETATM   25  C3  UNL     1      14.184 -13.788  20.782  1.00  0.00     0.161 C 
BRANCH  25  26
HETATM   26  N2  UNL     1      13.546 -14.760  20.301  1.00  0.00    -0.204 N 
HETATM   27  O1  UNL     1      12.412 -15.289  20.980  1.00  0.00    -0.149 OA
HETATM   28  N1  UNL     1      11.922 -16.400  20.473  1.00  0.00    -0.240 N 
HETATM   29  C2  UNL     1      12.729 -16.762  19.323  1.00  0.00     0.076 A 
ATOM     30  H1  UNL     1      11.117 -16.917  20.827  1.00  0.00     0.197 HD
HETATM   31  C1  UNL     1      12.473 -17.832  18.590  1.00  0.00     0.047 C 
HETATM   32  C20 UNL     1      13.734 -15.713  19.257  1.00  0.00     0.088 A 
HETATM   33  C21 UNL     1      14.730 -15.768  18.393  1.00  0.00     0.003 C 
HETATM   34  C22 UNL     1      15.013 -16.813  17.395  1.00  0.00     0.038 C 
ENDBRANCH  25  26
ENDBRANCH   1  25
BRANCH   2  35
HETATM   35  N3  UNL     1      12.269 -12.276  22.520  1.00  0.00    -0.269 N 
ATOM     36  H3  UNL     1      12.530 -13.178  22.919  1.00  0.00     0.190 HD
BRANCH  35  37
HETATM   37  N4  UNL     1      11.082 -11.807  22.908  1.00  0.00    -0.248 N 
ATOM     38  H4  UNL     1      10.436 -11.429  22.215  1.00  0.00     0.207 HD
BRANCH  37  39
HETATM   39  N5  UNL     1      10.747 -11.827  24.151  1.00  0.00    -0.331 N 
ATOM     40  H52 UNL     1      10.553 -12.725  24.593  1.00  0.00     0.178 HD
ATOM     41  H51 UNL     1      10.676 -10.959  24.683  1.00  0.00     0.178 HD
ENDBRANCH  37  39
ENDBRANCH  35  37
ENDBRANCH   2  35
BRANCH   5  42
HETATM   42  N7  UNL     1      14.100  -8.387  21.053  1.00  0.00    -0.233 N 
ATOM     43  H72 UNL     1      13.223  -7.883  21.185  1.00  0.00     0.174 HD
ATOM     44  H71 UNL     1      14.941  -7.837  20.877  1.00  0.00     0.174 HD
ENDBRANCH   5  42
TORSDOF 12
ENDMDL
MODEL 3
REMARK VINA RESULT: -9.935938070      1.253      1.632
REMARK  12 active torsions:
REMARK  status: ('A' for Active; 'I' for Inactive)
REMARK    1  A    between atoms: N2_6  and  C3_7 
REMARK    2  A    between atoms: C3_7  and  C4_8 
REMARK    3  A    between atoms: C5_9  and  N3_10 
REMARK    4  A    between atoms: N3_10  and  N4_12 
REMARK    5  A    between atoms: N4_12  and  N5_14 
REMARK    6  A    between atoms: C6_19  and  N7_20 
REMARK    7  A    between atoms: N9_25  and  C7_26 
REMARK    8  A    between atoms: C7_26  and  C8_27 
REMARK    9  A    between atoms: C9_28  and  C10_29 
REMARK   10  A    between atoms: C10_29  and  C11_30 
REMARK   11  A    between atoms: C11_30  and  C12_31 
REMARK   12  A    between atoms: C12_31  and  N10_32 
ROOT
HETATM    1  C4  UNL     1      14.178 -12.452  21.136  1.00  0.00     0.115 A 
HETATM    2  C5  UNL     1      13.121 -11.777  21.667  1.00  0.00     0.166 A 
HETATM    3  N6  UNL     1      13.094 -10.411  21.649  1.00  0.00    -0.172 N 
ATOM      4  H6  UNL     1      12.292  -9.921  22.045  1.00  0.00     0.186 HD
HETATM    5  C6  UNL     1      14.100  -9.704  21.123  1.00  0.00     0.692 A 
HETATM    6  N8  UNL     1      15.135 -10.381  20.617  1.00  0.00    -0.129 N 
ATOM      7  H8  UNL     1      15.905  -9.843  20.220  1.00  0.00     0.206 HD
HETATM    8  N9  UNL     1      15.229 -11.686  20.597  1.00  0.00    -0.270 N 
ENDROOT
BRANCH   8   9
HETATM    9  C7  UNL     1      16.417 -12.350  20.149  1.00  0.00     0.177 C 
BRANCH   9  10
HETATM   10  C8  UNL     1      17.690 -11.707  20.489  1.00  0.00    -0.009 C 
HETATM   11  C9  UNL     1      18.831 -12.311  21.131  1.00  0.00    -0.029 C 
BRANCH  11  12
HETATM   12  C10 UNL     1      19.630 -13.389  20.522  1.00  0.00     0.028 C 
BRANCH  12  13
HETATM   13  C11 UNL     1      19.626 -14.540  21.556  1.00  0.00     0.024 C 
BRANCH  13  14
HETATM   14  C12 UNL     1      18.379 -14.467  22.402  1.00  0.00     0.130 C 
BRANCH  14  15
HETATM   15  N10 UNL     1      18.685 -14.834  23.770  1.00  0.00    -0.341 N 
HETATM   16  C13 UNL     1      18.294 -15.908  24.475  1.00  0.00     0.183 A 
HETATM   17  N11 UNL     1      18.820 -15.848  25.726  1.00  0.00    -0.350 N 
HETATM   18  C14 UNL     1      19.552 -14.733  25.828  1.00  0.00     0.060 A 
ATOM     19  H11 UNL     1      18.680 -16.538  26.464  1.00  0.00     0.166 HD
HETATM   20  C15 UNL     1      20.297 -14.188  26.870  1.00  0.00     0.032 A 
HETATM   21  C19 UNL     1      19.462 -14.107  24.604  1.00  0.00     0.062 A 
HETATM   22  C16 UNL     1      20.968 -12.992  26.687  1.00  0.00     0.002 A 
HETATM   23  C17 UNL     1      20.871 -12.377  25.463  1.00  0.00     0.002 A 
HETATM   24  C18 UNL     1      20.135 -12.918  24.440  1.00  0.00     0.032 A 
ENDBRANCH  14  15
ENDBRANCH  13  14
ENDBRANCH  12  13
ENDBRANCH  11  12
ENDBRANCH   9  10
ENDBRANCH   8   9
BRANCH   1  25
HETATM   25  C3  UNL     1      14.153 -13.806  20.727  1.00  0.00     0.161 C 
BRANCH  25  26
HETATM   26  N2  UNL     1      13.695 -14.968  20.883  1.00  0.00    -0.204 N 
HETATM   27  O1  UNL     1      14.348 -15.894  21.743  1.00  0.00    -0.149 OA
HETATM   28  N1  UNL     1      13.877 -17.123  21.705  1.00  0.00    -0.240 N 
HETATM   29  C2  UNL     1      12.784 -17.155  20.752  1.00  0.00     0.076 A 
ATOM     30  H1  UNL     1      14.221 -17.913  22.251  1.00  0.00     0.197 HD
HETATM   31  C1  UNL     1      12.097 -18.257  20.504  1.00  0.00     0.047 C 
HETATM   32  C20 UNL     1      12.710 -15.789  20.259  1.00  0.00     0.088 A 
HETATM   33  C21 UNL     1      11.896 -15.455  19.275  1.00  0.00     0.003 C 
HETATM   34  C22 UNL     1      10.966 -16.321  18.530  1.00  0.00     0.038 C 
ENDBRANCH  25  26
ENDBRANCH   1  25
BRANCH   2  35
HETATM   35  N3  UNL     1      12.226 -12.306  22.462  1.00  0.00    -0.269 N 
ATOM     36  H3  UNL     1      12.457 -13.233  22.819  1.00  0.00     0.190 HD
BRANCH  35  37
HETATM   37  N4  UNL     1      11.057 -11.814  22.874  1.00  0.00    -0.248 N 
ATOM     38  H4  UNL     1      10.399 -11.434  22.193  1.00  0.00     0.207 HD
BRANCH  37  39
HETATM   39  N5  UNL     1      10.752 -11.815  24.125  1.00  0.00    -0.331 N 
ATOM     40  H52 UNL     1      11.476 -12.044  24.807  1.00  0.00     0.178 HD
ATOM     41  H51 UNL     1       9.805 -11.589  24.427  1.00  0.00     0.178 HD
ENDBRANCH  37  39
ENDBRANCH  35  37
ENDBRANCH   2  35
BRANCH   5  42
HETATM   42  N7  UNL     1      14.111  -8.409  21.085  1.00  0.00    -0.233 N 
ATOM     43  H72 UNL     1      15.000  -7.917  21.178  1.00  0.00     0.174 HD
ATOM     44  H71 UNL     1      13.269  -7.848  20.965  1.00  0.00     0.174 HD
ENDBRANCH   5  42
TORSDOF 12
ENDMDL
MODEL 4
REMARK VINA RESULT: -9.929424835      1.186      1.530
REMARK  12 active torsions:
REMARK  status: ('A' for Active; 'I' for Inactive)
REMARK    1  A    between atoms: N2_6  and  C3_7 
REMARK    2  A    between atoms: C3_7  and  C4_8 
REMARK    3  A    between atoms: C5_9  and  N3_10 
REMARK    4  A    between atoms: N3_10  and  N4_12 
REMARK    5  A    between atoms: N4_12  and  N5_14 
REMARK    6  A    between atoms: C6_19  and  N7_20 
REMARK    7  A    between atoms: N9_25  and  C7_26 
REMARK    8  A    between atoms: C7_26  and  C8_27 
REMARK    9  A    between atoms: C9_28  and  C10_29 
REMARK   10  A    between atoms: C10_29  and  C11_30 
REMARK   11  A    between atoms: C11_30  and  C12_31 
REMARK   12  A    between atoms: C12_31  and  N10_32 
ROOT
HETATM    1  C4  UNL     1      13.319 -12.374  21.776  1.00  0.00     0.115 A 
HETATM    2  C5  UNL     1      12.339 -11.441  21.929  1.00  0.00     0.166 A 
HETATM    3  N6  UNL     1      12.606 -10.117  21.720  1.00  0.00    -0.172 N 
ATOM      4  H6  UNL     1      11.858  -9.432  21.832  1.00  0.00     0.186 HD
HETATM    5  C6  UNL     1      13.828  -9.702  21.373  1.00  0.00     0.692 A 
HETATM    6  N8  UNL     1      14.783 -10.629  21.239  1.00  0.00    -0.129 N 
ATOM      7  H8  UNL     1      15.717 -10.314  20.978  1.00  0.00     0.206 HD
HETATM    8  N9  UNL     1      14.601 -11.912  21.420  1.00  0.00    -0.270 N 
ENDROOT
BRANCH   8   9
HETATM    9  C7  UNL     1      15.690 -12.842  21.377  1.00  0.00     0.177 C 
BRANCH   9  10
HETATM   10  C8  UNL     1      16.416 -12.937  20.107  1.00  0.00    -0.009 C 
HETATM   11  C9  UNL     1      17.370 -11.998  19.572  1.00  0.00    -0.029 C 
BRANCH  11  12
HETATM   12  C10 UNL     1      18.672 -11.715  20.201  1.00  0.00     0.028 C 
BRANCH  12  13
HETATM   13  C11 UNL     1      19.283 -13.099  20.524  1.00  0.00     0.024 C 
BRANCH  13  14
HETATM   14  C12 UNL     1      20.143 -13.007  21.762  1.00  0.00     0.130 C 
BRANCH  14  15
HETATM   15  N10 UNL     1      19.542 -13.765  22.841  1.00  0.00    -0.341 N 
HETATM   16  C13 UNL     1      18.532 -14.648  22.805  1.00  0.00     0.183 A 
HETATM   17  N11 UNL     1      18.298 -15.122  24.057  1.00  0.00    -0.350 N 
HETATM   18  C14 UNL     1      19.159 -14.544  24.901  1.00  0.00     0.060 A 
ATOM     19  H11 UNL     1      17.584 -15.806  24.310  1.00  0.00     0.166 HD
HETATM   20  C15 UNL     1      19.357 -14.663  26.273  1.00  0.00     0.032 A 
HETATM   21  C19 UNL     1      19.931 -13.699  24.133  1.00  0.00     0.062 A 
HETATM   22  C16 UNL     1      20.346 -13.924  26.896  1.00  0.00     0.002 A 
HETATM   23  C17 UNL     1      21.110 -13.085  26.121  1.00  0.00     0.002 A 
HETATM   24  C18 UNL     1      20.912 -12.971  24.769  1.00  0.00     0.032 A 
ENDBRANCH  14  15
ENDBRANCH  13  14
ENDBRANCH  12  13
ENDBRANCH  11  12
ENDBRANCH   9  10
ENDBRANCH   8   9
BRANCH   1  25
HETATM   25  C3  UNL     1      13.099 -13.755  21.561  1.00  0.00     0.161 C 
BRANCH  25  26
HETATM   26  N2  UNL     1      12.924 -14.702  20.751  1.00  0.00    -0.204 N 
HETATM   27  O1  UNL     1      12.056 -14.548  19.635  1.00  0.00    -0.149 OA
HETATM   28  N1  UNL     1      11.823 -15.647  18.949  1.00  0.00    -0.240 N 
HETATM   29  C2  UNL     1      12.558 -16.730  19.575  1.00  0.00     0.076 A 
ATOM     30  H1  UNL     1      11.230 -15.724  18.123  1.00  0.00     0.197 HD
HETATM   31  C1  UNL     1      12.533 -17.964  19.103  1.00  0.00     0.047 C 
HETATM   32  C20 UNL     1      13.225 -16.095  20.700  1.00  0.00     0.088 A 
HETATM   33  C21 UNL     1      13.905 -16.800  21.585  1.00  0.00     0.003 C 
HETATM   34  C22 UNL     1      14.116 -18.257  21.619  1.00  0.00     0.038 C 
ENDBRANCH  25  26
ENDBRANCH   1  25
BRANCH   2  35
HETATM   35  N3  UNL     1      11.200 -11.654  22.537  1.00  0.00    -0.269 N 
ATOM     36  H3  UNL     1      10.400 -11.797  21.921  1.00  0.00     0.190 HD
BRANCH  35  37
HETATM   37  N4  UNL     1      10.929 -11.710  23.842  1.00  0.00    -0.248 N 
ATOM     38  H4  UNL     1      10.754 -12.612  24.284  1.00  0.00     0.207 HD
BRANCH  37  39
HETATM   39  N5  UNL     1      10.888 -10.634  24.547  1.00  0.00    -0.331 N 
ATOM     40  H52 UNL     1      11.754 -10.283  24.959  1.00  0.00     0.178 HD
ATOM     41  H51 UNL     1      10.006 -10.142  24.692  1.00  0.00     0.178 HD
ENDBRANCH  37  39
ENDBRANCH  35  37
ENDBRANCH   2  35
BRANCH   5  42
HETATM   42  N7  UNL     1      14.122  -8.458  21.164  1.00  0.00    -0.233 N 
ATOM     43  H72 UNL     1      14.158  -7.816  21.955  1.00  0.00     0.174 HD
ATOM     44  H71 UNL     1      14.321  -8.080  20.238  1.00  0.00     0.174 HD
ENDBRANCH   5  42
TORSDOF 12
ENDMDL
MODEL 5
REMARK VINA RESULT: -9.801631274      1.435      1.975
REMARK  12 active torsions:
REMARK  status: ('A' for Active; 'I' for Inactive)
REMARK    1  A    between atoms: N2_6  and  C3_7 
REMARK    2  A    between atoms: C3_7  and  C4_8 
REMARK    3  A    between atoms: C5_9  and  N3_10 
REMARK    4  A    between atoms: N3_10  and  N4_12 
REMARK    5  A    between atoms: N4_12  and  N5_14 
REMARK    6  A    between atoms: C6_19  and  N7_20 
REMARK    7  A    between atoms: N9_25  and  C7_26 
REMARK    8  A    between atoms: C7_26  and  C8_27 
REMARK    9  A    between atoms: C9_28  and  C10_29 
REMARK   10  A    between atoms: C10_29  and  C11_30 
REMARK   11  A    between atoms: C11_30  and  C12_31 
REMARK   12  A    between atoms: C12_31  and  N10_32 
ROOT
HETATM    1  C4  UNL     1      14.067 -12.487  21.225  1.00  0.00     0.115 A 
HETATM    2  C5  UNL     1      13.051 -11.779  21.793  1.00  0.00     0.166 A 
HETATM    3  N6  UNL     1      13.056 -10.413  21.757  1.00  0.00    -0.172 N 
ATOM      4  H6  UNL     1      12.283  -9.898  22.180  1.00  0.00     0.186 HD
HETATM    5  C6  UNL     1      14.054  -9.738  21.178  1.00  0.00     0.692 A 
HETATM    6  N8  UNL     1      15.050 -10.447  20.638  1.00  0.00    -0.129 N 
ATOM      7  H8  UNL     1      15.815  -9.933  20.199  1.00  0.00     0.206 HD
HETATM    8  N9  UNL     1      15.112 -11.754  20.631  1.00  0.00    -0.270 N 
ENDROOT
BRANCH   8   9
HETATM    9  C7  UNL     1      16.263 -12.452  20.141  1.00  0.00     0.177 C 
BRANCH   9  10
HETATM   10  C8  UNL     1      17.521 -11.700  20.121  1.00  0.00    -0.009 C 
HETATM   11  C9  UNL     1      18.780 -12.086  20.709  1.00  0.00    -0.029 C 
BRANCH  11  12
HETATM   12  C10 UNL     1      19.563 -13.251  20.263  1.00  0.00     0.028 C 
BRANCH  12  13
HETATM   13  C11 UNL     1      19.757 -14.125  21.526  1.00  0.00     0.024 C 
BRANCH  13  14
HETATM   14  C12 UNL     1      18.464 -14.205  22.300  1.00  0.00     0.130 C 
BRANCH  14  15
HETATM   15  N10 UNL     1      18.719 -14.680  23.645  1.00  0.00    -0.341 N 
HETATM   16  C13 UNL     1      18.293 -15.799  24.251  1.00  0.00     0.183 A 
HETATM   17  N11 UNL     1      18.777 -15.843  25.520  1.00  0.00    -0.350 N 
HETATM   18  C14 UNL     1      19.517 -14.749  25.732  1.00  0.00     0.060 A 
ATOM     19  H11 UNL     1      18.604 -16.585  26.197  1.00  0.00     0.166 HD
HETATM   20  C15 UNL     1      20.233 -14.296  26.836  1.00  0.00     0.032 A 
HETATM   21  C19 UNL     1      19.476 -14.030  24.557  1.00  0.00     0.062 A 
HETATM   22  C16 UNL     1      20.923 -13.099  26.769  1.00  0.00     0.002 A 
HETATM   23  C17 UNL     1      20.874 -12.390  25.593  1.00  0.00     0.002 A 
HETATM   24  C18 UNL     1      20.168 -12.841  24.507  1.00  0.00     0.032 A 
ENDBRANCH  14  15
ENDBRANCH  13  14
ENDBRANCH  12  13
ENDBRANCH  11  12
ENDBRANCH   9  10
ENDBRANCH   8   9
BRANCH   1  25
HETATM   25  C3  UNL     1      13.992 -13.845  20.837  1.00  0.00     0.161 C 
BRANCH  25  26
HETATM   26  N2  UNL     1      13.340 -14.773  20.292  1.00  0.00    -0.204 N 
HETATM   27  O1  UNL     1      12.289 -14.478  19.379  1.00  0.00    -0.149 OA
HETATM   28  N1  UNL     1      11.572 -15.513  18.995  1.00  0.00    -0.240 N 
HETATM   29  C2  UNL     1      12.100 -16.693  19.654  1.00  0.00     0.076 A 
ATOM     30  H1  UNL     1      10.784 -15.490  18.347  1.00  0.00     0.197 HD
HETATM   31  C1  UNL     1      11.593 -17.897  19.456  1.00  0.00     0.047 C 
HETATM   32  C20 UNL     1      13.199 -16.182  20.458  1.00  0.00     0.088 A 
HETATM   33  C21 UNL     1      13.855 -16.958  21.300  1.00  0.00     0.003 C 
HETATM   34  C22 UNL     1      13.635 -18.387  21.581  1.00  0.00     0.038 C 
ENDBRANCH  25  26
ENDBRANCH   1  25
BRANCH   2  35
HETATM   35  N3  UNL     1      12.178 -12.276  22.633  1.00  0.00    -0.269 N 
ATOM     36  H3  UNL     1      12.444 -13.163  23.060  1.00  0.00     0.190 HD
BRANCH  35  37
HETATM   37  N4  UNL     1      10.994 -11.795  23.013  1.00  0.00    -0.248 N 
ATOM     38  H4  UNL     1      10.354 -11.416  22.315  1.00  0.00     0.207 HD
BRANCH  37  39
HETATM   39  N5  UNL     1      10.653 -11.806  24.255  1.00  0.00    -0.331 N 
ATOM     40  H52 UNL     1      11.344 -11.540  24.956  1.00  0.00     0.178 HD
ATOM     41  H51 UNL     1       9.709 -12.077  24.530  1.00  0.00     0.178 HD
ENDBRANCH  37  39
ENDBRANCH  35  37
ENDBRANCH   2  35
BRANCH   5  42
HETATM   42  N7  UNL     1      14.095  -8.445  21.121  1.00  0.00    -0.233 N 
ATOM     43  H72 UNL     1      13.519  -7.900  21.763  1.00  0.00     0.174 HD
ATOM     44  H71 UNL     1      14.680  -7.934  20.460  1.00  0.00     0.174 HD
ENDBRANCH   5  42
TORSDOF 12
ENDMDL
