MODEL 1
REMARK VINA RESULT: -7.233095523      0.000      0.000
REMARK  13 active torsions:
REMARK  status: ('A' for Active; 'I' for Inactive)
REMARK    1  A    between atoms: C3_6  and  C4_7 
REMARK    2  A    between atoms: C4_7  and  C5_8 
REMARK    3  A    between atoms: C5_8  and  N3_9 
REMARK    4  A    between atoms: N3_9  and  C7_12 
REMARK    5  A    between atoms: C7_12  and  C8_13 
REMARK    6  A    between atoms: C8_13  and  S1_14 
REMARK    7  A    between atoms: C9_15  and  O2_16 
REMARK    8  A    between atoms: C10_18  and  C11_19 
REMARK    9  A    between atoms: C11_19  and  O3_20 
REMARK   10  A    between atoms: C12_22  and  C13_23 
REMARK   11  A    between atoms: C14_24  and  C15_25 
REMARK   12  A    between atoms: C15_25  and  N4_26 
REMARK   13  A    between atoms: C21_34  and  N6_35 
ROOT
HETATM    1  C1  UNL     1      11.160 -11.230  24.340  1.00  0.00     0.177 C 
HETATM    2  N1  UNL     1      11.963 -10.617  23.287  1.00  0.00    -0.171 N 
HETATM    3  C2  UNL     1      12.503 -11.296  22.267  1.00  0.00     0.150 A 
HETATM    4  N2  UNL     1      12.504 -12.599  21.895  1.00  0.00    -0.343 N 
ATOM      5  H2  UNL     1      11.997 -13.260  22.484  1.00  0.00     0.167 HD
HETATM    6  C3  UNL     1      13.122 -13.079  20.813  1.00  0.00     0.023 A 
HETATM    7  C12 UNL     1      13.816 -12.150  20.011  1.00  0.00    -0.011 A 
HETATM    8  C19 UNL     1      13.857 -10.822  20.327  1.00  0.00     0.047 A 
HETATM    9  C20 UNL     1      13.210 -10.333  21.459  1.00  0.00     0.094 A 
HETATM   10  N5  UNL     1      13.053  -9.135  22.039  1.00  0.00    -0.188 N 
ATOM     11  H5  UNL     1      13.432  -8.246  21.713  1.00  0.00     0.184 HD
HETATM   12  C21 UNL     1      12.288  -9.337  23.152  1.00  0.00     0.679 A 
ENDROOT
BRANCH   6  13
HETATM   13  C4  UNL     1      13.129 -14.467  20.391  1.00  0.00     0.094 C 
BRANCH  13  14
HETATM   14  C5  UNL     1      13.422 -15.521  21.380  1.00  0.00     0.317 C 
BRANCH  14  15
HETATM   15  N3  UNL     1      14.652 -16.245  21.263  1.00  0.00     0.010 N 
HETATM   16  C6  UNL     1      14.391 -17.350  20.358  1.00  0.00     0.356 C 
HETATM   17  O1  UNL     1      15.228 -16.613  22.418  1.00  0.00    -0.065 OA
BRANCH  15  18
HETATM   18  C7  UNL     1      15.668 -15.396  20.602  1.00  0.00     0.321 C 
BRANCH  18  19
HETATM   19  C8  UNL     1      16.691 -14.989  21.609  1.00  0.00     0.103 C 
BRANCH  19  20
HETATM   20  S1  UNL     1      16.904 -13.229  21.677  1.00  0.00    -0.178 SA
HETATM   21  C9  UNL     1      17.679 -12.280  20.555  1.00  0.00     0.186 A 
HETATM   22  C10 UNL     1      18.588 -12.698  21.702  1.00  0.00     0.101 A 
BRANCH  21  23
HETATM   23  O2  UNL     1      17.401 -10.890  20.567  1.00  0.00    -0.385 OA
ATOM     24  H2  UNL     1      17.338 -10.448  19.729  1.00  0.00     0.211 HD
ENDBRANCH  21  23
BRANCH  22  25
HETATM   25  C11 UNL     1      19.712 -13.638  21.435  1.00  0.00     0.181 C 
BRANCH  25  26
HETATM   26  O3  UNL     1      20.799 -13.467  22.249  1.00  0.00    -0.400 OA
ATOM     27  H3  UNL     1      21.503 -12.960  21.863  1.00  0.00     0.209 HD
ENDBRANCH  25  26
ENDBRANCH  22  25
ENDBRANCH  19  20
ENDBRANCH  18  19
ENDBRANCH  15  18
ENDBRANCH  14  15
ENDBRANCH  13  14
ENDBRANCH   6  13
BRANCH   7  28
HETATM   28  C13 UNL     1      14.469 -12.610  18.798  1.00  0.00     0.011 C 
HETATM   29  C14 UNL     1      15.038 -11.817  17.917  1.00  0.00     0.002 C 
BRANCH  29  30
HETATM   30  C15 UNL     1      15.687 -12.396  16.694  1.00  0.00     0.263 C 
BRANCH  30  31
HETATM   31  N4  UNL     1      15.934 -11.337  15.743  1.00  0.00    -0.075 N 
HETATM   32  C16 UNL     1      17.278 -10.796  16.020  1.00  0.00     0.272 C 
HETATM   33  C17 UNL     1      15.983 -11.824  14.374  1.00  0.00     0.272 C 
HETATM   34  C18 UNL     1      14.988 -10.260  15.819  1.00  0.00     0.272 C 
ENDBRANCH  30  31
ENDBRANCH  29  30
ENDBRANCH   7  28
BRANCH  12  35
HETATM   35  N6  UNL     1      11.944  -8.379  23.951  1.00  0.00    -0.234 N 
ATOM     36  H62 UNL     1      11.712  -8.533  24.933  1.00  0.00     0.174 HD
ATOM     37  H61 UNL     1      11.866  -7.393  23.704  1.00  0.00     0.174 HD
ENDBRANCH  12  35
TORSDOF 13
ENDMDL
MODEL 2
REMARK VINA RESULT: -7.158436716      0.549      1.597
REMARK  13 active torsions:
REMARK  status: ('A' for Active; 'I' for Inactive)
REMARK    1  A    between atoms: C3_6  and  C4_7 
REMARK    2  A    between atoms: C4_7  and  C5_8 
REMARK    3  A    between atoms: C5_8  and  N3_9 
REMARK    4  A    between atoms: N3_9  and  C7_12 
REMARK    5  A    between atoms: C7_12  and  C8_13 
REMARK    6  A    between atoms: C8_13  and  S1_14 
REMARK    7  A    between atoms: C9_15  and  O2_16 
REMARK    8  A    between atoms: C10_18  and  C11_19 
REMARK    9  A    between atoms: C11_19  and  O3_20 
REMARK   10  A    between atoms: C12_22  and  C13_23 
REMARK   11  A    between atoms: C14_24  and  C15_25 
REMARK   12  A    between atoms: C15_25  and  N4_26 
REMARK   13  A    between atoms: C21_34  and  N6_35 
ROOT
HETATM    1  C1  UNL     1      11.132 -11.189  24.334  1.00  0.00     0.177 C 
HETATM    2  N1  UNL     1      11.962 -10.594  23.291  1.00  0.00    -0.171 N 
HETATM    3  C2  UNL     1      12.498 -11.284  22.276  1.00  0.00     0.150 A 
HETATM    4  N2  UNL     1      12.471 -12.587  21.903  1.00  0.00    -0.343 N 
ATOM      5  H2  UNL     1      11.942 -13.236  22.486  1.00  0.00     0.167 HD
HETATM    6  C3  UNL     1      13.090 -13.081  20.829  1.00  0.00     0.023 A 
HETATM    7  C12 UNL     1      13.816 -12.168  20.036  1.00  0.00    -0.011 A 
HETATM    8  C19 UNL     1      13.885 -10.842  20.354  1.00  0.00     0.047 A 
HETATM    9  C20 UNL     1      13.236 -10.338  21.478  1.00  0.00     0.094 A 
HETATM   10  N5  UNL     1      13.102  -9.137  22.058  1.00  0.00    -0.188 N 
ATOM     11  H5  UNL     1      13.505  -8.257  21.737  1.00  0.00     0.184 HD
HETATM   12  C21 UNL     1      12.319  -9.322  23.161  1.00  0.00     0.679 A 
ENDROOT
BRANCH   6  13
HETATM   13  C4  UNL     1      13.069 -14.468  20.405  1.00  0.00     0.094 C 
BRANCH  13  14
HETATM   14  C5  UNL     1      13.660 -15.499  21.278  1.00  0.00     0.317 C 
BRANCH  14  15
HETATM   15  N3  UNL     1      14.673 -16.355  20.737  1.00  0.00     0.010 N 
HETATM   16  C6  UNL     1      14.154 -16.851  19.473  1.00  0.00     0.356 C 
HETATM   17  O1  UNL     1      15.125 -17.318  21.553  1.00  0.00    -0.065 OA
BRANCH  15  18
HETATM   18  C7  UNL     1      15.876 -15.558  20.409  1.00  0.00     0.321 C 
BRANCH  18  19
HETATM   19  C8  UNL     1      16.591 -15.217  21.673  1.00  0.00     0.103 C 
BRANCH  19  20
HETATM   20  S1  UNL     1      18.264 -14.703  21.380  1.00  0.00    -0.178 SA
HETATM   21  C9  UNL     1      19.115 -13.561  22.238  1.00  0.00     0.186 A 
HETATM   22  C10 UNL     1      18.444 -12.988  20.997  1.00  0.00     0.101 A 
BRANCH  21  23
HETATM   23  O2  UNL     1      20.527 -13.577  22.127  1.00  0.00    -0.385 OA
ATOM     24  H2  UNL     1      20.899 -13.588  21.253  1.00  0.00     0.211 HD
ENDBRANCH  21  23
BRANCH  22  25
HETATM   25  C11 UNL     1      17.320 -12.025  21.158  1.00  0.00     0.181 C 
BRANCH  25  26
HETATM   26  O3  UNL     1      17.497 -10.834  20.508  1.00  0.00    -0.400 OA
ATOM     27  H3  UNL     1      16.801 -10.610  19.900  1.00  0.00     0.209 HD
ENDBRANCH  25  26
ENDBRANCH  22  25
ENDBRANCH  19  20
ENDBRANCH  18  19
ENDBRANCH  15  18
ENDBRANCH  14  15
ENDBRANCH  13  14
ENDBRANCH   6  13
BRANCH   7  28
HETATM   28  C13 UNL     1      14.472 -12.643  18.830  1.00  0.00     0.011 C 
HETATM   29  C14 UNL     1      15.047 -11.860  17.943  1.00  0.00     0.002 C 
BRANCH  29  30
HETATM   30  C15 UNL     1      15.699 -12.453  16.728  1.00  0.00     0.263 C 
BRANCH  30  31
HETATM   31  N4  UNL     1      16.010 -11.397  15.794  1.00  0.00    -0.075 N 
HETATM   32  C16 UNL     1      16.012 -11.986  14.441  1.00  0.00     0.272 C 
HETATM   33  C17 UNL     1      14.989 -10.363  15.769  1.00  0.00     0.272 C 
HETATM   34  C18 UNL     1      17.287 -10.783  16.022  1.00  0.00     0.272 C 
ENDBRANCH  30  31
ENDBRANCH  29  30
ENDBRANCH   7  28
BRANCH  12  35
HETATM   35  N6  UNL     1      11.988  -8.357  23.958  1.00  0.00    -0.234 N 
ATOM     36  H62 UNL     1      11.612  -7.469  23.625  1.00  0.00     0.174 HD
ATOM     37  H61 UNL     1      12.063  -8.369  24.975  1.00  0.00     0.174 HD
ENDBRANCH  12  35
TORSDOF 13
ENDMDL
MODEL 3
REMARK VINA RESULT: -7.063613108      1.298      1.981
REMARK  13 active torsions:
REMARK  status: ('A' for Active; 'I' for Inactive)
REMARK    1  A    between atoms: C3_6  and  C4_7 
REMARK    2  A    between atoms: C4_7  and  C5_8 
REMARK    3  A    between atoms: C5_8  and  N3_9 
REMARK    4  A    between atoms: N3_9  and  C7_12 
REMARK    5  A    between atoms: C7_12  and  C8_13 
REMARK    6  A    between atoms: C8_13  and  S1_14 
REMARK    7  A    between atoms: C9_15  and  O2_16 
REMARK    8  A    between atoms: C10_18  and  C11_19 
REMARK    9  A    between atoms: C11_19  and  O3_20 
REMARK   10  A    between atoms: C12_22  and  C13_23 
REMARK   11  A    between atoms: C14_24  and  C15_25 
REMARK   12  A    between atoms: C15_25  and  N4_26 
REMARK   13  A    between atoms: C21_34  and  N6_35 
ROOT
HETATM    1  C1  UNL     1      11.177 -11.468  23.760  1.00  0.00     0.177 C 
HETATM    2  N1  UNL     1      12.096 -10.796  22.848  1.00  0.00    -0.171 N 
HETATM    3  C2  UNL     1      12.680 -11.392  21.800  1.00  0.00     0.150 A 
HETATM    4  N2  UNL     1      12.639 -12.645  21.284  1.00  0.00    -0.343 N 
ATOM      5  H2  UNL     1      12.050 -13.332  21.753  1.00  0.00     0.167 HD
HETATM    6  C3  UNL     1      13.316 -13.042  20.204  1.00  0.00     0.023 A 
HETATM    7  C12 UNL     1      14.125 -12.078  19.568  1.00  0.00    -0.011 A 
HETATM    8  C19 UNL     1      14.213 -10.797  20.036  1.00  0.00     0.047 A 
HETATM    9  C20 UNL     1      13.503 -10.394  21.164  1.00  0.00     0.094 A 
HETATM   10  N5  UNL     1      13.366  -9.260  21.864  1.00  0.00    -0.188 N 
ATOM     11  H5  UNL     1      13.819  -8.366  21.671  1.00  0.00     0.184 HD
HETATM   12  C21 UNL     1      12.502  -9.533  22.885  1.00  0.00     0.679 A 
ENDROOT
BRANCH   6  13
HETATM   13  C4  UNL     1      13.281 -14.373  19.628  1.00  0.00     0.094 C 
BRANCH  13  14
HETATM   14  C5  UNL     1      14.288 -15.367  20.044  1.00  0.00     0.317 C 
BRANCH  14  15
HETATM   15  N3  UNL     1      14.071 -16.090  21.261  1.00  0.00     0.010 N 
HETATM   16  C6  UNL     1      13.228 -17.223  20.918  1.00  0.00     0.356 C 
HETATM   17  O1  UNL     1      13.617 -15.371  22.299  1.00  0.00    -0.065 OA
BRANCH  15  18
HETATM   18  C7  UNL     1      15.352 -16.655  21.740  1.00  0.00     0.321 C 
BRANCH  18  19
HETATM   19  C8  UNL     1      16.434 -16.285  20.783  1.00  0.00     0.103 C 
BRANCH  19  20
HETATM   20  S1  UNL     1      17.895 -15.708  21.610  1.00  0.00    -0.178 SA
HETATM   21  C9  UNL     1      17.956 -14.867  23.042  1.00  0.00     0.186 A 
HETATM   22  C10 UNL     1      17.969 -13.956  21.822  1.00  0.00     0.101 A 
BRANCH  21  23
HETATM   23  O2  UNL     1      19.190 -14.850  23.739  1.00  0.00    -0.385 OA
ATOM     24  H2  UNL     1      19.651 -15.675  23.836  1.00  0.00     0.211 HD
ENDBRANCH  21  23
BRANCH  22  25
HETATM   25  C11 UNL     1      16.794 -13.082  21.555  1.00  0.00     0.181 C 
BRANCH  25  26
HETATM   26  O3  UNL     1      15.802 -13.163  22.495  1.00  0.00    -0.400 OA
ATOM     27  H3  UNL     1      15.197 -12.430  22.492  1.00  0.00     0.209 HD
ENDBRANCH  25  26
ENDBRANCH  22  25
ENDBRANCH  19  20
ENDBRANCH  18  19
ENDBRANCH  15  18
ENDBRANCH  14  15
ENDBRANCH  13  14
ENDBRANCH   6  13
BRANCH   7  28
HETATM   28  C13 UNL     1      14.849 -12.443  18.363  1.00  0.00     0.011 C 
HETATM   29  C14 UNL     1      15.187 -11.595  17.417  1.00  0.00     0.002 C 
BRANCH  29  30
HETATM   30  C15 UNL     1      15.937 -12.077  16.209  1.00  0.00     0.263 C 
BRANCH  30  31
HETATM   31  N4  UNL     1      16.078 -10.986  15.273  1.00  0.00    -0.075 N 
HETATM   32  C16 UNL     1      14.982 -10.032  15.534  1.00  0.00     0.272 C 
HETATM   33  C17 UNL     1      17.306 -10.236  15.478  1.00  0.00     0.272 C 
HETATM   34  C18 UNL     1      16.006 -11.393  13.898  1.00  0.00     0.272 C 
ENDBRANCH  30  31
ENDBRANCH  29  30
ENDBRANCH   7  28
BRANCH  12  35
HETATM   35  N6  UNL     1      12.146  -8.648  23.761  1.00  0.00    -0.234 N 
ATOM     36  H62 UNL     1      11.886  -7.694  23.509  1.00  0.00     0.174 HD
ATOM     37  H61 UNL     1      12.087  -8.794  24.768  1.00  0.00     0.174 HD
ENDBRANCH  12  35
TORSDOF 13
ENDMDL
MODEL 4
REMARK VINA RESULT: -6.982057484      2.304      4.494
REMARK  13 active torsions:
REMARK  status: ('A' for Active; 'I' for Inactive)
REMARK    1  A    between atoms: C3_6  and  C4_7 
REMARK    2  A    between atoms: C4_7  and  C5_8 
REMARK    3  A    between atoms: C5_8  and  N3_9 
REMARK    4  A    between atoms: N3_9  and  C7_12 
REMARK    5  A    between atoms: C7_12  and  C8_13 
REMARK    6  A    between atoms: C8_13  and  S1_14 
REMARK    7  A    between atoms: C9_15  and  O2_16 
REMARK    8  A    between atoms: C10_18  and  C11_19 
REMARK    9  A    between atoms: C11_19  and  O3_20 
REMARK   10  A    between atoms: C12_22  and  C13_23 
REMARK   11  A    between atoms: C14_24  and  C15_25 
REMARK   12  A    between atoms: C15_25  and  N4_26 
REMARK   13  A    between atoms: C21_34  and  N6_35 
ROOT
HETATM    1  C1  UNL     1      12.994  -8.546  22.809  1.00  0.00     0.177 C 
HETATM    2  N1  UNL     1      12.473  -9.905  22.697  1.00  0.00    -0.171 N 
HETATM    3  C2  UNL     1      12.931 -10.812  21.825  1.00  0.00     0.150 A 
HETATM    4  N2  UNL     1      13.895 -10.804  20.872  1.00  0.00    -0.343 N 
ATOM      5  H2  UNL     1      14.426  -9.942  20.743  1.00  0.00     0.167 HD
HETATM    6  C3  UNL     1      14.199 -11.843  20.092  1.00  0.00     0.023 A 
HETATM    7  C12 UNL     1      13.455 -13.025  20.286  1.00  0.00    -0.011 A 
HETATM    8  C19 UNL     1      12.469 -13.103  21.227  1.00  0.00     0.047 A 
HETATM    9  C20 UNL     1      12.160 -12.012  22.035  1.00  0.00     0.094 A 
HETATM   10  N5  UNL     1      11.286 -11.757  23.019  1.00  0.00    -0.188 N 
ATOM     11  H5  UNL     1      10.597 -12.402  23.405  1.00  0.00     0.184 HD
HETATM   12  C21 UNL     1      11.500 -10.464  23.405  1.00  0.00     0.679 A 
ENDROOT
BRANCH   6  13
HETATM   13  C4  UNL     1      15.232 -11.860  19.073  1.00  0.00     0.094 C 
BRANCH  13  14
HETATM   14  C5  UNL     1      16.603 -11.450  19.429  1.00  0.00     0.317 C 
BRANCH  14  15
HETATM   15  N3  UNL     1      17.438 -12.385  20.122  1.00  0.00     0.010 N 
HETATM   16  C6  UNL     1      18.801 -12.102  19.705  1.00  0.00     0.356 C 
HETATM   17  O1  UNL     1      17.092 -13.676  20.008  1.00  0.00    -0.065 OA
BRANCH  15  18
HETATM   18  C7  UNL     1      17.384 -12.118  21.576  1.00  0.00     0.321 C 
BRANCH  18  19
HETATM   19  C8  UNL     1      17.342 -13.418  22.307  1.00  0.00     0.103 C 
BRANCH  19  20
HETATM   20  S1  UNL     1      18.786 -13.674  23.306  1.00  0.00    -0.178 SA
HETATM   21  C9  UNL     1      20.368 -13.576  22.805  1.00  0.00     0.186 A 
HETATM   22  C10 UNL     1      19.822 -14.997  22.763  1.00  0.00     0.101 A 
BRANCH  21  23
HETATM   23  O2  UNL     1      21.361 -13.411  23.801  1.00  0.00    -0.385 OA
ATOM     24  H2  UNL     1      22.265 -13.565  23.550  1.00  0.00     0.211 HD
ENDBRANCH  21  23
BRANCH  22  25
HETATM   25  C11 UNL     1      19.623 -15.661  21.445  1.00  0.00     0.181 C 
BRANCH  25  26
HETATM   26  O3  UNL     1      20.761 -16.190  20.899  1.00  0.00    -0.400 OA
ATOM     27  H3  UNL     1      20.714 -16.343  19.963  1.00  0.00     0.209 HD
ENDBRANCH  25  26
ENDBRANCH  22  25
ENDBRANCH  19  20
ENDBRANCH  18  19
ENDBRANCH  15  18
ENDBRANCH  14  15
ENDBRANCH  13  14
ENDBRANCH   6  13
BRANCH   7  28
HETATM   28  C13 UNL     1      13.773 -14.200  19.494  1.00  0.00     0.011 C 
HETATM   29  C14 UNL     1      12.990 -15.250  19.379  1.00  0.00     0.002 C 
BRANCH  29  30
HETATM   30  C15 UNL     1      13.414 -16.415  18.533  1.00  0.00     0.263 C 
BRANCH  30  31
HETATM   31  N4  UNL     1      12.613 -17.567  18.878  1.00  0.00    -0.075 N 
HETATM   32  C16 UNL     1      13.354 -18.332  19.900  1.00  0.00     0.272 C 
HETATM   33  C17 UNL     1      11.354 -17.197  19.503  1.00  0.00     0.272 C 
HETATM   34  C18 UNL     1      12.344 -18.436  17.768  1.00  0.00     0.272 C 
ENDBRANCH  30  31
ENDBRANCH  29  30
ENDBRANCH   7  28
BRANCH  12  35
HETATM   35  N6  UNL     1      10.819  -9.890  24.345  1.00  0.00    -0.234 N 
ATOM     36  H62 UNL     1      10.452  -8.942  24.262  1.00  0.00     0.174 HD
ATOM     37  H61 UNL     1      10.579 -10.303  25.246  1.00  0.00     0.174 HD
ENDBRANCH  12  35
TORSDOF 13
ENDMDL
MODEL 5
REMARK VINA RESULT: -6.972084786      2.249      4.615
REMARK  13 active torsions:
REMARK  status: ('A' for Active; 'I' for Inactive)
REMARK    1  A    between atoms: C3_6  and  C4_7 
REMARK    2  A    between atoms: C4_7  and  C5_8 
REMARK    3  A    between atoms: C5_8  and  N3_9 
REMARK    4  A    between atoms: N3_9  and  C7_12 
REMARK    5  A    between atoms: C7_12  and  C8_13 
REMARK    6  A    between atoms: C8_13  and  S1_14 
REMARK    7  A    between atoms: C9_15  and  O2_16 
REMARK    8  A    between atoms: C10_18  and  C11_19 
REMARK    9  A    between atoms: C11_19  and  O3_20 
REMARK   10  A    between atoms: C12_22  and  C13_23 
REMARK   11  A    between atoms: C14_24  and  C15_25 
REMARK   12  A    between atoms: C15_25  and  N4_26 
REMARK   13  A    between atoms: C21_34  and  N6_35 
ROOT
HETATM    1  C1  UNL     1      12.970  -8.634  22.731  1.00  0.00     0.177 C 
HETATM    2  N1  UNL     1      12.456  -9.997  22.643  1.00  0.00    -0.171 N 
HETATM    3  C2  UNL     1      12.871 -10.897  21.741  1.00  0.00     0.150 A 
HETATM    4  N2  UNL     1      13.779 -10.875  20.735  1.00  0.00    -0.343 N 
ATOM      5  H2  UNL     1      14.294 -10.008  20.579  1.00  0.00     0.167 HD
HETATM    6  C3  UNL     1      14.047 -11.908  19.933  1.00  0.00     0.023 A 
HETATM    7  C12 UNL     1      13.327 -13.097  20.163  1.00  0.00    -0.011 A 
HETATM    8  C19 UNL     1      12.396 -13.189  21.159  1.00  0.00     0.047 A 
HETATM    9  C20 UNL     1      12.125 -12.104  21.990  1.00  0.00     0.094 A 
HETATM   10  N5  UNL     1      11.307 -11.861  23.023  1.00  0.00    -0.188 N 
ATOM     11  H5  UNL     1      10.646 -12.515  23.444  1.00  0.00     0.184 HD
HETATM   12  C21 UNL     1      11.530 -10.569  23.402  1.00  0.00     0.679 A 
ENDROOT
BRANCH   6  13
HETATM   13  C4  UNL     1      15.019 -11.911  18.857  1.00  0.00     0.094 C 
BRANCH  13  14
HETATM   14  C5  UNL     1      16.443 -11.683  19.169  1.00  0.00     0.317 C 
BRANCH  14  15
HETATM   15  N3  UNL     1      16.978 -12.253  20.369  1.00  0.00     0.010 N 
HETATM   16  C6  UNL     1      16.888 -13.694  20.213  1.00  0.00     0.356 C 
HETATM   17  O1  UNL     1      16.457 -11.798  21.518  1.00  0.00    -0.065 OA
BRANCH  15  18
HETATM   18  C7  UNL     1      18.420 -11.935  20.471  1.00  0.00     0.321 C 
BRANCH  18  19
HETATM   19  C8  UNL     1      19.180 -13.196  20.709  1.00  0.00     0.103 C 
BRANCH  19  20
HETATM   20  S1  UNL     1      20.359 -13.032  22.025  1.00  0.00    -0.178 SA
HETATM   21  C9  UNL     1      20.913 -14.246  23.016  1.00  0.00     0.186 A 
HETATM   22  C10 UNL     1      19.742 -13.481  23.617  1.00  0.00     0.101 A 
BRANCH  21  23
HETATM   23  O2  UNL     1      22.122 -14.017  23.719  1.00  0.00    -0.385 OA
ATOM     24  H2  UNL     1      22.371 -13.115  23.882  1.00  0.00     0.211 HD
ENDBRANCH  21  23
BRANCH  22  25
HETATM   25  C11 UNL     1      18.433 -14.171  23.787  1.00  0.00     0.181 C 
BRANCH  25  26
HETATM   26  O3  UNL     1      17.342 -13.354  23.665  1.00  0.00    -0.400 OA
ATOM     27  H3  UNL     1      16.507 -13.794  23.773  1.00  0.00     0.209 HD
ENDBRANCH  25  26
ENDBRANCH  22  25
ENDBRANCH  19  20
ENDBRANCH  18  19
ENDBRANCH  15  18
ENDBRANCH  14  15
ENDBRANCH  13  14
ENDBRANCH   6  13
BRANCH   7  28
HETATM   28  C13 UNL     1      13.609 -14.266  19.349  1.00  0.00     0.011 C 
HETATM   29  C14 UNL     1      13.068 -15.450  19.538  1.00  0.00     0.002 C 
BRANCH  29  30
HETATM   30  C15 UNL     1      13.428 -16.594  18.637  1.00  0.00     0.263 C 
BRANCH  30  31
HETATM   31  N4  UNL     1      12.764 -17.790  19.101  1.00  0.00    -0.075 N 
HETATM   32  C16 UNL     1      12.161 -17.483  20.413  1.00  0.00     0.272 C 
HETATM   33  C17 UNL     1      11.657 -18.175  18.243  1.00  0.00     0.272 C 
HETATM   34  C18 UNL     1      13.643 -18.914  19.259  1.00  0.00     0.272 C 
ENDBRANCH  30  31
ENDBRANCH  29  30
ENDBRANCH   7  28
BRANCH  12  35
HETATM   35  N6  UNL     1      10.900 -10.005  24.382  1.00  0.00    -0.234 N 
ATOM     36  H62 UNL     1      11.300  -9.247  24.935  1.00  0.00     0.174 HD
ATOM     37  H61 UNL     1       9.963 -10.244  24.706  1.00  0.00     0.174 HD
ENDBRANCH  12  35
TORSDOF 13
ENDMDL
