MODEL 1
REMARK VINA RESULT: -8.270795194      0.000      0.000
REMARK  12 active torsions:
REMARK  status: ('A' for Active; 'I' for Inactive)
REMARK    1  A    between atoms: C3_5  and  N2_6 
REMARK    2  A    between atoms: C5_12  and  C6_13 
REMARK    3  A    between atoms: C6_13  and  C7_14 
REMARK    4  A    between atoms: C7_14  and  C8_15 
REMARK    5  A    between atoms: C8_15  and  C9_16 
REMARK    6  A    between atoms: N4_20  and  C13_21 
REMARK    7  A    between atoms: C13_21  and  C14_22 
REMARK    8  A    between atoms: C14_22  and  O1_23 
REMARK    9  A    between atoms: C14_22  and  C15_25 
REMARK   10  A    between atoms: N5_28  and  C18_29 
REMARK   11  A    between atoms: C18_29  and  C19_30 
REMARK   12  A    between atoms: C19_30  and  N7_34 
ROOT
HETATM    1  N7  UNL     1      12.470 -10.709  21.811  1.00  0.00    -0.282 N 
ATOM      2  H7  UNL     1      11.929 -11.568  21.709  1.00  0.00     0.179 HD
HETATM    3  C20 UNL     1      12.132  -9.777  22.790  1.00  0.00     0.183 C 
HETATM    4  N8  UNL     1      11.842  -9.008  23.621  1.00  0.00    -0.172 NA
ENDROOT
BRANCH   1   5
HETATM    5  C19 UNL     1      13.570 -10.453  20.960  1.00  0.00     0.102 C 
HETATM    6  N6  UNL     1      14.089  -9.277  20.964  1.00  0.00    -0.387 N 
ATOM      7  H62 UNL     1      14.882  -9.093  20.350  1.00  0.00     0.157 HD
ATOM      8  H61 UNL     1      13.717  -8.543  21.566  1.00  0.00     0.157 HD
BRANCH   5   9
HETATM    9  C18 UNL     1      14.111 -11.517  20.088  1.00  0.00     0.204 C 
BRANCH   9  10
HETATM   10  N5  UNL     1      15.466 -11.873  20.421  1.00  0.00    -0.359 N 
HETATM   11  C17 UNL     1      15.689 -12.512  21.520  1.00  0.00     0.091 A 
HETATM   12  C16 UNL     1      17.053 -12.883  21.878  1.00  0.00     0.027 A 
HETATM   13  C15 UNL     1      18.008 -12.535  21.036  1.00  0.00    -0.025 A 
HETATM   14  C22 UNL     1      17.730 -11.825  19.824  1.00  0.00     0.027 A 
HETATM   15  C21 UNL     1      16.508 -11.507  19.528  1.00  0.00     0.091 A 
BRANCH  13  16
HETATM   16  C14 UNL     1      19.406 -12.906  21.389  1.00  0.00     0.169 C 
BRANCH  16  17
HETATM   17  C13 UNL     1      19.448 -14.218  22.120  1.00  0.00     0.164 C 
BRANCH  17  18
HETATM   18  N4  UNL     1      19.748 -14.029  23.540  1.00  0.00    -0.363 N 
HETATM   19  C12 UNL     1      20.403 -12.957  23.991  1.00  0.00     0.090 A 
HETATM   20  C11 UNL     1      20.667 -12.847  25.366  1.00  0.00     0.018 A 
HETATM   21  C10 UNL     1      20.263 -13.824  26.251  1.00  0.00     0.010 A 
HETATM   22  C9  UNL     1      19.587 -14.927  25.777  1.00  0.00    -0.043 A 
HETATM   23  C23 UNL     1      19.353 -14.988  24.428  1.00  0.00     0.097 A 
BRANCH  22  24
HETATM   24  C8  UNL     1      19.131 -16.003  26.704  1.00  0.00     0.040 C 
BRANCH  24  25
HETATM   25  C7  UNL     1      19.689 -17.308  26.228  1.00  0.00     0.009 C 
BRANCH  25  26
HETATM   26  C6  UNL     1      21.188 -17.395  26.439  1.00  0.00     0.030 C 
BRANCH  26  27
HETATM   27  C5  UNL     1      21.889 -17.836  25.214  1.00  0.00     0.006 C 
HETATM   28  C4  UNL     1      22.661 -17.028  24.519  1.00  0.00     0.071 A 
HETATM   29  C2  UNL     1      23.361 -17.317  23.373  1.00  0.00     0.066 A 
HETATM   30  N3  UNL     1      22.920 -15.725  24.811  1.00  0.00    -0.190 N 
HETATM   31  C1  UNL     1      23.399 -18.469  22.733  1.00  0.00     0.046 C 
HETATM   32  N1  UNL     1      24.006 -16.183  23.026  1.00  0.00    -0.191 N 
HETATM   33  C3  UNL     1      23.742 -15.208  23.899  1.00  0.00     0.676 A 
ATOM     34  H1  UNL     1      24.612 -16.085  22.211  1.00  0.00     0.184 HD
ATOM     35  H3  UNL     1      22.540 -15.218  25.611  1.00  0.00     0.184 HD
BRANCH  33  36
HETATM   36  N2  UNL     1      24.205 -14.013  23.843  1.00  0.00    -0.234 N 
ATOM     37  H22 UNL     1      25.171 -13.723  23.693  1.00  0.00     0.174 HD
ATOM     38  H21 UNL     1      23.655 -13.160  23.945  1.00  0.00     0.174 HD
ENDBRANCH  33  36
ENDBRANCH  26  27
ENDBRANCH  25  26
ENDBRANCH  24  25
ENDBRANCH  22  24
ENDBRANCH  17  18
ENDBRANCH  16  17
BRANCH  16  39
HETATM   39  O1  UNL     1      20.060 -13.044  20.128  1.00  0.00    -0.389 OA
ATOM     40  H1  UNL     1      20.491 -12.227  19.905  1.00  0.00     0.210 HD
ENDBRANCH  16  39
ENDBRANCH  13  16
ENDBRANCH   9  10
ENDBRANCH   5   9
ENDBRANCH   1   5
TORSDOF 12
ENDMDL
MODEL 2
REMARK VINA RESULT: -8.030719656      1.904      9.280
REMARK  12 active torsions:
REMARK  status: ('A' for Active; 'I' for Inactive)
REMARK    1  A    between atoms: C3_5  and  N2_6 
REMARK    2  A    between atoms: C5_12  and  C6_13 
REMARK    3  A    between atoms: C6_13  and  C7_14 
REMARK    4  A    between atoms: C7_14  and  C8_15 
REMARK    5  A    between atoms: C8_15  and  C9_16 
REMARK    6  A    between atoms: N4_20  and  C13_21 
REMARK    7  A    between atoms: C13_21  and  C14_22 
REMARK    8  A    between atoms: C14_22  and  O1_23 
REMARK    9  A    between atoms: C14_22  and  C15_25 
REMARK   10  A    between atoms: N5_28  and  C18_29 
REMARK   11  A    between atoms: C18_29  and  C19_30 
REMARK   12  A    between atoms: C19_30  and  N7_34 
ROOT
HETATM    1  N7  UNL     1      21.657 -15.104  26.499  1.00  0.00    -0.282 N 
ATOM      2  H7  UNL     1      21.883 -15.734  27.268  1.00  0.00     0.179 HD
HETATM    3  C20 UNL     1      21.146 -13.833  26.756  1.00  0.00     0.183 C 
HETATM    4  N8  UNL     1      20.727 -12.767  26.988  1.00  0.00    -0.172 NA
ENDROOT
BRANCH   1   5
HETATM    5  C19 UNL     1      21.861 -15.511  25.159  1.00  0.00     0.102 C 
HETATM    6  N6  UNL     1      23.045 -15.434  24.667  1.00  0.00    -0.387 N 
ATOM      7  H62 UNL     1      23.191 -15.728  23.702  1.00  0.00     0.157 HD
ATOM      8  H61 UNL     1      23.823 -15.086  25.228  1.00  0.00     0.157 HD
BRANCH   5   9
HETATM    9  C18 UNL     1      20.734 -16.016  24.347  1.00  0.00     0.204 C 
BRANCH   9  10
HETATM   10  N5  UNL     1      20.396 -15.135  23.258  1.00  0.00    -0.359 N 
HETATM   11  C17 UNL     1      20.143 -15.646  22.101  1.00  0.00     0.091 A 
HETATM   12  C16 UNL     1      19.799 -14.773  20.983  1.00  0.00     0.027 A 
HETATM   13  C15 UNL     1      19.766 -13.477  21.226  1.00  0.00    -0.025 A 
HETATM   14  C22 UNL     1      20.052 -12.939  22.522  1.00  0.00     0.027 A 
HETATM   15  C21 UNL     1      20.355 -13.735  23.498  1.00  0.00     0.091 A 
BRANCH  13  16
HETATM   16  C14 UNL     1      19.417 -12.574  20.094  1.00  0.00     0.169 C 
BRANCH  16  17
HETATM   17  C13 UNL     1      18.177 -11.781  20.398  1.00  0.00     0.164 C 
BRANCH  17  18
HETATM   18  N4  UNL     1      17.053 -12.208  19.564  1.00  0.00    -0.363 N 
HETATM   19  C12 UNL     1      16.717 -11.568  18.442  1.00  0.00     0.090 A 
HETATM   20  C11 UNL     1      15.619 -12.026  17.698  1.00  0.00     0.018 A 
HETATM   21  C10 UNL     1      14.886 -13.121  18.105  1.00  0.00     0.010 A 
HETATM   22  C9  UNL     1      15.240 -13.776  19.264  1.00  0.00    -0.043 A 
HETATM   23  C23 UNL     1      16.319 -13.292  19.956  1.00  0.00     0.097 A 
BRANCH  22  24
HETATM   24  C8  UNL     1      14.473 -14.966  19.736  1.00  0.00     0.040 C 
BRANCH  24  25
HETATM   25  C7  UNL     1      13.022 -14.605  19.791  1.00  0.00     0.009 C 
BRANCH  25  26
HETATM   26  C6  UNL     1      12.668 -13.868  21.068  1.00  0.00     0.030 C 
BRANCH  26  27
HETATM   27  C5  UNL     1      12.950 -12.420  20.961  1.00  0.00     0.006 C 
HETATM   28  C4  UNL     1      12.511 -11.552  21.848  1.00  0.00     0.071 A 
HETATM   29  C2  UNL     1      12.705 -10.193  21.858  1.00  0.00     0.066 A 
HETATM   30  N3  UNL     1      11.765 -11.845  22.947  1.00  0.00    -0.190 N 
HETATM   31  C1  UNL     1      13.375  -9.478  20.975  1.00  0.00     0.046 C 
HETATM   32  N1  UNL     1      12.073  -9.727  22.955  1.00  0.00    -0.191 N 
HETATM   33  C3  UNL     1      11.497 -10.729  23.625  1.00  0.00     0.676 A 
ATOM     34  H1  UNL     1      12.039  -8.747  23.235  1.00  0.00     0.184 HD
ATOM     35  H3  UNL     1      11.457 -12.779  23.214  1.00  0.00     0.184 HD
BRANCH  33  36
HETATM   36  N2  UNL     1      10.822 -10.610  24.709  1.00  0.00    -0.234 N 
ATOM     37  H22 UNL     1      10.881  -9.865  25.404  1.00  0.00     0.174 HD
ATOM     38  H21 UNL     1      10.110 -11.262  25.037  1.00  0.00     0.174 HD
ENDBRANCH  33  36
ENDBRANCH  26  27
ENDBRANCH  25  26
ENDBRANCH  24  25
ENDBRANCH  22  24
ENDBRANCH  17  18
ENDBRANCH  16  17
BRANCH  16  39
HETATM   39  O1  UNL     1      20.533 -11.689  19.996  1.00  0.00    -0.389 OA
ATOM     40  H1  UNL     1      21.338 -12.188  20.057  1.00  0.00     0.210 HD
ENDBRANCH  16  39
ENDBRANCH  13  16
ENDBRANCH   9  10
ENDBRANCH   5   9
ENDBRANCH   1   5
TORSDOF 12
ENDMDL
MODEL 3
REMARK VINA RESULT: -8.012674954      1.661      2.882
REMARK  12 active torsions:
REMARK  status: ('A' for Active; 'I' for Inactive)
REMARK    1  A    between atoms: C3_5  and  N2_6 
REMARK    2  A    between atoms: C5_12  and  C6_13 
REMARK    3  A    between atoms: C6_13  and  C7_14 
REMARK    4  A    between atoms: C7_14  and  C8_15 
REMARK    5  A    between atoms: C8_15  and  C9_16 
REMARK    6  A    between atoms: N4_20  and  C13_21 
REMARK    7  A    between atoms: C13_21  and  C14_22 
REMARK    8  A    between atoms: C14_22  and  O1_23 
REMARK    9  A    between atoms: C14_22  and  C15_25 
REMARK   10  A    between atoms: N5_28  and  C18_29 
REMARK   11  A    between atoms: C18_29  and  C19_30 
REMARK   12  A    between atoms: C19_30  and  N7_34 
ROOT
HETATM    1  N7  UNL     1      11.620  -9.646  24.665  1.00  0.00    -0.282 N 
ATOM      2  H7  UNL     1      11.550 -10.007  25.617  1.00  0.00     0.179 HD
HETATM    3  C20 UNL     1      11.903  -8.300  24.442  1.00  0.00     0.183 C 
HETATM    4  N8  UNL     1      12.150  -7.171  24.270  1.00  0.00    -0.172 NA
ENDROOT
BRANCH   1   5
HETATM    5  C19 UNL     1      11.430 -10.508  23.559  1.00  0.00     0.102 C 
HETATM    6  N6  UNL     1      10.776 -11.600  23.737  1.00  0.00    -0.387 N 
ATOM      7  H62 UNL     1      10.640 -12.220  22.939  1.00  0.00     0.157 HD
ATOM      8  H61 UNL     1      10.403 -11.843  24.654  1.00  0.00     0.157 HD
BRANCH   5   9
HETATM    9  C18 UNL     1      11.971 -10.156  22.230  1.00  0.00     0.204 C 
BRANCH   9  10
HETATM   10  N5  UNL     1      13.006 -11.059  21.795  1.00  0.00    -0.359 N 
HETATM   11  C17 UNL     1      14.104 -10.568  21.329  1.00  0.00     0.091 A 
HETATM   12  C16 UNL     1      15.167 -11.463  20.883  1.00  0.00     0.027 A 
HETATM   13  C15 UNL     1      14.937 -12.758  20.982  1.00  0.00    -0.025 A 
HETATM   14  C22 UNL     1      13.707 -13.274  21.504  1.00  0.00     0.027 A 
HETATM   15  C21 UNL     1      12.779 -12.458  21.893  1.00  0.00     0.091 A 
BRANCH  13  16
HETATM   16  C14 UNL     1      16.011 -13.684  20.529  1.00  0.00     0.169 C 
BRANCH  16  17
HETATM   17  C13 UNL     1      16.573 -14.467  21.684  1.00  0.00     0.164 C 
BRANCH  17  18
HETATM   18  N4  UNL     1      17.926 -14.023  22.021  1.00  0.00    -0.363 N 
HETATM   19  C12 UNL     1      18.826 -13.711  21.086  1.00  0.00     0.090 A 
HETATM   20  C11 UNL     1      20.109 -13.305  21.482  1.00  0.00     0.018 A 
HETATM   21  C10 UNL     1      20.454 -13.225  22.815  1.00  0.00     0.010 A 
HETATM   22  C9  UNL     1      19.519 -13.548  23.774  1.00  0.00    -0.043 A 
HETATM   23  C23 UNL     1      18.280 -13.938  23.338  1.00  0.00     0.097 A 
BRANCH  22  24
HETATM   24  C8  UNL     1      19.853 -13.471  25.226  1.00  0.00     0.040 C 
BRANCH  24  25
HETATM   25  C7  UNL     1      19.356 -14.714  25.895  1.00  0.00     0.009 C 
BRANCH  25  26
HETATM   26  C6  UNL     1      20.491 -15.630  26.308  1.00  0.00     0.030 C 
BRANCH  26  27
HETATM   27  C5  UNL     1      20.927 -16.499  25.193  1.00  0.00     0.006 C 
HETATM   28  C4  UNL     1      22.046 -16.284  24.533  1.00  0.00     0.071 A 
HETATM   29  C2  UNL     1      22.555 -17.015  23.488  1.00  0.00     0.066 A 
HETATM   30  N3  UNL     1      22.929 -15.277  24.767  1.00  0.00    -0.190 N 
HETATM   31  C1  UNL     1      22.022 -18.084  22.930  1.00  0.00     0.046 C 
HETATM   32  N1  UNL     1      23.715 -16.420  23.139  1.00  0.00    -0.191 N 
HETATM   33  C3  UNL     1      23.950 -15.360  23.915  1.00  0.00     0.676 A 
ATOM     34  H1  UNL     1      24.328 -16.737  22.387  1.00  0.00     0.184 HD
ATOM     35  H3  UNL     1      22.825 -14.563  25.489  1.00  0.00     0.184 HD
BRANCH  33  36
HETATM   36  N2  UNL     1      24.970 -14.587  23.832  1.00  0.00    -0.234 N 
ATOM     37  H22 UNL     1      25.951 -14.828  23.977  1.00  0.00     0.174 HD
ATOM     38  H21 UNL     1      24.944 -13.593  23.604  1.00  0.00     0.174 HD
ENDBRANCH  33  36
ENDBRANCH  26  27
ENDBRANCH  25  26
ENDBRANCH  24  25
ENDBRANCH  22  24
ENDBRANCH  17  18
ENDBRANCH  16  17
BRANCH  16  39
HETATM   39  O1  UNL     1      15.350 -14.575  19.630  1.00  0.00    -0.389 OA
ATOM     40  H1  UNL     1      15.918 -14.756  18.891  1.00  0.00     0.210 HD
ENDBRANCH  16  39
ENDBRANCH  13  16
ENDBRANCH   9  10
ENDBRANCH   5   9
ENDBRANCH   1   5
TORSDOF 12
ENDMDL
MODEL 4
REMARK VINA RESULT: -7.958750165      3.726      8.608
REMARK  12 active torsions:
REMARK  status: ('A' for Active; 'I' for Inactive)
REMARK    1  A    between atoms: C3_5  and  N2_6 
REMARK    2  A    between atoms: C5_12  and  C6_13 
REMARK    3  A    between atoms: C6_13  and  C7_14 
REMARK    4  A    between atoms: C7_14  and  C8_15 
REMARK    5  A    between atoms: C8_15  and  C9_16 
REMARK    6  A    between atoms: N4_20  and  C13_21 
REMARK    7  A    between atoms: C13_21  and  C14_22 
REMARK    8  A    between atoms: C14_22  and  O1_23 
REMARK    9  A    between atoms: C14_22  and  C15_25 
REMARK   10  A    between atoms: N5_28  and  C18_29 
REMARK   11  A    between atoms: C18_29  and  C19_30 
REMARK   12  A    between atoms: C19_30  and  N7_34 
ROOT
HETATM    1  N7  UNL     1      12.984 -15.408  18.944  1.00  0.00    -0.282 N 
ATOM      2  H7  UNL     1      13.452 -15.281  18.046  1.00  0.00     0.179 HD
HETATM    3  C20 UNL     1      12.721 -14.311  19.761  1.00  0.00     0.183 C 
HETATM    4  N8  UNL     1      12.500 -13.380  20.432  1.00  0.00    -0.172 NA
ENDROOT
BRANCH   1   5
HETATM    5  C19 UNL     1      12.594 -16.700  19.370  1.00  0.00     0.102 C 
HETATM    6  N6  UNL     1      11.350 -16.920  19.603  1.00  0.00    -0.387 N 
ATOM      7  H62 UNL     1      11.070 -17.851  19.911  1.00  0.00     0.157 HD
ATOM      8  H61 UNL     1      10.657 -16.180  19.486  1.00  0.00     0.157 HD
BRANCH   5   9
HETATM    9  C18 UNL     1      13.598 -17.771  19.539  1.00  0.00     0.204 C 
BRANCH   9  10
HETATM   10  N5  UNL     1      14.728 -17.353  20.330  1.00  0.00    -0.359 N 
HETATM   11  C17 UNL     1      15.896 -17.335  19.784  1.00  0.00     0.091 A 
HETATM   12  C16 UNL     1      17.055 -16.916  20.565  1.00  0.00     0.027 A 
HETATM   13  C15 UNL     1      16.836 -16.569  21.819  1.00  0.00    -0.025 A 
HETATM   14  C22 UNL     1      15.527 -16.599  22.398  1.00  0.00     0.027 A 
HETATM   15  C21 UNL     1      14.514 -16.976  21.683  1.00  0.00     0.091 A 
BRANCH  13  16
HETATM   16  C14 UNL     1      18.009 -16.140  22.629  1.00  0.00     0.169 C 
BRANCH  16  17
HETATM   17  C13 UNL     1      17.870 -14.708  23.065  1.00  0.00     0.164 C 
BRANCH  17  18
HETATM   18  N4  UNL     1      18.162 -13.785  21.967  1.00  0.00    -0.363 N 
HETATM   19  C12 UNL     1      19.386 -13.660  21.450  1.00  0.00     0.090 A 
HETATM   20  C11 UNL     1      19.596 -12.745  20.407  1.00  0.00     0.018 A 
HETATM   21  C10 UNL     1      18.563 -11.979  19.910  1.00  0.00     0.010 A 
HETATM   22  C9  UNL     1      17.302 -12.115  20.449  1.00  0.00    -0.043 A 
HETATM   23  C23 UNL     1      17.148 -13.020  21.465  1.00  0.00     0.097 A 
BRANCH  22  24
HETATM   24  C8  UNL     1      16.158 -11.305  19.936  1.00  0.00     0.040 C 
BRANCH  24  25
HETATM   25  C7  UNL     1      15.205 -11.062  21.064  1.00  0.00     0.009 C 
BRANCH  25  26
HETATM   26  C6  UNL     1      14.003 -10.248  20.627  1.00  0.00     0.030 C 
BRANCH  26  27
HETATM   27  C5  UNL     1      13.523  -9.357  21.705  1.00  0.00     0.006 C 
HETATM   28  C4  UNL     1      12.611  -9.736  22.575  1.00  0.00     0.071 A 
HETATM   29  C2  UNL     1      12.088  -9.005  23.613  1.00  0.00     0.066 A 
HETATM   30  N3  UNL     1      12.001 -10.951  22.611  1.00  0.00    -0.190 N 
HETATM   31  C1  UNL     1      12.395  -7.768  23.950  1.00  0.00     0.046 C 
HETATM   32  N1  UNL     1      11.191  -9.806  24.227  1.00  0.00    -0.191 N 
HETATM   33  C3  UNL     1      11.133 -10.994  23.621  1.00  0.00     0.676 A 
ATOM     34  H1  UNL     1      10.635  -9.540  25.040  1.00  0.00     0.184 HD
ATOM     35  H3  UNL     1      12.181 -11.717  21.962  1.00  0.00     0.184 HD
BRANCH  33  36
HETATM   36  N2  UNL     1      10.376 -11.970  23.967  1.00  0.00    -0.234 N 
ATOM     37  H22 UNL     1      10.654 -12.864  24.374  1.00  0.00     0.174 HD
ATOM     38  H21 UNL     1       9.360 -11.992  23.882  1.00  0.00     0.174 HD
ENDBRANCH  33  36
ENDBRANCH  26  27
ENDBRANCH  25  26
ENDBRANCH  24  25
ENDBRANCH  22  24
ENDBRANCH  17  18
ENDBRANCH  16  17
BRANCH  16  39
HETATM   39  O1  UNL     1      17.974 -16.990  23.775  1.00  0.00    -0.389 OA
ATOM     40  H1  UNL     1      18.525 -16.625  24.456  1.00  0.00     0.210 HD
ENDBRANCH  16  39
ENDBRANCH  13  16
ENDBRANCH   9  10
ENDBRANCH   5   9
ENDBRANCH   1   5
TORSDOF 12
ENDMDL
MODEL 5
REMARK VINA RESULT: -7.938743541      2.470      4.877
REMARK  12 active torsions:
REMARK  status: ('A' for Active; 'I' for Inactive)
REMARK    1  A    between atoms: C3_5  and  N2_6 
REMARK    2  A    between atoms: C5_12  and  C6_13 
REMARK    3  A    between atoms: C6_13  and  C7_14 
REMARK    4  A    between atoms: C7_14  and  C8_15 
REMARK    5  A    between atoms: C8_15  and  C9_16 
REMARK    6  A    between atoms: N4_20  and  C13_21 
REMARK    7  A    between atoms: C13_21  and  C14_22 
REMARK    8  A    between atoms: C14_22  and  O1_23 
REMARK    9  A    between atoms: C14_22  and  C15_25 
REMARK   10  A    between atoms: N5_28  and  C18_29 
REMARK   11  A    between atoms: C18_29  and  C19_30 
REMARK   12  A    between atoms: C19_30  and  N7_34 
ROOT
HETATM    1  N7  UNL     1      12.541 -10.572  21.807  1.00  0.00    -0.282 N 
ATOM      2  H7  UNL     1      12.008 -11.441  21.763  1.00  0.00     0.179 HD
HETATM    3  C20 UNL     1      12.238  -9.608  22.766  1.00  0.00     0.183 C 
HETATM    4  N8  UNL     1      11.979  -8.812  23.581  1.00  0.00    -0.172 NA
ENDROOT
BRANCH   1   5
HETATM    5  C19 UNL     1      13.595 -10.335  20.893  1.00  0.00     0.102 C 
HETATM    6  N6  UNL     1      14.135  -9.169  20.868  1.00  0.00    -0.387 N 
ATOM      7  H62 UNL     1      14.895  -8.998  20.210  1.00  0.00     0.157 HD
ATOM      8  H61 UNL     1      13.812  -8.429  21.492  1.00  0.00     0.157 HD
BRANCH   5   9
HETATM    9  C18 UNL     1      14.064 -11.406  19.990  1.00  0.00     0.204 C 
BRANCH   9  10
HETATM   10  N5  UNL     1      15.457 -11.722  20.179  1.00  0.00    -0.359 N 
HETATM   11  C17 UNL     1      16.272 -11.555  19.194  1.00  0.00     0.091 A 
HETATM   12  C16 UNL     1      17.687 -11.868  19.362  1.00  0.00     0.027 A 
HETATM   13  C15 UNL     1      18.062 -12.317  20.544  1.00  0.00    -0.025 A 
HETATM   14  C22 UNL     1      17.134 -12.493  21.620  1.00  0.00     0.027 A 
HETATM   15  C21 UNL     1      15.882 -12.208  21.445  1.00  0.00     0.091 A 
BRANCH  13  16
HETATM   16  C14 UNL     1      19.504 -12.642  20.731  1.00  0.00     0.169 C 
BRANCH  16  17
HETATM   17  C13 UNL     1      19.681 -14.059  21.203  1.00  0.00     0.164 C 
BRANCH  17  18
HETATM   18  N4  UNL     1      19.662 -14.141  22.664  1.00  0.00    -0.363 N 
HETATM   19  C12 UNL     1      20.332 -13.280  23.433  1.00  0.00     0.090 A 
HETATM   20  C11 UNL     1      20.279 -13.428  24.828  1.00  0.00     0.018 A 
HETATM   21  C10 UNL     1      19.549 -14.441  25.412  1.00  0.00     0.010 A 
HETATM   22  C9  UNL     1      18.861 -15.325  24.610  1.00  0.00    -0.043 A 
HETATM   23  C23 UNL     1      18.943 -15.141  23.255  1.00  0.00     0.097 A 
BRANCH  22  24
HETATM   24  C8  UNL     1      18.058 -16.434  25.205  1.00  0.00     0.040 C 
BRANCH  24  25
HETATM   25  C7  UNL     1      17.783 -17.447  24.138  1.00  0.00     0.009 C 
BRANCH  25  26
HETATM   26  C6  UNL     1      16.324 -17.462  23.731  1.00  0.00     0.030 C 
BRANCH  26  27
HETATM   27  C5  UNL     1      16.160 -17.287  22.272  1.00  0.00     0.006 C 
HETATM   28  C4  UNL     1      15.271 -16.463  21.759  1.00  0.00     0.071 A 
HETATM   29  C2  UNL     1      15.026 -16.214  20.431  1.00  0.00     0.066 A 
HETATM   30  N3  UNL     1      14.409 -15.682  22.464  1.00  0.00    -0.190 N 
HETATM   31  C1  UNL     1      15.635 -16.756  19.395  1.00  0.00     0.046 C 
HETATM   32  N1  UNL     1      14.033 -15.301  20.393  1.00  0.00    -0.191 N 
HETATM   33  C3  UNL     1      13.651 -14.972  21.629  1.00  0.00     0.676 A 
ATOM     34  H1  UNL     1      13.630 -14.916  19.538  1.00  0.00     0.184 HD
ATOM     35  H3  UNL     1      14.350 -15.645  23.482  1.00  0.00     0.184 HD
BRANCH  33  36
HETATM   36  N2  UNL     1      12.729 -14.131  21.925  1.00  0.00    -0.234 N 
ATOM     37  H22 UNL     1      11.721 -14.240  21.809  1.00  0.00     0.174 HD
ATOM     38  H21 UNL     1      12.878 -13.206  22.330  1.00  0.00     0.174 HD
ENDBRANCH  33  36
ENDBRANCH  26  27
ENDBRANCH  25  26
ENDBRANCH  24  25
ENDBRANCH  22  24
ENDBRANCH  17  18
ENDBRANCH  16  17
BRANCH  16  39
HETATM   39  O1  UNL     1      20.066 -12.502  19.427  1.00  0.00    -0.389 OA
ATOM     40  H1  UNL     1      19.657 -11.770  18.983  1.00  0.00     0.210 HD
ENDBRANCH  16  39
ENDBRANCH  13  16
ENDBRANCH   9  10
ENDBRANCH   5   9
ENDBRANCH   1   5
TORSDOF 12
ENDMDL
