MODEL 1
REMARK VINA RESULT: -7.743381950      0.000      0.000
REMARK  16 active torsions:
REMARK  status: ('A' for Active; 'I' for Inactive)
REMARK    1  A    between atoms: C6_11  and  C7_12 
REMARK    2  A    between atoms: C7_12  and  C8_13 
REMARK    3  A    between atoms: C8_13  and  C9_14 
REMARK    4  A    between atoms: C9_14  and  C10_15 
REMARK    5  A    between atoms: C10_15  and  C11_16 
REMARK    6  A    between atoms: C11_16  and  C12_17 
REMARK    7  A    between atoms: C12_17  and  C13_18 
REMARK    8  A    between atoms: C13_18  and  N3_19 
REMARK    9  A    between atoms: N5_23  and  C15_24 
REMARK   10  A    between atoms: C15_24  and  C16_25 
REMARK   11  A    between atoms: C16_25  and  C17_26 
REMARK   12  A    between atoms: C17_26  and  C18_27 
REMARK   13  A    between atoms: C18_27  and  C19_28 
REMARK   14  A    between atoms: C19_28  and  N6_29 
REMARK   15  A    between atoms: C21_38  and  C22_39 
REMARK   16  A    between atoms: C22_39  and  C23_40 
ROOT
HETATM    1  N3  UNL     1      16.093 -15.401  20.121  1.00  0.00    -0.330 N 
HETATM    2  C14 UNL     1      16.766 -16.324  20.868  1.00  0.00     0.201 A 
HETATM    3  N4  UNL     1      17.440 -15.689  21.817  1.00  0.00    -0.292 N 
ATOM      4  H4  UNL     1      18.031 -16.135  22.520  1.00  0.00     0.188 HD
HETATM    5  N5  UNL     1      17.224 -14.371  21.710  1.00  0.00    -0.268 N 
HETATM    6  C21 UNL     1      16.382 -14.200  20.649  1.00  0.00     0.108 A 
ENDROOT
BRANCH   1   7
HETATM    7  C13 UNL     1      15.242 -15.652  19.008  1.00  0.00     0.132 C 
BRANCH   7   8
HETATM    8  C12 UNL     1      14.229 -16.730  19.174  1.00  0.00     0.032 C 
BRANCH   8   9
HETATM    9  C11 UNL     1      12.832 -16.169  18.997  1.00  0.00     0.096 C 
BRANCH   9  10
HETATM   10  C10 UNL     1      12.716 -14.945  19.793  1.00  0.00    -0.092 C 
BRANCH  10  11
HETATM   11  C9  UNL     1      12.600 -13.940  20.450  1.00  0.00    -0.015 C 
BRANCH  11  12
HETATM   12  C8  UNL     1      12.482 -12.767  21.231  1.00  0.00    -0.009 C 
BRANCH  12  13
HETATM   13  C7  UNL     1      12.367 -11.776  21.908  1.00  0.00    -0.049 C 
BRANCH  13  14
HETATM   14  C6  UNL     1      12.212 -10.571  22.711  1.00  0.00     0.067 A 
HETATM   15  C2  UNL     1      12.934  -9.437  22.387  1.00  0.00     0.026 A 
HETATM   16  C1  UNL     1      13.874  -9.387  21.244  1.00  0.00     0.070 C 
HETATM   17  N1  UNL     1      12.754  -8.352  23.160  1.00  0.00    -0.368 N 
HETATM   18  C3  UNL     1      11.909  -8.370  24.202  1.00  0.00     0.090 A 
ATOM     19  H1  UNL     1      13.270  -7.498  22.950  1.00  0.00     0.165 HD
HETATM   20  C4  UNL     1      11.179  -9.486  24.546  1.00  0.00     0.047 A 
HETATM   21  C5  UNL     1      11.348 -10.610  23.767  1.00  0.00     0.048 A 
HETATM   22  N2  UNL     1      10.695 -11.672  24.041  1.00  0.00    -0.398 N 
ATOM     23  H22 UNL     1      10.049 -11.701  24.830  1.00  0.00     0.156 HD
ATOM     24  H21 UNL     1      10.820 -12.504  23.464  1.00  0.00     0.156 HD
ENDBRANCH  13  14
ENDBRANCH  12  13
ENDBRANCH  11  12
ENDBRANCH  10  11
ENDBRANCH   9  10
ENDBRANCH   8   9
ENDBRANCH   7   8
ENDBRANCH   1   7
BRANCH   6  25
HETATM   25  C22 UNL     1      15.905 -12.871  20.228  1.00  0.00     0.147 C 
BRANCH  25  26
HETATM   26  C23 UNL     1      16.870 -12.107  19.418  1.00  0.00     0.238 C 
HETATM   27  O2  UNL     1      16.690 -10.979  19.047  1.00  0.00    -0.306 OA
ENDBRANCH  25  26
ENDBRANCH   6  25
BRANCH   5  28
HETATM   28  C15 UNL     1      17.808 -13.400  22.600  1.00  0.00     0.244 C 
BRANCH  28  29
HETATM   29  C16 UNL     1      18.263 -14.042  23.821  1.00  0.00    -0.085 C 
BRANCH  29  30
HETATM   30  C17 UNL     1      18.626 -14.588  24.840  1.00  0.00    -0.103 C 
BRANCH  30  31
HETATM   31  C18 UNL     1      19.088 -15.257  26.065  1.00  0.00     0.116 C 
BRANCH  31  32
HETATM   32  C19 UNL     1      20.171 -14.401  26.673  1.00  0.00     0.168 C 
BRANCH  32  33
HETATM   33  N6  UNL     1      21.323 -14.270  25.808  1.00  0.00    -0.225 N 
HETATM   34  N7  UNL     1      22.205 -15.239  25.515  1.00  0.00    -0.222 N 
HETATM   35  N8  UNL     1      23.119 -14.765  24.701  1.00  0.00    -0.224 N 
ATOM     36  H7  UNL     1      22.170 -16.195  25.869  1.00  0.00     0.210 HD
HETATM   37  N9  UNL     1      22.849 -13.498  24.454  1.00  0.00    -0.234 N 
ATOM     38  H8  UNL     1      23.907 -15.289  24.321  1.00  0.00     0.210 HD
HETATM   39  C20 UNL     1      21.718 -13.158  25.143  1.00  0.00     0.358 A 
ATOM     40  H9  UNL     1      23.392 -12.878  23.853  1.00  0.00     0.193 HD
HETATM   41  O1  UNL     1      21.129 -12.058  25.181  1.00  0.00    -0.243 OA
ENDBRANCH  32  33
ENDBRANCH  31  32
ENDBRANCH  30  31
ENDBRANCH  29  30
ENDBRANCH  28  29
ENDBRANCH   5  28
TORSDOF 16
ENDMDL
MODEL 2
REMARK VINA RESULT: -7.671894084      1.502      1.722
REMARK  16 active torsions:
REMARK  status: ('A' for Active; 'I' for Inactive)
REMARK    1  A    between atoms: C6_11  and  C7_12 
REMARK    2  A    between atoms: C7_12  and  C8_13 
REMARK    3  A    between atoms: C8_13  and  C9_14 
REMARK    4  A    between atoms: C9_14  and  C10_15 
REMARK    5  A    between atoms: C10_15  and  C11_16 
REMARK    6  A    between atoms: C11_16  and  C12_17 
REMARK    7  A    between atoms: C12_17  and  C13_18 
REMARK    8  A    between atoms: C13_18  and  N3_19 
REMARK    9  A    between atoms: N5_23  and  C15_24 
REMARK   10  A    between atoms: C15_24  and  C16_25 
REMARK   11  A    between atoms: C16_25  and  C17_26 
REMARK   12  A    between atoms: C17_26  and  C18_27 
REMARK   13  A    between atoms: C18_27  and  C19_28 
REMARK   14  A    between atoms: C19_28  and  N6_29 
REMARK   15  A    between atoms: C21_38  and  C22_39 
REMARK   16  A    between atoms: C22_39  and  C23_40 
ROOT
HETATM    1  N3  UNL     1      16.395 -15.982  20.960  1.00  0.00    -0.330 N 
HETATM    2  C14 UNL     1      17.323 -16.810  21.521  1.00  0.00     0.201 A 
HETATM    3  N4  UNL     1      18.472 -16.154  21.617  1.00  0.00    -0.292 N 
ATOM      4  H4  UNL     1      19.338 -16.534  22.001  1.00  0.00     0.188 HD
HETATM    5  N5  UNL     1      18.317 -14.915  21.131  1.00  0.00    -0.268 N 
HETATM    6  C21 UNL     1      17.018 -14.816  20.723  1.00  0.00     0.108 A 
ENDROOT
BRANCH   1   7
HETATM    7  C13 UNL     1      15.031 -16.283  20.684  1.00  0.00     0.132 C 
BRANCH   7   8
HETATM    8  C12 UNL     1      14.701 -16.652  19.281  1.00  0.00     0.032 C 
BRANCH   8   9
HETATM    9  C11 UNL     1      13.328 -16.129  18.909  1.00  0.00     0.096 C 
BRANCH   9  10
HETATM   10  C10 UNL     1      13.046 -14.942  19.719  1.00  0.00    -0.092 C 
BRANCH  10  11
HETATM   11  C9  UNL     1      12.834 -13.965  20.395  1.00  0.00    -0.015 C 
BRANCH  11  12
HETATM   12  C8  UNL     1      12.602 -12.827  21.200  1.00  0.00    -0.009 C 
BRANCH  12  13
HETATM   13  C7  UNL     1      12.425 -11.850  21.884  1.00  0.00    -0.049 C 
BRANCH  13  14
HETATM   14  C6  UNL     1      12.229 -10.660  22.701  1.00  0.00     0.067 A 
HETATM   15  C2  UNL     1      12.929  -9.505  22.405  1.00  0.00     0.026 A 
HETATM   16  C1  UNL     1      13.885  -9.416  21.277  1.00  0.00     0.070 C 
HETATM   17  N1  UNL     1      12.712  -8.436  23.190  1.00  0.00    -0.368 N 
HETATM   18  C3  UNL     1      11.852  -8.489  24.219  1.00  0.00     0.090 A 
ATOM     19  H1  UNL     1      13.211  -7.567  23.000  1.00  0.00     0.165 HD
HETATM   20  C4  UNL     1      11.143  -9.627  24.535  1.00  0.00     0.047 A 
HETATM   21  C5  UNL     1      11.350 -10.735  23.743  1.00  0.00     0.048 A 
HETATM   22  N2  UNL     1      10.718 -11.815  23.992  1.00  0.00    -0.398 N 
ATOM     23  H22 UNL     1      10.061 -11.871  24.770  1.00  0.00     0.156 HD
ATOM     24  H21 UNL     1      10.872 -12.636  23.405  1.00  0.00     0.156 HD
ENDBRANCH  13  14
ENDBRANCH  12  13
ENDBRANCH  11  12
ENDBRANCH  10  11
ENDBRANCH   9  10
ENDBRANCH   8   9
ENDBRANCH   7   8
ENDBRANCH   1   7
BRANCH   6  25
HETATM   25  C22 UNL     1      16.468 -13.580  20.139  1.00  0.00     0.147 C 
BRANCH  25  26
HETATM   26  C23 UNL     1      16.218 -12.505  21.116  1.00  0.00     0.238 C 
HETATM   27  O2  UNL     1      15.950 -12.697  22.270  1.00  0.00    -0.306 OA
ENDBRANCH  25  26
ENDBRANCH   6  25
BRANCH   5  28
HETATM   28  C15 UNL     1      19.380 -13.941  21.098  1.00  0.00     0.244 C 
BRANCH  28  29
HETATM   29  C16 UNL     1      19.751 -13.552  22.447  1.00  0.00    -0.085 C 
BRANCH  29  30
HETATM   30  C17 UNL     1      20.071 -13.242  23.574  1.00  0.00    -0.103 C 
BRANCH  30  31
HETATM   31  C18 UNL     1      20.478 -12.853  24.932  1.00  0.00     0.116 C 
BRANCH  31  32
HETATM   32  C19 UNL     1      21.246 -14.007  25.528  1.00  0.00     0.168 C 
BRANCH  32  33
HETATM   33  N6  UNL     1      22.434 -14.331  24.768  1.00  0.00    -0.225 N 
HETATM   34  N7  UNL     1      23.401 -13.472  24.409  1.00  0.00    -0.222 N 
HETATM   35  N8  UNL     1      24.322 -14.113  23.729  1.00  0.00    -0.224 N 
ATOM     36  H7  UNL     1      23.416 -12.476  24.631  1.00  0.00     0.210 HD
HETATM   37  N9  UNL     1      23.975 -15.381  23.637  1.00  0.00    -0.234 N 
ATOM     38  H8  UNL     1      25.168 -13.698  23.337  1.00  0.00     0.210 HD
HETATM   39  C20 UNL     1      22.783 -15.548  24.286  1.00  0.00     0.358 A 
ATOM     40  H9  UNL     1      24.504 -16.113  23.163  1.00  0.00     0.193 HD
HETATM   41  O1  UNL     1      22.113 -16.591  24.432  1.00  0.00    -0.243 OA
ENDBRANCH  32  33
ENDBRANCH  31  32
ENDBRANCH  30  31
ENDBRANCH  29  30
ENDBRANCH  28  29
ENDBRANCH   5  28
TORSDOF 16
ENDMDL
MODEL 3
REMARK VINA RESULT: -7.371377502      1.633      1.754
REMARK  16 active torsions:
REMARK  status: ('A' for Active; 'I' for Inactive)
REMARK    1  A    between atoms: C6_11  and  C7_12 
REMARK    2  A    between atoms: C7_12  and  C8_13 
REMARK    3  A    between atoms: C8_13  and  C9_14 
REMARK    4  A    between atoms: C9_14  and  C10_15 
REMARK    5  A    between atoms: C10_15  and  C11_16 
REMARK    6  A    between atoms: C11_16  and  C12_17 
REMARK    7  A    between atoms: C12_17  and  C13_18 
REMARK    8  A    between atoms: C13_18  and  N3_19 
REMARK    9  A    between atoms: N5_23  and  C15_24 
REMARK   10  A    between atoms: C15_24  and  C16_25 
REMARK   11  A    between atoms: C16_25  and  C17_26 
REMARK   12  A    between atoms: C17_26  and  C18_27 
REMARK   13  A    between atoms: C18_27  and  C19_28 
REMARK   14  A    between atoms: C19_28  and  N6_29 
REMARK   15  A    between atoms: C21_38  and  C22_39 
REMARK   16  A    between atoms: C22_39  and  C23_40 
ROOT
HETATM    1  N3  UNL     1      16.177 -15.140  20.181  1.00  0.00    -0.330 N 
HETATM    2  C14 UNL     1      16.699 -16.319  20.627  1.00  0.00     0.201 A 
HETATM    3  N4  UNL     1      17.463 -16.071  21.683  1.00  0.00    -0.292 N 
ATOM      4  H4  UNL     1      17.978 -16.772  22.217  1.00  0.00     0.188 HD
HETATM    5  N5  UNL     1      17.452 -14.755  21.938  1.00  0.00    -0.268 N 
HETATM    6  C21 UNL     1      16.647 -14.182  20.997  1.00  0.00     0.108 A 
ENDROOT
BRANCH   1   7
HETATM    7  C13 UNL     1      15.298 -14.954  19.076  1.00  0.00     0.132 C 
BRANCH   7   8
HETATM    8  C12 UNL     1      14.584 -16.163  18.582  1.00  0.00     0.032 C 
BRANCH   8   9
HETATM    9  C11 UNL     1      13.090 -16.011  18.789  1.00  0.00     0.096 C 
BRANCH   9  10
HETATM   10  C10 UNL     1      12.852 -14.834  19.627  1.00  0.00    -0.092 C 
BRANCH  10  11
HETATM   11  C9  UNL     1      12.677 -13.863  20.321  1.00  0.00    -0.015 C 
BRANCH  11  12
HETATM   12  C8  UNL     1      12.494 -12.727  21.143  1.00  0.00    -0.009 C 
BRANCH  12  13
HETATM   13  C7  UNL     1      12.357 -11.752  21.839  1.00  0.00    -0.049 C 
BRANCH  13  14
HETATM   14  C6  UNL     1      12.214 -10.573  22.682  1.00  0.00     0.067 A 
HETATM   15  C2  UNL     1      12.938  -9.431  22.389  1.00  0.00     0.026 A 
HETATM   16  C1  UNL     1      13.868  -9.347  21.240  1.00  0.00     0.070 C 
HETATM   17  N1  UNL     1      12.769  -8.372  23.198  1.00  0.00    -0.368 N 
HETATM   18  C3  UNL     1      11.933  -8.421  24.247  1.00  0.00     0.090 A 
ATOM     19  H1  UNL     1      13.287  -7.513  23.012  1.00  0.00     0.165 HD
HETATM   20  C4  UNL     1      11.201  -9.545  24.560  1.00  0.00     0.047 A 
HETATM   21  C5  UNL     1      11.359 -10.643  23.743  1.00  0.00     0.048 A 
HETATM   22  N2  UNL     1      10.704 -11.711  23.988  1.00  0.00    -0.398 N 
ATOM     23  H22 UNL     1      10.064 -11.763  24.781  1.00  0.00     0.156 HD
ATOM     24  H21 UNL     1      10.820 -12.524  23.383  1.00  0.00     0.156 HD
ENDBRANCH  13  14
ENDBRANCH  12  13
ENDBRANCH  11  12
ENDBRANCH  10  11
ENDBRANCH   9  10
ENDBRANCH   8   9
ENDBRANCH   7   8
ENDBRANCH   1   7
BRANCH   6  25
HETATM   25  C22 UNL     1      16.380 -12.733  20.964  1.00  0.00     0.147 C 
BRANCH  25  26
HETATM   26  C23 UNL     1      17.029 -12.021  19.849  1.00  0.00     0.238 C 
HETATM   27  O2  UNL     1      16.659 -10.960  19.425  1.00  0.00    -0.306 OA
ENDBRANCH  25  26
ENDBRANCH   6  25
BRANCH   5  28
HETATM   28  C15 UNL     1      18.178 -14.157  23.030  1.00  0.00     0.244 C 
BRANCH  28  29
HETATM   29  C16 UNL     1      19.233 -15.047  23.484  1.00  0.00    -0.085 C 
BRANCH  29  30
HETATM   30  C17 UNL     1      20.101 -15.803  23.864  1.00  0.00    -0.103 C 
BRANCH  30  31
HETATM   31  C18 UNL     1      21.155 -16.707  24.347  1.00  0.00     0.116 C 
BRANCH  31  32
HETATM   32  C19 UNL     1      22.093 -15.898  25.207  1.00  0.00     0.168 C 
BRANCH  32  33
HETATM   33  N6  UNL     1      23.151 -15.278  24.439  1.00  0.00    -0.225 N 
HETATM   34  N7  UNL     1      23.174 -14.007  24.008  1.00  0.00    -0.222 N 
HETATM   35  N8  UNL     1      24.285 -13.792  23.344  1.00  0.00    -0.224 N 
ATOM     36  H7  UNL     1      22.442 -13.316  24.172  1.00  0.00     0.210 HD
HETATM   37  N9  UNL     1      24.993 -14.904  23.334  1.00  0.00    -0.234 N 
ATOM     38  H8  UNL     1      24.557 -12.911  22.909  1.00  0.00     0.210 HD
HETATM   39  C20 UNL     1      24.299 -15.862  24.019  1.00  0.00     0.358 A 
ATOM     40  H9  UNL     1      25.903 -15.029  22.890  1.00  0.00     0.193 HD
HETATM   41  O1  UNL     1      24.617 -17.049  24.241  1.00  0.00    -0.243 OA
ENDBRANCH  32  33
ENDBRANCH  31  32
ENDBRANCH  30  31
ENDBRANCH  29  30
ENDBRANCH  28  29
ENDBRANCH   5  28
TORSDOF 16
ENDMDL
MODEL 4
REMARK VINA RESULT: -7.353314267      2.508      7.338
REMARK  16 active torsions:
REMARK  status: ('A' for Active; 'I' for Inactive)
REMARK    1  A    between atoms: C6_11  and  C7_12 
REMARK    2  A    between atoms: C7_12  and  C8_13 
REMARK    3  A    between atoms: C8_13  and  C9_14 
REMARK    4  A    between atoms: C9_14  and  C10_15 
REMARK    5  A    between atoms: C10_15  and  C11_16 
REMARK    6  A    between atoms: C11_16  and  C12_17 
REMARK    7  A    between atoms: C12_17  and  C13_18 
REMARK    8  A    between atoms: C13_18  and  N3_19 
REMARK    9  A    between atoms: N5_23  and  C15_24 
REMARK   10  A    between atoms: C15_24  and  C16_25 
REMARK   11  A    between atoms: C16_25  and  C17_26 
REMARK   12  A    between atoms: C17_26  and  C18_27 
REMARK   13  A    between atoms: C18_27  and  C19_28 
REMARK   14  A    between atoms: C19_28  and  N6_29 
REMARK   15  A    between atoms: C21_38  and  C22_39 
REMARK   16  A    between atoms: C22_39  and  C23_40 
ROOT
HETATM    1  N3  UNL     1      20.261 -15.667  24.123  1.00  0.00    -0.330 N 
HETATM    2  C14 UNL     1      20.547 -16.354  22.980  1.00  0.00     0.201 A 
HETATM    3  N4  UNL     1      20.507 -15.510  21.957  1.00  0.00    -0.292 N 
ATOM      4  H4  UNL     1      20.681 -15.756  20.982  1.00  0.00     0.188 HD
HETATM    5  N5  UNL     1      20.201 -14.285  22.405  1.00  0.00    -0.268 N 
HETATM    6  C21 UNL     1      20.049 -14.391  23.758  1.00  0.00     0.108 A 
ENDROOT
BRANCH   1   7
HETATM    7  C13 UNL     1      20.205 -16.187  25.447  1.00  0.00     0.132 C 
BRANCH   7   8
HETATM    8  C12 UNL     1      19.967 -17.650  25.578  1.00  0.00     0.032 C 
BRANCH   8   9
HETATM    9  C11 UNL     1      18.534 -17.914  25.998  1.00  0.00     0.096 C 
BRANCH   9  10
HETATM   10  C10 UNL     1      17.648 -17.536  24.896  1.00  0.00    -0.092 C 
BRANCH  10  11
HETATM   11  C9  UNL     1      16.923 -17.204  23.990  1.00  0.00    -0.015 C 
BRANCH  11  12
HETATM   12  C8  UNL     1      16.086 -16.796  22.926  1.00  0.00    -0.009 C 
BRANCH  12  13
HETATM   13  C7  UNL     1      15.383 -16.430  22.018  1.00  0.00    -0.049 C 
BRANCH  13  14
HETATM   14  C6  UNL     1      14.552 -15.985  20.907  1.00  0.00     0.067 A 
HETATM   15  C2  UNL     1      14.824 -16.435  19.627  1.00  0.00     0.026 A 
HETATM   16  C1  UNL     1      15.939 -17.361  19.326  1.00  0.00     0.070 C 
HETATM   17  N1  UNL     1      14.028 -15.995  18.639  1.00  0.00    -0.368 N 
HETATM   18  C3  UNL     1      13.010 -15.155  18.884  1.00  0.00     0.090 A 
ATOM     19  H1  UNL     1      14.199 -16.306  17.683  1.00  0.00     0.165 HD
HETATM   20  C4  UNL     1      12.718 -14.692  20.149  1.00  0.00     0.047 A 
HETATM   21  C5  UNL     1      13.523 -15.131  21.178  1.00  0.00     0.048 A 
HETATM   22  N2  UNL     1      13.296 -14.734  22.369  1.00  0.00    -0.398 N 
ATOM     23  H22 UNL     1      12.527 -14.096  22.571  1.00  0.00     0.156 HD
ATOM     24  H21 UNL     1      13.892 -15.059  23.131  1.00  0.00     0.156 HD
ENDBRANCH  13  14
ENDBRANCH  12  13
ENDBRANCH  11  12
ENDBRANCH  10  11
ENDBRANCH   9  10
ENDBRANCH   8   9
ENDBRANCH   7   8
ENDBRANCH   1   7
BRANCH   6  25
HETATM   25  C22 UNL     1      19.719 -13.233  24.607  1.00  0.00     0.147 C 
BRANCH  25  26
HETATM   26  C23 UNL     1      20.891 -12.514  25.137  1.00  0.00     0.238 C 
HETATM   27  O2  UNL     1      22.026 -12.878  24.986  1.00  0.00    -0.306 OA
ENDBRANCH  25  26
ENDBRANCH   6  25
BRANCH   5  28
HETATM   28  C15 UNL     1      20.086 -13.135  21.543  1.00  0.00     0.244 C 
BRANCH  28  29
HETATM   29  C16 UNL     1      18.716 -12.980  21.087  1.00  0.00    -0.085 C 
BRANCH  29  30
HETATM   30  C17 UNL     1      17.573 -12.833  20.711  1.00  0.00    -0.103 C 
BRANCH  30  31
HETATM   31  C18 UNL     1      16.190 -12.629  20.257  1.00  0.00     0.116 C 
BRANCH  31  32
HETATM   32  C19 UNL     1      15.380 -12.176  21.446  1.00  0.00     0.168 C 
BRANCH  32  33
HETATM   33  N6  UNL     1      14.382 -11.191  21.092  1.00  0.00    -0.225 N 
HETATM   34  N7  UNL     1      14.484 -10.281  20.111  1.00  0.00    -0.222 N 
HETATM   35  N8  UNL     1      13.392  -9.553  20.077  1.00  0.00    -0.224 N 
ATOM     36  H7  UNL     1      15.285 -10.171  19.489  1.00  0.00     0.210 HD
HETATM   37  N9  UNL     1      12.574  -9.974  21.021  1.00  0.00    -0.234 N 
ATOM     38  H8  UNL     1      13.207  -8.789  19.427  1.00  0.00     0.210 HD
HETATM   39  C20 UNL     1      13.175 -11.010  21.680  1.00  0.00     0.358 A 
ATOM     40  H9  UNL     1      11.650  -9.592  21.225  1.00  0.00     0.193 HD
HETATM   41  O1  UNL     1      12.740 -11.685  22.635  1.00  0.00    -0.243 OA
ENDBRANCH  32  33
ENDBRANCH  31  32
ENDBRANCH  30  31
ENDBRANCH  29  30
ENDBRANCH  28  29
ENDBRANCH   5  28
TORSDOF 16
ENDMDL
MODEL 5
REMARK VINA RESULT: -7.319669572      1.382      1.609
REMARK  16 active torsions:
REMARK  status: ('A' for Active; 'I' for Inactive)
REMARK    1  A    between atoms: C6_11  and  C7_12 
REMARK    2  A    between atoms: C7_12  and  C8_13 
REMARK    3  A    between atoms: C8_13  and  C9_14 
REMARK    4  A    between atoms: C9_14  and  C10_15 
REMARK    5  A    between atoms: C10_15  and  C11_16 
REMARK    6  A    between atoms: C11_16  and  C12_17 
REMARK    7  A    between atoms: C12_17  and  C13_18 
REMARK    8  A    between atoms: C13_18  and  N3_19 
REMARK    9  A    between atoms: N5_23  and  C15_24 
REMARK   10  A    between atoms: C15_24  and  C16_25 
REMARK   11  A    between atoms: C16_25  and  C17_26 
REMARK   12  A    between atoms: C17_26  and  C18_27 
REMARK   13  A    between atoms: C18_27  and  C19_28 
REMARK   14  A    between atoms: C19_28  and  N6_29 
REMARK   15  A    between atoms: C21_38  and  C22_39 
REMARK   16  A    between atoms: C22_39  and  C23_40 
ROOT
HETATM    1  N3  UNL     1      16.783 -15.646  20.871  1.00  0.00    -0.330 N 
HETATM    2  C14 UNL     1      17.871 -16.430  21.125  1.00  0.00     0.201 A 
HETATM    3  N4  UNL     1      18.905 -15.644  21.393  1.00  0.00    -0.292 N 
ATOM      4  H4  UNL     1      19.847 -15.965  21.619  1.00  0.00     0.188 HD
HETATM    5  N5  UNL     1      18.519 -14.363  21.320  1.00  0.00    -0.268 N 
HETATM    6  C21 UNL     1      17.194 -14.373  20.994  1.00  0.00     0.108 A 
ENDROOT
BRANCH   1   7
HETATM    7  C13 UNL     1      15.467 -16.082  20.549  1.00  0.00     0.132 C 
BRANCH   7   8
HETATM    8  C12 UNL     1      15.163 -16.269  19.104  1.00  0.00     0.032 C 
BRANCH   8   9
HETATM    9  C11 UNL     1      13.722 -15.895  18.818  1.00  0.00     0.096 C 
BRANCH   9  10
HETATM   10  C10 UNL     1      13.361 -14.751  19.658  1.00  0.00    -0.092 C 
BRANCH  10  11
HETATM   11  C9  UNL     1      13.079 -13.796  20.340  1.00  0.00    -0.015 C 
BRANCH  11  12
HETATM   12  C8  UNL     1      12.769 -12.680  21.150  1.00  0.00    -0.009 C 
BRANCH  12  13
HETATM   13  C7  UNL     1      12.524 -11.730  21.850  1.00  0.00    -0.049 C 
BRANCH  13  14
HETATM   14  C6  UNL     1      12.249 -10.577  22.698  1.00  0.00     0.067 A 
HETATM   15  C2  UNL     1      12.883  -9.374  22.442  1.00  0.00     0.026 A 
HETATM   16  C1  UNL     1      13.844  -9.198  21.329  1.00  0.00     0.070 C 
HETATM   17  N1  UNL     1      12.594  -8.343  23.253  1.00  0.00    -0.368 N 
HETATM   18  C3  UNL     1      11.727  -8.475  24.269  1.00  0.00     0.090 A 
ATOM     19  H1  UNL     1      13.043  -7.441  23.094  1.00  0.00     0.165 HD
HETATM   20  C4  UNL     1      11.083  -9.661  24.545  1.00  0.00     0.047 A 
HETATM   21  C5  UNL     1      11.365 -10.733  23.725  1.00  0.00     0.048 A 
HETATM   22  N2  UNL     1      10.795 -11.855  23.936  1.00  0.00    -0.398 N 
ATOM     23  H22 UNL     1      10.134 -11.971  24.704  1.00  0.00     0.156 HD
ATOM     24  H21 UNL     1      11.003 -12.648  23.329  1.00  0.00     0.156 HD
ENDBRANCH  13  14
ENDBRANCH  12  13
ENDBRANCH  11  12
ENDBRANCH  10  11
ENDBRANCH   9  10
ENDBRANCH   8   9
ENDBRANCH   7   8
ENDBRANCH   1   7
BRANCH   6  25
HETATM   25  C22 UNL     1      16.411 -13.134  20.837  1.00  0.00     0.147 C 
BRANCH  25  26
HETATM   26  C23 UNL     1      16.510 -12.519  19.501  1.00  0.00     0.238 C 
HETATM   27  O2  UNL     1      17.048 -11.468  19.285  1.00  0.00    -0.306 OA
ENDBRANCH  25  26
ENDBRANCH   6  25
BRANCH   5  28
HETATM   28  C15 UNL     1      19.409 -13.255  21.566  1.00  0.00     0.244 C 
BRANCH  28  29
HETATM   29  C16 UNL     1      19.773 -13.201  22.971  1.00  0.00    -0.085 C 
BRANCH  29  30
HETATM   30  C17 UNL     1      20.060 -13.151  24.147  1.00  0.00    -0.103 C 
BRANCH  30  31
HETATM   31  C18 UNL     1      20.387 -13.106  25.580  1.00  0.00     0.116 C 
BRANCH  31  32
HETATM   32  C19 UNL     1      20.073 -14.460  26.164  1.00  0.00     0.168 C 
BRANCH  32  33
HETATM   33  N6  UNL     1      21.102 -15.436  25.881  1.00  0.00    -0.225 N 
HETATM   34  N7  UNL     1      22.282 -15.546  26.513  1.00  0.00    -0.222 N 
HETATM   35  N8  UNL     1      22.963 -16.541  25.994  1.00  0.00    -0.224 N 
ATOM     36  H7  UNL     1      22.599 -14.950  27.277  1.00  0.00     0.210 HD
HETATM   37  N9  UNL     1      22.247 -17.086  25.030  1.00  0.00    -0.234 N 
ATOM     38  H8  UNL     1      23.892 -16.842  26.287  1.00  0.00     0.210 HD
HETATM   39  C20 UNL     1      21.064 -16.407  24.937  1.00  0.00     0.358 A 
ATOM     40  H9  UNL     1      22.527 -17.880  24.454  1.00  0.00     0.193 HD
HETATM   41  O1  UNL     1      20.110 -16.604  24.156  1.00  0.00    -0.243 OA
ENDBRANCH  32  33
ENDBRANCH  31  32
ENDBRANCH  30  31
ENDBRANCH  29  30
ENDBRANCH  28  29
ENDBRANCH   5  28
TORSDOF 16
ENDMDL
