MODEL 1
REMARK VINA RESULT: -8.588117118      0.000      0.000
REMARK  13 active torsions:
REMARK  status: ('A' for Active; 'I' for Inactive)
REMARK    1  A    between atoms: C2_2  and  C4_4 
REMARK    2  A    between atoms: C4_4  and  C5_5 
REMARK    3  A    between atoms: C8_8  and  C9_9 
REMARK    4  A    between atoms: C9_9  and  C10_10 
REMARK    5  A    between atoms: C10_10  and  C11_11 
REMARK    6  A    between atoms: C11_11  and  C12_12 
REMARK    7  A    between atoms: C12_12  and  C13_13 
REMARK    8  A    between atoms: C13_13  and  C14_14 
REMARK    9  A    between atoms: C14_14  and  N1_15 
REMARK   10  A    between atoms: C16_17  and  C17_18 
REMARK   11  A    between atoms: C19_22  and  N3_23 
REMARK   12  A    between atoms: N3_23  and  C20_25 
REMARK   13  A    between atoms: C20_25  and  C21_26 
ROOT
HETATM    1  N1  UNL     1      15.863 -14.619  21.463  1.00  0.00    -0.301 N 
HETATM    2  C15 UNL     1      16.628 -13.707  20.841  1.00  0.00     0.126 A 
HETATM    3  C16 UNL     1      16.169 -12.428  20.668  1.00  0.00     0.050 A 
HETATM    4  C18 UNL     1      14.899 -12.103  21.148  1.00  0.00     0.068 A 
HETATM    5  C19 UNL     1      14.148 -13.063  21.778  1.00  0.00     0.120 A 
HETATM    6  N6  UNL     1      14.664 -14.290  21.911  1.00  0.00    -0.284 N 
ATOM      7  H6  UNL     1      14.106 -15.004  22.379  1.00  0.00     0.188 HD
ENDROOT
BRANCH   1   8
HETATM    8  C14 UNL     1      16.413 -15.959  21.615  1.00  0.00     0.148 C 
BRANCH   8   9
HETATM    9  C13 UNL     1      15.599 -16.979  20.870  1.00  0.00     0.022 C 
BRANCH   9  10
HETATM   10  C12 UNL     1      16.329 -18.291  20.857  1.00  0.00     0.002 C 
BRANCH  10  11
HETATM   11  C11 UNL     1      17.653 -18.134  20.197  1.00  0.00     0.000 C 
BRANCH  11  12
HETATM   12  C10 UNL     1      18.754 -18.894  20.918  1.00  0.00     0.006 C 
BRANCH  12  13
HETATM   13  C9  UNL     1      20.089 -18.192  20.854  1.00  0.00     0.057 C 
BRANCH  13  14
HETATM   14  C8  UNL     1      19.959 -16.945  21.655  1.00  0.00     0.010 A 
HETATM   15  C7  UNL     1      19.592 -16.856  22.970  1.00  0.00     0.038 A 
HETATM   16  C6  UNL     1      19.588 -15.506  23.361  1.00  0.00    -0.012 A 
HETATM   17  C5  UNL     1      19.268 -15.153  24.573  1.00  0.00    -0.009 C 
HETATM   18  C25 UNL     1      19.952 -14.795  22.268  1.00  0.00     0.033 A 
HETATM   19  N7  UNL     1      20.170 -15.694  21.252  1.00  0.00    -0.360 N 
HETATM   20  C26 UNL     1      20.088 -13.480  22.116  1.00  0.00     0.044 C 
ATOM     21  H7  UNL     1      20.458 -15.435  20.309  1.00  0.00     0.166 HD
BRANCH  17  22
HETATM   22  C4  UNL     1      19.199 -13.828  25.188  1.00  0.00     0.061 C 
BRANCH  22  23
HETATM   23  C2  UNL     1      20.496 -13.408  25.804  1.00  0.00    -0.090 C 
HETATM   24  C1  UNL     1      21.065 -14.166  26.723  1.00  0.00     0.014 C 
HETATM   25  C3  UNL     1      21.159 -12.151  25.405  1.00  0.00     0.043 C 
ENDBRANCH  22  23
ENDBRANCH  17  22
ENDBRANCH  13  14
ENDBRANCH  12  13
ENDBRANCH  11  12
ENDBRANCH  10  11
ENDBRANCH   9  10
ENDBRANCH   8   9
ENDBRANCH   1   8
BRANCH   3  26
HETATM   26  C17 UNL     1      16.986 -11.442  20.000  1.00  0.00     0.266 C 
HETATM   27  N2  UNL     1      16.508 -10.839  18.807  1.00  0.00    -0.057 NA
HETATM   28  O1  UNL     1      18.105 -11.109  20.453  1.00  0.00    -0.271 OA
ENDBRANCH   3  26
BRANCH   5  29
HETATM   29  N3  UNL     1      12.861 -12.706  22.258  1.00  0.00    -0.349 N 
ATOM     30  H3  UNL     1      12.361 -13.364  22.855  1.00  0.00     0.167 HD
BRANCH  29  31
HETATM   31  C20 UNL     1      12.243 -11.470  21.941  1.00  0.00     0.125 C 
BRANCH  31  32
HETATM   32  C21 UNL     1      12.065 -10.530  22.883  1.00  0.00     0.118 A 
HETATM   33  N4  UNL     1      12.439  -9.244  22.823  1.00  0.00    -0.338 N 
HETATM   34  C22 UNL     1      12.080  -8.638  23.963  1.00  0.00     0.098 A 
ATOM     35  H4  UNL     1      12.919  -8.800  22.039  1.00  0.00     0.167 HD
HETATM   36  C23 UNL     1      12.269  -7.367  24.300  1.00  0.00     0.063 C 
HETATM   37  N5  UNL     1      11.472  -9.535  24.758  1.00  0.00    -0.308 N 
HETATM   38  C24 UNL     1      11.456 -10.705  24.104  1.00  0.00     0.275 A 
ATOM     39  H5  UNL     1      11.092  -9.358  25.687  1.00  0.00     0.170 HD
HETATM   40  O2  UNL     1      10.959 -11.766  24.563  1.00  0.00    -0.266 OA
ENDBRANCH  31  32
ENDBRANCH  29  31
ENDBRANCH   5  29
TORSDOF 13
ENDMDL
MODEL 2
REMARK VINA RESULT: -8.514450244      3.417      6.368
REMARK  13 active torsions:
REMARK  status: ('A' for Active; 'I' for Inactive)
REMARK    1  A    between atoms: C2_2  and  C4_4 
REMARK    2  A    between atoms: C4_4  and  C5_5 
REMARK    3  A    between atoms: C8_8  and  C9_9 
REMARK    4  A    between atoms: C9_9  and  C10_10 
REMARK    5  A    between atoms: C10_10  and  C11_11 
REMARK    6  A    between atoms: C11_11  and  C12_12 
REMARK    7  A    between atoms: C12_12  and  C13_13 
REMARK    8  A    between atoms: C13_13  and  C14_14 
REMARK    9  A    between atoms: C14_14  and  N1_15 
REMARK   10  A    between atoms: C16_17  and  C17_18 
REMARK   11  A    between atoms: C19_22  and  N3_23 
REMARK   12  A    between atoms: N3_23  and  C20_25 
REMARK   13  A    between atoms: C20_25  and  C21_26 
ROOT
HETATM    1  N1  UNL     1      18.556 -16.610  24.435  1.00  0.00    -0.301 N 
HETATM    2  C15 UNL     1      19.516 -16.844  23.524  1.00  0.00     0.126 A 
HETATM    3  C16 UNL     1      19.219 -16.804  22.187  1.00  0.00     0.050 A 
HETATM    4  C18 UNL     1      17.907 -16.519  21.802  1.00  0.00     0.068 A 
HETATM    5  C19 UNL     1      16.956 -16.286  22.764  1.00  0.00     0.120 A 
HETATM    6  N6  UNL     1      17.321 -16.341  24.049  1.00  0.00    -0.284 N 
ATOM      7  H6  UNL     1      16.614 -16.168  24.764  1.00  0.00     0.188 HD
ENDROOT
BRANCH   1   8
HETATM    8  C14 UNL     1      18.941 -16.667  25.838  1.00  0.00     0.148 C 
BRANCH   8   9
HETATM    9  C13 UNL     1      19.081 -15.292  26.429  1.00  0.00     0.022 C 
BRANCH   9  10
HETATM   10  C12 UNL     1      20.531 -14.903  26.456  1.00  0.00     0.002 C 
BRANCH  10  11
HETATM   11  C11 UNL     1      20.663 -13.433  26.650  1.00  0.00     0.000 C 
BRANCH  11  12
HETATM   12  C10 UNL     1      21.011 -12.707  25.362  1.00  0.00     0.006 C 
BRANCH  12  13
HETATM   13  C9  UNL     1      21.384 -13.646  24.240  1.00  0.00     0.057 C 
BRANCH  13  14
HETATM   14  C8  UNL     1      20.494 -13.323  23.093  1.00  0.00     0.010 A 
HETATM   15  C7  UNL     1      19.130 -13.214  23.126  1.00  0.00     0.038 A 
HETATM   16  C6  UNL     1      18.659 -12.895  21.840  1.00  0.00    -0.012 A 
HETATM   17  C5  UNL     1      17.388 -12.740  21.605  1.00  0.00    -0.009 C 
HETATM   18  C25 UNL     1      19.752 -12.817  21.046  1.00  0.00     0.033 A 
HETATM   19  N7  UNL     1      20.847 -13.080  21.833  1.00  0.00    -0.360 N 
HETATM   20  C26 UNL     1      19.840 -12.552  19.745  1.00  0.00     0.044 C 
ATOM     21  H7  UNL     1      21.809 -13.088  21.494  1.00  0.00     0.166 HD
BRANCH  17  22
HETATM   22  C4  UNL     1      16.686 -12.409  20.365  1.00  0.00     0.061 C 
BRANCH  22  23
HETATM   23  C2  UNL     1      15.233 -12.126  20.580  1.00  0.00    -0.090 C 
HETATM   24  C1  UNL     1      14.680 -12.378  21.752  1.00  0.00     0.014 C 
HETATM   25  C3  UNL     1      14.396 -11.569  19.501  1.00  0.00     0.043 C 
ENDBRANCH  22  23
ENDBRANCH  17  22
ENDBRANCH  13  14
ENDBRANCH  12  13
ENDBRANCH  11  12
ENDBRANCH  10  11
ENDBRANCH   9  10
ENDBRANCH   8   9
ENDBRANCH   1   8
BRANCH   3  26
HETATM   26  C17 UNL     1      20.245 -17.054  21.203  1.00  0.00     0.266 C 
HETATM   27  N2  UNL     1      20.345 -18.344  20.618  1.00  0.00    -0.057 NA
HETATM   28  O1  UNL     1      21.045 -16.156  20.855  1.00  0.00    -0.271 OA
ENDBRANCH   3  26
BRANCH   5  29
HETATM   29  N3  UNL     1      15.631 -15.997  22.345  1.00  0.00    -0.349 N 
ATOM     30  H3  UNL     1      14.907 -15.883  23.054  1.00  0.00     0.167 HD
BRANCH  29  31
HETATM   31  C20 UNL     1      15.272 -15.861  20.980  1.00  0.00     0.125 C 
BRANCH  31  32
HETATM   32  C21 UNL     1      14.042 -16.190  20.557  1.00  0.00     0.118 A 
HETATM   33  N4  UNL     1      13.343 -15.609  19.571  1.00  0.00    -0.338 N 
HETATM   34  C22 UNL     1      12.160 -16.229  19.459  1.00  0.00     0.098 A 
ATOM     35  H4  UNL     1      13.658 -14.824  19.001  1.00  0.00     0.167 HD
HETATM   36  C23 UNL     1      11.180 -15.958  18.605  1.00  0.00     0.063 C 
HETATM   37  N5  UNL     1      12.098 -17.212  20.374  1.00  0.00    -0.308 N 
HETATM   38  C24 UNL     1      13.251 -17.198  21.057  1.00  0.00     0.275 A 
ATOM     39  H5  UNL     1      11.316 -17.851  20.521  1.00  0.00     0.170 HD
HETATM   40  O2  UNL     1      13.528 -17.992  21.994  1.00  0.00    -0.266 OA
ENDBRANCH  31  32
ENDBRANCH  29  31
ENDBRANCH   5  29
TORSDOF 13
ENDMDL
MODEL 3
REMARK VINA RESULT: -8.389203547      1.981      2.429
REMARK  13 active torsions:
REMARK  status: ('A' for Active; 'I' for Inactive)
REMARK    1  A    between atoms: C2_2  and  C4_4 
REMARK    2  A    between atoms: C4_4  and  C5_5 
REMARK    3  A    between atoms: C8_8  and  C9_9 
REMARK    4  A    between atoms: C9_9  and  C10_10 
REMARK    5  A    between atoms: C10_10  and  C11_11 
REMARK    6  A    between atoms: C11_11  and  C12_12 
REMARK    7  A    between atoms: C12_12  and  C13_13 
REMARK    8  A    between atoms: C13_13  and  C14_14 
REMARK    9  A    between atoms: C14_14  and  N1_15 
REMARK   10  A    between atoms: C16_17  and  C17_18 
REMARK   11  A    between atoms: C19_22  and  N3_23 
REMARK   12  A    between atoms: N3_23  and  C20_25 
REMARK   13  A    between atoms: C20_25  and  C21_26 
ROOT
HETATM    1  N1  UNL     1      15.774 -14.612  21.478  1.00  0.00    -0.301 N 
HETATM    2  C15 UNL     1      16.570 -13.720  20.864  1.00  0.00     0.126 A 
HETATM    3  C16 UNL     1      16.146 -12.430  20.686  1.00  0.00     0.050 A 
HETATM    4  C18 UNL     1      14.880 -12.071  21.154  1.00  0.00     0.068 A 
HETATM    5  C19 UNL     1      14.098 -13.012  21.775  1.00  0.00     0.120 A 
HETATM    6  N6  UNL     1      14.580 -14.252  21.913  1.00  0.00    -0.284 N 
ATOM      7  H6  UNL     1      13.999 -14.951  22.376  1.00  0.00     0.188 HD
ENDROOT
BRANCH   1   8
HETATM    8  C14 UNL     1      16.287 -15.966  21.635  1.00  0.00     0.148 C 
BRANCH   8   9
HETATM    9  C13 UNL     1      15.195 -16.989  21.511  1.00  0.00     0.022 C 
BRANCH   9  10
HETATM   10  C12 UNL     1      15.056 -17.736  22.806  1.00  0.00     0.002 C 
BRANCH  10  11
HETATM   11  C11 UNL     1      16.381 -18.251  23.245  1.00  0.00     0.000 C 
BRANCH  11  12
HETATM   12  C10 UNL     1      16.507 -18.314  24.758  1.00  0.00     0.006 C 
BRANCH  12  13
HETATM   13  C9  UNL     1      17.725 -19.081  25.214  1.00  0.00     0.057 C 
BRANCH  13  14
HETATM   14  C8  UNL     1      18.772 -18.074  25.535  1.00  0.00     0.010 A 
HETATM   15  C7  UNL     1      18.567 -16.760  25.857  1.00  0.00     0.038 A 
HETATM   16  C6  UNL     1      19.806 -16.141  26.093  1.00  0.00    -0.012 A 
HETATM   17  C5  UNL     1      19.883 -14.881  26.414  1.00  0.00    -0.009 C 
HETATM   18  C25 UNL     1      20.747 -17.096  25.907  1.00  0.00     0.033 A 
HETATM   19  N7  UNL     1      20.090 -18.254  25.572  1.00  0.00    -0.360 N 
HETATM   20  C26 UNL     1      22.072 -17.014  26.001  1.00  0.00     0.044 C 
ATOM     21  H7  UNL     1      20.554 -19.141  25.375  1.00  0.00     0.166 HD
BRANCH  17  22
HETATM   22  C4  UNL     1      21.048 -14.045  26.702  1.00  0.00     0.061 C 
BRANCH  22  23
HETATM   23  C2  UNL     1      21.463 -13.210  25.532  1.00  0.00    -0.090 C 
HETATM   24  C1  UNL     1      20.980 -11.989  25.390  1.00  0.00     0.014 C 
HETATM   25  C3  UNL     1      22.408 -13.726  24.523  1.00  0.00     0.043 C 
ENDBRANCH  22  23
ENDBRANCH  17  22
ENDBRANCH  13  14
ENDBRANCH  12  13
ENDBRANCH  11  12
ENDBRANCH  10  11
ENDBRANCH   9  10
ENDBRANCH   8   9
ENDBRANCH   1   8
BRANCH   3  26
HETATM   26  C17 UNL     1      16.995 -11.465  20.028  1.00  0.00     0.266 C 
HETATM   27  N2  UNL     1      18.302 -11.234  20.532  1.00  0.00    -0.057 NA
HETATM   28  O1  UNL     1      16.602 -10.832  19.022  1.00  0.00    -0.271 OA
ENDBRANCH   3  26
BRANCH   5  29
HETATM   29  N3  UNL     1      12.816 -12.621  22.242  1.00  0.00    -0.349 N 
ATOM     30  H3  UNL     1      12.287 -13.271  22.823  1.00  0.00     0.167 HD
BRANCH  29  31
HETATM   31  C20 UNL     1      12.240 -11.362  21.933  1.00  0.00     0.125 C 
BRANCH  31  32
HETATM   32  C21 UNL     1      12.048 -10.442  22.891  1.00  0.00     0.118 A 
HETATM   33  N4  UNL     1      12.412  -9.151  22.858  1.00  0.00    -0.338 N 
HETATM   34  C22 UNL     1      12.040  -8.570  24.006  1.00  0.00     0.098 A 
ATOM     35  H4  UNL     1      12.893  -8.689  22.085  1.00  0.00     0.167 HD
HETATM   36  C23 UNL     1      12.216  -7.304  24.368  1.00  0.00     0.063 C 
HETATM   37  N5  UNL     1      11.436  -9.487  24.780  1.00  0.00    -0.308 N 
HETATM   38  C24 UNL     1      11.434 -10.645  24.105  1.00  0.00     0.275 A 
ATOM     39  H5  UNL     1      11.049  -9.331  25.711  1.00  0.00     0.170 HD
HETATM   40  O2  UNL     1      10.943 -11.719  24.541  1.00  0.00    -0.266 OA
ENDBRANCH  31  32
ENDBRANCH  29  31
ENDBRANCH   5  29
TORSDOF 13
ENDMDL
MODEL 4
REMARK VINA RESULT: -8.383873628      2.145      2.902
REMARK  13 active torsions:
REMARK  status: ('A' for Active; 'I' for Inactive)
REMARK    1  A    between atoms: C2_2  and  C4_4 
REMARK    2  A    between atoms: C4_4  and  C5_5 
REMARK    3  A    between atoms: C8_8  and  C9_9 
REMARK    4  A    between atoms: C9_9  and  C10_10 
REMARK    5  A    between atoms: C10_10  and  C11_11 
REMARK    6  A    between atoms: C11_11  and  C12_12 
REMARK    7  A    between atoms: C12_12  and  C13_13 
REMARK    8  A    between atoms: C13_13  and  C14_14 
REMARK    9  A    between atoms: C14_14  and  N1_15 
REMARK   10  A    between atoms: C16_17  and  C17_18 
REMARK   11  A    between atoms: C19_22  and  N3_23 
REMARK   12  A    between atoms: N3_23  and  C20_25 
REMARK   13  A    between atoms: C20_25  and  C21_26 
ROOT
HETATM    1  N1  UNL     1      16.295 -13.927  21.166  1.00  0.00    -0.301 N 
HETATM    2  C15 UNL     1      17.634 -13.902  21.064  1.00  0.00     0.126 A 
HETATM    3  C16 UNL     1      18.282 -12.720  20.817  1.00  0.00     0.050 A 
HETATM    4  C18 UNL     1      17.520 -11.558  20.674  1.00  0.00     0.068 A 
HETATM    5  C19 UNL     1      16.155 -11.626  20.785  1.00  0.00     0.120 A 
HETATM    6  N6  UNL     1      15.593 -12.816  21.029  1.00  0.00    -0.284 N 
ATOM      7  H6  UNL     1      14.578 -12.867  21.112  1.00  0.00     0.188 HD
ENDROOT
BRANCH   1   8
HETATM    8  C14 UNL     1      15.671 -15.216  21.432  1.00  0.00     0.148 C 
BRANCH   8   9
HETATM    9  C13 UNL     1      16.604 -16.142  22.160  1.00  0.00     0.022 C 
BRANCH   9  10
HETATM   10  C12 UNL     1      16.470 -17.530  21.603  1.00  0.00     0.002 C 
BRANCH  10  11
HETATM   11  C11 UNL     1      15.939 -18.450  22.644  1.00  0.00     0.000 C 
BRANCH  11  12
HETATM   12  C10 UNL     1      16.216 -17.954  24.053  1.00  0.00     0.006 C 
BRANCH  12  13
HETATM   13  C9  UNL     1      17.222 -18.806  24.789  1.00  0.00     0.057 C 
BRANCH  13  14
HETATM   14  C8  UNL     1      18.328 -17.903  25.206  1.00  0.00     0.010 A 
HETATM   15  C7  UNL     1      18.218 -16.580  25.537  1.00  0.00     0.038 A 
HETATM   16  C6  UNL     1      19.488 -16.079  25.875  1.00  0.00    -0.012 A 
HETATM   17  C5  UNL     1      19.653 -14.836  26.226  1.00  0.00    -0.009 C 
HETATM   18  C25 UNL     1      20.350 -17.113  25.741  1.00  0.00     0.033 A 
HETATM   19  N7  UNL     1      19.618 -18.203  25.335  1.00  0.00    -0.360 N 
HETATM   20  C26 UNL     1      21.666 -17.154  25.933  1.00  0.00     0.044 C 
ATOM     21  H7  UNL     1      20.014 -19.126  25.155  1.00  0.00     0.166 HD
BRANCH  17  22
HETATM   22  C4  UNL     1      20.864 -14.113  26.615  1.00  0.00     0.061 C 
BRANCH  22  23
HETATM   23  C2  UNL     1      21.407 -13.261  25.512  1.00  0.00    -0.090 C 
HETATM   24  C1  UNL     1      21.024 -12.002  25.403  1.00  0.00     0.014 C 
HETATM   25  C3  UNL     1      22.369 -13.801  24.532  1.00  0.00     0.043 C 
ENDBRANCH  22  23
ENDBRANCH  17  22
ENDBRANCH  13  14
ENDBRANCH  12  13
ENDBRANCH  11  12
ENDBRANCH  10  11
ENDBRANCH   9  10
ENDBRANCH   8   9
ENDBRANCH   1   8
BRANCH   3  26
HETATM   26  C17 UNL     1      19.721 -12.684  20.705  1.00  0.00     0.266 C 
HETATM   27  N2  UNL     1      20.316 -11.941  19.652  1.00  0.00    -0.057 NA
HETATM   28  O1  UNL     1      20.451 -13.294  21.518  1.00  0.00    -0.271 OA
ENDBRANCH   3  26
BRANCH   5  29
HETATM   29  N3  UNL     1      15.405 -10.430  20.637  1.00  0.00    -0.349 N 
ATOM     30  H3  UNL     1      15.896  -9.537  20.679  1.00  0.00     0.167 HD
BRANCH  29  31
HETATM   31  C20 UNL     1      14.002 -10.426  20.435  1.00  0.00     0.125 C 
BRANCH  31  32
HETATM   32  C21 UNL     1      13.158 -10.410  21.478  1.00  0.00     0.118 A 
HETATM   33  N4  UNL     1      12.878  -9.368  22.275  1.00  0.00    -0.338 N 
HETATM   34  C22 UNL     1      11.987  -9.759  23.197  1.00  0.00     0.098 A 
ATOM     35  H4  UNL     1      13.276  -8.432  22.193  1.00  0.00     0.167 HD
HETATM   36  C23 UNL     1      11.454  -9.029  24.170  1.00  0.00     0.063 C 
HETATM   37  N5  UNL     1      11.694 -11.054  22.994  1.00  0.00    -0.308 N 
HETATM   38  C24 UNL     1      12.409 -11.467  21.938  1.00  0.00     0.275 A 
ATOM     39  H5  UNL     1      11.046 -11.620  23.542  1.00  0.00     0.170 HD
HETATM   40  O2  UNL     1      12.374 -12.636  21.472  1.00  0.00    -0.266 OA
ENDBRANCH  31  32
ENDBRANCH  29  31
ENDBRANCH   5  29
TORSDOF 13
ENDMDL
MODEL 5
REMARK VINA RESULT: -8.380479026      1.675      2.176
REMARK  13 active torsions:
REMARK  status: ('A' for Active; 'I' for Inactive)
REMARK    1  A    between atoms: C2_2  and  C4_4 
REMARK    2  A    between atoms: C4_4  and  C5_5 
REMARK    3  A    between atoms: C8_8  and  C9_9 
REMARK    4  A    between atoms: C9_9  and  C10_10 
REMARK    5  A    between atoms: C10_10  and  C11_11 
REMARK    6  A    between atoms: C11_11  and  C12_12 
REMARK    7  A    between atoms: C12_12  and  C13_13 
REMARK    8  A    between atoms: C13_13  and  C14_14 
REMARK    9  A    between atoms: C14_14  and  N1_15 
REMARK   10  A    between atoms: C16_17  and  C17_18 
REMARK   11  A    between atoms: C19_22  and  N3_23 
REMARK   12  A    between atoms: N3_23  and  C20_25 
REMARK   13  A    between atoms: C20_25  and  C21_26 
ROOT
HETATM    1  N1  UNL     1      16.104 -13.972  21.134  1.00  0.00    -0.301 N 
HETATM    2  C15 UNL     1      17.440 -14.033  21.014  1.00  0.00     0.126 A 
HETATM    3  C16 UNL     1      18.160 -12.893  20.771  1.00  0.00     0.050 A 
HETATM    4  C18 UNL     1      17.475 -11.682  20.653  1.00  0.00     0.068 A 
HETATM    5  C19 UNL     1      16.109 -11.663  20.783  1.00  0.00     0.120 A 
HETATM    6  N6  UNL     1      15.475 -12.816  21.020  1.00  0.00    -0.284 N 
ATOM      7  H6  UNL     1      14.460 -12.802  21.118  1.00  0.00     0.188 HD
ENDROOT
BRANCH   1   8
HETATM    8  C14 UNL     1      15.401 -15.221  21.394  1.00  0.00     0.148 C 
BRANCH   8   9
HETATM    9  C13 UNL     1      15.022 -15.918  20.117  1.00  0.00     0.022 C 
BRANCH   9  10
HETATM   10  C12 UNL     1      15.793 -17.201  19.998  1.00  0.00     0.002 C 
BRANCH  10  11
HETATM   11  C11 UNL     1      15.798 -17.919  21.301  1.00  0.00     0.000 C 
BRANCH  11  12
HETATM   12  C10 UNL     1      17.170 -18.467  21.656  1.00  0.00     0.006 C 
BRANCH  12  13
HETATM   13  C9  UNL     1      18.296 -17.692  21.015  1.00  0.00     0.057 C 
BRANCH  13  14
HETATM   14  C8  UNL     1      19.095 -17.099  22.121  1.00  0.00     0.010 A 
HETATM   15  C7  UNL     1      18.605 -16.543  23.272  1.00  0.00     0.038 A 
HETATM   16  C6  UNL     1      19.678 -16.097  24.064  1.00  0.00    -0.012 A 
HETATM   17  C5  UNL     1      19.475 -15.524  25.215  1.00  0.00    -0.009 C 
HETATM   18  C25 UNL     1      20.805 -16.390  23.374  1.00  0.00     0.033 A 
HETATM   19  N7  UNL     1      20.419 -16.996  22.203  1.00  0.00    -0.360 N 
HETATM   20  C26 UNL     1      22.077 -16.162  23.689  1.00  0.00     0.044 C 
ATOM     21  H7  UNL     1      21.066 -17.326  21.487  1.00  0.00     0.166 HD
BRANCH  17  22
HETATM   22  C4  UNL     1      20.427 -14.992  26.191  1.00  0.00     0.061 C 
BRANCH  22  23
HETATM   23  C2  UNL     1      20.655 -13.522  26.033  1.00  0.00    -0.090 C 
HETATM   24  C1  UNL     1      20.981 -12.790  27.082  1.00  0.00     0.014 C 
HETATM   25  C3  UNL     1      20.520 -12.865  24.718  1.00  0.00     0.043 C 
ENDBRANCH  22  23
ENDBRANCH  17  22
ENDBRANCH  13  14
ENDBRANCH  12  13
ENDBRANCH  11  12
ENDBRANCH  10  11
ENDBRANCH   9  10
ENDBRANCH   8   9
ENDBRANCH   1   8
BRANCH   3  26
HETATM   26  C17 UNL     1      19.597 -12.950  20.640  1.00  0.00     0.266 C 
HETATM   27  N2  UNL     1      20.265 -11.943  19.894  1.00  0.00    -0.057 NA
HETATM   28  O1  UNL     1      20.263 -13.868  21.170  1.00  0.00    -0.271 OA
ENDBRANCH   3  26
BRANCH   5  29
HETATM   29  N3  UNL     1      15.438 -10.418  20.660  1.00  0.00    -0.349 N 
ATOM     30  H3  UNL     1      15.982  -9.559  20.734  1.00  0.00     0.167 HD
BRANCH  29  31
HETATM   31  C20 UNL     1      14.041 -10.321  20.438  1.00  0.00     0.125 C 
BRANCH  31  32
HETATM   32  C21 UNL     1      13.181 -10.327  21.468  1.00  0.00     0.118 A 
HETATM   33  N4  UNL     1      12.923  -9.317  22.313  1.00  0.00    -0.338 N 
HETATM   34  C22 UNL     1      12.005  -9.722  23.200  1.00  0.00     0.098 A 
ATOM     35  H4  UNL     1      13.356  -8.393  22.285  1.00  0.00     0.167 HD
HETATM   36  C23 UNL     1      11.480  -9.024  24.201  1.00  0.00     0.063 C 
HETATM   37  N5  UNL     1      11.669 -10.994  22.927  1.00  0.00    -0.308 N 
HETATM   38  C24 UNL     1      12.387 -11.379  21.862  1.00  0.00     0.275 A 
ATOM     39  H5  UNL     1      10.993 -11.563  23.436  1.00  0.00     0.170 HD
HETATM   40  O2  UNL     1      12.319 -12.521  21.337  1.00  0.00    -0.266 OA
ENDBRANCH  31  32
ENDBRANCH  29  31
ENDBRANCH   5  29
TORSDOF 13
ENDMDL
