MODEL 1
REMARK VINA RESULT: -8.927660169      0.000      0.000
REMARK  14 active torsions:
REMARK  status: ('A' for Active; 'I' for Inactive)
REMARK    1  A    between atoms: N1_2  and  C4_5 
REMARK    2  A    between atoms: C4_5  and  C5_6 
REMARK    3  A    between atoms: C5_6  and  C6_7 
REMARK    4  A    between atoms: C6_7  and  C7_8 
REMARK    5  A    between atoms: C7_8  and  C8_9 
REMARK    6  A    between atoms: C8_9  and  N2_10 
REMARK    7  A    between atoms: C8_9  and  C13_22 
REMARK       I    between atoms: N2_10  and  C9_12 
REMARK    8  A    between atoms: C9_12  and  C10_14 
REMARK    9  A    between atoms: N5_25  and  C16_26 
REMARK   10  A    between atoms: C16_26  and  C17_27 
REMARK   11  A    between atoms: C18_28  and  C19_29 
REMARK   12  A    between atoms: C19_29  and  C20_30 
REMARK   13  A    between atoms: N8_37  and  N9_39 
REMARK   14  A    between atoms: N9_39  and  N10_41 
ROOT
HETATM    1  C13 UNL     1      15.660 -12.640  20.225  1.00  0.00    -0.033 A 
HETATM    2  C14 UNL     1      16.229 -13.656  20.965  1.00  0.00     0.026 A 
HETATM    3  C15 UNL     1      17.620 -13.767  21.049  1.00  0.00     0.092 A 
HETATM    4  N5  UNL     1      18.458 -12.919  20.431  1.00  0.00    -0.356 N 
HETATM    5  C23 UNL     1      17.889 -11.927  19.710  1.00  0.00     0.092 A 
HETATM    6  C24 UNL     1      16.523 -11.763  19.590  1.00  0.00     0.026 A 
ENDROOT
BRANCH   1   7
HETATM    7  C8  UNL     1      14.222 -12.467  20.059  1.00  0.00     0.118 C 
BRANCH   7   8
HETATM    8  C7  UNL     1      13.541 -13.771  19.763  1.00  0.00     0.030 C 
BRANCH   8   9
HETATM    9  C6  UNL     1      12.760 -14.311  20.948  1.00  0.00     0.004 C 
BRANCH   9  10
HETATM   10  C5  UNL     1      12.397 -15.759  20.635  1.00  0.00     0.028 C 
BRANCH  10  11
HETATM   11  C4  UNL     1      13.036 -16.278  19.397  1.00  0.00     0.236 C 
BRANCH  11  12
HETATM   12  N1  UNL     1      12.050 -16.940  18.570  1.00  0.00    -0.079 N 
HETATM   13  C1  UNL     1      12.716 -17.249  17.296  1.00  0.00     0.271 C 
HETATM   14  C2  UNL     1      10.898 -16.142  18.331  1.00  0.00     0.271 C 
HETATM   15  C3  UNL     1      11.645 -18.212  19.147  1.00  0.00     0.271 C 
ENDBRANCH  11  12
ENDBRANCH  10  11
ENDBRANCH   9  10
ENDBRANCH   8   9
ENDBRANCH   7   8
BRANCH   7  16
HETATM   16  N2  UNL     1      13.570 -11.839  21.185  1.00  0.00    -0.347 N 
HETATM   17  C9  UNL     1      13.256 -10.457  21.226  1.00  0.00     0.270 C 
HETATM   18  O1  UNL     1      13.555  -9.733  20.263  1.00  0.00    -0.266 OA
ATOM     19  H2  UNL     1      13.323 -12.417  21.988  1.00  0.00     0.163 HD
BRANCH  17  20
HETATM   20  C10 UNL     1      12.596  -9.918  22.390  1.00  0.00     0.120 A 
HETATM   21  C11 UNL     1      11.648 -10.512  23.194  1.00  0.00     0.128 A 
HETATM   22  N3  UNL     1      11.327  -9.691  24.200  1.00  0.00    -0.316 N 
HETATM   23  C12 UNL     1      12.051  -8.574  24.062  1.00  0.00     0.324 A 
ATOM     24  H3  UNL     1      10.652  -9.882  24.940  1.00  0.00     0.170 HD
HETATM   25  O2  UNL     1      11.995  -7.573  24.855  1.00  0.00    -0.247 OA
HETATM   26  N4  UNL     1      12.828  -8.694  22.966  1.00  0.00    -0.303 N 
ATOM     27  H4  UNL     1      13.481  -7.990  22.622  1.00  0.00     0.171 HD
ENDBRANCH  17  20
ENDBRANCH   7  16
ENDBRANCH   1   7
BRANCH   4  28
HETATM   28  C16 UNL     1      19.892 -12.988  20.494  1.00  0.00     0.221 C 
BRANCH  28  29
HETATM   29  C17 UNL     1      20.235 -13.123  21.933  1.00  0.00    -0.086 C 
HETATM   30  C18 UNL     1      20.537 -13.207  23.104  1.00  0.00    -0.099 C 
BRANCH  30  31
HETATM   31  C19 UNL     1      20.944 -13.292  24.532  1.00  0.00     0.154 C 
BRANCH  31  32
HETATM   32  C20 UNL     1      21.426 -14.711  24.784  1.00  0.00     0.063 A 
HETATM   33  N6  UNL     1      20.763 -15.730  25.154  1.00  0.00    -0.373 N 
HETATM   34  C21 UNL     1      21.591 -16.892  25.280  1.00  0.00     0.245 A 
ATOM     35  H6  UNL     1      19.760 -15.723  25.338  1.00  0.00     0.161 HD
HETATM   36  N7  UNL     1      22.910 -16.471  24.909  1.00  0.00    -0.358 N 
HETATM   37  C22 UNL     1      22.828 -15.099  24.603  1.00  0.00     0.141 A 
ATOM     38  H7  UNL     1      23.747 -17.054  24.874  1.00  0.00     0.162 HD
HETATM   39  N8  UNL     1      23.807 -14.324  24.217  1.00  0.00    -0.270 N 
ATOM     40  H8  UNL     1      23.610 -13.345  24.012  1.00  0.00     0.190 HD
BRANCH  39  41
HETATM   41  N9  UNL     1      25.036 -14.766  24.085  1.00  0.00    -0.248 N 
ATOM     42  H9  UNL     1      25.738 -14.902  24.812  1.00  0.00     0.207 HD
BRANCH  41  43
HETATM   43  N10 UNL     1      25.164 -15.023  22.621  1.00  0.00    -0.331 N 
ATOM     44 2H10 UNL     1      24.545 -14.698  21.878  1.00  0.00     0.178 HD
ATOM     45 1H10 UNL     1      26.007 -15.593  22.548  1.00  0.00     0.178 HD
ENDBRANCH  41  43
ENDBRANCH  39  41
ENDBRANCH  31  32
ENDBRANCH  30  31
ENDBRANCH  28  29
ENDBRANCH   4  28
TORSDOF 14
ENDMDL
MODEL 2
REMARK VINA RESULT: -8.880261815      1.123      1.454
REMARK  14 active torsions:
REMARK  status: ('A' for Active; 'I' for Inactive)
REMARK    1  A    between atoms: N1_2  and  C4_5 
REMARK    2  A    between atoms: C4_5  and  C5_6 
REMARK    3  A    between atoms: C5_6  and  C6_7 
REMARK    4  A    between atoms: C6_7  and  C7_8 
REMARK    5  A    between atoms: C7_8  and  C8_9 
REMARK    6  A    between atoms: C8_9  and  N2_10 
REMARK    7  A    between atoms: C8_9  and  C13_22 
REMARK       I    between atoms: N2_10  and  C9_12 
REMARK    8  A    between atoms: C9_12  and  C10_14 
REMARK    9  A    between atoms: N5_25  and  C16_26 
REMARK   10  A    between atoms: C16_26  and  C17_27 
REMARK   11  A    between atoms: C18_28  and  C19_29 
REMARK   12  A    between atoms: C19_29  and  C20_30 
REMARK   13  A    between atoms: N8_37  and  N9_39 
REMARK   14  A    between atoms: N9_39  and  N10_41 
ROOT
HETATM    1  C13 UNL     1      15.695 -12.530  20.278  1.00  0.00    -0.033 A 
HETATM    2  C14 UNL     1      16.223 -13.490  21.116  1.00  0.00     0.026 A 
HETATM    3  C15 UNL     1      17.609 -13.636  21.228  1.00  0.00     0.092 A 
HETATM    4  N5  UNL     1      18.480 -12.874  20.545  1.00  0.00    -0.356 N 
HETATM    5  C23 UNL     1      17.951 -11.937  19.728  1.00  0.00     0.092 A 
HETATM    6  C24 UNL     1      16.592 -11.743  19.575  1.00  0.00     0.026 A 
ENDROOT
BRANCH   1   7
HETATM    7  C8  UNL     1      14.265 -12.329  20.078  1.00  0.00     0.118 C 
BRANCH   7   8
HETATM    8  C7  UNL     1      13.569 -13.616  19.742  1.00  0.00     0.030 C 
BRANCH   8   9
HETATM    9  C6  UNL     1      12.647 -14.093  20.850  1.00  0.00     0.004 C 
BRANCH   9  10
HETATM   10  C5  UNL     1      12.908 -15.582  21.053  1.00  0.00     0.028 C 
BRANCH  10  11
HETATM   11  C4  UNL     1      13.840 -16.164  20.051  1.00  0.00     0.236 C 
BRANCH  11  12
HETATM   12  N1  UNL     1      14.702 -17.140  20.684  1.00  0.00    -0.079 N 
HETATM   13  C1  UNL     1      16.010 -17.032  20.020  1.00  0.00     0.271 C 
HETATM   14  C2  UNL     1      14.212 -18.470  20.572  1.00  0.00     0.271 C 
HETATM   15  C3  UNL     1      14.919 -16.821  22.087  1.00  0.00     0.271 C 
ENDBRANCH  11  12
ENDBRANCH  10  11
ENDBRANCH   9  10
ENDBRANCH   8   9
ENDBRANCH   7   8
BRANCH   7  16
HETATM   16  N2  UNL     1      13.594 -11.707  21.196  1.00  0.00    -0.347 N 
HETATM   17  C9  UNL     1      13.328 -10.317  21.264  1.00  0.00     0.270 C 
HETATM   18  O1  UNL     1      13.687  -9.579  20.333  1.00  0.00    -0.266 OA
ATOM     19  H2  UNL     1      13.298 -12.297  21.973  1.00  0.00     0.163 HD
BRANCH  17  20
HETATM   20  C10 UNL     1      12.646  -9.784  22.418  1.00  0.00     0.120 A 
HETATM   21  C11 UNL     1      11.681 -10.382  23.199  1.00  0.00     0.128 A 
HETATM   22  N3  UNL     1      11.341  -9.568  24.204  1.00  0.00    -0.316 N 
HETATM   23  C12 UNL     1      12.068  -8.451  24.087  1.00  0.00     0.324 A 
ATOM     24  H3  UNL     1      10.651  -9.763  24.929  1.00  0.00     0.170 HD
HETATM   25  O2  UNL     1      11.997  -7.455  24.886  1.00  0.00    -0.247 OA
HETATM   26  N4  UNL     1      12.867  -8.564  23.006  1.00  0.00    -0.303 N 
ATOM     27  H4  UNL     1      13.527  -7.859  22.680  1.00  0.00     0.171 HD
ENDBRANCH  17  20
ENDBRANCH   7  16
ENDBRANCH   1   7
BRANCH   4  28
HETATM   28  C16 UNL     1      19.911 -12.981  20.633  1.00  0.00     0.221 C 
BRANCH  28  29
HETATM   29  C17 UNL     1      20.225 -13.116  22.079  1.00  0.00    -0.086 C 
HETATM   30  C18 UNL     1      20.513 -13.211  23.253  1.00  0.00    -0.099 C 
BRANCH  30  31
HETATM   31  C19 UNL     1      20.907 -13.327  24.682  1.00  0.00     0.154 C 
BRANCH  31  32
HETATM   32  C20 UNL     1      21.233 -14.787  24.947  1.00  0.00     0.063 A 
HETATM   33  N6  UNL     1      20.457 -15.732  25.296  1.00  0.00    -0.373 N 
HETATM   34  C21 UNL     1      21.158 -16.972  25.447  1.00  0.00     0.245 A 
ATOM     35  H6  UNL     1      19.455 -15.621  25.451  1.00  0.00     0.161 HD
HETATM   36  N7  UNL     1      22.523 -16.691  25.115  1.00  0.00    -0.358 N 
HETATM   37  C22 UNL     1      22.592 -15.318  24.807  1.00  0.00     0.141 A 
ATOM     38  H7  UNL     1      23.297 -17.356  25.103  1.00  0.00     0.162 HD
HETATM   39  N8  UNL     1      23.656 -14.649  24.450  1.00  0.00    -0.270 N 
ATOM     40  H8  UNL     1      23.567 -13.655  24.240  1.00  0.00     0.190 HD
BRANCH  39  41
HETATM   41  N9  UNL     1      24.837 -15.215  24.354  1.00  0.00    -0.248 N 
ATOM     42  H9  UNL     1      25.335 -15.755  25.060  1.00  0.00     0.207 HD
BRANCH  41  43
HETATM   43  N10 UNL     1      25.277 -14.881  22.968  1.00  0.00    -0.331 N 
ATOM     44 2H10 UNL     1      24.727 -14.943  22.112  1.00  0.00     0.178 HD
ATOM     45 1H10 UNL     1      26.245 -14.582  23.087  1.00  0.00     0.178 HD
ENDBRANCH  41  43
ENDBRANCH  39  41
ENDBRANCH  31  32
ENDBRANCH  30  31
ENDBRANCH  28  29
ENDBRANCH   4  28
TORSDOF 14
ENDMDL
MODEL 3
REMARK VINA RESULT: -8.858303345      0.629      1.026
REMARK  14 active torsions:
REMARK  status: ('A' for Active; 'I' for Inactive)
REMARK    1  A    between atoms: N1_2  and  C4_5 
REMARK    2  A    between atoms: C4_5  and  C5_6 
REMARK    3  A    between atoms: C5_6  and  C6_7 
REMARK    4  A    between atoms: C6_7  and  C7_8 
REMARK    5  A    between atoms: C7_8  and  C8_9 
REMARK    6  A    between atoms: C8_9  and  N2_10 
REMARK    7  A    between atoms: C8_9  and  C13_22 
REMARK       I    between atoms: N2_10  and  C9_12 
REMARK    8  A    between atoms: C9_12  and  C10_14 
REMARK    9  A    between atoms: N5_25  and  C16_26 
REMARK   10  A    between atoms: C16_26  and  C17_27 
REMARK   11  A    between atoms: C18_28  and  C19_29 
REMARK   12  A    between atoms: C19_29  and  C20_30 
REMARK   13  A    between atoms: N8_37  and  N9_39 
REMARK   14  A    between atoms: N9_39  and  N10_41 
ROOT
HETATM    1  C13 UNL     1      15.739 -12.556  20.244  1.00  0.00    -0.033 A 
HETATM    2  C14 UNL     1      16.650 -11.591  19.867  1.00  0.00     0.026 A 
HETATM    3  C15 UNL     1      18.016 -11.791  20.093  1.00  0.00     0.092 A 
HETATM    4  N5  UNL     1      18.504 -12.899  20.672  1.00  0.00    -0.356 N 
HETATM    5  C23 UNL     1      17.603 -13.839  21.036  1.00  0.00     0.092 A 
HETATM    6  C24 UNL     1      16.243 -13.701  20.840  1.00  0.00     0.026 A 
ENDROOT
BRANCH   1   7
HETATM    7  C8  UNL     1      14.298 -12.418  20.075  1.00  0.00     0.118 C 
BRANCH   7   8
HETATM    8  C7  UNL     1      13.648 -13.741  19.790  1.00  0.00     0.030 C 
BRANCH   8   9
HETATM    9  C6  UNL     1      12.772 -14.225  20.933  1.00  0.00     0.004 C 
BRANCH   9  10
HETATM   10  C5  UNL     1      12.395 -15.673  20.638  1.00  0.00     0.028 C 
BRANCH  10  11
HETATM   11  C4  UNL     1      13.020 -16.211  19.401  1.00  0.00     0.236 C 
BRANCH  11  12
HETATM   12  N1  UNL     1      12.023 -16.879  18.592  1.00  0.00    -0.079 N 
HETATM   13  C1  UNL     1      12.679 -17.221  17.321  1.00  0.00     0.271 C 
HETATM   14  C2  UNL     1      10.878 -16.075  18.342  1.00  0.00     0.271 C 
HETATM   15  C3  UNL     1      11.608 -18.135  19.197  1.00  0.00     0.271 C 
ENDBRANCH  11  12
ENDBRANCH  10  11
ENDBRANCH   9  10
ENDBRANCH   8   9
ENDBRANCH   7   8
BRANCH   7  16
HETATM   16  N2  UNL     1      13.629 -11.795  21.193  1.00  0.00    -0.347 N 
HETATM   17  C9  UNL     1      13.292 -10.418  21.223  1.00  0.00     0.270 C 
HETATM   18  O1  UNL     1      13.584  -9.695  20.257  1.00  0.00    -0.266 OA
ATOM     19  H2  UNL     1      13.388 -12.372  21.998  1.00  0.00     0.163 HD
BRANCH  17  20
HETATM   20  C10 UNL     1      12.617  -9.883  22.380  1.00  0.00     0.120 A 
HETATM   21  C11 UNL     1      11.650 -10.474  23.163  1.00  0.00     0.128 A 
HETATM   22  N3  UNL     1      11.319  -9.659  24.170  1.00  0.00    -0.316 N 
HETATM   23  C12 UNL     1      12.055  -8.548  24.053  1.00  0.00     0.324 A 
ATOM     24  H3  UNL     1      10.629  -9.850  24.897  1.00  0.00     0.170 HD
HETATM   25  O2  UNL     1      11.993  -7.553  24.854  1.00  0.00    -0.247 OA
HETATM   26  N4  UNL     1      12.849  -8.665  22.970  1.00  0.00    -0.303 N 
ATOM     27  H4  UNL     1      13.514  -7.965  22.643  1.00  0.00     0.171 HD
ENDBRANCH  17  20
ENDBRANCH   7  16
ENDBRANCH   1   7
BRANCH   4  28
HETATM   28  C16 UNL     1      19.898 -13.153  20.917  1.00  0.00     0.221 C 
BRANCH  28  29
HETATM   29  C17 UNL     1      20.073 -13.103  22.391  1.00  0.00    -0.086 C 
HETATM   30  C18 UNL     1      20.239 -13.088  23.592  1.00  0.00    -0.099 C 
BRANCH  30  31
HETATM   31  C19 UNL     1      20.454 -13.110  25.064  1.00  0.00     0.154 C 
BRANCH  31  32
HETATM   32  C20 UNL     1      20.604 -14.564  25.479  1.00  0.00     0.063 A 
HETATM   33  N6  UNL     1      19.739 -15.351  25.979  1.00  0.00    -0.373 N 
HETATM   34  C21 UNL     1      20.281 -16.652  26.233  1.00  0.00     0.245 A 
ATOM     35  H6  UNL     1      18.774 -15.087  26.175  1.00  0.00     0.161 HD
HETATM   36  N7  UNL     1      21.644 -16.599  25.794  1.00  0.00    -0.358 N 
HETATM   37  C22 UNL     1      21.869 -15.290  25.325  1.00  0.00     0.141 A 
ATOM     38  H7  UNL     1      22.321 -17.362  25.818  1.00  0.00     0.162 HD
HETATM   39  N8  UNL     1      22.984 -14.816  24.834  1.00  0.00    -0.270 N 
ATOM     40  H8  UNL     1      23.011 -13.848  24.515  1.00  0.00     0.190 HD
BRANCH  39  41
HETATM   41  N9  UNL     1      24.070 -15.546  24.738  1.00  0.00    -0.248 N 
ATOM     42  H9  UNL     1      24.227 -16.491  25.089  1.00  0.00     0.207 HD
BRANCH  41  43
HETATM   43  N10 UNL     1      25.021 -14.670  23.995  1.00  0.00    -0.331 N 
ATOM     44 2H10 UNL     1      25.701 -14.019  24.389  1.00  0.00     0.178 HD
ATOM     45 1H10 UNL     1      24.828 -14.878  23.016  1.00  0.00     0.178 HD
ENDBRANCH  41  43
ENDBRANCH  39  41
ENDBRANCH  31  32
ENDBRANCH  30  31
ENDBRANCH  28  29
ENDBRANCH   4  28
TORSDOF 14
ENDMDL
MODEL 4
REMARK VINA RESULT: -8.650632641      1.804      2.820
REMARK  14 active torsions:
REMARK  status: ('A' for Active; 'I' for Inactive)
REMARK    1  A    between atoms: N1_2  and  C4_5 
REMARK    2  A    between atoms: C4_5  and  C5_6 
REMARK    3  A    between atoms: C5_6  and  C6_7 
REMARK    4  A    between atoms: C6_7  and  C7_8 
REMARK    5  A    between atoms: C7_8  and  C8_9 
REMARK    6  A    between atoms: C8_9  and  N2_10 
REMARK    7  A    between atoms: C8_9  and  C13_22 
REMARK       I    between atoms: N2_10  and  C9_12 
REMARK    8  A    between atoms: C9_12  and  C10_14 
REMARK    9  A    between atoms: N5_25  and  C16_26 
REMARK   10  A    between atoms: C16_26  and  C17_27 
REMARK   11  A    between atoms: C18_28  and  C19_29 
REMARK   12  A    between atoms: C19_29  and  C20_30 
REMARK   13  A    between atoms: N8_37  and  N9_39 
REMARK   14  A    between atoms: N9_39  and  N10_41 
ROOT
HETATM    1  C13 UNL     1      16.123 -12.131  20.763  1.00  0.00    -0.033 A 
HETATM    2  C14 UNL     1      16.403 -13.066  21.738  1.00  0.00     0.026 A 
HETATM    3  C15 UNL     1      17.729 -13.329  22.096  1.00  0.00     0.092 A 
HETATM    4  N5  UNL     1      18.774 -12.707  21.528  1.00  0.00    -0.356 N 
HETATM    5  C23 UNL     1      18.488 -11.792  20.575  1.00  0.00     0.092 A 
HETATM    6  C24 UNL     1      17.201 -11.487  20.178  1.00  0.00     0.026 A 
ENDROOT
BRANCH   1   7
HETATM    7  C8  UNL     1      14.774 -11.816  20.308  1.00  0.00     0.118 C 
BRANCH   7   8
HETATM    8  C7  UNL     1      14.123 -13.000  19.655  1.00  0.00     0.030 C 
BRANCH   8   9
HETATM    9  C6  UNL     1      12.836 -13.418  20.344  1.00  0.00     0.004 C 
BRANCH   9  10
HETATM   10  C5  UNL     1      12.869 -14.936  20.492  1.00  0.00     0.028 C 
BRANCH  10  11
HETATM   11  C4  UNL     1      13.601 -15.399  21.700  1.00  0.00     0.236 C 
BRANCH  11  12
HETATM   12  N1  UNL     1      14.365 -16.589  21.391  1.00  0.00    -0.079 N 
HETATM   13  C1  UNL     1      15.229 -16.842  22.554  1.00  0.00     0.271 C 
HETATM   14  C2  UNL     1      15.160 -16.451  20.220  1.00  0.00     0.271 C 
HETATM   15  C3  UNL     1      13.501 -17.751  21.254  1.00  0.00     0.271 C 
ENDBRANCH  11  12
ENDBRANCH  10  11
ENDBRANCH   9  10
ENDBRANCH   8   9
ENDBRANCH   7   8
BRANCH   7  16
HETATM   16  N2  UNL     1      13.905 -11.310  21.344  1.00  0.00    -0.347 N 
HETATM   17  C9  UNL     1      13.663  -9.928  21.547  1.00  0.00     0.270 C 
HETATM   18  O1  UNL     1      14.222  -9.096  20.815  1.00  0.00    -0.266 OA
ATOM     19  H2  UNL     1      13.442 -11.979  21.959  1.00  0.00     0.163 HD
BRANCH  17  20
HETATM   20  C10 UNL     1      12.772  -9.515  22.603  1.00  0.00     0.120 A 
HETATM   21  C11 UNL     1      11.757 -10.229  23.202  1.00  0.00     0.128 A 
HETATM   22  N3  UNL     1      11.201  -9.500  24.175  1.00  0.00    -0.316 N 
HETATM   23  C12 UNL     1      11.838  -8.324  24.218  1.00  0.00     0.324 A 
ATOM     24  H3  UNL     1      10.430  -9.788  24.777  1.00  0.00     0.170 HD
HETATM   25  O2  UNL     1      11.562  -7.381  25.037  1.00  0.00    -0.247 OA
HETATM   26  N4  UNL     1      12.796  -8.315  23.269  1.00  0.00    -0.303 N 
ATOM     27  H4  UNL     1      13.434  -7.543  23.077  1.00  0.00     0.171 HD
ENDBRANCH  17  20
ENDBRANCH   7  16
ENDBRANCH   1   7
BRANCH   4  28
HETATM   28  C16 UNL     1      20.153 -12.937  21.867  1.00  0.00     0.221 C 
BRANCH  28  29
HETATM   29  C17 UNL     1      20.171 -13.258  23.317  1.00  0.00    -0.086 C 
HETATM   30  C18 UNL     1      20.219 -13.530  24.498  1.00  0.00    -0.099 C 
BRANCH  30  31
HETATM   31  C19 UNL     1      20.310 -13.891  25.938  1.00  0.00     0.154 C 
BRANCH  31  32
HETATM   32  C20 UNL     1      21.100 -15.185  26.033  1.00  0.00     0.063 A 
HETATM   33  N6  UNL     1      22.360 -15.360  26.022  1.00  0.00    -0.373 N 
HETATM   34  C21 UNL     1      22.710 -16.744  26.131  1.00  0.00     0.245 A 
ATOM     35  H6  UNL     1      23.040 -14.605  25.944  1.00  0.00     0.161 HD
HETATM   36  N7  UNL     1      21.468 -17.452  26.240  1.00  0.00    -0.358 N 
HETATM   37  C22 UNL     1      20.443 -16.489  26.171  1.00  0.00     0.141 A 
ATOM     38  H7  UNL     1      21.350 -18.460  26.348  1.00  0.00     0.162 HD
HETATM   39  N8  UNL     1      19.157 -16.710  26.232  1.00  0.00    -0.270 N 
ATOM     40  H8  UNL     1      18.517 -15.917  26.183  1.00  0.00     0.190 HD
BRANCH  39  41
HETATM   41  N9  UNL     1      18.662 -17.919  26.355  1.00  0.00    -0.248 N 
ATOM     42  H9  UNL     1      18.865 -18.614  27.073  1.00  0.00     0.207 HD
BRANCH  41  43
HETATM   43  N10 UNL     1      17.732 -18.040  25.195  1.00  0.00    -0.331 N 
ATOM     44 2H10 UNL     1      16.941 -17.436  24.969  1.00  0.00     0.178 HD
ATOM     45 1H10 UNL     1      18.074 -18.860  24.694  1.00  0.00     0.178 HD
ENDBRANCH  41  43
ENDBRANCH  39  41
ENDBRANCH  31  32
ENDBRANCH  30  31
ENDBRANCH  28  29
ENDBRANCH   4  28
TORSDOF 14
ENDMDL
MODEL 5
REMARK VINA RESULT: -8.527237487      1.183      2.214
REMARK  14 active torsions:
REMARK  status: ('A' for Active; 'I' for Inactive)
REMARK    1  A    between atoms: N1_2  and  C4_5 
REMARK    2  A    between atoms: C4_5  and  C5_6 
REMARK    3  A    between atoms: C5_6  and  C6_7 
REMARK    4  A    between atoms: C6_7  and  C7_8 
REMARK    5  A    between atoms: C7_8  and  C8_9 
REMARK    6  A    between atoms: C8_9  and  N2_10 
REMARK    7  A    between atoms: C8_9  and  C13_22 
REMARK       I    between atoms: N2_10  and  C9_12 
REMARK    8  A    between atoms: C9_12  and  C10_14 
REMARK    9  A    between atoms: N5_25  and  C16_26 
REMARK   10  A    between atoms: C16_26  and  C17_27 
REMARK   11  A    between atoms: C18_28  and  C19_29 
REMARK   12  A    between atoms: C19_29  and  C20_30 
REMARK   13  A    between atoms: N8_37  and  N9_39 
REMARK   14  A    between atoms: N9_39  and  N10_41 
ROOT
HETATM    1  C13 UNL     1      15.660 -12.674  20.262  1.00  0.00    -0.033 A 
HETATM    2  C14 UNL     1      16.204 -13.800  20.844  1.00  0.00     0.026 A 
HETATM    3  C15 UNL     1      17.592 -13.923  20.969  1.00  0.00     0.092 A 
HETATM    4  N5  UNL     1      18.448 -12.981  20.542  1.00  0.00    -0.356 N 
HETATM    5  C23 UNL     1      17.904 -11.881  19.975  1.00  0.00     0.092 A 
HETATM    6  C24 UNL     1      16.543 -11.701  19.824  1.00  0.00     0.026 A 
ENDROOT
BRANCH   1   7
HETATM    7  C8  UNL     1      14.230 -12.476  20.064  1.00  0.00     0.118 C 
BRANCH   7   8
HETATM    8  C7  UNL     1      13.534 -13.768  19.747  1.00  0.00     0.030 C 
BRANCH   8   9
HETATM    9  C6  UNL     1      12.742 -14.314  20.922  1.00  0.00     0.004 C 
BRANCH   9  10
HETATM   10  C5  UNL     1      12.362 -15.753  20.588  1.00  0.00     0.028 C 
BRANCH  10  11
HETATM   11  C4  UNL     1      12.983 -16.257  19.335  1.00  0.00     0.236 C 
BRANCH  11  12
HETATM   12  N1  UNL     1      11.987 -16.913  18.516  1.00  0.00    -0.079 N 
HETATM   13  C1  UNL     1      12.633 -17.204  17.228  1.00  0.00     0.271 C 
HETATM   14  C2  UNL     1      10.827 -16.118  18.306  1.00  0.00     0.271 C 
HETATM   15  C3  UNL     1      11.598 -18.195  19.085  1.00  0.00     0.271 C 
ENDBRANCH  11  12
ENDBRANCH  10  11
ENDBRANCH   9  10
ENDBRANCH   8   9
ENDBRANCH   7   8
BRANCH   7  16
HETATM   16  N2  UNL     1      13.562 -11.841  21.177  1.00  0.00    -0.347 N 
HETATM   17  C9  UNL     1      13.278 -10.453  21.219  1.00  0.00     0.270 C 
HETATM   18  O1  UNL     1      13.617  -9.730  20.269  1.00  0.00    -0.266 OA
ATOM     19  H2  UNL     1      13.282 -12.418  21.969  1.00  0.00     0.163 HD
BRANCH  17  20
HETATM   20  C10 UNL     1      12.600  -9.906  22.369  1.00  0.00     0.120 A 
HETATM   21  C11 UNL     1      11.616 -10.482  23.142  1.00  0.00     0.128 A 
HETATM   22  N3  UNL     1      11.288  -9.661  24.146  1.00  0.00    -0.316 N 
HETATM   23  C12 UNL     1      12.044  -8.562  24.037  1.00  0.00     0.324 A 
ATOM     24  H3  UNL     1      10.588  -9.841  24.865  1.00  0.00     0.170 HD
HETATM   25  O2  UNL     1      11.990  -7.566  24.837  1.00  0.00    -0.247 OA
HETATM   26  N4  UNL     1      12.847  -8.693  22.962  1.00  0.00    -0.303 N 
ATOM     27  H4  UNL     1      13.526  -8.004  22.642  1.00  0.00     0.171 HD
ENDBRANCH  17  20
ENDBRANCH   7  16
ENDBRANCH   1   7
BRANCH   4  28
HETATM   28  C16 UNL     1      19.880 -13.058  20.656  1.00  0.00     0.221 C 
BRANCH  28  29
HETATM   29  C17 UNL     1      20.180 -13.000  22.110  1.00  0.00    -0.086 C 
HETATM   30  C18 UNL     1      20.392 -12.960  23.303  1.00  0.00    -0.099 C 
BRANCH  30  31
HETATM   31  C19 UNL     1      20.611 -12.900  24.773  1.00  0.00     0.154 C 
BRANCH  31  32
HETATM   32  C20 UNL     1      20.845 -14.322  25.256  1.00  0.00     0.063 A 
HETATM   33  N6  UNL     1      21.919 -14.865  25.664  1.00  0.00    -0.373 N 
HETATM   34  C21 UNL     1      21.721 -16.235  26.032  1.00  0.00     0.245 A 
ATOM     35  H6  UNL     1      22.816 -14.383  25.724  1.00  0.00     0.161 HD
HETATM   36  N7  UNL     1      20.329 -16.498  25.819  1.00  0.00    -0.358 N 
HETATM   37  C22 UNL     1      19.762 -15.308  25.322  1.00  0.00     0.141 A 
ATOM     38  H7  UNL     1      19.842 -17.377  25.994  1.00  0.00     0.162 HD
HETATM   39  N8  UNL     1      18.511 -15.114  24.996  1.00  0.00    -0.270 N 
ATOM     40  H8  UNL     1      18.226 -14.195  24.659  1.00  0.00     0.190 HD
BRANCH  39  41
HETATM   41  N9  UNL     1      17.611 -16.065  25.087  1.00  0.00    -0.248 N 
ATOM     42  H9  UNL     1      17.305 -16.565  25.922  1.00  0.00     0.207 HD
BRANCH  41  43
HETATM   43  N10 UNL     1      17.140 -16.243  23.683  1.00  0.00    -0.331 N 
ATOM     44 2H10 UNL     1      17.655 -16.042  22.827  1.00  0.00     0.178 HD
ATOM     45 1H10 UNL     1      16.193 -16.607  23.790  1.00  0.00     0.178 HD
ENDBRANCH  41  43
ENDBRANCH  39  41
ENDBRANCH  31  32
ENDBRANCH  30  31
ENDBRANCH  28  29
ENDBRANCH   4  28
TORSDOF 14
ENDMDL
