MODEL 1
REMARK VINA RESULT: -8.835900357      0.000      0.000
REMARK  14 active torsions:
REMARK  status: ('A' for Active; 'I' for Inactive)
REMARK    1  A    between atoms: C6_7  and  C7_8 
REMARK    2  A    between atoms: C7_8  and  C8_9 
REMARK    3  A    between atoms: C8_9  and  C9_10 
REMARK    4  A    between atoms: C9_10  and  C10_11 
REMARK    5  A    between atoms: C10_11  and  N2_12 
REMARK    6  A    between atoms: C13_15  and  C14_16 
REMARK    7  A    between atoms: C15_17  and  C16_18 
REMARK    8  A    between atoms: C16_18  and  C17_19 
REMARK    9  A    between atoms: C17_19  and  C18_20 
REMARK   10  A    between atoms: C18_20  and  C19_21 
REMARK   11  A    between atoms: C19_21  and  N3_22 
REMARK   12  A    between atoms: C21_24  and  O1_25 
REMARK   13  A    between atoms: C23_31  and  N6_32 
REMARK   14  A    between atoms: C24_35  and  N7_36 
REMARK       I    between atoms: N7_36  and  C25_38 
ROOT
HETATM    1  N2  UNL     1      18.548 -16.079  23.942  1.00  0.00    -0.302 N 
HETATM    2  C11 UNL     1      18.197 -14.813  24.065  1.00  0.00     0.111 A 
HETATM    3  C12 UNL     1      18.591 -13.786  23.243  1.00  0.00     0.034 A 
HETATM    4  C13 UNL     1      19.432 -14.095  22.185  1.00  0.00     0.010 A 
HETATM    5  C24 UNL     1      19.801 -15.440  22.056  1.00  0.00     0.132 A 
HETATM    6  N10 UNL     1      19.361 -16.373  22.917  1.00  0.00    -0.283 N 
ATOM      7  H10 UNL     1      19.657 -17.341  22.786  1.00  0.00     0.189 HD
ENDROOT
BRANCH   4   8
HETATM    8  C14 UNL     1      19.943 -13.093  21.294  1.00  0.00     0.011 C 
HETATM    9  C15 UNL     1      19.224 -12.500  20.187  1.00  0.00    -0.026 C 
BRANCH   9  10
HETATM   10  C16 UNL     1      17.930 -11.807  20.239  1.00  0.00     0.027 C 
BRANCH  10  11
HETATM   11  C17 UNL     1      16.772 -12.652  19.909  1.00  0.00     0.005 C 
BRANCH  11  12
HETATM   12  C18 UNL     1      15.669 -12.664  20.959  1.00  0.00     0.021 C 
BRANCH  12  13
HETATM   13  C19 UNL     1      14.400 -12.109  20.393  1.00  0.00     0.147 C 
BRANCH  13  14
HETATM   14  N3  UNL     1      13.603 -11.374  21.339  1.00  0.00    -0.188 N 
HETATM   15  C20 UNL     1      12.640 -11.927  22.094  1.00  0.00     0.166 A 
HETATM   16  C21 UNL     1      11.922 -11.120  22.990  1.00  0.00     0.173 A 
HETATM   17  N4  UNL     1      12.153  -9.811  23.129  1.00  0.00    -0.260 N 
HETATM   18  C22 UNL     1      11.405  -8.965  24.067  1.00  0.00     0.181 C 
HETATM   19  N5  UNL     1      13.109  -9.284  22.373  1.00  0.00    -0.128 N 
HETATM   20  C23 UNL     1      13.811 -10.043  21.505  1.00  0.00     0.692 A 
ATOM     21  H5  UNL     1      13.317  -8.289  22.450  1.00  0.00     0.206 HD
BRANCH  16  22
HETATM   22  O1  UNL     1      10.931 -11.706  23.764  1.00  0.00    -0.344 OA
ATOM     23  H1  UNL     1      10.693 -12.609  23.589  1.00  0.00     0.219 HD
ENDBRANCH  16  22
BRANCH  20  24
HETATM   24  N6  UNL     1      14.736  -9.516  20.780  1.00  0.00    -0.233 N 
ATOM     25  H62 UNL     1      15.695  -9.860  20.839  1.00  0.00     0.174 HD
ATOM     26  H61 UNL     1      14.449  -8.758  20.161  1.00  0.00     0.174 HD
ENDBRANCH  20  24
ENDBRANCH  13  14
ENDBRANCH  12  13
ENDBRANCH  11  12
ENDBRANCH  10  11
ENDBRANCH   9  10
ENDBRANCH   4   8
BRANCH   5  27
HETATM   27  N7  UNL     1      20.579 -15.752  21.058  1.00  0.00    -0.315 N 
HETATM   28  C25 UNL     1      21.002 -17.098  20.943  1.00  0.00     0.187 C 
HETATM   29  N8  UNL     1      20.231 -18.028  20.431  1.00  0.00    -0.373 N 
HETATM   30  N9  UNL     1      22.291 -17.475  21.376  1.00  0.00    -0.064 NA
ATOM     31  H82 UNL     1      19.299 -17.755  20.118  1.00  0.00     0.158 HD
ATOM     32  H81 UNL     1      20.536 -18.998  20.349  1.00  0.00     0.158 HD
ATOM     33  H7  UNL     1      20.874 -15.049  20.381  1.00  0.00     0.170 HD
ENDBRANCH   5  27
BRANCH   1  34
HETATM   34  C10 UNL     1      18.163 -17.155  24.806  1.00  0.00     0.148 C 
BRANCH  34  35
HETATM   35  C9  UNL     1      19.269 -17.874  25.486  1.00  0.00     0.022 C 
BRANCH  35  36
HETATM   36  C8  UNL     1      19.898 -17.142  26.643  1.00  0.00     0.008 C 
BRANCH  36  37
HETATM   37  C7  UNL     1      21.272 -16.622  26.279  1.00  0.00     0.057 C 
BRANCH  37  38
HETATM   38  C6  UNL     1      21.331 -15.204  25.970  1.00  0.00     0.010 A 
HETATM   39  N1  UNL     1      22.089 -14.797  24.912  1.00  0.00    -0.364 N 
HETATM   40  C1  UNL     1      22.809 -15.766  24.143  1.00  0.00     0.155 C 
HETATM   41  C2  UNL     1      22.197 -13.493  24.565  1.00  0.00     0.090 A 
HETATM   42  C3  UNL     1      21.539 -12.517  25.278  1.00  0.00     0.017 A 
HETATM   43  C4  UNL     1      20.770 -12.883  26.347  1.00  0.00     0.003 A 
HETATM   44  C5  UNL     1      20.674 -14.228  26.683  1.00  0.00     0.025 A 
ENDBRANCH  37  38
ENDBRANCH  36  37
ENDBRANCH  35  36
ENDBRANCH  34  35
ENDBRANCH   1  34
TORSDOF 14
ENDMDL
MODEL 2
REMARK VINA RESULT: -8.466433104      2.127      4.041
REMARK  14 active torsions:
REMARK  status: ('A' for Active; 'I' for Inactive)
REMARK    1  A    between atoms: C6_7  and  C7_8 
REMARK    2  A    between atoms: C7_8  and  C8_9 
REMARK    3  A    between atoms: C8_9  and  C9_10 
REMARK    4  A    between atoms: C9_10  and  C10_11 
REMARK    5  A    between atoms: C10_11  and  N2_12 
REMARK    6  A    between atoms: C13_15  and  C14_16 
REMARK    7  A    between atoms: C15_17  and  C16_18 
REMARK    8  A    between atoms: C16_18  and  C17_19 
REMARK    9  A    between atoms: C17_19  and  C18_20 
REMARK   10  A    between atoms: C18_20  and  C19_21 
REMARK   11  A    between atoms: C19_21  and  N3_22 
REMARK   12  A    between atoms: C21_24  and  O1_25 
REMARK   13  A    between atoms: C23_31  and  N6_32 
REMARK   14  A    between atoms: C24_35  and  N7_36 
REMARK       I    between atoms: N7_36  and  C25_38 
ROOT
HETATM    1  N2  UNL     1      17.694 -14.062  22.426  1.00  0.00    -0.302 N 
HETATM    2  C11 UNL     1      17.514 -15.357  22.248  1.00  0.00     0.111 A 
HETATM    3  C12 UNL     1      16.806 -15.937  21.224  1.00  0.00     0.034 A 
HETATM    4  C13 UNL     1      16.224 -15.097  20.287  1.00  0.00     0.010 A 
HETATM    5  C24 UNL     1      16.419 -13.723  20.478  1.00  0.00     0.132 A 
HETATM    6  N10 UNL     1      17.129 -13.253  21.517  1.00  0.00    -0.283 N 
ATOM      7  H10 UNL     1      17.243 -12.244  21.618  1.00  0.00     0.189 HD
ENDROOT
BRANCH   4   8
HETATM    8  C14 UNL     1      15.423 -15.593  19.205  1.00  0.00     0.011 C 
HETATM    9  C15 UNL     1      14.217 -16.383  19.338  1.00  0.00    -0.026 C 
BRANCH   9  10
HETATM   10  C16 UNL     1      13.004 -16.029  20.086  1.00  0.00     0.027 C 
BRANCH  10  11
HETATM   11  C17 UNL     1      12.536 -14.651  19.871  1.00  0.00     0.005 C 
BRANCH  11  12
HETATM   12  C18 UNL     1      12.759 -13.709  21.046  1.00  0.00     0.021 C 
BRANCH  12  13
HETATM   13  C19 UNL     1      12.849 -12.293  20.574  1.00  0.00     0.147 C 
BRANCH  13  14
HETATM   14  N3  UNL     1      12.528 -11.312  21.578  1.00  0.00    -0.188 N 
HETATM   15  C20 UNL     1      11.933 -11.606  22.745  1.00  0.00     0.166 A 
HETATM   16  C21 UNL     1      11.667 -10.575  23.658  1.00  0.00     0.173 A 
HETATM   17  N4  UNL     1      11.981  -9.298  23.419  1.00  0.00    -0.260 N 
HETATM   18  C22 UNL     1      11.706  -8.217  24.373  1.00  0.00     0.181 C 
HETATM   19  N5  UNL     1      12.569  -9.030  22.259  1.00  0.00    -0.128 N 
HETATM   20  C23 UNL     1      12.833 -10.007  21.367  1.00  0.00     0.692 A 
ATOM     21  H5  UNL     1      12.826  -8.067  22.039  1.00  0.00     0.206 HD
BRANCH  16  22
HETATM   22  O1  UNL     1      11.052 -10.895  24.860  1.00  0.00    -0.344 OA
ATOM     23  H1  UNL     1      10.681 -10.194  25.382  1.00  0.00     0.219 HD
ENDBRANCH  16  22
BRANCH  20  24
HETATM   24  N6  UNL     1      13.406  -9.729  20.247  1.00  0.00    -0.233 N 
ATOM     25  H62 UNL     1      14.401  -9.909  20.119  1.00  0.00     0.174 HD
ATOM     26  H61 UNL     1      12.809  -9.333  19.521  1.00  0.00     0.174 HD
ENDBRANCH  20  24
ENDBRANCH  13  14
ENDBRANCH  12  13
ENDBRANCH  11  12
ENDBRANCH  10  11
ENDBRANCH   9  10
ENDBRANCH   4   8
BRANCH   5  27
HETATM   27  N7  UNL     1      15.892 -12.918  19.598  1.00  0.00    -0.315 N 
HETATM   28  C25 UNL     1      16.600 -11.736  19.274  1.00  0.00     0.187 C 
HETATM   29  N8  UNL     1      17.612 -11.739  18.438  1.00  0.00    -0.373 N 
HETATM   30  N9  UNL     1      16.220 -10.503  19.847  1.00  0.00    -0.064 NA
ATOM     31  H82 UNL     1      17.886 -12.629  18.024  1.00  0.00     0.158 HD
ATOM     32  H81 UNL     1      18.122 -10.887  18.205  1.00  0.00     0.158 HD
ATOM     33  H7  UNL     1      14.998 -13.133  19.157  1.00  0.00     0.170 HD
ENDBRANCH   5  27
BRANCH   1  34
HETATM   34  C10 UNL     1      18.409 -13.444  23.502  1.00  0.00     0.148 C 
BRANCH  34  35
HETATM   35  C9  UNL     1      19.878 -13.326  23.327  1.00  0.00     0.022 C 
BRANCH  35  36
HETATM   36  C8  UNL     1      20.612 -12.668  24.466  1.00  0.00     0.008 C 
BRANCH  36  37
HETATM   37  C7  UNL     1      21.572 -13.633  25.127  1.00  0.00     0.057 C 
BRANCH  37  38
HETATM   38  C6  UNL     1      20.987 -14.899  25.536  1.00  0.00     0.010 A 
HETATM   39  N1  UNL     1      21.550 -16.056  25.081  1.00  0.00    -0.364 N 
HETATM   40  C1  UNL     1      22.687 -15.996  24.213  1.00  0.00     0.155 C 
HETATM   41  C2  UNL     1      21.060 -17.272  25.415  1.00  0.00     0.090 A 
HETATM   42  C3  UNL     1      19.960 -17.389  26.234  1.00  0.00     0.017 A 
HETATM   43  C4  UNL     1      19.366 -16.254  26.710  1.00  0.00     0.003 A 
HETATM   44  C5  UNL     1      19.888 -15.016  26.354  1.00  0.00     0.025 A 
ENDBRANCH  37  38
ENDBRANCH  36  37
ENDBRANCH  35  36
ENDBRANCH  34  35
ENDBRANCH   1  34
TORSDOF 14
ENDMDL
MODEL 3
REMARK VINA RESULT: -8.460872860      2.211      3.919
REMARK  14 active torsions:
REMARK  status: ('A' for Active; 'I' for Inactive)
REMARK    1  A    between atoms: C6_7  and  C7_8 
REMARK    2  A    between atoms: C7_8  and  C8_9 
REMARK    3  A    between atoms: C8_9  and  C9_10 
REMARK    4  A    between atoms: C9_10  and  C10_11 
REMARK    5  A    between atoms: C10_11  and  N2_12 
REMARK    6  A    between atoms: C13_15  and  C14_16 
REMARK    7  A    between atoms: C15_17  and  C16_18 
REMARK    8  A    between atoms: C16_18  and  C17_19 
REMARK    9  A    between atoms: C17_19  and  C18_20 
REMARK   10  A    between atoms: C18_20  and  C19_21 
REMARK   11  A    between atoms: C19_21  and  N3_22 
REMARK   12  A    between atoms: C21_24  and  O1_25 
REMARK   13  A    between atoms: C23_31  and  N6_32 
REMARK   14  A    between atoms: C24_35  and  N7_36 
REMARK       I    between atoms: N7_36  and  C25_38 
ROOT
HETATM    1  N2  UNL     1      17.469 -15.072  21.843  1.00  0.00    -0.302 N 
HETATM    2  C11 UNL     1      17.064 -16.269  21.465  1.00  0.00     0.111 A 
HETATM    3  C12 UNL     1      16.220 -16.539  20.416  1.00  0.00     0.034 A 
HETATM    4  C13 UNL     1      15.743 -15.465  19.681  1.00  0.00     0.010 A 
HETATM    5  C24 UNL     1      16.176 -14.196  20.083  1.00  0.00     0.132 A 
HETATM    6  N10 UNL     1      17.005 -14.036  21.127  1.00  0.00    -0.283 N 
ATOM      7  H10 UNL     1      17.293 -13.092  21.386  1.00  0.00     0.189 HD
ENDROOT
BRANCH   4   8
HETATM    8  C14 UNL     1      14.817 -15.629  18.596  1.00  0.00     0.011 C 
HETATM    9  C15 UNL     1      13.390 -15.832  18.726  1.00  0.00    -0.026 C 
BRANCH   9  10
HETATM   10  C16 UNL     1      12.431 -14.966  19.425  1.00  0.00     0.027 C 
BRANCH  10  11
HETATM   11  C17 UNL     1      12.486 -15.056  20.892  1.00  0.00     0.005 C 
BRANCH  11  12
HETATM   12  C18 UNL     1      13.088 -13.842  21.586  1.00  0.00     0.021 C 
BRANCH  12  13
HETATM   13  C19 UNL     1      12.662 -12.581  20.903  1.00  0.00     0.147 C 
BRANCH  13  14
HETATM   14  N3  UNL     1      12.435 -11.474  21.793  1.00  0.00    -0.188 N 
HETATM   15  C20 UNL     1      11.843 -11.589  22.993  1.00  0.00     0.166 A 
HETATM   16  C21 UNL     1      11.673 -10.444  23.787  1.00  0.00     0.173 A 
HETATM   17  N4  UNL     1      12.075  -9.230  23.401  1.00  0.00    -0.260 N 
HETATM   18  C22 UNL     1      11.901  -8.032  24.230  1.00  0.00     0.181 C 
HETATM   19  N5  UNL     1      12.658  -9.138  22.212  1.00  0.00    -0.128 N 
HETATM   20  C23 UNL     1      12.831 -10.227  21.433  1.00  0.00     0.692 A 
ATOM     21  H5  UNL     1      12.981  -8.229  21.881  1.00  0.00     0.206 HD
BRANCH  16  22
HETATM   22  O1  UNL     1      11.061 -10.581  25.025  1.00  0.00    -0.344 OA
ATOM     23  H1  UNL     1      10.407 -11.260  25.136  1.00  0.00     0.219 HD
ENDBRANCH  16  22
BRANCH  20  24
HETATM   24  N6  UNL     1      13.399 -10.121  20.281  1.00  0.00    -0.233 N 
ATOM     25  H62 UNL     1      13.373 -10.896  19.620  1.00  0.00     0.174 HD
ATOM     26  H61 UNL     1      13.860  -9.231  20.086  1.00  0.00     0.174 HD
ENDBRANCH  20  24
ENDBRANCH  13  14
ENDBRANCH  12  13
ENDBRANCH  11  12
ENDBRANCH  10  11
ENDBRANCH   9  10
ENDBRANCH   4   8
BRANCH   5  27
HETATM   27  N7  UNL     1      15.750 -13.174  19.393  1.00  0.00    -0.315 N 
HETATM   28  C25 UNL     1      16.550 -12.007  19.376  1.00  0.00     0.187 C 
HETATM   29  N8  UNL     1      17.602 -11.896  18.599  1.00  0.00    -0.373 N 
HETATM   30  N9  UNL     1      16.222 -10.911  20.203  1.00  0.00    -0.064 NA
ATOM     31  H82 UNL     1      17.839 -12.688  18.002  1.00  0.00     0.158 HD
ATOM     32  H81 UNL     1      18.178 -11.055  18.587  1.00  0.00     0.158 HD
ATOM     33  H7  UNL     1      14.869 -13.215  18.882  1.00  0.00     0.170 HD
ENDBRANCH   5  27
BRANCH   1  34
HETATM   34  C10 UNL     1      18.330 -14.776  22.948  1.00  0.00     0.148 C 
BRANCH  34  35
HETATM   35  C9  UNL     1      19.305 -15.832  23.317  1.00  0.00     0.022 C 
BRANCH  35  36
HETATM   36  C8  UNL     1      20.624 -15.774  22.590  1.00  0.00     0.008 C 
BRANCH  36  37
HETATM   37  C7  UNL     1      21.768 -15.540  23.553  1.00  0.00     0.057 C 
BRANCH  37  38
HETATM   38  C6  UNL     1      21.509 -14.554  24.587  1.00  0.00     0.010 A 
HETATM   39  N1  UNL     1      21.455 -14.968  25.886  1.00  0.00    -0.364 N 
HETATM   40  C1  UNL     1      21.643 -16.353  26.195  1.00  0.00     0.155 C 
HETATM   41  C2  UNL     1      21.214 -14.109  26.905  1.00  0.00     0.090 A 
HETATM   42  C3  UNL     1      21.011 -12.770  26.664  1.00  0.00     0.017 A 
HETATM   43  C4  UNL     1      21.056 -12.314  25.377  1.00  0.00     0.003 A 
HETATM   44  C5  UNL     1      21.305 -13.215  24.348  1.00  0.00     0.025 A 
ENDBRANCH  37  38
ENDBRANCH  36  37
ENDBRANCH  35  36
ENDBRANCH  34  35
ENDBRANCH   1  34
TORSDOF 14
ENDMDL
MODEL 4
REMARK VINA RESULT: -8.460031526      1.470      2.795
REMARK  14 active torsions:
REMARK  status: ('A' for Active; 'I' for Inactive)
REMARK    1  A    between atoms: C6_7  and  C7_8 
REMARK    2  A    between atoms: C7_8  and  C8_9 
REMARK    3  A    between atoms: C8_9  and  C9_10 
REMARK    4  A    between atoms: C9_10  and  C10_11 
REMARK    5  A    between atoms: C10_11  and  N2_12 
REMARK    6  A    between atoms: C13_15  and  C14_16 
REMARK    7  A    between atoms: C15_17  and  C16_18 
REMARK    8  A    between atoms: C16_18  and  C17_19 
REMARK    9  A    between atoms: C17_19  and  C18_20 
REMARK   10  A    between atoms: C18_20  and  C19_21 
REMARK   11  A    between atoms: C19_21  and  N3_22 
REMARK   12  A    between atoms: C21_24  and  O1_25 
REMARK   13  A    between atoms: C23_31  and  N6_32 
REMARK   14  A    between atoms: C24_35  and  N7_36 
REMARK       I    between atoms: N7_36  and  C25_38 
ROOT
HETATM    1  N2  UNL     1      20.012 -13.890  22.727  1.00  0.00    -0.302 N 
HETATM    2  C11 UNL     1      18.711 -13.667  22.702  1.00  0.00     0.111 A 
HETATM    3  C12 UNL     1      17.758 -14.523  22.209  1.00  0.00     0.034 A 
HETATM    4  C13 UNL     1      18.187 -15.734  21.687  1.00  0.00     0.010 A 
HETATM    5  C24 UNL     1      19.568 -15.968  21.717  1.00  0.00     0.132 A 
HETATM    6  N10 UNL     1      20.423 -15.063  22.222  1.00  0.00    -0.283 N 
ATOM      7  H10 UNL     1      21.421 -15.275  22.221  1.00  0.00     0.189 HD
ENDROOT
BRANCH   4   8
HETATM    8  C14 UNL     1      17.283 -16.680  21.101  1.00  0.00     0.011 C 
HETATM    9  C15 UNL     1      15.981 -16.374  20.547  1.00  0.00    -0.026 C 
BRANCH   9  10
HETATM   10  C16 UNL     1      15.674 -15.410  19.483  1.00  0.00     0.027 C 
BRANCH  10  11
HETATM   11  C17 UNL     1      14.488 -14.578  19.739  1.00  0.00     0.005 C 
BRANCH  11  12
HETATM   12  C18 UNL     1      14.749 -13.330  20.573  1.00  0.00     0.021 C 
BRANCH  12  13
HETATM   13  C19 UNL     1      13.913 -12.189  20.087  1.00  0.00     0.147 C 
BRANCH  13  14
HETATM   14  N3  UNL     1      13.264 -11.443  21.133  1.00  0.00    -0.188 N 
HETATM   15  C20 UNL     1      12.266 -11.929  21.888  1.00  0.00     0.166 A 
HETATM   16  C21 UNL     1      11.704 -11.118  22.886  1.00  0.00     0.173 A 
HETATM   17  N4  UNL     1      12.119  -9.871  23.124  1.00  0.00    -0.260 N 
HETATM   18  C22 UNL     1      11.535  -9.021  24.168  1.00  0.00     0.181 C 
HETATM   19  N5  UNL     1      13.107  -9.410  22.365  1.00  0.00    -0.128 N 
HETATM   20  C23 UNL     1      13.661 -10.173  21.400  1.00  0.00     0.692 A 
ATOM     21  H5  UNL     1      13.454  -8.462  22.516  1.00  0.00     0.206 HD
BRANCH  16  22
HETATM   22  O1  UNL     1      10.674 -11.636  23.659  1.00  0.00    -0.344 OA
ATOM     23  H1  UNL     1      10.786 -11.668  24.602  1.00  0.00     0.219 HD
ENDBRANCH  16  22
BRANCH  20  24
HETATM   24  N6  UNL     1      14.620  -9.711  20.674  1.00  0.00    -0.233 N 
ATOM     25  H62 UNL     1      14.417  -9.114  19.872  1.00  0.00     0.174 HD
ATOM     26  H61 UNL     1      15.565  -9.974  20.954  1.00  0.00     0.174 HD
ENDBRANCH  20  24
ENDBRANCH  13  14
ENDBRANCH  12  13
ENDBRANCH  11  12
ENDBRANCH  10  11
ENDBRANCH   9  10
ENDBRANCH   4   8
BRANCH   5  27
HETATM   27  N7  UNL     1      19.990 -17.108  21.244  1.00  0.00    -0.315 N 
HETATM   28  C25 UNL     1      21.378 -17.375  21.300  1.00  0.00     0.187 C 
HETATM   29  N8  UNL     1      21.963 -17.791  22.400  1.00  0.00    -0.373 N 
HETATM   30  N9  UNL     1      22.179 -17.207  20.150  1.00  0.00    -0.064 NA
ATOM     31  H82 UNL     1      21.384 -17.912  23.230  1.00  0.00     0.158 HD
ATOM     32  H81 UNL     1      22.964 -17.983  22.440  1.00  0.00     0.158 HD
ATOM     33  H7  UNL     1      19.339 -17.785  20.848  1.00  0.00     0.170 HD
ENDBRANCH   5  27
BRANCH   1  34
HETATM   34  C10 UNL     1      21.017 -12.996  23.218  1.00  0.00     0.148 C 
BRANCH  34  35
HETATM   35  C9  UNL     1      21.684 -13.394  24.483  1.00  0.00     0.022 C 
BRANCH  35  36
HETATM   36  C8  UNL     1      20.972 -12.979  25.744  1.00  0.00     0.008 C 
BRANCH  36  37
HETATM   37  C7  UNL     1      20.814 -14.148  26.692  1.00  0.00     0.057 C 
BRANCH  37  38
HETATM   38  C6  UNL     1      20.107 -15.293  26.144  1.00  0.00     0.010 A 
HETATM   39  N1  UNL     1      20.808 -16.438  25.900  1.00  0.00    -0.364 N 
HETATM   40  C1  UNL     1      22.211 -16.481  26.179  1.00  0.00     0.155 C 
HETATM   41  C2  UNL     1      20.221 -17.544  25.386  1.00  0.00     0.090 A 
HETATM   42  C3  UNL     1      18.879 -17.554  25.085  1.00  0.00     0.017 A 
HETATM   43  C4  UNL     1      18.141 -16.427  25.312  1.00  0.00     0.003 A 
HETATM   44  C5  UNL     1      18.765 -15.304  25.842  1.00  0.00     0.025 A 
ENDBRANCH  37  38
ENDBRANCH  36  37
ENDBRANCH  35  36
ENDBRANCH  34  35
ENDBRANCH   1  34
TORSDOF 14
ENDMDL
MODEL 5
REMARK VINA RESULT: -8.430300122      2.546      5.064
REMARK  14 active torsions:
REMARK  status: ('A' for Active; 'I' for Inactive)
REMARK    1  A    between atoms: C6_7  and  C7_8 
REMARK    2  A    between atoms: C7_8  and  C8_9 
REMARK    3  A    between atoms: C8_9  and  C9_10 
REMARK    4  A    between atoms: C9_10  and  C10_11 
REMARK    5  A    between atoms: C10_11  and  N2_12 
REMARK    6  A    between atoms: C13_15  and  C14_16 
REMARK    7  A    between atoms: C15_17  and  C16_18 
REMARK    8  A    between atoms: C16_18  and  C17_19 
REMARK    9  A    between atoms: C17_19  and  C18_20 
REMARK   10  A    between atoms: C18_20  and  C19_21 
REMARK   11  A    between atoms: C19_21  and  N3_22 
REMARK   12  A    between atoms: C21_24  and  O1_25 
REMARK   13  A    between atoms: C23_31  and  N6_32 
REMARK   14  A    between atoms: C24_35  and  N7_36 
REMARK       I    between atoms: N7_36  and  C25_38 
ROOT
HETATM    1  N2  UNL     1      18.305 -15.946  23.820  1.00  0.00    -0.302 N 
HETATM    2  C11 UNL     1      18.233 -15.996  22.503  1.00  0.00     0.111 A 
HETATM    3  C12 UNL     1      18.763 -15.075  21.633  1.00  0.00     0.034 A 
HETATM    4  C13 UNL     1      19.435 -13.990  22.175  1.00  0.00     0.010 A 
HETATM    5  C24 UNL     1      19.511 -13.941  23.573  1.00  0.00     0.132 A 
HETATM    6  N10 UNL     1      18.957 -14.895  24.339  1.00  0.00    -0.283 N 
ATOM      7  H10 UNL     1      19.035 -14.817  25.354  1.00  0.00     0.189 HD
ENDROOT
BRANCH   4   8
HETATM    8  C14 UNL     1      19.984 -12.943  21.361  1.00  0.00     0.011 C 
HETATM    9  C15 UNL     1      19.298 -12.265  20.281  1.00  0.00    -0.026 C 
BRANCH   9  10
HETATM   10  C16 UNL     1      18.019 -11.548  20.355  1.00  0.00     0.027 C 
BRANCH  10  11
HETATM   11  C17 UNL     1      16.881 -12.269  19.763  1.00  0.00     0.005 C 
BRANCH  11  12
HETATM   12  C18 UNL     1      15.715 -12.513  20.711  1.00  0.00     0.021 C 
BRANCH  12  13
HETATM   13  C19 UNL     1      14.466 -11.886  20.178  1.00  0.00     0.147 C 
BRANCH  13  14
HETATM   14  N3  UNL     1      13.641 -11.265  21.181  1.00  0.00    -0.188 N 
HETATM   15  C20 UNL     1      12.685 -11.911  21.867  1.00  0.00     0.166 A 
HETATM   16  C21 UNL     1      11.938 -11.212  22.828  1.00  0.00     0.173 A 
HETATM   17  N4  UNL     1      12.135  -9.918  23.096  1.00  0.00    -0.260 N 
HETATM   18  C22 UNL     1      11.358  -9.185  24.102  1.00  0.00     0.181 C 
HETATM   19  N5  UNL     1      13.086  -9.298  22.406  1.00  0.00    -0.128 N 
HETATM   20  C23 UNL     1      13.814  -9.952  21.477  1.00  0.00     0.692 A 
ATOM     21  H5  UNL     1      13.268  -8.310  22.582  1.00  0.00     0.206 HD
BRANCH  16  22
HETATM   22  O1  UNL     1      10.955 -11.895  23.529  1.00  0.00    -0.344 OA
ATOM     23  H1  UNL     1      10.157 -12.137  23.074  1.00  0.00     0.219 HD
ENDBRANCH  16  22
BRANCH  20  24
HETATM   24  N6  UNL     1      14.734  -9.336  20.818  1.00  0.00    -0.233 N 
ATOM     25  H62 UNL     1      14.507  -8.846  19.953  1.00  0.00     0.174 HD
ATOM     26  H61 UNL     1      15.673  -9.369  21.214  1.00  0.00     0.174 HD
ENDBRANCH  20  24
ENDBRANCH  13  14
ENDBRANCH  12  13
ENDBRANCH  11  12
ENDBRANCH  10  11
ENDBRANCH   9  10
ENDBRANCH   4   8
BRANCH   5  27
HETATM   27  N7  UNL     1      20.153 -12.936  24.100  1.00  0.00    -0.315 N 
HETATM   28  C25 UNL     1      21.134 -13.217  25.080  1.00  0.00     0.187 C 
HETATM   29  N8  UNL     1      22.342 -13.620  24.759  1.00  0.00    -0.373 N 
HETATM   30  N9  UNL     1      20.834 -13.059  26.450  1.00  0.00    -0.064 NA
ATOM     31  H82 UNL     1      22.559 -13.734  23.769  1.00  0.00     0.158 HD
ATOM     32  H81 UNL     1      23.049 -13.823  25.465  1.00  0.00     0.158 HD
ATOM     33  H7  UNL     1      19.954 -11.977  23.816  1.00  0.00     0.170 HD
ENDBRANCH   5  27
BRANCH   1  34
HETATM   34  C10 UNL     1      17.738 -16.887  24.737  1.00  0.00     0.148 C 
BRANCH  34  35
HETATM   35  C9  UNL     1      17.230 -18.151  24.146  1.00  0.00     0.022 C 
BRANCH  35  36
HETATM   36  C8  UNL     1      15.742 -18.203  23.918  1.00  0.00     0.008 C 
BRANCH  36  37
HETATM   37  C7  UNL     1      15.422 -18.480  22.465  1.00  0.00     0.057 C 
BRANCH  37  38
HETATM   38  C6  UNL     1      14.418 -17.608  21.880  1.00  0.00     0.010 A 
HETATM   39  N1  UNL     1      13.318 -18.174  21.304  1.00  0.00    -0.364 N 
HETATM   40  C1  UNL     1      13.186 -19.599  21.282  1.00  0.00     0.155 C 
HETATM   41  C2  UNL     1      12.342 -17.429  20.734  1.00  0.00     0.090 A 
HETATM   42  C3  UNL     1      12.425 -16.056  20.713  1.00  0.00     0.017 A 
HETATM   43  C4  UNL     1      13.512 -15.450  21.278  1.00  0.00     0.003 A 
HETATM   44  C5  UNL     1      14.501 -16.236  21.858  1.00  0.00     0.025 A 
ENDBRANCH  37  38
ENDBRANCH  36  37
ENDBRANCH  35  36
ENDBRANCH  34  35
ENDBRANCH   1  34
TORSDOF 14
ENDMDL
