MODEL 1
REMARK VINA RESULT: -8.659969915      0.000      0.000
REMARK  14 active torsions:
REMARK  status: ('A' for Active; 'I' for Inactive)
REMARK    1  A    between atoms: C5_8  and  C6_9 
REMARK    2  A    between atoms: N2_10  and  N3_12 
REMARK    3  A    between atoms: N5_19  and  C9_20 
REMARK    4  A    between atoms: C9_20  and  C10_21 
REMARK    5  A    between atoms: C10_21  and  C11_22 
REMARK    6  A    between atoms: C11_22  and  C12_23 
REMARK    7  A    between atoms: C12_23  and  N8_29 
REMARK    8  A    between atoms: N6_24  and  N7_26 
REMARK    9  A    between atoms: N8_29  and  C14_31 
REMARK   10  A    between atoms: N8_29  and  C17_38 
REMARK   11  A    between atoms: C14_31  and  C15_32 
REMARK   12  A    between atoms: C15_32  and  C16_33 
REMARK   13  A    between atoms: C16_33  and  N9_34 
REMARK   14  A    between atoms: C17_38  and  C18_39 
ROOT
HETATM    1  C10 UNL     1      17.745 -11.584  20.029  1.00  0.00     0.052 C 
ENDROOT
BRANCH   1   2
HETATM    2  C9  UNL     1      16.572 -12.311  19.404  1.00  0.00     0.071 C 
BRANCH   2   3
HETATM    3  N5  UNL     1      15.330 -12.197  20.053  1.00  0.00    -0.321 N 
HETATM    4  C8  UNL     1      14.997 -11.001  20.681  1.00  0.00     0.099 A 
HETATM    5  C7  UNL     1      13.947 -10.801  21.493  1.00  0.00     0.033 A 
HETATM    6  C5  UNL     1      13.115 -11.852  21.744  1.00  0.00     0.013 A 
HETATM    7  C4  UNL     1      13.384 -13.058  21.157  1.00  0.00     0.092 A 
HETATM    8  N1  UNL     1      12.550 -14.074  21.393  1.00  0.00    -0.318 N 
HETATM    9  C24 UNL     1      14.506 -13.216  20.298  1.00  0.00     0.141 A 
HETATM   10  C3  UNL     1      12.738 -15.258  20.839  1.00  0.00     0.268 A 
ATOM     11  H1  UNL     1      11.753 -13.934  22.014  1.00  0.00     0.169 HD
HETATM   12  C2  UNL     1      13.814 -15.416  20.008  1.00  0.00     0.077 A 
HETATM   13  O1  UNL     1      11.989 -16.257  21.025  1.00  0.00    -0.266 OA
HETATM   14  C1  UNL     1      14.068 -16.754  19.370  1.00  0.00     0.074 C 
HETATM   15  N10 UNL     1      14.710 -14.416  19.718  1.00  0.00    -0.334 N 
HETATM   16  C25 UNL     1      15.722 -14.595  18.755  1.00  0.00     0.158 C 
BRANCH   6  17
HETATM   17  C6  UNL     1      11.962 -11.651  22.638  1.00  0.00     0.122 C 
HETATM   18  N2  UNL     1      11.997 -10.708  23.518  1.00  0.00    -0.297 N 
ATOM     19  H2  UNL     1      12.822 -10.113  23.585  1.00  0.00     0.187 HD
BRANCH  18  20
HETATM   20  N3  UNL     1      10.910 -10.491  24.388  1.00  0.00    -0.250 N 
HETATM   21  N4  UNL     1      10.918 -10.986  25.546  1.00  0.00    -0.331 N 
ATOM     22  H42 UNL     1      11.720 -11.543  25.839  1.00  0.00     0.178 HD
ATOM     23  H41 UNL     1      10.131 -10.828  26.176  1.00  0.00     0.178 HD
ATOM     24  H3  UNL     1      10.116  -9.930  24.079  1.00  0.00     0.207 HD
ENDBRANCH  18  20
ENDBRANCH   6  17
ENDBRANCH   2   3
ENDBRANCH   1   2
BRANCH   1  25
HETATM   25  C11 UNL     1      18.261 -11.975  21.327  1.00  0.00     0.091 C 
BRANCH  25  26
HETATM   26  C12 UNL     1      19.142 -13.165  21.391  1.00  0.00     0.198 C 
HETATM   27  N6  UNL     1      20.220 -13.123  20.639  1.00  0.00    -0.289 N 
ATOM     28  H6  UNL     1      20.873 -13.906  20.632  1.00  0.00     0.187 HD
BRANCH  27  29
HETATM   29  N7  UNL     1      20.461 -12.004  19.855  1.00  0.00    -0.344 N 
ATOM     30  H72 UNL     1      20.336 -12.065  18.845  1.00  0.00     0.176 HD
ATOM     31  H71 UNL     1      20.760 -11.136  20.301  1.00  0.00     0.176 HD
ENDBRANCH  27  29
BRANCH  26  32
HETATM   32  N8  UNL     1      18.911 -14.322  22.190  1.00  0.00    -0.025 N 
HETATM   33  C13 UNL     1      20.195 -14.978  22.372  1.00  0.00     0.281 C 
BRANCH  32  34
HETATM   34  C14 UNL     1      18.068 -15.225  21.488  1.00  0.00     0.247 C 
BRANCH  34  35
HETATM   35  C15 UNL     1      18.007 -16.606  22.104  1.00  0.00     0.055 C 
BRANCH  35  36
HETATM   36  C16 UNL     1      16.559 -17.096  21.979  1.00  0.00     0.231 C 
BRANCH  36  37
HETATM   37  N9  UNL     1      15.744 -16.394  22.942  1.00  0.00    -0.079 N 
ATOM     38  H93 UNL     1      16.232 -16.238  23.825  1.00  0.00     0.274 HD
ATOM     39  H92 UNL     1      15.594 -15.418  22.688  1.00  0.00     0.274 HD
ATOM     40  H91 UNL     1      14.869 -16.903  23.067  1.00  0.00     0.274 HD
ENDBRANCH  36  37
ENDBRANCH  35  36
ENDBRANCH  34  35
ENDBRANCH  32  34
BRANCH  32  41
HETATM   41  C17 UNL     1      18.352 -13.875  23.449  1.00  0.00     0.283 C 
BRANCH  41  42
HETATM   42  C18 UNL     1      19.323 -13.724  24.531  1.00  0.00    -0.032 A 
HETATM   43  C19 UNL     1      19.334 -14.624  25.569  1.00  0.00     0.009 A 
HETATM   44  C20 UNL     1      20.204 -14.575  26.631  1.00  0.00     0.001 A 
HETATM   45  C21 UNL     1      21.116 -13.551  26.632  1.00  0.00     0.000 A 
HETATM   46  C22 UNL     1      21.130 -12.633  25.602  1.00  0.00     0.001 A 
HETATM   47  C23 UNL     1      20.243 -12.710  24.553  1.00  0.00     0.009 A 
ENDBRANCH  41  42
ENDBRANCH  32  41
ENDBRANCH  26  32
ENDBRANCH  25  26
ENDBRANCH   1  25
TORSDOF 14
ENDMDL
MODEL 2
REMARK VINA RESULT: -8.357349724      1.625      3.576
REMARK  14 active torsions:
REMARK  status: ('A' for Active; 'I' for Inactive)
REMARK    1  A    between atoms: C5_8  and  C6_9 
REMARK    2  A    between atoms: N2_10  and  N3_12 
REMARK    3  A    between atoms: N5_19  and  C9_20 
REMARK    4  A    between atoms: C9_20  and  C10_21 
REMARK    5  A    between atoms: C10_21  and  C11_22 
REMARK    6  A    between atoms: C11_22  and  C12_23 
REMARK    7  A    between atoms: C12_23  and  N8_29 
REMARK    8  A    between atoms: N6_24  and  N7_26 
REMARK    9  A    between atoms: N8_29  and  C14_31 
REMARK   10  A    between atoms: N8_29  and  C17_38 
REMARK   11  A    between atoms: C14_31  and  C15_32 
REMARK   12  A    between atoms: C15_32  and  C16_33 
REMARK   13  A    between atoms: C16_33  and  N9_34 
REMARK   14  A    between atoms: C17_38  and  C18_39 
ROOT
HETATM    1  C10 UNL     1      17.593 -11.902  19.614  1.00  0.00     0.052 C 
ENDROOT
BRANCH   1   2
HETATM    2  C9  UNL     1      16.101 -11.695  19.445  1.00  0.00     0.071 C 
BRANCH   2   3
HETATM    3  N5  UNL     1      15.254 -12.664  20.010  1.00  0.00    -0.321 N 
HETATM    4  C8  UNL     1      15.380 -13.992  19.613  1.00  0.00     0.099 A 
HETATM    5  C7  UNL     1      14.533 -14.990  19.913  1.00  0.00     0.033 A 
HETATM    6  C5  UNL     1      13.439 -14.700  20.676  1.00  0.00     0.013 A 
HETATM    7  C4  UNL     1      13.256 -13.414  21.101  1.00  0.00     0.092 A 
HETATM    8  N1  UNL     1      12.192 -13.147  21.864  1.00  0.00    -0.318 N 
HETATM    9  C24 UNL     1      14.187 -12.395  20.761  1.00  0.00     0.141 A 
HETATM   10  C3  UNL     1      11.970 -11.932  22.329  1.00  0.00     0.268 A 
ATOM     11  H1  UNL     1      11.540 -13.898  22.093  1.00  0.00     0.169 HD
HETATM   12  C2  UNL     1      12.864 -10.946  22.009  1.00  0.00     0.077 A 
HETATM   13  O1  UNL     1      10.983 -11.616  23.051  1.00  0.00    -0.266 OA
HETATM   14  C1  UNL     1      12.635  -9.546  22.508  1.00  0.00     0.074 C 
HETATM   15  N10 UNL     1      13.979 -11.147  21.232  1.00  0.00    -0.334 N 
HETATM   16  C25 UNL     1      14.934 -10.130  21.043  1.00  0.00     0.158 C 
BRANCH   6  17
HETATM   17  C6  UNL     1      12.497 -15.783  21.009  1.00  0.00     0.122 C 
HETATM   18  N2  UNL     1      12.579 -16.910  20.388  1.00  0.00    -0.297 N 
ATOM     19  H2  UNL     1      13.296 -17.041  19.674  1.00  0.00     0.187 HD
BRANCH  18  20
HETATM   20  N3  UNL     1      11.692 -17.965  20.683  1.00  0.00    -0.250 N 
HETATM   21  N4  UNL     1      12.117 -19.013  21.238  1.00  0.00    -0.331 N 
ATOM     22  H42 UNL     1      13.108 -19.082  21.467  1.00  0.00     0.178 HD
ATOM     23  H41 UNL     1      11.475 -19.775  21.451  1.00  0.00     0.178 HD
ATOM     24  H3  UNL     1      10.703 -17.879  20.448  1.00  0.00     0.207 HD
ENDBRANCH  18  20
ENDBRANCH   6  17
ENDBRANCH   2   3
ENDBRANCH   1   2
BRANCH   1  25
HETATM   25  C11 UNL     1      18.206 -11.887  20.927  1.00  0.00     0.091 C 
BRANCH  25  26
HETATM   26  C12 UNL     1      19.185 -12.954  21.246  1.00  0.00     0.198 C 
HETATM   27  N6  UNL     1      20.372 -12.827  20.697  1.00  0.00    -0.289 N 
ATOM     28  H6  UNL     1      21.096 -13.524  20.871  1.00  0.00     0.187 HD
BRANCH  27  29
HETATM   29  N7  UNL     1      20.631 -11.739  19.877  1.00  0.00    -0.344 N 
ATOM     30  H72 UNL     1      20.034 -11.570  19.067  1.00  0.00     0.176 HD
ATOM     31  H71 UNL     1      21.414 -11.123  20.095  1.00  0.00     0.176 HD
ENDBRANCH  27  29
BRANCH  26  32
HETATM   32  N8  UNL     1      18.936 -14.078  22.087  1.00  0.00    -0.025 N 
HETATM   33  C13 UNL     1      20.213 -14.739  22.303  1.00  0.00     0.281 C 
BRANCH  32  34
HETATM   34  C14 UNL     1      18.090 -14.999  21.412  1.00  0.00     0.247 C 
BRANCH  34  35
HETATM   35  C15 UNL     1      18.106 -16.390  22.009  1.00  0.00     0.055 C 
BRANCH  35  36
HETATM   36  C16 UNL     1      16.661 -16.737  22.389  1.00  0.00     0.231 C 
BRANCH  36  37
HETATM   37  N9  UNL     1      16.535 -16.701  23.827  1.00  0.00    -0.079 N 
ATOM     38  H93 UNL     1      17.376 -17.033  24.301  1.00  0.00     0.274 HD
ATOM     39  H92 UNL     1      16.533 -15.749  24.194  1.00  0.00     0.274 HD
ATOM     40  H91 UNL     1      15.703 -17.224  24.099  1.00  0.00     0.274 HD
ENDBRANCH  36  37
ENDBRANCH  35  36
ENDBRANCH  34  35
ENDBRANCH  32  34
BRANCH  32  41
HETATM   41  C17 UNL     1      18.372 -13.579  23.324  1.00  0.00     0.283 C 
BRANCH  41  42
HETATM   42  C18 UNL     1      19.260 -13.669  24.481  1.00  0.00    -0.032 A 
HETATM   43  C19 UNL     1      20.258 -12.740  24.652  1.00  0.00     0.009 A 
HETATM   44  C20 UNL     1      21.141 -12.733  25.703  1.00  0.00     0.001 A 
HETATM   45  C21 UNL     1      20.998 -13.729  26.635  1.00  0.00     0.000 A 
HETATM   46  C22 UNL     1      20.004 -14.676  26.490  1.00  0.00     0.001 A 
HETATM   47  C23 UNL     1      19.135 -14.655  25.424  1.00  0.00     0.009 A 
ENDBRANCH  41  42
ENDBRANCH  32  41
ENDBRANCH  26  32
ENDBRANCH  25  26
ENDBRANCH   1  25
TORSDOF 14
ENDMDL
MODEL 3
REMARK VINA RESULT: -8.243017212      2.472      4.675
REMARK  14 active torsions:
REMARK  status: ('A' for Active; 'I' for Inactive)
REMARK    1  A    between atoms: C5_8  and  C6_9 
REMARK    2  A    between atoms: N2_10  and  N3_12 
REMARK    3  A    between atoms: N5_19  and  C9_20 
REMARK    4  A    between atoms: C9_20  and  C10_21 
REMARK    5  A    between atoms: C10_21  and  C11_22 
REMARK    6  A    between atoms: C11_22  and  C12_23 
REMARK    7  A    between atoms: C12_23  and  N8_29 
REMARK    8  A    between atoms: N6_24  and  N7_26 
REMARK    9  A    between atoms: N8_29  and  C14_31 
REMARK   10  A    between atoms: N8_29  and  C17_38 
REMARK   11  A    between atoms: C14_31  and  C15_32 
REMARK   12  A    between atoms: C15_32  and  C16_33 
REMARK   13  A    between atoms: C16_33  and  N9_34 
REMARK   14  A    between atoms: C17_38  and  C18_39 
ROOT
HETATM    1  C10 UNL     1      17.038 -17.882  22.169  1.00  0.00     0.052 C 
ENDROOT
BRANCH   1   2
HETATM    2  C9  UNL     1      17.193 -16.592  21.387  1.00  0.00     0.071 C 
BRANCH   2   3
HETATM    3  N5  UNL     1      16.195 -15.617  21.559  1.00  0.00    -0.321 N 
HETATM    4  C8  UNL     1      14.910 -16.014  21.915  1.00  0.00     0.099 A 
HETATM    5  C7  UNL     1      13.818 -15.233  21.932  1.00  0.00     0.033 A 
HETATM    6  C5  UNL     1      13.954 -13.925  21.569  1.00  0.00     0.013 A 
HETATM    7  C4  UNL     1      15.192 -13.469  21.209  1.00  0.00     0.092 A 
HETATM    8  N1  UNL     1      15.316 -12.181  20.875  1.00  0.00    -0.318 N 
HETATM    9  C24 UNL     1      16.318 -14.336  21.214  1.00  0.00     0.141 A 
HETATM   10  C3  UNL     1      16.487 -11.670  20.541  1.00  0.00     0.268 A 
ATOM     11  H1  UNL     1      14.491 -11.581  20.879  1.00  0.00     0.169 HD
HETATM   12  C2  UNL     1      17.577 -12.498  20.548  1.00  0.00     0.077 A 
HETATM   13  O1  UNL     1      16.669 -10.464  20.214  1.00  0.00    -0.266 OA
HETATM   14  C1  UNL     1      18.924 -11.954  20.159  1.00  0.00     0.074 C 
HETATM   15  N10 UNL     1      17.524 -13.830  20.882  1.00  0.00    -0.334 N 
HETATM   16  C25 UNL     1      18.695 -14.603  21.001  1.00  0.00     0.158 C 
BRANCH   6  17
HETATM   17  C6  UNL     1      12.765 -13.057  21.576  1.00  0.00     0.122 C 
HETATM   18  N2  UNL     1      12.403 -12.483  22.674  1.00  0.00    -0.297 N 
ATOM     19  H2  UNL     1      12.945 -12.637  23.524  1.00  0.00     0.187 HD
BRANCH  18  20
HETATM   20  N3  UNL     1      11.269 -11.648  22.713  1.00  0.00    -0.250 N 
HETATM   21  N4  UNL     1      10.558 -11.595  23.751  1.00  0.00    -0.331 N 
ATOM     22  H42 UNL     1      10.817 -12.165  24.556  1.00  0.00     0.178 HD
ATOM     23  H41 UNL     1       9.737 -10.990  23.780  1.00  0.00     0.178 HD
ATOM     24  H3  UNL     1      11.024 -11.083  21.900  1.00  0.00     0.207 HD
ENDBRANCH  18  20
ENDBRANCH   6  17
ENDBRANCH   2   3
ENDBRANCH   1   2
BRANCH   1  25
HETATM   25  C11 UNL     1      18.179 -18.513  22.803  1.00  0.00     0.091 C 
BRANCH  25  26
HETATM   26  C12 UNL     1      18.559 -18.051  24.159  1.00  0.00     0.198 C 
HETATM   27  N6  UNL     1      17.968 -18.662  25.161  1.00  0.00    -0.289 N 
ATOM     28  H6  UNL     1      18.180 -18.397  26.123  1.00  0.00     0.187 HD
BRANCH  27  29
HETATM   29  N7  UNL     1      17.051 -19.670  24.900  1.00  0.00    -0.344 N 
ATOM     30  H72 UNL     1      16.129 -19.425  24.537  1.00  0.00     0.176 HD
ATOM     31  H71 UNL     1      17.312 -20.641  25.073  1.00  0.00     0.176 HD
ENDBRANCH  27  29
BRANCH  26  32
HETATM   32  N8  UNL     1      19.499 -17.019  24.446  1.00  0.00    -0.025 N 
HETATM   33  C13 UNL     1      20.335 -16.863  23.266  1.00  0.00     0.281 C 
BRANCH  32  34
HETATM   34  C14 UNL     1      20.343 -17.425  25.514  1.00  0.00     0.247 C 
BRANCH  34  35
HETATM   35  C15 UNL     1      21.769 -17.706  25.091  1.00  0.00     0.055 C 
BRANCH  35  36
HETATM   36  C16 UNL     1      22.685 -16.908  26.027  1.00  0.00     0.231 C 
BRANCH  36  37
HETATM   37  N9  UNL     1      23.128 -15.716  25.343  1.00  0.00    -0.079 N 
ATOM     38  H93 UNL     1      22.377 -15.264  24.820  1.00  0.00     0.274 HD
ATOM     39  H92 UNL     1      23.332 -14.951  25.987  1.00  0.00     0.274 HD
ATOM     40  H91 UNL     1      23.926 -15.951  24.753  1.00  0.00     0.274 HD
ENDBRANCH  36  37
ENDBRANCH  35  36
ENDBRANCH  34  35
ENDBRANCH  32  34
BRANCH  32  41
HETATM   41  C17 UNL     1      18.747 -15.815  24.734  1.00  0.00     0.283 C 
BRANCH  41  42
HETATM   42  C18 UNL     1      19.548 -14.695  25.222  1.00  0.00    -0.032 A 
HETATM   43  C19 UNL     1      19.940 -13.705  24.354  1.00  0.00     0.009 A 
HETATM   44  C20 UNL     1      20.690 -12.611  24.710  1.00  0.00     0.001 A 
HETATM   45  C21 UNL     1      21.059 -12.520  26.028  1.00  0.00     0.000 A 
HETATM   46  C22 UNL     1      20.678 -13.498  26.924  1.00  0.00     0.001 A 
HETATM   47  C23 UNL     1      19.927 -14.583  26.534  1.00  0.00     0.009 A 
ENDBRANCH  41  42
ENDBRANCH  32  41
ENDBRANCH  26  32
ENDBRANCH  25  26
ENDBRANCH   1  25
TORSDOF 14
ENDMDL
MODEL 4
REMARK VINA RESULT: -8.190581698      2.111      3.355
REMARK  14 active torsions:
REMARK  status: ('A' for Active; 'I' for Inactive)
REMARK    1  A    between atoms: C5_8  and  C6_9 
REMARK    2  A    between atoms: N2_10  and  N3_12 
REMARK    3  A    between atoms: N5_19  and  C9_20 
REMARK    4  A    between atoms: C9_20  and  C10_21 
REMARK    5  A    between atoms: C10_21  and  C11_22 
REMARK    6  A    between atoms: C11_22  and  C12_23 
REMARK    7  A    between atoms: C12_23  and  N8_29 
REMARK    8  A    between atoms: N6_24  and  N7_26 
REMARK    9  A    between atoms: N8_29  and  C14_31 
REMARK   10  A    between atoms: N8_29  and  C17_38 
REMARK   11  A    between atoms: C14_31  and  C15_32 
REMARK   12  A    between atoms: C15_32  and  C16_33 
REMARK   13  A    between atoms: C16_33  and  N9_34 
REMARK   14  A    between atoms: C17_38  and  C18_39 
ROOT
HETATM    1  C10 UNL     1      17.930 -15.203  21.974  1.00  0.00     0.052 C 
ENDROOT
BRANCH   1   2
HETATM    2  C9  UNL     1      17.182 -14.876  20.697  1.00  0.00     0.071 C 
BRANCH   2   3
HETATM    3  N5  UNL     1      15.935 -14.240  20.833  1.00  0.00    -0.321 N 
HETATM    4  C8  UNL     1      15.883 -12.946  21.340  1.00  0.00     0.099 A 
HETATM    5  C7  UNL     1      14.773 -12.283  21.702  1.00  0.00     0.033 A 
HETATM    6  C5  UNL     1      13.572 -12.917  21.572  1.00  0.00     0.013 A 
HETATM    7  C4  UNL     1      13.551 -14.191  21.077  1.00  0.00     0.092 A 
HETATM    8  N1  UNL     1      12.368 -14.794  20.935  1.00  0.00    -0.318 N 
HETATM    9  C24 UNL     1      14.756 -14.847  20.702  1.00  0.00     0.141 A 
HETATM   10  C3  UNL     1      12.275 -16.015  20.441  1.00  0.00     0.268 A 
ATOM     11  H1  UNL     1      11.519 -14.301  21.213  1.00  0.00     0.169 HD
HETATM   12  C2  UNL     1      13.430 -16.650  20.073  1.00  0.00     0.077 A 
HETATM   13  O1  UNL     1      11.188 -16.638  20.285  1.00  0.00    -0.266 OA
HETATM   14  C1  UNL     1      13.365 -18.047  19.520  1.00  0.00     0.074 C 
HETATM   15  N10 UNL     1      14.680 -16.092  20.189  1.00  0.00    -0.334 N 
HETATM   16  C25 UNL     1      15.822 -16.737  19.674  1.00  0.00     0.158 C 
BRANCH   6  17
HETATM   17  C6  UNL     1      12.345 -12.206  21.971  1.00  0.00     0.122 C 
HETATM   18  N2  UNL     1      11.992 -12.194  23.211  1.00  0.00    -0.297 N 
ATOM     19  H2  UNL     1      12.567 -12.676  23.903  1.00  0.00     0.187 HD
BRANCH  18  20
HETATM   20  N3  UNL     1      10.823 -11.524  23.624  1.00  0.00    -0.250 N 
HETATM   21  N4  UNL     1      10.905 -10.491  24.340  1.00  0.00    -0.331 N 
ATOM     22  H42 UNL     1      11.827 -10.153  24.613  1.00  0.00     0.178 HD
ATOM     23  H41 UNL     1      10.059 -10.007  24.639  1.00  0.00     0.178 HD
ATOM     24  H3  UNL     1       9.908 -11.876  23.342  1.00  0.00     0.207 HD
ENDBRANCH  18  20
ENDBRANCH   6  17
ENDBRANCH   2   3
ENDBRANCH   1   2
BRANCH   1  25
HETATM   25  C11 UNL     1      17.973 -16.558  22.488  1.00  0.00     0.091 C 
BRANCH  25  26
HETATM   26  C12 UNL     1      17.727 -16.756  23.936  1.00  0.00     0.198 C 
HETATM   27  N6  UNL     1      16.486 -17.028  24.277  1.00  0.00    -0.289 N 
ATOM     28  H6  UNL     1      16.242 -17.176  25.256  1.00  0.00     0.187 HD
BRANCH  27  29
HETATM   29  N7  UNL     1      15.512 -17.110  23.293  1.00  0.00    -0.344 N 
ATOM     30  H72 UNL     1      15.253 -16.270  22.775  1.00  0.00     0.176 HD
ATOM     31  H71 UNL     1      15.070 -18.009  23.100  1.00  0.00     0.176 HD
ENDBRANCH  27  29
BRANCH  26  32
HETATM   32  N8  UNL     1      18.715 -16.676  24.960  1.00  0.00    -0.025 N 
HETATM   33  C13 UNL     1      20.006 -16.578  24.300  1.00  0.00     0.281 C 
BRANCH  32  34
HETATM   34  C14 UNL     1      18.716 -17.878  25.718  1.00  0.00     0.247 C 
BRANCH  34  35
HETATM   35  C15 UNL     1      19.878 -17.991  26.681  1.00  0.00     0.055 C 
BRANCH  35  36
HETATM   36  C16 UNL     1      19.921 -19.444  27.170  1.00  0.00     0.231 C 
BRANCH  36  37
HETATM   37  N9  UNL     1      19.471 -19.488  28.542  1.00  0.00    -0.079 N 
ATOM     38  H93 UNL     1      19.274 -18.560  28.918  1.00  0.00     0.274 HD
ATOM     39  H92 UNL     1      18.533 -19.880  28.631  1.00  0.00     0.274 HD
ATOM     40  H91 UNL     1      20.159 -19.995  29.099  1.00  0.00     0.274 HD
ENDBRANCH  36  37
ENDBRANCH  35  36
ENDBRANCH  34  35
ENDBRANCH  32  34
BRANCH  32  41
HETATM   41  C17 UNL     1      18.425 -15.498  25.752  1.00  0.00     0.283 C 
BRANCH  41  42
HETATM   42  C18 UNL     1      19.408 -14.423  25.633  1.00  0.00    -0.032 A 
HETATM   43  C19 UNL     1      20.289 -14.186  26.660  1.00  0.00     0.009 A 
HETATM   44  C20 UNL     1      21.251 -13.205  26.648  1.00  0.00     0.001 A 
HETATM   45  C21 UNL     1      21.318 -12.423  25.524  1.00  0.00     0.000 A 
HETATM   46  C22 UNL     1      20.447 -12.638  24.476  1.00  0.00     0.001 A 
HETATM   47  C23 UNL     1      19.494 -13.629  24.519  1.00  0.00     0.009 A 
ENDBRANCH  41  42
ENDBRANCH  32  41
ENDBRANCH  26  32
ENDBRANCH  25  26
ENDBRANCH   1  25
TORSDOF 14
ENDMDL
MODEL 5
REMARK VINA RESULT: -8.142495627      1.767      3.437
REMARK  14 active torsions:
REMARK  status: ('A' for Active; 'I' for Inactive)
REMARK    1  A    between atoms: C5_8  and  C6_9 
REMARK    2  A    between atoms: N2_10  and  N3_12 
REMARK    3  A    between atoms: N5_19  and  C9_20 
REMARK    4  A    between atoms: C9_20  and  C10_21 
REMARK    5  A    between atoms: C10_21  and  C11_22 
REMARK    6  A    between atoms: C11_22  and  C12_23 
REMARK    7  A    between atoms: C12_23  and  N8_29 
REMARK    8  A    between atoms: N6_24  and  N7_26 
REMARK    9  A    between atoms: N8_29  and  C14_31 
REMARK   10  A    between atoms: N8_29  and  C17_38 
REMARK   11  A    between atoms: C14_31  and  C15_32 
REMARK   12  A    between atoms: C15_32  and  C16_33 
REMARK   13  A    between atoms: C16_33  and  N9_34 
REMARK   14  A    between atoms: C17_38  and  C18_39 
ROOT
HETATM    1  C10 UNL     1      17.038 -17.203  21.216  1.00  0.00     0.052 C 
ENDROOT
BRANCH   1   2
HETATM    2  C9  UNL     1      16.378 -16.736  19.934  1.00  0.00     0.071 C 
BRANCH   2   3
HETATM    3  N5  UNL     1      15.431 -15.702  20.043  1.00  0.00    -0.321 N 
HETATM    4  C8  UNL     1      15.712 -14.604  20.849  1.00  0.00     0.099 A 
HETATM    5  C7  UNL     1      14.846 -13.640  21.201  1.00  0.00     0.033 A 
HETATM    6  C5  UNL     1      13.565 -13.724  20.741  1.00  0.00     0.013 A 
HETATM    7  C4  UNL     1      13.221 -14.779  19.942  1.00  0.00     0.092 A 
HETATM    8  N1  UNL     1      11.969 -14.839  19.481  1.00  0.00    -0.318 N 
HETATM    9  C24 UNL     1      14.178 -15.770  19.593  1.00  0.00     0.141 A 
HETATM   10  C3  UNL     1      11.578 -15.818  18.686  1.00  0.00     0.268 A 
ATOM     11  H1  UNL     1      11.302 -14.115  19.749  1.00  0.00     0.169 HD
HETATM   12  C2  UNL     1      12.495 -16.774  18.342  1.00  0.00     0.077 A 
HETATM   13  O1  UNL     1      10.409 -15.932  18.221  1.00  0.00    -0.266 OA
HETATM   14  C1  UNL     1      12.081 -17.911  17.450  1.00  0.00     0.074 C 
HETATM   15  N10 UNL     1      13.798 -16.774  18.776  1.00  0.00    -0.334 N 
HETATM   16  C25 UNL     1      14.734 -17.707  18.286  1.00  0.00     0.158 C 
BRANCH   6  17
HETATM   17  C6  UNL     1      12.601 -12.678  21.124  1.00  0.00     0.122 C 
HETATM   18  N2  UNL     1      12.240 -12.566  22.357  1.00  0.00    -0.297 N 
ATOM     19  H2  UNL     1      12.627 -13.203  23.054  1.00  0.00     0.187 HD
BRANCH  18  20
HETATM   20  N3  UNL     1      11.319 -11.577  22.755  1.00  0.00    -0.250 N 
HETATM   21  N4  UNL     1      10.762 -11.647  23.882  1.00  0.00    -0.331 N 
ATOM     22  H42 UNL     1      10.989 -12.428  24.496  1.00  0.00     0.178 HD
ATOM     23  H41 UNL     1      10.095 -10.930  24.169  1.00  0.00     0.178 HD
ATOM     24  H3  UNL     1      11.104 -10.801  22.128  1.00  0.00     0.207 HD
ENDBRANCH  18  20
ENDBRANCH   6  17
ENDBRANCH   2   3
ENDBRANCH   1   2
BRANCH   1  25
HETATM   25  C11 UNL     1      18.481 -17.199  21.357  1.00  0.00     0.091 C 
BRANCH  25  26
HETATM   26  C12 UNL     1      19.060 -16.500  22.529  1.00  0.00     0.198 C 
HETATM   27  N6  UNL     1      19.211 -17.226  23.615  1.00  0.00    -0.289 N 
ATOM     28  H6  UNL     1      19.603 -16.812  24.460  1.00  0.00     0.187 HD
BRANCH  27  29
HETATM   29  N7  UNL     1      18.833 -18.560  23.600  1.00  0.00    -0.344 N 
ATOM     30  H72 UNL     1      17.842 -18.798  23.563  1.00  0.00     0.176 HD
ATOM     31  H71 UNL     1      19.551 -19.284  23.626  1.00  0.00     0.176 HD
ENDBRANCH  27  29
BRANCH  26  32
HETATM   32  N8  UNL     1      19.454 -15.130  22.562  1.00  0.00    -0.025 N 
HETATM   33  C13 UNL     1      18.456 -14.418  23.342  1.00  0.00     0.281 C 
BRANCH  32  34
HETATM   34  C14 UNL     1      19.426 -14.594  21.246  1.00  0.00     0.247 C 
BRANCH  34  35
HETATM   35  C15 UNL     1      19.807 -13.132  21.176  1.00  0.00     0.055 C 
BRANCH  35  36
HETATM   36  C16 UNL     1      18.846 -12.460  20.187  1.00  0.00     0.231 C 
BRANCH  36  37
HETATM   37  N9  UNL     1      18.120 -11.419  20.875  1.00  0.00    -0.079 N 
ATOM     38  H93 UNL     1      18.735 -10.795  21.398  1.00  0.00     0.274 HD
ATOM     39  H92 UNL     1      17.728 -10.728  20.234  1.00  0.00     0.274 HD
ATOM     40  H91 UNL     1      17.408 -11.849  21.466  1.00  0.00     0.274 HD
ENDBRANCH  36  37
ENDBRANCH  35  36
ENDBRANCH  34  35
ENDBRANCH  32  34
BRANCH  32  41
HETATM   41  C17 UNL     1      20.763 -15.071  23.179  1.00  0.00     0.283 C 
BRANCH  41  42
HETATM   42  C18 UNL     1      20.815 -14.320  24.432  1.00  0.00    -0.032 A 
HETATM   43  C19 UNL     1      21.030 -12.963  24.408  1.00  0.00     0.009 A 
HETATM   44  C20 UNL     1      21.094 -12.166  25.524  1.00  0.00     0.001 A 
HETATM   45  C21 UNL     1      20.928 -12.788  26.735  1.00  0.00     0.000 A 
HETATM   46  C22 UNL     1      20.709 -14.150  26.791  1.00  0.00     0.001 A 
HETATM   47  C23 UNL     1      20.651 -14.920  25.653  1.00  0.00     0.009 A 
ENDBRANCH  41  42
ENDBRANCH  32  41
ENDBRANCH  26  32
ENDBRANCH  25  26
ENDBRANCH   1  25
TORSDOF 14
ENDMDL
