MODEL 1
REMARK VINA RESULT: -8.451464770      0.000      0.000
REMARK  10 active torsions:
REMARK  status: ('A' for Active; 'I' for Inactive)
REMARK    1  A    between atoms: C2_2  and  N1_3 
REMARK    2  A    between atoms: N1_3  and  C3_4 
REMARK    3  A    between atoms: N1_3  and  C17_22 
REMARK    4  A    between atoms: C3_4  and  C4_5 
REMARK    5  A    between atoms: C4_5  and  N2_6 
REMARK       I    between atoms: N2_6  and  C5_8 
REMARK    6  A    between atoms: C5_8  and  C6_10 
REMARK    7  A    between atoms: C6_10  and  C7_11 
REMARK    8  A    between atoms: C17_22  and  N4_23 
REMARK    9  A    between atoms: C19_25  and  C20_26 
REMARK   10  A    between atoms: N5_27  and  N6_29 
ROOT
HETATM    1  N1  UNL     1      13.991 -15.111  21.203  1.00  0.00     0.108 N 
ENDROOT
BRANCH   1   2
HETATM    2  C2  UNL     1      12.694 -15.637  20.824  1.00  0.00     0.270 C 
HETATM    3  C1  UNL     1      12.438 -15.622  19.356  1.00  0.00     0.037 C 
ENDBRANCH   1   2
BRANCH   1   4
HETATM    4  C3  UNL     1      14.728 -16.078  21.985  1.00  0.00     0.294 C 
BRANCH   4   5
HETATM    5  C4  UNL     1      16.180 -16.158  21.714  1.00  0.00     0.152 C 
BRANCH   5   6
HETATM    6  N2  UNL     1      17.009 -16.244  22.882  1.00  0.00    -0.359 N 
HETATM    7  C5  UNL     1      18.416 -16.407  22.780  1.00  0.00     0.220 C 
HETATM    8  O1  UNL     1      18.907 -16.474  21.635  1.00  0.00    -0.274 OA
ATOM      9  H2  UNL     1      16.578 -16.187  23.805  1.00  0.00     0.162 HD
BRANCH   7  10
HETATM   10  C6  UNL     1      19.274 -16.494  23.976  1.00  0.00     0.143 C 
BRANCH  10  11
HETATM   11  C7  UNL     1      20.233 -15.424  24.096  1.00  0.00     0.147 C 
HETATM   12  C8  UNL     1      21.654 -15.611  23.578  1.00  0.00     0.043 C 
HETATM   13  C9  UNL     1      22.212 -14.255  24.021  1.00  0.00     0.042 C 
HETATM   14  C10 UNL     1      21.003 -13.827  24.846  1.00  0.00     0.135 C 
HETATM   15  C11 UNL     1      21.035 -12.520  25.472  1.00  0.00     0.048 C 
HETATM   16  C12 UNL     1      20.612 -15.046  25.558  1.00  0.00     0.020 C 
HETATM   17  N3  UNL     1      19.951 -14.065  23.830  1.00  0.00    -0.055 N 
HETATM   18  C13 UNL     1      19.486 -15.002  26.537  1.00  0.00     0.020 C 
HETATM   19  C14 UNL     1      21.645 -15.997  26.099  1.00  0.00     0.020 C 
HETATM   20  C15 UNL     1      18.664 -13.519  24.188  1.00  0.00     0.274 C 
HETATM   21  C16 UNL     1      20.317 -13.458  22.571  1.00  0.00     0.274 C 
ENDBRANCH  10  11
ENDBRANCH   7  10
ENDBRANCH   5   6
ENDBRANCH   4   5
ENDBRANCH   1   4
BRANCH   1  22
HETATM   22  C17 UNL     1      14.691 -14.501  20.137  1.00  0.00     0.419 C 
BRANCH  22  23
HETATM   23  N4  UNL     1      14.755 -13.037  20.303  1.00  0.00    -0.273 N 
HETATM   24  C18 UNL     1      13.734 -12.199  20.211  1.00  0.00     0.126 A 
HETATM   25  C19 UNL     1      14.185 -10.886  20.431  1.00  0.00     0.015 A 
HETATM   26  C23 UNL     1      15.523 -11.012  20.655  1.00  0.00     0.124 A 
HETATM   27  N9  UNL     1      15.835 -12.336  20.569  1.00  0.00    -0.303 N 
HETATM   28  C24 UNL     1      17.163 -12.908  20.741  1.00  0.00     0.177 C 
BRANCH  25  29
HETATM   29  C20 UNL     1      13.365  -9.700  20.417  1.00  0.00     0.123 C 
HETATM   30  N5  UNL     1      12.516  -9.286  21.238  1.00  0.00    -0.289 N 
ATOM     31  H5  UNL     1      12.074  -8.402  20.984  1.00  0.00     0.188 HD
BRANCH  30  32
HETATM   32  N6  UNL     1      12.084  -9.826  22.424  1.00  0.00    -0.192 N 
HETATM   33  C21 UNL     1      12.025  -9.123  23.579  1.00  0.00     0.228 A 
HETATM   34  N7  UNL     1      11.535  -9.929  24.522  1.00  0.00    -0.345 N 
HETATM   35  C22 UNL     1      11.287 -11.131  23.972  1.00  0.00     0.200 A 
ATOM     36  H7  UNL     1      11.375  -9.677  25.497  1.00  0.00     0.167 HD
HETATM   37  N8  UNL     1      11.633 -11.038  22.681  1.00  0.00    -0.274 N 
ATOM     38  H8  UNL     1      11.559 -11.792  21.998  1.00  0.00     0.190 HD
ENDBRANCH  30  32
ENDBRANCH  25  29
ENDBRANCH  22  23
ENDBRANCH   1  22
TORSDOF 10
ENDMDL
MODEL 2
REMARK VINA RESULT: -8.330720566      0.882      1.464
REMARK  10 active torsions:
REMARK  status: ('A' for Active; 'I' for Inactive)
REMARK    1  A    between atoms: C2_2  and  N1_3 
REMARK    2  A    between atoms: N1_3  and  C3_4 
REMARK    3  A    between atoms: N1_3  and  C17_22 
REMARK    4  A    between atoms: C3_4  and  C4_5 
REMARK    5  A    between atoms: C4_5  and  N2_6 
REMARK       I    between atoms: N2_6  and  C5_8 
REMARK    6  A    between atoms: C5_8  and  C6_10 
REMARK    7  A    between atoms: C6_10  and  C7_11 
REMARK    8  A    between atoms: C17_22  and  N4_23 
REMARK    9  A    between atoms: C19_25  and  C20_26 
REMARK   10  A    between atoms: N5_27  and  N6_29 
ROOT
HETATM    1  N1  UNL     1      15.179 -15.064  21.364  1.00  0.00     0.108 N 
ENDROOT
BRANCH   1   2
HETATM    2  C2  UNL     1      13.836 -15.242  21.883  1.00  0.00     0.270 C 
HETATM    3  C1  UNL     1      12.848 -15.699  20.866  1.00  0.00     0.037 C 
ENDBRANCH   1   2
BRANCH   1   4
HETATM    4  C3  UNL     1      15.915 -16.307  21.407  1.00  0.00     0.294 C 
BRANCH   4   5
HETATM    5  C4  UNL     1      17.346 -16.225  21.040  1.00  0.00     0.152 C 
BRANCH   5   6
HETATM    6  N2  UNL     1      18.256 -16.246  22.149  1.00  0.00    -0.359 N 
HETATM    7  C5  UNL     1      19.659 -16.126  21.957  1.00  0.00     0.220 C 
HETATM    8  O1  UNL     1      20.071 -16.001  20.787  1.00  0.00    -0.274 OA
ATOM      9  H2  UNL     1      17.888 -16.350  23.095  1.00  0.00     0.162 HD
BRANCH   7  10
HETATM   10  C6  UNL     1      20.600 -16.145  23.092  1.00  0.00     0.143 C 
BRANCH  10  11
HETATM   11  C7  UNL     1      20.612 -14.932  23.871  1.00  0.00     0.147 C 
HETATM   12  C8  UNL     1      20.748 -13.581  23.178  1.00  0.00     0.043 C 
HETATM   13  C9  UNL     1      20.779 -12.709  24.437  1.00  0.00     0.042 C 
HETATM   14  C10 UNL     1      20.882 -13.852  25.441  1.00  0.00     0.135 C 
HETATM   15  C11 UNL     1      20.903 -13.518  26.852  1.00  0.00     0.048 C 
HETATM   16  C12 UNL     1      21.834 -14.779  24.825  1.00  0.00     0.020 C 
HETATM   17  N3  UNL     1      19.746 -14.671  24.957  1.00  0.00    -0.055 N 
HETATM   18  C13 UNL     1      22.249 -16.010  25.560  1.00  0.00     0.020 C 
HETATM   19  C14 UNL     1      23.034 -14.276  24.071  1.00  0.00     0.020 C 
HETATM   20  C15 UNL     1      19.379 -15.742  25.852  1.00  0.00     0.274 C 
HETATM   21  C16 UNL     1      18.567 -13.853  24.792  1.00  0.00     0.274 C 
ENDBRANCH  10  11
ENDBRANCH   7  10
ENDBRANCH   5   6
ENDBRANCH   4   5
ENDBRANCH   1   4
BRANCH   1  22
HETATM   22  C17 UNL     1      15.226 -14.348  20.145  1.00  0.00     0.419 C 
BRANCH  22  23
HETATM   23  N4  UNL     1      15.119 -12.894  20.370  1.00  0.00    -0.273 N 
HETATM   24  C18 UNL     1      14.038 -12.156  20.174  1.00  0.00     0.126 A 
HETATM   25  C19 UNL     1      14.321 -10.817  20.498  1.00  0.00     0.015 A 
HETATM   26  C23 UNL     1      15.625 -10.824  20.893  1.00  0.00     0.124 A 
HETATM   27  N9  UNL     1      16.079 -12.106  20.802  1.00  0.00    -0.303 N 
HETATM   28  C24 UNL     1      17.425 -12.555  21.127  1.00  0.00     0.177 C 
BRANCH  25  29
HETATM   29  C20 UNL     1      13.393  -9.717  20.419  1.00  0.00     0.123 C 
HETATM   30  N5  UNL     1      12.484  -9.358  21.200  1.00  0.00    -0.289 N 
ATOM     31  H5  UNL     1      11.968  -8.530  20.903  1.00  0.00     0.188 HD
BRANCH  30  32
HETATM   32  N6  UNL     1      12.068  -9.897  22.393  1.00  0.00    -0.192 N 
HETATM   33  C21 UNL     1      12.009  -9.188  23.544  1.00  0.00     0.228 A 
HETATM   34  N7  UNL     1      11.538  -9.995  24.496  1.00  0.00    -0.345 N 
HETATM   35  C22 UNL     1      11.302 -11.204  23.955  1.00  0.00     0.200 A 
ATOM     36  H7  UNL     1      11.382  -9.739  25.471  1.00  0.00     0.167 HD
HETATM   37  N8  UNL     1      11.636 -11.113  22.661  1.00  0.00    -0.274 N 
ATOM     38  H8  UNL     1      11.567 -11.873  21.983  1.00  0.00     0.190 HD
ENDBRANCH  30  32
ENDBRANCH  25  29
ENDBRANCH  22  23
ENDBRANCH   1  22
TORSDOF 10
ENDMDL
MODEL 3
REMARK VINA RESULT: -8.304126964      0.883      1.965
REMARK  10 active torsions:
REMARK  status: ('A' for Active; 'I' for Inactive)
REMARK    1  A    between atoms: C2_2  and  N1_3 
REMARK    2  A    between atoms: N1_3  and  C3_4 
REMARK    3  A    between atoms: N1_3  and  C17_22 
REMARK    4  A    between atoms: C3_4  and  C4_5 
REMARK    5  A    between atoms: C4_5  and  N2_6 
REMARK       I    between atoms: N2_6  and  C5_8 
REMARK    6  A    between atoms: C5_8  and  C6_10 
REMARK    7  A    between atoms: C6_10  and  C7_11 
REMARK    8  A    between atoms: C17_22  and  N4_23 
REMARK    9  A    between atoms: C19_25  and  C20_26 
REMARK   10  A    between atoms: N5_27  and  N6_29 
ROOT
HETATM    1  N1  UNL     1      14.204 -14.703  20.741  1.00  0.00     0.108 N 
ENDROOT
BRANCH   1   2
HETATM    2  C2  UNL     1      13.445 -15.772  20.121  1.00  0.00     0.270 C 
HETATM    3  C1  UNL     1      12.300 -15.302  19.291  1.00  0.00     0.037 C 
ENDBRANCH   1   2
BRANCH   1   4
HETATM    4  C3  UNL     1      14.866 -15.171  21.937  1.00  0.00     0.294 C 
BRANCH   4   5
HETATM    5  C4  UNL     1      16.282 -15.570  21.779  1.00  0.00     0.152 C 
BRANCH   5   6
HETATM    6  N2  UNL     1      17.199 -14.907  22.661  1.00  0.00    -0.359 N 
HETATM    7  C5  UNL     1      18.562 -14.718  22.307  1.00  0.00     0.220 C 
HETATM    8  O1  UNL     1      18.934 -15.152  21.199  1.00  0.00    -0.274 OA
ATOM      9  H2  UNL     1      16.864 -14.563  23.561  1.00  0.00     0.162 HD
BRANCH   7  10
HETATM   10  C6  UNL     1      19.508 -14.035  23.207  1.00  0.00     0.143 C 
BRANCH  10  11
HETATM   11  C7  UNL     1      19.882 -14.805  24.368  1.00  0.00     0.147 C 
HETATM   12  C8  UNL     1      18.954 -14.862  25.576  1.00  0.00     0.043 C 
HETATM   13  C9  UNL     1      19.853 -15.710  26.482  1.00  0.00     0.042 C 
HETATM   14  C10 UNL     1      21.090 -15.671  25.591  1.00  0.00     0.135 C 
HETATM   15  C11 UNL     1      22.263 -16.404  26.023  1.00  0.00     0.048 C 
HETATM   16  C12 UNL     1      21.142 -14.284  25.120  1.00  0.00     0.020 C 
HETATM   17  N3  UNL     1      20.457 -16.095  24.320  1.00  0.00    -0.055 N 
HETATM   18  C13 UNL     1      22.279 -13.836  24.263  1.00  0.00     0.020 C 
HETATM   19  C14 UNL     1      20.781 -13.141  26.028  1.00  0.00     0.020 C 
HETATM   20  C15 UNL     1      21.404 -16.417  23.279  1.00  0.00     0.274 C 
HETATM   21  C16 UNL     1      19.655 -17.279  24.524  1.00  0.00     0.274 C 
ENDBRANCH  10  11
ENDBRANCH   7  10
ENDBRANCH   5   6
ENDBRANCH   4   5
ENDBRANCH   1   4
BRANCH   1  22
HETATM   22  C17 UNL     1      14.996 -13.967  19.830  1.00  0.00     0.419 C 
BRANCH  22  23
HETATM   23  N4  UNL     1      14.894 -12.517  20.078  1.00  0.00    -0.273 N 
HETATM   24  C18 UNL     1      13.775 -11.810  20.106  1.00  0.00     0.126 A 
HETATM   25  C19 UNL     1      14.078 -10.463  20.372  1.00  0.00     0.015 A 
HETATM   26  C23 UNL     1      15.435 -10.431  20.496  1.00  0.00     0.124 A 
HETATM   27  N9  UNL     1      15.898 -11.700  20.311  1.00  0.00    -0.303 N 
HETATM   28  C24 UNL     1      17.295 -12.108  20.357  1.00  0.00     0.177 C 
BRANCH  25  29
HETATM   29  C20 UNL     1      13.121  -9.391  20.485  1.00  0.00     0.123 C 
HETATM   30  N5  UNL     1      12.263  -9.153  21.363  1.00  0.00    -0.289 N 
ATOM     31  H5  UNL     1      11.707  -8.313  21.200  1.00  0.00     0.188 HD
BRANCH  30  32
HETATM   32  N6  UNL     1      11.946  -9.837  22.511  1.00  0.00    -0.192 N 
HETATM   33  C21 UNL     1      11.907  -9.255  23.732  1.00  0.00     0.228 A 
HETATM   34  N7  UNL     1      11.538 -10.186  24.615  1.00  0.00    -0.345 N 
HETATM   35  C22 UNL     1      11.347 -11.345  23.960  1.00  0.00     0.200 A 
ATOM     36  H7  UNL     1      11.421 -10.042  25.617  1.00  0.00     0.167 HD
HETATM   37  N8  UNL     1      11.604 -11.101  22.669  1.00  0.00    -0.274 N 
ATOM     38  H8  UNL     1      11.545 -11.789  21.919  1.00  0.00     0.190 HD
ENDBRANCH  30  32
ENDBRANCH  25  29
ENDBRANCH  22  23
ENDBRANCH   1  22
TORSDOF 10
ENDMDL
MODEL 4
REMARK VINA RESULT: -8.276618676      1.779      4.759
REMARK  10 active torsions:
REMARK  status: ('A' for Active; 'I' for Inactive)
REMARK    1  A    between atoms: C2_2  and  N1_3 
REMARK    2  A    between atoms: N1_3  and  C3_4 
REMARK    3  A    between atoms: N1_3  and  C17_22 
REMARK    4  A    between atoms: C3_4  and  C4_5 
REMARK    5  A    between atoms: C4_5  and  N2_6 
REMARK       I    between atoms: N2_6  and  C5_8 
REMARK    6  A    between atoms: C5_8  and  C6_10 
REMARK    7  A    between atoms: C6_10  and  C7_11 
REMARK    8  A    between atoms: C17_22  and  N4_23 
REMARK    9  A    between atoms: C19_25  and  C20_26 
REMARK   10  A    between atoms: N5_27  and  N6_29 
ROOT
HETATM    1  N1  UNL     1      16.099 -11.811  18.700  1.00  0.00     0.108 N 
ENDROOT
BRANCH   1   2
HETATM    2  C2  UNL     1      16.662 -11.555  17.388  1.00  0.00     0.270 C 
HETATM    3  C1  UNL     1      15.661 -11.564  16.285  1.00  0.00     0.037 C 
ENDBRANCH   1   2
BRANCH   1   4
HETATM    4  C3  UNL     1      17.021 -11.416  19.740  1.00  0.00     0.294 C 
BRANCH   4   5
HETATM    5  C4  UNL     1      17.017 -12.253  20.961  1.00  0.00     0.152 C 
BRANCH   5   6
HETATM    6  N2  UNL     1      18.269 -12.307  21.660  1.00  0.00    -0.359 N 
HETATM    7  C5  UNL     1      19.020 -13.510  21.741  1.00  0.00     0.220 C 
HETATM    8  O1  UNL     1      18.550 -14.521  21.182  1.00  0.00    -0.274 OA
ATOM      9  H2  UNL     1      18.627 -11.463  22.108  1.00  0.00     0.162 HD
BRANCH   7  10
HETATM   10  C6  UNL     1      20.308 -13.572  22.456  1.00  0.00     0.143 C 
BRANCH  10  11
HETATM   11  C7  UNL     1      20.240 -14.218  23.743  1.00  0.00     0.147 C 
HETATM   12  C8  UNL     1      19.063 -13.942  24.673  1.00  0.00     0.043 C 
HETATM   13  C9  UNL     1      19.539 -14.789  25.858  1.00  0.00     0.042 C 
HETATM   14  C10 UNL     1      20.932 -15.087  25.314  1.00  0.00     0.135 C 
HETATM   15  C11 UNL     1      21.803 -15.937  26.103  1.00  0.00     0.048 C 
HETATM   16  C12 UNL     1      21.367 -13.812  24.738  1.00  0.00     0.020 C 
HETATM   17  N3  UNL     1      20.542 -15.578  23.972  1.00  0.00    -0.055 N 
HETATM   18  C13 UNL     1      22.738 -13.691  24.162  1.00  0.00     0.020 C 
HETATM   19  C14 UNL     1      21.039 -12.505  25.406  1.00  0.00     0.020 C 
HETATM   20  C15 UNL     1      21.622 -16.203  23.245  1.00  0.00     0.274 C 
HETATM   21  C16 UNL     1      19.496 -16.569  24.080  1.00  0.00     0.274 C 
ENDBRANCH  10  11
ENDBRANCH   7  10
ENDBRANCH   5   6
ENDBRANCH   4   5
ENDBRANCH   1   4
BRANCH   1  22
HETATM   22  C17 UNL     1      14.764 -11.367  18.842  1.00  0.00     0.419 C 
BRANCH  22  23
HETATM   23  N4  UNL     1      13.978 -12.286  19.686  1.00  0.00    -0.273 N 
HETATM   24  C18 UNL     1      13.808 -13.582  19.475  1.00  0.00     0.126 A 
HETATM   25  C19 UNL     1      13.000 -14.119  20.492  1.00  0.00     0.015 A 
HETATM   26  C23 UNL     1      12.712 -13.062  21.302  1.00  0.00     0.124 A 
HETATM   27  N9  UNL     1      13.324 -11.962  20.780  1.00  0.00    -0.303 N 
HETATM   28  C24 UNL     1      13.271 -10.617  21.336  1.00  0.00     0.177 C 
BRANCH  25  29
HETATM   29  C20 UNL     1      12.598 -15.499  20.608  1.00  0.00     0.123 C 
HETATM   30  N5  UNL     1      13.230 -16.501  21.010  1.00  0.00    -0.289 N 
ATOM     31  H5  UNL     1      12.702 -17.374  20.991  1.00  0.00     0.188 HD
BRANCH  30  32
HETATM   32  N6  UNL     1      14.518 -16.618  21.473  1.00  0.00    -0.192 N 
HETATM   33  C21 UNL     1      15.565 -16.929  20.675  1.00  0.00     0.228 A 
HETATM   34  N7  UNL     1      16.666 -16.930  21.430  1.00  0.00    -0.345 N 
HETATM   35  C22 UNL     1      16.319 -16.625  22.693  1.00  0.00     0.200 A 
ATOM     36  H7  UNL     1      17.611 -17.129  21.104  1.00  0.00     0.167 HD
HETATM   37  N8  UNL     1      14.993 -16.438  22.689  1.00  0.00    -0.274 N 
ATOM     38  H8  UNL     1      14.434 -16.192  23.506  1.00  0.00     0.190 HD
ENDBRANCH  30  32
ENDBRANCH  25  29
ENDBRANCH  22  23
ENDBRANCH   1  22
TORSDOF 10
ENDMDL
MODEL 5
REMARK VINA RESULT: -8.139623947      1.061      1.209
REMARK  10 active torsions:
REMARK  status: ('A' for Active; 'I' for Inactive)
REMARK    1  A    between atoms: C2_2  and  N1_3 
REMARK    2  A    between atoms: N1_3  and  C3_4 
REMARK    3  A    between atoms: N1_3  and  C17_22 
REMARK    4  A    between atoms: C3_4  and  C4_5 
REMARK    5  A    between atoms: C4_5  and  N2_6 
REMARK       I    between atoms: N2_6  and  C5_8 
REMARK    6  A    between atoms: C5_8  and  C6_10 
REMARK    7  A    between atoms: C6_10  and  C7_11 
REMARK    8  A    between atoms: C17_22  and  N4_23 
REMARK    9  A    between atoms: C19_25  and  C20_26 
REMARK   10  A    between atoms: N5_27  and  N6_29 
ROOT
HETATM    1  N1  UNL     1      14.891 -15.093  21.210  1.00  0.00     0.108 N 
ENDROOT
BRANCH   1   2
HETATM    2  C2  UNL     1      13.521 -15.383  21.588  1.00  0.00     0.270 C 
HETATM    3  C1  UNL     1      12.691 -15.938  20.483  1.00  0.00     0.037 C 
ENDBRANCH   1   2
BRANCH   1   4
HETATM    4  C3  UNL     1      15.710 -16.281  21.297  1.00  0.00     0.294 C 
BRANCH   4   5
HETATM    5  C4  UNL     1      15.903 -16.836  22.654  1.00  0.00     0.152 C 
BRANCH   5   6
HETATM    6  N2  UNL     1      16.890 -16.163  23.448  1.00  0.00    -0.359 N 
HETATM    7  C5  UNL     1      17.613 -16.844  24.464  1.00  0.00     0.220 C 
HETATM    8  O1  UNL     1      17.357 -18.052  24.642  1.00  0.00    -0.274 OA
ATOM      9  H2  UNL     1      17.077 -15.175  23.279  1.00  0.00     0.162 HD
BRANCH   7  10
HETATM   10  C6  UNL     1      18.631 -16.160  25.281  1.00  0.00     0.143 C 
BRANCH  10  11
HETATM   11  C7  UNL     1      19.874 -15.913  24.594  1.00  0.00     0.147 C 
HETATM   12  C8  UNL     1      20.640 -17.070  23.963  1.00  0.00     0.043 C 
HETATM   13  C9  UNL     1      21.851 -16.268  23.473  1.00  0.00     0.042 C 
HETATM   14  C10 UNL     1      21.497 -14.964  24.179  1.00  0.00     0.135 C 
HETATM   15  C11 UNL     1      22.370 -13.824  23.979  1.00  0.00     0.048 C 
HETATM   16  C12 UNL     1      21.030 -15.392  25.500  1.00  0.00     0.020 C 
HETATM   17  N3  UNL     1      20.097 -14.835  23.709  1.00  0.00    -0.055 N 
HETATM   18  C13 UNL     1      20.654 -14.368  26.519  1.00  0.00     0.020 C 
HETATM   19  C14 UNL     1      21.688 -16.533  26.225  1.00  0.00     0.020 C 
HETATM   20  C15 UNL     1      19.508 -13.547  23.988  1.00  0.00     0.274 C 
HETATM   21  C16 UNL     1      20.025 -15.016  22.277  1.00  0.00     0.274 C 
ENDBRANCH  10  11
ENDBRANCH   7  10
ENDBRANCH   5   6
ENDBRANCH   4   5
ENDBRANCH   1   4
BRANCH   1  22
HETATM   22  C17 UNL     1      15.004 -14.338  20.020  1.00  0.00     0.419 C 
BRANCH  22  23
HETATM   23  N4  UNL     1      14.957 -12.890  20.294  1.00  0.00    -0.273 N 
HETATM   24  C18 UNL     1      13.906 -12.101  20.127  1.00  0.00     0.126 A 
HETATM   25  C19 UNL     1      14.244 -10.787  20.496  1.00  0.00     0.015 A 
HETATM   26  C23 UNL     1      15.548 -10.860  20.884  1.00  0.00     0.124 A 
HETATM   27  N9  UNL     1      15.949 -12.156  20.748  1.00  0.00    -0.303 N 
HETATM   28  C24 UNL     1      17.277 -12.670  21.053  1.00  0.00     0.177 C 
BRANCH  25  29
HETATM   29  C20 UNL     1      13.361  -9.648  20.458  1.00  0.00     0.123 C 
HETATM   30  N5  UNL     1      12.477  -9.275  21.259  1.00  0.00    -0.289 N 
ATOM     31  H5  UNL     1      11.991  -8.419  20.990  1.00  0.00     0.188 HD
BRANCH  30  32
HETATM   32  N6  UNL     1      12.052  -9.829  22.442  1.00  0.00    -0.192 N 
HETATM   33  C21 UNL     1      11.981  -9.133  23.600  1.00  0.00     0.228 A 
HETATM   34  N7  UNL     1      11.504  -9.954  24.539  1.00  0.00    -0.345 N 
HETATM   35  C22 UNL     1      11.275 -11.156  23.981  1.00  0.00     0.200 A 
ATOM     36  H7  UNL     1      11.339  -9.710  25.515  1.00  0.00     0.167 HD
HETATM   37  N8  UNL     1      11.620 -11.049  22.691  1.00  0.00    -0.274 N 
ATOM     38  H8  UNL     1      11.558 -11.800  22.004  1.00  0.00     0.190 HD
ENDBRANCH  30  32
ENDBRANCH  25  29
ENDBRANCH  22  23
ENDBRANCH   1  22
TORSDOF 10
ENDMDL
