MODEL 1
REMARK VINA RESULT: -7.822077884      0.000      0.000
REMARK  13 active torsions:
REMARK  status: ('A' for Active; 'I' for Inactive)
REMARK    1  A    between atoms: N1_2  and  C2_4 
REMARK    2  A    between atoms: N4_8  and  C3_9 
REMARK    3  A    between atoms: C3_9  and  C4_10 
REMARK    4  A    between atoms: C7_13  and  C8_14 
REMARK    5  A    between atoms: C8_14  and  N5_15 
REMARK    6  A    between atoms: C11_18  and  O1_19 
REMARK    7  A    between atoms: C16_25  and  C17_26 
REMARK    8  A    between atoms: C17_26  and  N6_27 
REMARK    9  A    between atoms: N6_27  and  C20_30 
REMARK   10  A    between atoms: C20_30  and  C21_31 
REMARK   11  A    between atoms: C21_31  and  O2_32 
REMARK   12  A    between atoms: C21_31  and  C22_34 
REMARK   13  A    between atoms: C22_34  and  S1_35 
ROOT
HETATM    1  C2  UNL     1      20.842 -14.132  24.321  1.00  0.00     0.140 A 
HETATM    2  N2  UNL     1      21.526 -13.422  23.432  1.00  0.00    -0.268 N 
ATOM      3  H2  UNL     1      22.427 -12.975  23.599  1.00  0.00     0.186 HD
HETATM    4  N3  UNL     1      20.852 -13.388  22.294  1.00  0.00    -0.018 NA
HETATM    5  N4  UNL     1      19.713 -14.097  22.467  1.00  0.00    -0.270 N 
HETATM    6  C16 UNL     1      19.651 -14.559  23.675  1.00  0.00     0.097 A 
ENDROOT
BRANCH   5   7
HETATM    7  C3  UNL     1      18.995 -14.483  21.202  1.00  0.00     0.185 C 
BRANCH   7   8
HETATM    8  C4  UNL     1      17.956 -13.327  21.113  1.00  0.00    -0.039 A 
HETATM    9  C5  UNL     1      16.861 -13.324  21.929  1.00  0.00     0.009 A 
HETATM   10  C6  UNL     1      15.798 -12.420  21.684  1.00  0.00     0.009 A 
HETATM   11  C7  UNL     1      15.854 -11.544  20.637  1.00  0.00    -0.040 A 
HETATM   12  C14 UNL     1      16.996 -11.563  19.824  1.00  0.00     0.009 A 
HETATM   13  C15 UNL     1      18.038 -12.447  20.058  1.00  0.00     0.009 A 
BRANCH  11  14
HETATM   14  C8  UNL     1      14.686 -10.701  20.249  1.00  0.00     0.166 C 
BRANCH  14  15
HETATM   15  N5  UNL     1      13.700 -10.628  21.289  1.00  0.00    -0.362 N 
HETATM   16  C9  UNL     1      12.923 -11.655  21.611  1.00  0.00     0.093 A 
HETATM   17  C10 UNL     1      11.956 -11.506  22.579  1.00  0.00     0.053 A 
HETATM   18  C11 UNL     1      11.763 -10.316  23.231  1.00  0.00     0.068 A 
HETATM   19  C12 UNL     1      12.568  -9.251  22.894  1.00  0.00     0.053 A 
HETATM   20  C13 UNL     1      13.524  -9.437  21.925  1.00  0.00     0.093 A 
BRANCH  18  21
HETATM   21  O1  UNL     1      10.785 -10.155  24.211  1.00  0.00    -0.361 OA
ATOM     22  H1  UNL     1      10.776  -9.411  24.801  1.00  0.00     0.217 HD
ENDBRANCH  18  21
ENDBRANCH  14  15
ENDBRANCH  11  14
ENDBRANCH   7   8
ENDBRANCH   5   7
BRANCH   6  23
HETATM   23  C17 UNL     1      18.694 -15.412  24.388  1.00  0.00     0.298 C 
BRANCH  23  24
HETATM   24  N6  UNL     1      18.601 -16.773  23.983  1.00  0.00    -0.067 N 
HETATM   25  C18 UNL     1      18.556 -17.607  25.261  1.00  0.00     0.272 C 
HETATM   26  C19 UNL     1      20.039 -17.061  23.594  1.00  0.00     0.272 C 
BRANCH  24  27
HETATM   27  C20 UNL     1      17.693 -17.339  23.140  1.00  0.00     0.269 C 
BRANCH  27  28
HETATM   28  C21 UNL     1      16.440 -16.703  22.698  1.00  0.00     0.155 C 
BRANCH  28  29
HETATM   29  O2  UNL     1      15.464 -17.054  23.693  1.00  0.00    -0.393 OA
ATOM     30  H2  UNL     1      15.358 -16.274  24.225  1.00  0.00     0.210 HD
ENDBRANCH  28  29
BRANCH  28  31
HETATM   31  C22 UNL     1      15.842 -16.813  21.387  1.00  0.00     0.141 C 
BRANCH  31  32
HETATM   32  S1  UNL     1      14.280 -16.089  21.027  1.00  0.00     0.013 S 
HETATM   33  C23 UNL     1      14.456 -15.097  19.527  1.00  0.00     0.127 C 
HETATM   34  O3  UNL     1      13.635 -15.191  22.259  1.00  0.00    -0.258 OA
ENDBRANCH  31  32
ENDBRANCH  28  31
ENDBRANCH  27  28
ENDBRANCH  24  27
ENDBRANCH  23  24
ENDBRANCH   6  23
BRANCH   1  35
HETATM   35  N1  UNL     1      21.159 -14.376  25.537  1.00  0.00    -0.378 N 
HETATM   36  C1  UNL     1      20.905 -13.462  26.618  1.00  0.00     0.147 C 
ATOM     37  H1  UNL     1      21.614 -15.264  25.750  1.00  0.00     0.160 HD
ENDBRANCH   1  35
TORSDOF 13
ENDMDL
MODEL 2
REMARK VINA RESULT: -7.781593526      3.065      4.614
REMARK  13 active torsions:
REMARK  status: ('A' for Active; 'I' for Inactive)
REMARK    1  A    between atoms: N1_2  and  C2_4 
REMARK    2  A    between atoms: N4_8  and  C3_9 
REMARK    3  A    between atoms: C3_9  and  C4_10 
REMARK    4  A    between atoms: C7_13  and  C8_14 
REMARK    5  A    between atoms: C8_14  and  N5_15 
REMARK    6  A    between atoms: C11_18  and  O1_19 
REMARK    7  A    between atoms: C16_25  and  C17_26 
REMARK    8  A    between atoms: C17_26  and  N6_27 
REMARK    9  A    between atoms: N6_27  and  C20_30 
REMARK   10  A    between atoms: C20_30  and  C21_31 
REMARK   11  A    between atoms: C21_31  and  O2_32 
REMARK   12  A    between atoms: C21_31  and  C22_34 
REMARK   13  A    between atoms: C22_34  and  S1_35 
ROOT
HETATM    1  C2  UNL     1      18.417 -15.999  23.831  1.00  0.00     0.140 A 
HETATM    2  N2  UNL     1      18.180 -16.727  22.747  1.00  0.00    -0.268 N 
ATOM      3  H2  UNL     1      17.731 -17.643  22.737  1.00  0.00     0.186 HD
HETATM    4  N3  UNL     1      18.618 -16.075  21.682  1.00  0.00    -0.018 NA
HETATM    5  N4  UNL     1      19.144 -14.902  22.104  1.00  0.00    -0.270 N 
HETATM    6  C16 UNL     1      19.060 -14.810  23.392  1.00  0.00     0.097 A 
ENDROOT
BRANCH   5   7
HETATM    7  C3  UNL     1      19.360 -13.870  21.030  1.00  0.00     0.185 C 
BRANCH   7   8
HETATM    8  C4  UNL     1      17.927 -13.267  20.939  1.00  0.00    -0.039 A 
HETATM    9  C5  UNL     1      16.894 -14.023  20.462  1.00  0.00     0.009 A 
HETATM   10  C6  UNL     1      15.656 -13.411  20.146  1.00  0.00     0.009 A 
HETATM   11  C7  UNL     1      15.478 -12.067  20.314  1.00  0.00    -0.040 A 
HETATM   12  C14 UNL     1      16.554 -11.319  20.816  1.00  0.00     0.009 A 
HETATM   13  C15 UNL     1      17.768 -11.913  21.125  1.00  0.00     0.009 A 
BRANCH  11  14
HETATM   14  C8  UNL     1      14.253 -11.364  19.834  1.00  0.00     0.166 C 
BRANCH  14  15
HETATM   15  N5  UNL     1      13.417 -10.931  20.916  1.00  0.00    -0.362 N 
HETATM   16  C9  UNL     1      13.383  -9.671  21.334  1.00  0.00     0.093 A 
HETATM   17  C10 UNL     1      12.603  -9.328  22.416  1.00  0.00     0.053 A 
HETATM   18  C11 UNL     1      11.850 -10.256  23.088  1.00  0.00     0.068 A 
HETATM   19  C12 UNL     1      11.890 -11.563  22.655  1.00  0.00     0.053 A 
HETATM   20  C13 UNL     1      12.677 -11.868  21.571  1.00  0.00     0.093 A 
BRANCH  18  21
HETATM   21  O1  UNL     1      11.061  -9.919  24.185  1.00  0.00    -0.361 OA
ATOM     22  H1  UNL     1      10.220 -10.330  24.350  1.00  0.00     0.217 HD
ENDBRANCH  18  21
ENDBRANCH  14  15
ENDBRANCH  11  14
ENDBRANCH   7   8
ENDBRANCH   5   7
BRANCH   6  23
HETATM   23  C17 UNL     1      19.416 -13.767  24.361  1.00  0.00     0.298 C 
BRANCH  23  24
HETATM   24  N6  UNL     1      20.773 -13.703  24.786  1.00  0.00    -0.067 N 
HETATM   25  C18 UNL     1      20.807 -14.230  26.218  1.00  0.00     0.272 C 
HETATM   26  C19 UNL     1      20.911 -12.225  25.100  1.00  0.00     0.272 C 
BRANCH  24  27
HETATM   27  C20 UNL     1      21.871 -14.227  24.172  1.00  0.00     0.269 C 
BRANCH  27  28
HETATM   28  C21 UNL     1      22.448 -15.551  24.458  1.00  0.00     0.155 C 
BRANCH  28  29
HETATM   29  O2  UNL     1      23.865 -15.335  24.555  1.00  0.00    -0.393 OA
ATOM     30  H2  UNL     1      24.074 -15.447  25.475  1.00  0.00     0.210 HD
ENDBRANCH  28  29
BRANCH  28  31
HETATM   31  C22 UNL     1      22.202 -16.769  23.719  1.00  0.00     0.141 C 
BRANCH  31  32
HETATM   32  S1  UNL     1      23.467 -17.537  22.769  1.00  0.00     0.013 S 
HETATM   33  C23 UNL     1      24.323 -18.721  23.832  1.00  0.00     0.127 C 
HETATM   34  O3  UNL     1      24.539 -16.487  22.069  1.00  0.00    -0.258 OA
ENDBRANCH  31  32
ENDBRANCH  28  31
ENDBRANCH  27  28
ENDBRANCH  24  27
ENDBRANCH  23  24
ENDBRANCH   6  23
BRANCH   1  35
HETATM   35  N1  UNL     1      18.155 -16.298  25.047  1.00  0.00    -0.378 N 
HETATM   36  C1  UNL     1      18.818 -17.356  25.762  1.00  0.00     0.147 C 
ATOM     37  H1  UNL     1      17.439 -15.759  25.535  1.00  0.00     0.160 HD
ENDBRANCH   1  35
TORSDOF 13
ENDMDL
MODEL 3
REMARK VINA RESULT: -7.780522412      2.725      3.566
REMARK  13 active torsions:
REMARK  status: ('A' for Active; 'I' for Inactive)
REMARK    1  A    between atoms: N1_2  and  C2_4 
REMARK    2  A    between atoms: N4_8  and  C3_9 
REMARK    3  A    between atoms: C3_9  and  C4_10 
REMARK    4  A    between atoms: C7_13  and  C8_14 
REMARK    5  A    between atoms: C8_14  and  N5_15 
REMARK    6  A    between atoms: C11_18  and  O1_19 
REMARK    7  A    between atoms: C16_25  and  C17_26 
REMARK    8  A    between atoms: C17_26  and  N6_27 
REMARK    9  A    between atoms: N6_27  and  C20_30 
REMARK   10  A    between atoms: C20_30  and  C21_31 
REMARK   11  A    between atoms: C21_31  and  O2_32 
REMARK   12  A    between atoms: C21_31  and  C22_34 
REMARK   13  A    between atoms: C22_34  and  S1_35 
ROOT
HETATM    1  C2  UNL     1      20.569 -14.202  24.350  1.00  0.00     0.140 A 
HETATM    2  N2  UNL     1      21.335 -13.276  23.788  1.00  0.00    -0.268 N 
ATOM      3  H2  UNL     1      22.120 -12.804  24.239  1.00  0.00     0.186 HD
HETATM    4  N3  UNL     1      20.920 -13.063  22.550  1.00  0.00    -0.018 NA
HETATM    5  N4  UNL     1      19.864 -13.877  22.323  1.00  0.00    -0.270 N 
HETATM    6  C16 UNL     1      19.602 -14.578  23.380  1.00  0.00     0.097 A 
ENDROOT
BRANCH   5   7
HETATM    7  C3  UNL     1      19.484 -14.051  20.877  1.00  0.00     0.185 C 
BRANCH   7   8
HETATM    8  C4  UNL     1      18.102 -13.333  20.869  1.00  0.00    -0.039 A 
HETATM    9  C5  UNL     1      16.949 -14.063  20.817  1.00  0.00     0.009 A 
HETATM   10  C6  UNL     1      15.714 -13.418  20.561  1.00  0.00     0.009 A 
HETATM   11  C7  UNL     1      15.658 -12.067  20.365  1.00  0.00    -0.040 A 
HETATM   12  C14 UNL     1      16.857 -11.342  20.436  1.00  0.00     0.009 A 
HETATM   13  C15 UNL     1      18.069 -11.969  20.685  1.00  0.00     0.009 A 
BRANCH  11  14
HETATM   14  C8  UNL     1      14.408 -11.382  19.926  1.00  0.00     0.166 C 
BRANCH  14  15
HETATM   15  N5  UNL     1      13.560 -11.040  21.032  1.00  0.00    -0.362 N 
HETATM   16  C9  UNL     1      12.731 -11.913  21.594  1.00  0.00     0.093 A 
HETATM   17  C10 UNL     1      11.901 -11.510  22.615  1.00  0.00     0.053 A 
HETATM   18  C11 UNL     1      11.898 -10.220  23.078  1.00  0.00     0.068 A 
HETATM   19  C12 UNL     1      12.755  -9.316  22.492  1.00  0.00     0.053 A 
HETATM   20  C13 UNL     1      13.572  -9.754  21.477  1.00  0.00     0.093 A 
BRANCH  18  21
HETATM   21  O1  UNL     1      11.058  -9.803  24.109  1.00  0.00    -0.361 OA
ATOM     22  H1  UNL     1      10.699  -8.924  24.146  1.00  0.00     0.217 HD
ENDBRANCH  18  21
ENDBRANCH  14  15
ENDBRANCH  11  14
ENDBRANCH   7   8
ENDBRANCH   5   7
BRANCH   6  23
HETATM   23  C17 UNL     1      18.625 -15.629  23.684  1.00  0.00     0.298 C 
BRANCH  23  24
HETATM   24  N6  UNL     1      18.898 -16.939  23.198  1.00  0.00    -0.067 N 
HETATM   25  C18 UNL     1      17.571 -17.506  22.702  1.00  0.00     0.272 C 
HETATM   26  C19 UNL     1      18.989 -17.718  24.497  1.00  0.00     0.272 C 
BRANCH  24  27
HETATM   27  C20 UNL     1      19.829 -17.315  22.278  1.00  0.00     0.269 C 
BRANCH  27  28
HETATM   28  C21 UNL     1      21.165 -17.848  22.596  1.00  0.00     0.155 C 
BRANCH  28  29
HETATM   29  O2  UNL     1      22.043 -16.711  22.568  1.00  0.00    -0.393 OA
ATOM     30  H2  UNL     1      21.826 -16.246  21.769  1.00  0.00     0.210 HD
ENDBRANCH  28  29
BRANCH  28  31
HETATM   31  C22 UNL     1      21.815 -18.967  21.953  1.00  0.00     0.141 C 
BRANCH  31  32
HETATM   32  S1  UNL     1      22.717 -18.769  20.457  1.00  0.00     0.013 S 
HETATM   33  C23 UNL     1      24.470 -19.004  20.827  1.00  0.00     0.127 C 
HETATM   34  O3  UNL     1      22.463 -17.328  19.684  1.00  0.00    -0.258 OA
ENDBRANCH  31  32
ENDBRANCH  28  31
ENDBRANCH  27  28
ENDBRANCH  24  27
ENDBRANCH  23  24
ENDBRANCH   6  23
BRANCH   1  35
HETATM   35  N1  UNL     1      20.646 -14.664  25.542  1.00  0.00    -0.378 N 
HETATM   36  C1  UNL     1      20.676 -13.828  26.713  1.00  0.00     0.147 C 
ATOM     37  H1  UNL     1      20.689 -15.675  25.668  1.00  0.00     0.160 HD
ENDBRANCH   1  35
TORSDOF 13
ENDMDL
MODEL 4
REMARK VINA RESULT: -7.721353540      1.558      1.973
REMARK  13 active torsions:
REMARK  status: ('A' for Active; 'I' for Inactive)
REMARK    1  A    between atoms: N1_2  and  C2_4 
REMARK    2  A    between atoms: N4_8  and  C3_9 
REMARK    3  A    between atoms: C3_9  and  C4_10 
REMARK    4  A    between atoms: C7_13  and  C8_14 
REMARK    5  A    between atoms: C8_14  and  N5_15 
REMARK    6  A    between atoms: C11_18  and  O1_19 
REMARK    7  A    between atoms: C16_25  and  C17_26 
REMARK    8  A    between atoms: C17_26  and  N6_27 
REMARK    9  A    between atoms: N6_27  and  C20_30 
REMARK   10  A    between atoms: C20_30  and  C21_31 
REMARK   11  A    between atoms: C21_31  and  O2_32 
REMARK   12  A    between atoms: C21_31  and  C22_34 
REMARK   13  A    between atoms: C22_34  and  S1_35 
ROOT
HETATM    1  C2  UNL     1      20.568 -14.695  24.096  1.00  0.00     0.140 A 
HETATM    2  N2  UNL     1      20.565 -13.374  24.219  1.00  0.00    -0.268 N 
ATOM      3  H2  UNL     1      20.848 -12.857  25.052  1.00  0.00     0.186 HD
HETATM    4  N3  UNL     1      20.136 -12.834  23.089  1.00  0.00    -0.018 NA
HETATM    5  N4  UNL     1      19.863 -13.841  22.229  1.00  0.00    -0.270 N 
HETATM    6  C16 UNL     1      20.095 -14.985  22.788  1.00  0.00     0.097 A 
ENDROOT
BRANCH   5   7
HETATM    7  C3  UNL     1      19.716 -13.434  20.787  1.00  0.00     0.185 C 
BRANCH   7   8
HETATM    8  C4  UNL     1      18.248 -12.915  20.797  1.00  0.00    -0.039 A 
HETATM    9  C5  UNL     1      17.211 -13.793  20.932  1.00  0.00     0.009 A 
HETATM   10  C6  UNL     1      15.883 -13.361  20.694  1.00  0.00     0.009 A 
HETATM   11  C7  UNL     1      15.623 -12.070  20.331  1.00  0.00    -0.040 A 
HETATM   12  C14 UNL     1      16.708 -11.188  20.212  1.00  0.00     0.009 A 
HETATM   13  C15 UNL     1      18.009 -11.607  20.442  1.00  0.00     0.009 A 
BRANCH  11  14
HETATM   14  C8  UNL     1      14.263 -11.625  19.908  1.00  0.00     0.166 C 
BRANCH  14  15
HETATM   15  N5  UNL     1      13.459 -11.207  21.021  1.00  0.00    -0.362 N 
HETATM   16  C9  UNL     1      12.645 -12.034  21.667  1.00  0.00     0.093 A 
HETATM   17  C10 UNL     1      11.856 -11.560  22.690  1.00  0.00     0.053 A 
HETATM   18  C11 UNL     1      11.881 -10.243  23.072  1.00  0.00     0.068 A 
HETATM   19  C12 UNL     1      12.723  -9.387  22.399  1.00  0.00     0.053 A 
HETATM   20  C13 UNL     1      13.498  -9.895  21.385  1.00  0.00     0.093 A 
BRANCH  18  21
HETATM   21  O1  UNL     1      11.084  -9.754  24.105  1.00  0.00    -0.361 OA
ATOM     22  H1  UNL     1      10.746  -8.866  24.107  1.00  0.00     0.217 HD
ENDBRANCH  18  21
ENDBRANCH  14  15
ENDBRANCH  11  14
ENDBRANCH   7   8
ENDBRANCH   5   7
BRANCH   6  23
HETATM   23  C17 UNL     1      20.023 -16.375  22.324  1.00  0.00     0.298 C 
BRANCH  23  24
HETATM   24  N6  UNL     1      18.808 -17.081  22.552  1.00  0.00    -0.067 N 
HETATM   25  C18 UNL     1      19.194 -18.438  23.134  1.00  0.00     0.272 C 
HETATM   26  C19 UNL     1      18.470 -17.541  21.146  1.00  0.00     0.272 C 
BRANCH  24  27
HETATM   27  C20 UNL     1      17.719 -16.670  23.260  1.00  0.00     0.269 C 
BRANCH  27  28
HETATM   28  C21 UNL     1      16.381 -17.282  23.183  1.00  0.00     0.155 C 
BRANCH  28  29
HETATM   29  O2  UNL     1      15.484 -16.196  22.896  1.00  0.00    -0.393 OA
ATOM     30  H2  UNL     1      14.630 -16.599  22.787  1.00  0.00     0.210 HD
ENDBRANCH  28  29
BRANCH  28  31
HETATM   31  C22 UNL     1      15.779 -18.148  24.171  1.00  0.00     0.141 C 
BRANCH  31  32
HETATM   32  S1  UNL     1      14.749 -19.495  23.705  1.00  0.00     0.013 S 
HETATM   33  C23 UNL     1      14.155 -19.189  22.027  1.00  0.00     0.127 C 
HETATM   34  O3  UNL     1      13.488 -19.788  24.736  1.00  0.00    -0.258 OA
ENDBRANCH  31  32
ENDBRANCH  28  31
ENDBRANCH  27  28
ENDBRANCH  24  27
ENDBRANCH  23  24
ENDBRANCH   6  23
BRANCH   1  35
HETATM   35  N1  UNL     1      20.900 -15.562  24.977  1.00  0.00    -0.378 N 
HETATM   36  C1  UNL     1      20.048 -15.943  26.072  1.00  0.00     0.147 C 
ATOM     37  H1  UNL     1      21.815 -16.006  24.899  1.00  0.00     0.160 HD
ENDBRANCH   1  35
TORSDOF 13
ENDMDL
MODEL 5
REMARK VINA RESULT: -7.716784907      3.268      4.536
REMARK  13 active torsions:
REMARK  status: ('A' for Active; 'I' for Inactive)
REMARK    1  A    between atoms: N1_2  and  C2_4 
REMARK    2  A    between atoms: N4_8  and  C3_9 
REMARK    3  A    between atoms: C3_9  and  C4_10 
REMARK    4  A    between atoms: C7_13  and  C8_14 
REMARK    5  A    between atoms: C8_14  and  N5_15 
REMARK    6  A    between atoms: C11_18  and  O1_19 
REMARK    7  A    between atoms: C16_25  and  C17_26 
REMARK    8  A    between atoms: C17_26  and  N6_27 
REMARK    9  A    between atoms: N6_27  and  C20_30 
REMARK   10  A    between atoms: C20_30  and  C21_31 
REMARK   11  A    between atoms: C21_31  and  O2_32 
REMARK   12  A    between atoms: C21_31  and  C22_34 
REMARK   13  A    between atoms: C22_34  and  S1_35 
ROOT
HETATM    1  C2  UNL     1      20.669 -13.558  23.466  1.00  0.00     0.140 A 
HETATM    2  N2  UNL     1      20.919 -13.157  22.226  1.00  0.00    -0.268 N 
ATOM      3  H2  UNL     1      21.692 -12.554  21.944  1.00  0.00     0.186 HD
HETATM    4  N3  UNL     1      20.005 -13.665  21.415  1.00  0.00    -0.018 NA
HETATM    5  N4  UNL     1      19.157 -14.408  22.161  1.00  0.00    -0.270 N 
HETATM    6  C16 UNL     1      19.504 -14.369  23.408  1.00  0.00     0.097 A 
ENDROOT
BRANCH   5   7
HETATM    7  C3  UNL     1      18.277 -15.353  21.388  1.00  0.00     0.185 C 
BRANCH   7   8
HETATM    8  C4  UNL     1      17.031 -14.447  21.164  1.00  0.00    -0.039 A 
HETATM    9  C5  UNL     1      16.174 -14.702  20.132  1.00  0.00     0.009 A 
HETATM   10  C6  UNL     1      15.190 -13.746  19.776  1.00  0.00     0.009 A 
HETATM   11  C7  UNL     1      15.084 -12.566  20.457  1.00  0.00    -0.040 A 
HETATM   12  C14 UNL     1      15.971 -12.338  21.520  1.00  0.00     0.009 A 
HETATM   13  C15 UNL     1      16.937 -13.269  21.870  1.00  0.00     0.009 A 
BRANCH  11  14
HETATM   14  C8  UNL     1      14.179 -11.470  20.004  1.00  0.00     0.166 C 
BRANCH  14  15
HETATM   15  N5  UNL     1      13.348 -10.980  21.067  1.00  0.00    -0.362 N 
HETATM   16  C9  UNL     1      13.401  -9.723  21.494  1.00  0.00     0.093 A 
HETATM   17  C10 UNL     1      12.619  -9.328  22.556  1.00  0.00     0.053 A 
HETATM   18  C11 UNL     1      11.777 -10.198  23.199  1.00  0.00     0.068 A 
HETATM   19  C12 UNL     1      11.727 -11.501  22.756  1.00  0.00     0.053 A 
HETATM   20  C13 UNL     1      12.519 -11.861  21.692  1.00  0.00     0.093 A 
BRANCH  18  21
HETATM   21  O1  UNL     1      10.985  -9.807  24.276  1.00  0.00    -0.361 OA
ATOM     22  H1  UNL     1      11.074  -8.956  24.688  1.00  0.00     0.217 HD
ENDBRANCH  18  21
ENDBRANCH  14  15
ENDBRANCH  11  14
ENDBRANCH   7   8
ENDBRANCH   5   7
BRANCH   6  23
HETATM   23  C17 UNL     1      18.992 -15.008  24.625  1.00  0.00     0.298 C 
BRANCH  23  24
HETATM   24  N6  UNL     1      19.532 -16.277  24.976  1.00  0.00    -0.067 N 
HETATM   25  C18 UNL     1      18.555 -17.327  24.456  1.00  0.00     0.272 C 
HETATM   26  C19 UNL     1      19.165 -16.354  26.446  1.00  0.00     0.272 C 
BRANCH  24  27
HETATM   27  C20 UNL     1      20.777 -16.763  24.707  1.00  0.00     0.269 C 
BRANCH  27  28
HETATM   28  C21 UNL     1      21.868 -16.881  25.689  1.00  0.00     0.155 C 
BRANCH  28  29
HETATM   29  O2  UNL     1      22.408 -15.556  25.817  1.00  0.00    -0.393 OA
ATOM     30  H2  UNL     1      21.712 -14.973  25.536  1.00  0.00     0.210 HD
ENDBRANCH  28  29
BRANCH  28  31
HETATM   31  C22 UNL     1      22.954 -17.835  25.649  1.00  0.00     0.141 C 
BRANCH  31  32
HETATM   32  S1  UNL     1      24.577 -17.359  25.166  1.00  0.00     0.013 S 
HETATM   33  C23 UNL     1      25.596 -17.260  26.654  1.00  0.00     0.127 C 
HETATM   34  O3  UNL     1      24.653 -15.951  24.299  1.00  0.00    -0.258 OA
ENDBRANCH  31  32
ENDBRANCH  28  31
ENDBRANCH  27  28
ENDBRANCH  24  27
ENDBRANCH  23  24
ENDBRANCH   6  23
BRANCH   1  35
HETATM   35  N1  UNL     1      21.319 -13.264  24.529  1.00  0.00    -0.378 N 
HETATM   36  C1  UNL     1      21.035 -12.105  25.333  1.00  0.00     0.147 C 
ATOM     37  H1  UNL     1      22.076 -13.881  24.821  1.00  0.00     0.160 HD
ENDBRANCH   1  35
TORSDOF 13
ENDMDL
