MODEL 1
REMARK VINA RESULT: -8.480270142      0.000      0.000
REMARK  12 active torsions:
REMARK  status: ('A' for Active; 'I' for Inactive)
REMARK    1  A    between atoms: C2_5  and  N3_6 
REMARK    2  A    between atoms: C3_11  and  C4_12 
REMARK    3  A    between atoms: N5_15  and  C7_16 
REMARK    4  A    between atoms: C7_16  and  C8_17 
REMARK    5  A    between atoms: C8_17  and  C9_18 
REMARK    6  A    between atoms: N6_21  and  C12_22 
REMARK    7  A    between atoms: C12_22  and  C13_23 
REMARK    8  A    between atoms: C13_23  and  N7_24 
REMARK    9  A    between atoms: C16_27  and  C17_28 
REMARK   10  A    between atoms: C17_28  and  N8_29 
REMARK   11  A    between atoms: C23_38  and  C24_39 
REMARK   12  A    between atoms: C24_39  and  C25_40 
ROOT
HETATM    1  C4  UNL     1      20.236 -15.572  23.383  1.00  0.00     0.019 A 
HETATM    2  C5  UNL     1      19.423 -15.833  22.274  1.00  0.00     0.033 A 
HETATM    3  C6  UNL     1      19.277 -14.925  21.240  1.00  0.00     0.091 A 
HETATM    4  N5  UNL     1      19.906 -13.747  21.243  1.00  0.00    -0.366 N 
HETATM    5  C22 UNL     1      20.684 -13.475  22.281  1.00  0.00     0.099 A 
HETATM    6  C23 UNL     1      20.877 -14.353  23.368  1.00  0.00    -0.019 A 
ENDROOT
BRANCH   4   7
HETATM    7  C7  UNL     1      19.752 -12.797  20.165  1.00  0.00     0.132 C 
BRANCH   7   8
HETATM    8  C8  UNL     1      18.986 -11.588  20.688  1.00  0.00     0.058 C 
BRANCH   8   9
HETATM    9  C9  UNL     1      17.521 -11.812  20.574  1.00  0.00    -0.054 A 
HETATM   10  C10 UNL     1      16.855 -12.442  21.601  1.00  0.00     0.024 A 
HETATM   11  C11 UNL     1      15.497 -12.657  21.514  1.00  0.00     0.091 A 
HETATM   12  N6  UNL     1      14.757 -12.277  20.452  1.00  0.00    -0.365 N 
HETATM   13  C20 UNL     1      15.409 -11.662  19.450  1.00  0.00     0.091 A 
HETATM   14  C21 UNL     1      16.777 -11.418  19.482  1.00  0.00     0.024 A 
BRANCH  12  15
HETATM   15  C12 UNL     1      13.350 -12.496  20.349  1.00  0.00     0.148 C 
BRANCH  15  16
HETATM   16  C13 UNL     1      12.634 -12.766  21.627  1.00  0.00     0.148 C 
BRANCH  16  17
HETATM   17  N7  UNL     1      12.312 -11.576  22.384  1.00  0.00    -0.365 N 
HETATM   18  C14 UNL     1      12.714 -10.362  21.931  1.00  0.00     0.091 A 
HETATM   19  C15 UNL     1      12.441  -9.188  22.600  1.00  0.00     0.026 A 
HETATM   20  C16 UNL     1      11.729  -9.222  23.785  1.00  0.00    -0.030 A 
HETATM   21  C18 UNL     1      11.320 -10.443  24.250  1.00  0.00     0.026 A 
HETATM   22  C19 UNL     1      11.624 -11.601  23.531  1.00  0.00     0.091 A 
BRANCH  20  23
HETATM   23  C17 UNL     1      11.456  -7.940  24.473  1.00  0.00     0.268 C 
BRANCH  23  24
HETATM   24  N8  UNL     1      12.653  -7.106  24.469  1.00  0.00    -0.075 N 
ATOM     25  H83 UNL     1      13.261  -7.315  23.677  1.00  0.00     0.274 HD
ATOM     26  H82 UNL     1      12.441  -6.134  24.243  1.00  0.00     0.274 HD
ATOM     27  H81 UNL     1      13.142  -7.194  25.360  1.00  0.00     0.274 HD
ENDBRANCH  23  24
ENDBRANCH  20  23
ENDBRANCH  16  17
ENDBRANCH  15  16
ENDBRANCH  12  15
ENDBRANCH   8   9
ENDBRANCH   7   8
ENDBRANCH   4   7
BRANCH   6  28
HETATM   28  C24 UNL     1      21.764 -13.935  24.480  1.00  0.00     0.154 C 
BRANCH  28  29
HETATM   29  C25 UNL     1      21.001 -13.096  25.439  1.00  0.00     0.177 C 
HETATM   30  O1  UNL     1      20.914 -11.865  25.296  1.00  0.00    -0.648 OA
HETATM   31  O2  UNL     1      20.392 -13.765  26.508  1.00  0.00    -0.648 OA
ENDBRANCH  28  29
ENDBRANCH   6  28
BRANCH   1  32
HETATM   32  C3  UNL     1      20.264 -16.517  24.496  1.00  0.00     0.148 A 
HETATM   33  N1  UNL     1      21.206 -17.464  24.660  1.00  0.00    -0.266 N 
HETATM   34  C1  UNL     1      22.382 -17.774  23.894  1.00  0.00     0.180 C 
HETATM   35  N2  UNL     1      20.876 -18.224  25.732  1.00  0.00    -0.129 N 
HETATM   36  C2  UNL     1      19.746 -17.788  26.259  1.00  0.00     0.692 A 
ATOM     37  H2  UNL     1      21.419 -19.014  26.080  1.00  0.00     0.206 HD
HETATM   38  N4  UNL     1      19.373 -16.727  25.484  1.00  0.00    -0.173 N 
ATOM     39  H4  UNL     1      18.533 -16.169  25.633  1.00  0.00     0.186 HD
BRANCH  36  40
HETATM   40  N3  UNL     1      19.114 -18.239  27.269  1.00  0.00    -0.233 N 
ATOM     41  H32 UNL     1      19.339 -18.059  28.247  1.00  0.00     0.174 HD
ATOM     42  H31 UNL     1      18.293 -18.844  27.288  1.00  0.00     0.174 HD
ENDBRANCH  36  40
ENDBRANCH   1  32
TORSDOF 12
ENDMDL
MODEL 2
REMARK VINA RESULT: -8.312338775      2.100      3.194
REMARK  12 active torsions:
REMARK  status: ('A' for Active; 'I' for Inactive)
REMARK    1  A    between atoms: C2_5  and  N3_6 
REMARK    2  A    between atoms: C3_11  and  C4_12 
REMARK    3  A    between atoms: N5_15  and  C7_16 
REMARK    4  A    between atoms: C7_16  and  C8_17 
REMARK    5  A    between atoms: C8_17  and  C9_18 
REMARK    6  A    between atoms: N6_21  and  C12_22 
REMARK    7  A    between atoms: C12_22  and  C13_23 
REMARK    8  A    between atoms: C13_23  and  N7_24 
REMARK    9  A    between atoms: C16_27  and  C17_28 
REMARK   10  A    between atoms: C17_28  and  N8_29 
REMARK   11  A    between atoms: C23_38  and  C24_39 
REMARK   12  A    between atoms: C24_39  and  C25_40 
ROOT
HETATM    1  C4  UNL     1      21.965 -16.431  24.720  1.00  0.00     0.019 A 
HETATM    2  C5  UNL     1      21.188 -17.574  24.502  1.00  0.00     0.033 A 
HETATM    3  C6  UNL     1      19.899 -17.502  24.003  1.00  0.00     0.091 A 
HETATM    4  N5  UNL     1      19.325 -16.334  23.701  1.00  0.00    -0.366 N 
HETATM    5  C22 UNL     1      20.041 -15.236  23.896  1.00  0.00     0.099 A 
HETATM    6  C23 UNL     1      21.357 -15.237  24.401  1.00  0.00    -0.019 A 
ENDROOT
BRANCH   4   7
HETATM    7  C7  UNL     1      17.978 -16.258  23.182  1.00  0.00     0.132 C 
BRANCH   7   8
HETATM    8  C8  UNL     1      18.039 -16.321  21.662  1.00  0.00     0.058 C 
BRANCH   8   9
HETATM    9  C9  UNL     1      17.511 -15.064  21.069  1.00  0.00    -0.054 A 
HETATM   10  C10 UNL     1      16.315 -15.092  20.388  1.00  0.00     0.024 A 
HETATM   11  C11 UNL     1      15.809 -13.936  19.832  1.00  0.00     0.091 A 
HETATM   12  N6  UNL     1      16.434 -12.743  19.917  1.00  0.00    -0.365 N 
HETATM   13  C20 UNL     1      17.602 -12.718  20.582  1.00  0.00     0.091 A 
HETATM   14  C21 UNL     1      18.160 -13.851  21.163  1.00  0.00     0.024 A 
BRANCH  12  15
HETATM   15  C12 UNL     1      15.922 -11.540  19.344  1.00  0.00     0.148 C 
BRANCH  15  16
HETATM   16  C13 UNL     1      14.444 -11.478  19.165  1.00  0.00     0.148 C 
BRANCH  16  17
HETATM   17  N7  UNL     1      13.723 -11.091  20.358  1.00  0.00    -0.365 N 
HETATM   18  C14 UNL     1      13.800  -9.813  20.805  1.00  0.00     0.091 A 
HETATM   19  C15 UNL     1      13.138  -9.375  21.932  1.00  0.00     0.026 A 
HETATM   20  C16 UNL     1      12.355 -10.257  22.656  1.00  0.00    -0.030 A 
HETATM   21  C18 UNL     1      12.272 -11.549  22.212  1.00  0.00     0.026 A 
HETATM   22  C19 UNL     1      12.964 -11.938  21.063  1.00  0.00     0.091 A 
BRANCH  20  23
HETATM   23  C17 UNL     1      11.660  -9.749  23.861  1.00  0.00     0.268 C 
BRANCH  23  24
HETATM   24  N8  UNL     1      10.894 -10.821  24.484  1.00  0.00    -0.075 N 
ATOM     25  H83 UNL     1       9.935 -10.539  24.686  1.00  0.00     0.274 HD
ATOM     26  H82 UNL     1      10.693 -11.578  23.830  1.00  0.00     0.274 HD
ATOM     27  H81 UNL     1      11.377 -11.156  25.318  1.00  0.00     0.274 HD
ENDBRANCH  23  24
ENDBRANCH  20  23
ENDBRANCH  16  17
ENDBRANCH  15  16
ENDBRANCH  12  15
ENDBRANCH   8   9
ENDBRANCH   7   8
ENDBRANCH   4   7
BRANCH   6  28
HETATM   28  C24 UNL     1      22.056 -13.942  24.588  1.00  0.00     0.154 C 
BRANCH  28  29
HETATM   29  C25 UNL     1      21.292 -13.096  25.540  1.00  0.00     0.177 C 
HETATM   30  O1  UNL     1      20.945 -11.940  25.244  1.00  0.00    -0.648 OA
HETATM   31  O2  UNL     1      20.990 -13.667  26.783  1.00  0.00    -0.648 OA
ENDBRANCH  28  29
ENDBRANCH   6  28
BRANCH   1  32
HETATM   32  C3  UNL     1      23.275 -16.559  25.354  1.00  0.00     0.148 A 
HETATM   33  N1  UNL     1      24.444 -16.516  24.688  1.00  0.00    -0.266 N 
HETATM   34  C1  UNL     1      24.735 -16.306  23.296  1.00  0.00     0.180 C 
HETATM   35  N2  UNL     1      25.450 -16.765  25.560  1.00  0.00    -0.129 N 
HETATM   36  C2  UNL     1      24.956 -16.966  26.768  1.00  0.00     0.692 A 
ATOM     37  H2  UNL     1      26.440 -16.793  25.320  1.00  0.00     0.206 HD
HETATM   38  N4  UNL     1      23.603 -16.836  26.630  1.00  0.00    -0.173 N 
ATOM     39  H4  UNL     1      22.932 -16.935  27.391  1.00  0.00     0.186 HD
BRANCH  36  40
HETATM   40  N3  UNL     1      25.578 -17.229  27.848  1.00  0.00    -0.233 N 
ATOM     41  H32 UNL     1      25.776 -18.159  28.217  1.00  0.00     0.174 HD
ATOM     42  H31 UNL     1      25.983 -16.580  28.523  1.00  0.00     0.174 HD
ENDBRANCH  36  40
ENDBRANCH   1  32
TORSDOF 12
ENDMDL
MODEL 3
REMARK VINA RESULT: -8.302366763      2.458      3.258
REMARK  12 active torsions:
REMARK  status: ('A' for Active; 'I' for Inactive)
REMARK    1  A    between atoms: C2_5  and  N3_6 
REMARK    2  A    between atoms: C3_11  and  C4_12 
REMARK    3  A    between atoms: N5_15  and  C7_16 
REMARK    4  A    between atoms: C7_16  and  C8_17 
REMARK    5  A    between atoms: C8_17  and  C9_18 
REMARK    6  A    between atoms: N6_21  and  C12_22 
REMARK    7  A    between atoms: C12_22  and  C13_23 
REMARK    8  A    between atoms: C13_23  and  N7_24 
REMARK    9  A    between atoms: C16_27  and  C17_28 
REMARK   10  A    between atoms: C17_28  and  N8_29 
REMARK   11  A    between atoms: C23_38  and  C24_39 
REMARK   12  A    between atoms: C24_39  and  C25_40 
ROOT
HETATM    1  C4  UNL     1      22.107 -16.193  25.604  1.00  0.00     0.019 A 
HETATM    2  C5  UNL     1      21.290 -15.284  26.286  1.00  0.00     0.033 A 
HETATM    3  C6  UNL     1      20.614 -14.269  25.633  1.00  0.00     0.091 A 
HETATM    4  N5  UNL     1      20.705 -14.101  24.310  1.00  0.00    -0.366 N 
HETATM    5  C22 UNL     1      21.471 -14.949  23.639  1.00  0.00     0.099 A 
HETATM    6  C23 UNL     1      22.187 -16.004  24.241  1.00  0.00    -0.019 A 
ENDROOT
BRANCH   4   7
HETATM    7  C7  UNL     1      20.001 -13.038  23.627  1.00  0.00     0.132 C 
BRANCH   7   8
HETATM    8  C8  UNL     1      20.138 -13.253  22.125  1.00  0.00     0.058 C 
BRANCH   8   9
HETATM    9  C9  UNL     1      18.896 -12.830  21.425  1.00  0.00    -0.054 A 
HETATM   10  C10 UNL     1      17.675 -13.105  21.998  1.00  0.00     0.024 A 
HETATM   11  C11 UNL     1      16.513 -12.720  21.364  1.00  0.00     0.091 A 
HETATM   12  N6  UNL     1      16.499 -12.071  20.182  1.00  0.00    -0.365 N 
HETATM   13  C20 UNL     1      17.692 -11.803  19.624  1.00  0.00     0.091 A 
HETATM   14  C21 UNL     1      18.897 -12.166  20.217  1.00  0.00     0.024 A 
BRANCH  12  15
HETATM   15  C12 UNL     1      15.302 -11.668  19.515  1.00  0.00     0.148 C 
BRANCH  15  16
HETATM   16  C13 UNL     1      14.034 -12.249  20.038  1.00  0.00     0.148 C 
BRANCH  16  17
HETATM   17  N7  UNL     1      13.398 -11.447  21.061  1.00  0.00    -0.365 N 
HETATM   18  C14 UNL     1      13.711 -10.132  21.175  1.00  0.00     0.091 A 
HETATM   19  C15 UNL     1      13.143  -9.309  22.124  1.00  0.00     0.026 A 
HETATM   20  C16 UNL     1      12.211  -9.821  23.008  1.00  0.00    -0.030 A 
HETATM   21  C18 UNL     1      11.889 -11.147  22.900  1.00  0.00     0.026 A 
HETATM   22  C19 UNL     1      12.495 -11.935  21.919  1.00  0.00     0.091 A 
BRANCH  20  23
HETATM   23  C17 UNL     1      11.623  -8.905  24.013  1.00  0.00     0.268 C 
BRANCH  23  24
HETATM   24  N8  UNL     1      12.595  -7.884  24.385  1.00  0.00    -0.075 N 
ATOM     25  H83 UNL     1      12.917  -7.995  25.346  1.00  0.00     0.274 HD
ATOM     26  H82 UNL     1      13.489  -8.016  23.912  1.00  0.00     0.274 HD
ATOM     27  H81 UNL     1      12.207  -6.956  24.216  1.00  0.00     0.274 HD
ENDBRANCH  23  24
ENDBRANCH  20  23
ENDBRANCH  16  17
ENDBRANCH  15  16
ENDBRANCH  12  15
ENDBRANCH   8   9
ENDBRANCH   7   8
ENDBRANCH   4   7
BRANCH   6  28
HETATM   28  C24 UNL     1      23.022 -16.884  23.389  1.00  0.00     0.154 C 
BRANCH  28  29
HETATM   29  C25 UNL     1      24.419 -16.381  23.370  1.00  0.00     0.177 C 
HETATM   30  O1  UNL     1      24.731 -15.357  22.737  1.00  0.00    -0.648 OA
HETATM   31  O2  UNL     1      25.360 -17.120  24.097  1.00  0.00    -0.648 OA
ENDBRANCH  28  29
ENDBRANCH   6  28
BRANCH   1  32
HETATM   32  C3  UNL     1      22.884 -17.173  26.358  1.00  0.00     0.148 A 
HETATM   33  N1  UNL     1      22.450 -18.410  26.662  1.00  0.00    -0.266 N 
HETATM   34  C1  UNL     1      21.230 -19.095  26.330  1.00  0.00     0.180 C 
HETATM   35  N2  UNL     1      23.373 -19.013  27.448  1.00  0.00    -0.129 N 
HETATM   36  C2  UNL     1      24.388 -18.194  27.657  1.00  0.00     0.692 A 
ATOM     37  H2  UNL     1      23.296 -19.958  27.823  1.00  0.00     0.206 HD
HETATM   38  N4  UNL     1      24.075 -17.053  26.975  1.00  0.00    -0.173 N 
ATOM     39  H4  UNL     1      24.664 -16.221  26.939  1.00  0.00     0.186 HD
BRANCH  36  40
HETATM   40  N3  UNL     1      25.443 -18.395  28.342  1.00  0.00    -0.233 N 
ATOM     41  H32 UNL     1      26.396 -18.434  27.980  1.00  0.00     0.174 HD
ATOM     42  H31 UNL     1      25.530 -18.547  29.347  1.00  0.00     0.174 HD
ENDBRANCH  36  40
ENDBRANCH   1  32
TORSDOF 12
ENDMDL
MODEL 4
REMARK VINA RESULT: -8.287951664      2.488      3.499
REMARK  12 active torsions:
REMARK  status: ('A' for Active; 'I' for Inactive)
REMARK    1  A    between atoms: C2_5  and  N3_6 
REMARK    2  A    between atoms: C3_11  and  C4_12 
REMARK    3  A    between atoms: N5_15  and  C7_16 
REMARK    4  A    between atoms: C7_16  and  C8_17 
REMARK    5  A    between atoms: C8_17  and  C9_18 
REMARK    6  A    between atoms: N6_21  and  C12_22 
REMARK    7  A    between atoms: C12_22  and  C13_23 
REMARK    8  A    between atoms: C13_23  and  N7_24 
REMARK    9  A    between atoms: C16_27  and  C17_28 
REMARK   10  A    between atoms: C17_28  and  N8_29 
REMARK   11  A    between atoms: C23_38  and  C24_39 
REMARK   12  A    between atoms: C24_39  and  C25_40 
ROOT
HETATM    1  C4  UNL     1      22.030 -16.119  25.505  1.00  0.00     0.019 A 
HETATM    2  C5  UNL     1      21.200 -15.200  26.156  1.00  0.00     0.033 A 
HETATM    3  C6  UNL     1      20.520 -14.210  25.470  1.00  0.00     0.091 A 
HETATM    4  N5  UNL     1      20.617 -14.078  24.144  1.00  0.00    -0.366 N 
HETATM    5  C22 UNL     1      21.396 -14.937  23.502  1.00  0.00     0.099 A 
HETATM    6  C23 UNL     1      22.118 -15.968  24.139  1.00  0.00    -0.019 A 
ENDROOT
BRANCH   4   7
HETATM    7  C7  UNL     1      19.908 -13.042  23.427  1.00  0.00     0.132 C 
BRANCH   7   8
HETATM    8  C8  UNL     1      20.136 -13.241  21.935  1.00  0.00     0.058 C 
BRANCH   8   9
HETATM    9  C9  UNL     1      18.861 -13.077  21.188  1.00  0.00    -0.054 A 
HETATM   10  C10 UNL     1      17.880 -14.035  21.314  1.00  0.00     0.024 A 
HETATM   11  C11 UNL     1      16.691 -13.900  20.631  1.00  0.00     0.091 A 
HETATM   12  N6  UNL     1      16.421 -12.855  19.822  1.00  0.00    -0.365 N 
HETATM   13  C20 UNL     1      17.379 -11.921  19.700  1.00  0.00     0.091 A 
HETATM   14  C21 UNL     1      18.598 -12.004  20.364  1.00  0.00     0.024 A 
BRANCH  12  15
HETATM   15  C12 UNL     1      15.194 -12.704  19.107  1.00  0.00     0.148 C 
BRANCH  15  16
HETATM   16  C13 UNL     1      14.585 -11.345  19.130  1.00  0.00     0.148 C 
BRANCH  16  17
HETATM   17  N7  UNL     1      13.835 -11.055  20.333  1.00  0.00    -0.365 N 
HETATM   18  C14 UNL     1      13.088 -12.030  20.909  1.00  0.00     0.091 A 
HETATM   19  C15 UNL     1      12.351 -11.826  22.056  1.00  0.00     0.026 A 
HETATM   20  C16 UNL     1      12.356 -10.584  22.665  1.00  0.00    -0.030 A 
HETATM   21  C18 UNL     1      13.108  -9.594  22.090  1.00  0.00     0.026 A 
HETATM   22  C19 UNL     1      13.837  -9.857  20.928  1.00  0.00     0.091 A 
BRANCH  20  23
HETATM   23  C17 UNL     1      11.552 -10.404  23.894  1.00  0.00     0.268 C 
BRANCH  23  24
HETATM   24  N8  UNL     1      10.767 -11.605  24.157  1.00  0.00    -0.075 N 
ATOM     25  H83 UNL     1      10.060 -11.764  23.440  1.00  0.00     0.274 HD
ATOM     26  H82 UNL     1      11.313 -12.456  24.020  1.00  0.00     0.274 HD
ATOM     27  H81 UNL     1      10.360 -11.559  25.091  1.00  0.00     0.274 HD
ENDBRANCH  23  24
ENDBRANCH  20  23
ENDBRANCH  16  17
ENDBRANCH  15  16
ENDBRANCH  12  15
ENDBRANCH   8   9
ENDBRANCH   7   8
ENDBRANCH   4   7
BRANCH   6  28
HETATM   28  C24 UNL     1      22.967 -16.863  23.316  1.00  0.00     0.154 C 
BRANCH  28  29
HETATM   29  C25 UNL     1      24.374 -16.392  23.357  1.00  0.00     0.177 C 
HETATM   30  O1  UNL     1      24.723 -15.341  22.793  1.00  0.00    -0.648 OA
HETATM   31  O2  UNL     1      25.282 -17.195  24.060  1.00  0.00    -0.648 OA
ENDBRANCH  28  29
ENDBRANCH   6  28
BRANCH   1  32
HETATM   32  C3  UNL     1      22.812 -17.070  26.292  1.00  0.00     0.148 A 
HETATM   33  N1  UNL     1      22.400 -18.314  26.601  1.00  0.00    -0.266 N 
HETATM   34  C1  UNL     1      21.206 -19.032  26.248  1.00  0.00     0.180 C 
HETATM   35  N2  UNL     1      23.317 -18.884  27.418  1.00  0.00    -0.129 N 
HETATM   36  C2  UNL     1      24.306 -18.038  27.641  1.00  0.00     0.692 A 
ATOM     37  H2  UNL     1      23.254 -19.826  27.804  1.00  0.00     0.206 HD
HETATM   38  N4  UNL     1      23.984 -16.913  26.937  1.00  0.00    -0.173 N 
ATOM     39  H4  UNL     1      24.553 -16.068  26.904  1.00  0.00     0.186 HD
BRANCH  36  40
HETATM   40  N3  UNL     1      25.349 -18.204  28.355  1.00  0.00    -0.233 N 
ATOM     41  H32 UNL     1      25.680 -19.089  28.738  1.00  0.00     0.174 HD
ATOM     42  H31 UNL     1      26.025 -17.506  28.665  1.00  0.00     0.174 HD
ENDBRANCH  36  40
ENDBRANCH   1  32
TORSDOF 12
ENDMDL
MODEL 5
REMARK VINA RESULT: -8.234579117      2.988      8.341
REMARK  12 active torsions:
REMARK  status: ('A' for Active; 'I' for Inactive)
REMARK    1  A    between atoms: C2_5  and  N3_6 
REMARK    2  A    between atoms: C3_11  and  C4_12 
REMARK    3  A    between atoms: N5_15  and  C7_16 
REMARK    4  A    between atoms: C7_16  and  C8_17 
REMARK    5  A    between atoms: C8_17  and  C9_18 
REMARK    6  A    between atoms: N6_21  and  C12_22 
REMARK    7  A    between atoms: C12_22  and  C13_23 
REMARK    8  A    between atoms: C13_23  and  N7_24 
REMARK    9  A    between atoms: C16_27  and  C17_28 
REMARK   10  A    between atoms: C17_28  and  N8_29 
REMARK   11  A    between atoms: C23_38  and  C24_39 
REMARK   12  A    between atoms: C24_39  and  C25_40 
ROOT
HETATM    1  C4  UNL     1      13.457 -12.807  20.968  1.00  0.00     0.019 A 
HETATM    2  C5  UNL     1      12.694 -13.678  20.182  1.00  0.00     0.033 A 
HETATM    3  C6  UNL     1      13.275 -14.577  19.305  1.00  0.00     0.091 A 
HETATM    4  N5  UNL     1      14.601 -14.664  19.162  1.00  0.00    -0.366 N 
HETATM    5  C22 UNL     1      15.347 -13.852  19.896  1.00  0.00     0.099 A 
HETATM    6  C23 UNL     1      14.821 -12.912  20.807  1.00  0.00    -0.019 A 
ENDROOT
BRANCH   4   7
HETATM    7  C7  UNL     1      15.208 -15.601  18.244  1.00  0.00     0.132 C 
BRANCH   7   8
HETATM    8  C8  UNL     1      14.931 -17.015  18.739  1.00  0.00     0.058 C 
BRANCH   8   9
HETATM    9  C9  UNL     1      15.717 -17.299  19.968  1.00  0.00    -0.054 A 
HETATM   10  C10 UNL     1      15.064 -17.405  21.175  1.00  0.00     0.024 A 
HETATM   11  C11 UNL     1      15.776 -17.670  22.324  1.00  0.00     0.091 A 
HETATM   12  N6  UNL     1      17.115 -17.836  22.340  1.00  0.00    -0.365 N 
HETATM   13  C20 UNL     1      17.751 -17.731  21.161  1.00  0.00     0.091 A 
HETATM   14  C21 UNL     1      17.086 -17.467  19.969  1.00  0.00     0.024 A 
BRANCH  12  15
HETATM   15  C12 UNL     1      17.865 -18.108  23.525  1.00  0.00     0.148 C 
BRANCH  15  16
HETATM   16  C13 UNL     1      17.538 -17.272  24.713  1.00  0.00     0.148 C 
BRANCH  16  17
HETATM   17  N7  UNL     1      18.364 -16.091  24.847  1.00  0.00    -0.365 N 
HETATM   18  C14 UNL     1      19.039 -15.872  26.003  1.00  0.00     0.091 A 
HETATM   19  C15 UNL     1      19.845 -14.771  26.199  1.00  0.00     0.026 A 
HETATM   20  C16 UNL     1      19.988 -13.835  25.190  1.00  0.00    -0.030 A 
HETATM   21  C18 UNL     1      19.310 -14.049  24.021  1.00  0.00     0.026 A 
HETATM   22  C19 UNL     1      18.507 -15.183  23.876  1.00  0.00     0.091 A 
BRANCH  20  23
HETATM   23  C17 UNL     1      20.863 -12.667  25.440  1.00  0.00     0.268 C 
BRANCH  23  24
HETATM   24  N8  UNL     1      22.233 -12.976  25.048  1.00  0.00    -0.075 N 
ATOM     25  H83 UNL     1      22.312 -13.905  24.635  1.00  0.00     0.274 HD
ATOM     26  H82 UNL     1      22.533 -12.428  24.242  1.00  0.00     0.274 HD
ATOM     27  H81 UNL     1      22.858 -12.858  25.845  1.00  0.00     0.274 HD
ENDBRANCH  23  24
ENDBRANCH  20  23
ENDBRANCH  16  17
ENDBRANCH  15  16
ENDBRANCH  12  15
ENDBRANCH   8   9
ENDBRANCH   7   8
ENDBRANCH   4   7
BRANCH   6  28
HETATM   28  C24 UNL     1      15.756 -12.048  21.567  1.00  0.00     0.154 C 
BRANCH  28  29
HETATM   29  C25 UNL     1      16.803 -11.521  20.655  1.00  0.00     0.177 C 
HETATM   30  O1  UNL     1      16.520 -10.751  19.721  1.00  0.00    -0.648 OA
HETATM   31  O2  UNL     1      18.116 -11.939  20.903  1.00  0.00    -0.648 OA
ENDBRANCH  28  29
ENDBRANCH   6  28
BRANCH   1  32
HETATM   32  C3  UNL     1      12.788 -11.803  21.791  1.00  0.00     0.148 A 
HETATM   33  N1  UNL     1      12.831 -10.479  21.550  1.00  0.00    -0.266 N 
HETATM   34  C1  UNL     1      13.446  -9.727  20.491  1.00  0.00     0.180 C 
HETATM   35  N2  UNL     1      12.192  -9.834  22.556  1.00  0.00    -0.129 N 
HETATM   36  C2  UNL     1      11.741 -10.711  23.435  1.00  0.00     0.692 A 
ATOM     37  H2  UNL     1      12.076  -8.824  22.624  1.00  0.00     0.206 HD
HETATM   38  N4  UNL     1      12.116 -11.932  22.951  1.00  0.00    -0.173 N 
ATOM     39  H4  UNL     1      11.915 -12.821  23.407  1.00  0.00     0.186 HD
BRANCH  36  40
HETATM   40  N3  UNL     1      11.095 -10.497  24.512  1.00  0.00    -0.233 N 
ATOM     41  H32 UNL     1      10.707  -9.602  24.812  1.00  0.00     0.174 HD
ATOM     42  H31 UNL     1      10.852 -11.157  25.250  1.00  0.00     0.174 HD
ENDBRANCH  36  40
ENDBRANCH   1  32
TORSDOF 12
ENDMDL
