MODEL 1
REMARK VINA RESULT: -8.598696009      0.000      0.000
REMARK  11 active torsions:
REMARK  status: ('A' for Active; 'I' for Inactive)
REMARK    1  A    between atoms: C2_2  and  C3_3 
REMARK    2  A    between atoms: C2_2  and  N5_19 
REMARK    3  A    between atoms: C3_3  and  C4_4 
REMARK    4  A    between atoms: C4_4  and  C5_5 
REMARK    5  A    between atoms: C5_5  and  C6_6 
REMARK    6  A    between atoms: C6_6  and  C7_7 
REMARK    7  A    between atoms: C7_7  and  C8_8 
REMARK    8  A    between atoms: C8_8  and  N1_9 
REMARK       I    between atoms: N5_19  and  C11_20 
REMARK    9  A    between atoms: C11_20  and  C12_22 
REMARK   10  A    between atoms: C12_22  and  C13_24 
REMARK   11  A    between atoms: C13_24  and  N6_25 
ROOT
HETATM    1  N5  UNL     1      19.371 -13.557  21.066  1.00  0.00    -0.373 NA
HETATM    2  C11 UNL     1      19.250 -12.535  20.266  1.00  0.00     0.363 C 
HETATM    3  O1  UNL     1      20.132 -12.263  19.363  1.00  0.00    -0.248 OA
ENDROOT
BRANCH   2   4
HETATM    4  C12 UNL     1      18.107 -11.594  20.310  1.00  0.00     0.249 C 
HETATM    5  O2  UNL     1      18.247 -10.578  21.061  1.00  0.00    -0.284 OA
BRANCH   4   6
HETATM    6  C13 UNL     1      16.899 -11.854  19.516  1.00  0.00     0.221 C 
BRANCH   6   7
HETATM    7  N6  UNL     1      15.709 -12.143  20.330  1.00  0.00    -0.319 N 
HETATM    8  C14 UNL     1      15.543 -13.407  20.583  1.00  0.00     0.137 A 
HETATM    9  N7  UNL     1      16.350 -14.400  20.173  1.00  0.00    -0.336 N 
HETATM   10  C17 UNL     1      14.516 -14.018  21.307  1.00  0.00     0.082 A 
HETATM   11  C15 UNL     1      15.838 -15.568  20.628  1.00  0.00     0.184 A 
ATOM     12  H7  UNL     1      17.198 -14.294  19.618  1.00  0.00     0.168 HD
HETATM   13  N8  UNL     1      14.728 -15.365  21.317  1.00  0.00    -0.344 N 
HETATM   14  C16 UNL     1      13.841 -16.283  21.985  1.00  0.00     0.157 C 
HETATM   15  C18 UNL     1      13.484 -13.444  21.896  1.00  0.00     0.065 A 
HETATM   16  C19 UNL     1      13.133 -12.033  21.953  1.00  0.00     0.058 A 
HETATM   17  C20 UNL     1      11.989 -11.579  22.596  1.00  0.00     0.119 A 
HETATM   18  N10 UNL     1      13.819 -11.027  21.423  1.00  0.00    -0.302 N 
HETATM   19  N9  UNL     1      12.024 -10.237  22.422  1.00  0.00    -0.359 N 
HETATM   20  C21 UNL     1      13.099  -9.904  21.733  1.00  0.00     0.189 A 
ATOM     21  H9  UNL     1      11.323  -9.583  22.771  1.00  0.00     0.166 HD
HETATM   22  C22 UNL     1      15.017 -10.961  20.691  1.00  0.00     0.194 A 
ENDBRANCH   6   7
ENDBRANCH   4   6
ENDBRANCH   2   4
BRANCH   1  23
HETATM   23  C2  UNL     1      19.528 -14.354  21.969  1.00  0.00     0.062 C 
HETATM   24  C1  UNL     1      19.592 -15.824  21.586  1.00  0.00     0.080 C 
BRANCH  23  25
HETATM   25  C3  UNL     1      19.658 -14.023  23.411  1.00  0.00     0.068 C 
BRANCH  25  26
HETATM   26  C4  UNL     1      20.689 -13.034  23.769  1.00  0.00     0.007 C 
BRANCH  26  27
HETATM   27  C5  UNL     1      20.799 -12.602  25.193  1.00  0.00     0.000 C 
BRANCH  27  28
HETATM   28  C6  UNL     1      20.231 -13.712  26.094  1.00  0.00     0.002 C 
BRANCH  28  29
HETATM   29  C7  UNL     1      21.317 -14.558  26.687  1.00  0.00     0.022 C 
BRANCH  29  30
HETATM   30  C8  UNL     1      21.394 -15.936  26.101  1.00  0.00     0.150 C 
BRANCH  30  31
HETATM   31  N1  UNL     1      22.357 -15.954  25.009  1.00  0.00    -0.273 N 
HETATM   32  C9  UNL     1      22.253 -16.765  23.935  1.00  0.00     0.218 A 
HETATM   33  N2  UNL     1      23.317 -16.483  23.162  1.00  0.00    -0.185 N 
HETATM   34  C10 UNL     1      24.051 -15.521  23.753  1.00  0.00     0.691 A 
ATOM     35  H2  UNL     1      23.534 -16.928  22.271  1.00  0.00     0.185 HD
HETATM   36  N3  UNL     1      25.132 -15.050  23.235  1.00  0.00    -0.233 N 
HETATM   37  N4  UNL     1      23.435 -15.202  24.909  1.00  0.00    -0.129 N 
ATOM     38  H32 UNL     1      25.598 -15.292  22.360  1.00  0.00     0.174 HD
ATOM     39  H31 UNL     1      25.687 -14.322  23.682  1.00  0.00     0.174 HD
ATOM     40  H4  UNL     1      23.748 -14.504  25.585  1.00  0.00     0.206 HD
ENDBRANCH  30  31
ENDBRANCH  29  30
ENDBRANCH  28  29
ENDBRANCH  27  28
ENDBRANCH  26  27
ENDBRANCH  25  26
ENDBRANCH  23  25
ENDBRANCH   1  23
TORSDOF 11
ENDMDL
MODEL 2
REMARK VINA RESULT: -8.477412363      0.684      2.802
REMARK  11 active torsions:
REMARK  status: ('A' for Active; 'I' for Inactive)
REMARK    1  A    between atoms: C2_2  and  C3_3 
REMARK    2  A    between atoms: C2_2  and  N5_19 
REMARK    3  A    between atoms: C3_3  and  C4_4 
REMARK    4  A    between atoms: C4_4  and  C5_5 
REMARK    5  A    between atoms: C5_5  and  C6_6 
REMARK    6  A    between atoms: C6_6  and  C7_7 
REMARK    7  A    between atoms: C7_7  and  C8_8 
REMARK    8  A    between atoms: C8_8  and  N1_9 
REMARK       I    between atoms: N5_19  and  C11_20 
REMARK    9  A    between atoms: C11_20  and  C12_22 
REMARK   10  A    between atoms: C12_22  and  C13_24 
REMARK   11  A    between atoms: C13_24  and  N6_25 
ROOT
HETATM    1  N5  UNL     1      19.748 -13.286  21.085  1.00  0.00    -0.373 NA
HETATM    2  C11 UNL     1      19.453 -12.390  20.187  1.00  0.00     0.363 C 
HETATM    3  O1  UNL     1      20.190 -12.193  19.146  1.00  0.00    -0.248 OA
ENDROOT
BRANCH   2   4
HETATM    4  C12 UNL     1      18.257 -11.518  20.265  1.00  0.00     0.249 C 
HETATM    5  O2  UNL     1      18.337 -10.531  21.061  1.00  0.00    -0.284 OA
BRANCH   4   6
HETATM    6  C13 UNL     1      17.069 -11.811  19.454  1.00  0.00     0.221 C 
BRANCH   6   7
HETATM    7  N6  UNL     1      15.994 -12.480  20.202  1.00  0.00    -0.319 N 
HETATM    8  C14 UNL     1      15.111 -11.661  20.691  1.00  0.00     0.137 A 
HETATM    9  N7  UNL     1      15.121 -10.324  20.555  1.00  0.00    -0.336 N 
HETATM   10  C17 UNL     1      13.983 -11.961  21.459  1.00  0.00     0.082 A 
HETATM   11  C15 UNL     1      14.046  -9.830  21.212  1.00  0.00     0.184 A 
ATOM     12  H7  UNL     1      15.817  -9.778  20.047  1.00  0.00     0.168 HD
HETATM   13  N8  UNL     1      13.340 -10.800  21.768  1.00  0.00    -0.344 N 
HETATM   14  C16 UNL     1      12.134 -10.769  22.555  1.00  0.00     0.157 C 
HETATM   15  C18 UNL     1      13.565 -13.148  21.859  1.00  0.00     0.065 A 
HETATM   16  C19 UNL     1      14.155 -14.455  21.614  1.00  0.00     0.058 A 
HETATM   17  C20 UNL     1      13.608 -15.623  22.128  1.00  0.00     0.119 A 
HETATM   18  N10 UNL     1      15.248 -14.708  20.904  1.00  0.00    -0.302 N 
HETATM   19  N9  UNL     1      14.436 -16.598  21.686  1.00  0.00    -0.359 N 
HETATM   20  C21 UNL     1      15.405 -16.067  20.963  1.00  0.00     0.189 A 
ATOM     21  H9  UNL     1      14.328 -17.593  21.882  1.00  0.00     0.166 HD
HETATM   22  C22 UNL     1      16.144 -13.887  20.195  1.00  0.00     0.194 A 
ENDBRANCH   6   7
ENDBRANCH   4   6
ENDBRANCH   2   4
BRANCH   1  23
HETATM   23  C2  UNL     1      20.076 -13.945  22.052  1.00  0.00     0.062 C 
HETATM   24  C1  UNL     1      19.616 -15.393  22.088  1.00  0.00     0.080 C 
BRANCH  23  25
HETATM   25  C3  UNL     1      20.882 -13.461  23.203  1.00  0.00     0.068 C 
BRANCH  25  26
HETATM   26  C4  UNL     1      20.134 -12.887  24.334  1.00  0.00     0.007 C 
BRANCH  26  27
HETATM   27  C5  UNL     1      20.869 -12.592  25.599  1.00  0.00     0.000 C 
BRANCH  27  28
HETATM   28  C6  UNL     1      20.510 -13.664  26.643  1.00  0.00     0.002 C 
BRANCH  28  29
HETATM   29  C7  UNL     1      21.629 -14.642  26.843  1.00  0.00     0.022 C 
BRANCH  29  30
HETATM   30  C8  UNL     1      21.462 -15.913  26.064  1.00  0.00     0.150 C 
BRANCH  30  31
HETATM   31  N1  UNL     1      22.441 -15.963  24.988  1.00  0.00    -0.273 N 
HETATM   32  C9  UNL     1      22.375 -16.833  23.959  1.00  0.00     0.218 A 
HETATM   33  N2  UNL     1      23.443 -16.565  23.186  1.00  0.00    -0.185 N 
HETATM   34  C10 UNL     1      24.143 -15.553  23.734  1.00  0.00     0.691 A 
ATOM     35  H2  UNL     1      23.685 -17.051  22.323  1.00  0.00     0.185 HD
HETATM   36  N3  UNL     1      25.218 -15.082  23.206  1.00  0.00    -0.233 N 
HETATM   37  N4  UNL     1      23.501 -15.189  24.863  1.00  0.00    -0.129 N 
ATOM     38  H32 UNL     1      25.704 -15.358  22.352  1.00  0.00     0.174 HD
ATOM     39  H31 UNL     1      25.748 -14.315  23.621  1.00  0.00     0.174 HD
ATOM     40  H4  UNL     1      23.785 -14.448  25.504  1.00  0.00     0.206 HD
ENDBRANCH  30  31
ENDBRANCH  29  30
ENDBRANCH  28  29
ENDBRANCH  27  28
ENDBRANCH  26  27
ENDBRANCH  25  26
ENDBRANCH  23  25
ENDBRANCH   1  23
TORSDOF 11
ENDMDL
MODEL 3
REMARK VINA RESULT: -8.125603059      2.878      7.684
REMARK  11 active torsions:
REMARK  status: ('A' for Active; 'I' for Inactive)
REMARK    1  A    between atoms: C2_2  and  C3_3 
REMARK    2  A    between atoms: C2_2  and  N5_19 
REMARK    3  A    between atoms: C3_3  and  C4_4 
REMARK    4  A    between atoms: C4_4  and  C5_5 
REMARK    5  A    between atoms: C5_5  and  C6_6 
REMARK    6  A    between atoms: C6_6  and  C7_7 
REMARK    7  A    between atoms: C7_7  and  C8_8 
REMARK    8  A    between atoms: C8_8  and  N1_9 
REMARK       I    between atoms: N5_19  and  C11_20 
REMARK    9  A    between atoms: C11_20  and  C12_22 
REMARK   10  A    between atoms: C12_22  and  C13_24 
REMARK   11  A    between atoms: C13_24  and  N6_25 
ROOT
HETATM    1  N5  UNL     1      19.681 -12.942  21.755  1.00  0.00    -0.373 NA
HETATM    2  C11 UNL     1      20.194 -13.623  22.740  1.00  0.00     0.363 C 
HETATM    3  O1  UNL     1      21.450 -13.570  23.031  1.00  0.00    -0.248 OA
ENDROOT
BRANCH   2   4
HETATM    4  C12 UNL     1      19.399 -14.517  23.616  1.00  0.00     0.249 C 
HETATM    5  O2  UNL     1      18.791 -13.957  24.581  1.00  0.00    -0.284 OA
BRANCH   4   6
HETATM    6  C13 UNL     1      19.344 -15.960  23.351  1.00  0.00     0.221 C 
BRANCH   6   7
HETATM    7  N6  UNL     1      17.990 -16.454  23.059  1.00  0.00    -0.319 N 
HETATM    8  C14 UNL     1      17.542 -17.301  23.937  1.00  0.00     0.137 A 
HETATM    9  N7  UNL     1      18.203 -17.719  25.030  1.00  0.00    -0.336 N 
HETATM   10  C17 UNL     1      16.314 -17.968  23.950  1.00  0.00     0.082 A 
HETATM   11  C15 UNL     1      17.412 -18.602  25.683  1.00  0.00     0.184 A 
ATOM     12  H7  UNL     1      19.135 -17.424  25.317  1.00  0.00     0.168 HD
HETATM   13  N8  UNL     1      16.263 -18.771  25.051  1.00  0.00    -0.344 N 
HETATM   14  C16 UNL     1      15.120 -19.595  25.354  1.00  0.00     0.157 C 
HETATM   15  C18 UNL     1      15.334 -17.882  23.070  1.00  0.00     0.065 A 
HETATM   16  C19 UNL     1      15.263 -17.083  21.857  1.00  0.00     0.058 A 
HETATM   17  C20 UNL     1      14.163 -17.120  21.009  1.00  0.00     0.119 A 
HETATM   18  N10 UNL     1      16.191 -16.248  21.405  1.00  0.00    -0.302 N 
HETATM   19  N9  UNL     1      14.483 -16.256  20.017  1.00  0.00    -0.359 N 
HETATM   20  C21 UNL     1      15.676 -15.738  20.243  1.00  0.00     0.189 A 
ATOM     21  H9  UNL     1      13.892 -16.040  19.214  1.00  0.00     0.166 HD
HETATM   22  C22 UNL     1      17.455 -15.865  21.888  1.00  0.00     0.194 A 
ENDBRANCH   6   7
ENDBRANCH   4   6
ENDBRANCH   2   4
BRANCH   1  23
HETATM   23  C2  UNL     1      19.187 -12.507  20.734  1.00  0.00     0.062 C 
HETATM   24  C1  UNL     1      20.145 -12.037  19.651  1.00  0.00     0.080 C 
BRANCH  23  25
HETATM   25  C3  UNL     1      17.734 -12.389  20.451  1.00  0.00     0.068 C 
BRANCH  25  26
HETATM   26  C4  UNL     1      16.839 -12.327  21.619  1.00  0.00     0.007 C 
BRANCH  26  27
HETATM   27  C5  UNL     1      15.365 -12.288  21.387  1.00  0.00     0.000 C 
BRANCH  27  28
HETATM   28  C6  UNL     1      15.086 -11.479  20.107  1.00  0.00     0.002 C 
BRANCH  28  29
HETATM   29  C7  UNL     1      13.731 -10.837  20.140  1.00  0.00     0.022 C 
BRANCH  29  30
HETATM   30  C8  UNL     1      13.653  -9.646  21.048  1.00  0.00     0.150 C 
BRANCH  30  31
HETATM   31  N1  UNL     1      12.772  -9.939  22.169  1.00  0.00    -0.273 N 
HETATM   32  C9  UNL     1      12.482  -9.050  23.142  1.00  0.00     0.218 A 
HETATM   33  N2  UNL     1      11.644  -9.688  23.979  1.00  0.00    -0.185 N 
HETATM   34  C10 UNL     1      11.429 -10.937  23.524  1.00  0.00     0.691 A 
ATOM     35  H2  UNL     1      11.237  -9.288  24.824  1.00  0.00     0.185 HD
HETATM   36  N3  UNL     1      10.664 -11.777  24.128  1.00  0.00    -0.233 N 
HETATM   37  N4  UNL     1      12.144 -11.077  22.390  1.00  0.00    -0.129 N 
ATOM     38  H32 UNL     1      10.123 -11.671  24.987  1.00  0.00     0.174 HD
ATOM     39  H31 UNL     1      10.501 -12.723  23.783  1.00  0.00     0.174 HD
ATOM     40  H4  UNL     1      12.191 -11.913  21.808  1.00  0.00     0.206 HD
ENDBRANCH  30  31
ENDBRANCH  29  30
ENDBRANCH  28  29
ENDBRANCH  27  28
ENDBRANCH  26  27
ENDBRANCH  25  26
ENDBRANCH  23  25
ENDBRANCH   1  23
TORSDOF 11
ENDMDL
MODEL 4
REMARK VINA RESULT: -8.021549751      1.926      2.420
REMARK  11 active torsions:
REMARK  status: ('A' for Active; 'I' for Inactive)
REMARK    1  A    between atoms: C2_2  and  C3_3 
REMARK    2  A    between atoms: C2_2  and  N5_19 
REMARK    3  A    between atoms: C3_3  and  C4_4 
REMARK    4  A    between atoms: C4_4  and  C5_5 
REMARK    5  A    between atoms: C5_5  and  C6_6 
REMARK    6  A    between atoms: C6_6  and  C7_7 
REMARK    7  A    between atoms: C7_7  and  C8_8 
REMARK    8  A    between atoms: C8_8  and  N1_9 
REMARK       I    between atoms: N5_19  and  C11_20 
REMARK    9  A    between atoms: C11_20  and  C12_22 
REMARK   10  A    between atoms: C12_22  and  C13_24 
REMARK   11  A    between atoms: C13_24  and  N6_25 
ROOT
HETATM    1  N5  UNL     1      19.562 -13.696  20.876  1.00  0.00    -0.373 NA
HETATM    2  C11 UNL     1      19.369 -12.593  20.211  1.00  0.00     0.363 C 
HETATM    3  O1  UNL     1      20.194 -12.183  19.307  1.00  0.00    -0.248 OA
ENDROOT
BRANCH   2   4
HETATM    4  C12 UNL     1      18.199 -11.707  20.420  1.00  0.00     0.249 C 
HETATM    5  O2  UNL     1      18.313 -10.838  21.341  1.00  0.00    -0.284 OA
BRANCH   4   6
HETATM    6  C13 UNL     1      16.996 -11.857  19.592  1.00  0.00     0.221 C 
BRANCH   6   7
HETATM    7  N6  UNL     1      15.773 -12.110  20.368  1.00  0.00    -0.319 N 
HETATM    8  C14 UNL     1      15.542 -13.371  20.581  1.00  0.00     0.137 A 
HETATM    9  N7  UNL     1      16.311 -14.390  20.164  1.00  0.00    -0.336 N 
HETATM   10  C17 UNL     1      14.468 -13.952  21.261  1.00  0.00     0.082 A 
HETATM   11  C15 UNL     1      15.733 -15.544  20.572  1.00  0.00     0.184 A 
ATOM     12  H7  UNL     1      17.178 -14.309  19.633  1.00  0.00     0.168 HD
HETATM   13  N8  UNL     1      14.617 -15.307  21.239  1.00  0.00    -0.344 N 
HETATM   14  C16 UNL     1      13.670 -16.199  21.859  1.00  0.00     0.157 C 
HETATM   15  C18 UNL     1      13.449 -13.345  21.841  1.00  0.00     0.065 A 
HETATM   16  C19 UNL     1      13.164 -11.921  21.928  1.00  0.00     0.058 A 
HETATM   17  C20 UNL     1      12.026 -11.431  22.554  1.00  0.00     0.119 A 
HETATM   18  N10 UNL     1      13.909 -10.935  21.444  1.00  0.00    -0.302 N 
HETATM   19  N9  UNL     1      12.127 -10.088  22.419  1.00  0.00    -0.359 N 
HETATM   20  C21 UNL     1      13.235  -9.787  21.767  1.00  0.00     0.189 A 
ATOM     21  H9  UNL     1      11.450  -9.410  22.769  1.00  0.00     0.166 HD
HETATM   22  C22 UNL     1      15.128 -10.907  20.743  1.00  0.00     0.194 A 
ENDBRANCH   6   7
ENDBRANCH   4   6
ENDBRANCH   2   4
BRANCH   1  23
HETATM   23  C2  UNL     1      19.790 -14.589  21.669  1.00  0.00     0.062 C 
HETATM   24  C1  UNL     1      19.327 -15.985  21.286  1.00  0.00     0.080 C 
BRANCH  23  25
HETATM   25  C3  UNL     1      20.476 -14.437  22.978  1.00  0.00     0.068 C 
BRANCH  25  26
HETATM   26  C4  UNL     1      20.295 -13.150  23.670  1.00  0.00     0.007 C 
BRANCH  26  27
HETATM   27  C5  UNL     1      21.341 -12.707  24.638  1.00  0.00     0.000 C 
BRANCH  27  28
HETATM   28  C6  UNL     1      20.774 -12.815  26.065  1.00  0.00     0.002 C 
BRANCH  28  29
HETATM   29  C7  UNL     1      20.916 -14.202  26.616  1.00  0.00     0.022 C 
BRANCH  29  30
HETATM   30  C8  UNL     1      19.626 -14.788  27.106  1.00  0.00     0.150 C 
BRANCH  30  31
HETATM   31  N1  UNL     1      19.062 -15.659  26.085  1.00  0.00    -0.273 N 
HETATM   32  C9  UNL     1      19.656 -16.795  25.662  1.00  0.00     0.218 A 
HETATM   33  N2  UNL     1      18.834 -17.310  24.729  1.00  0.00    -0.185 N 
HETATM   34  C10 UNL     1      17.764 -16.505  24.590  1.00  0.00     0.691 A 
ATOM     35  H2  UNL     1      18.996 -18.173  24.211  1.00  0.00     0.185 HD
HETATM   36  N3  UNL     1      16.808 -16.752  23.763  1.00  0.00    -0.233 N 
HETATM   37  N4  UNL     1      17.923 -15.476  25.445  1.00  0.00    -0.129 N 
ATOM     38  H32 UNL     1      16.687 -17.531  23.115  1.00  0.00     0.174 HD
ATOM     39  H31 UNL     1      15.997 -16.143  23.658  1.00  0.00     0.174 HD
ATOM     40  H4  UNL     1      17.279 -14.696  25.575  1.00  0.00     0.206 HD
ENDBRANCH  30  31
ENDBRANCH  29  30
ENDBRANCH  28  29
ENDBRANCH  27  28
ENDBRANCH  26  27
ENDBRANCH  25  26
ENDBRANCH  23  25
ENDBRANCH   1  23
TORSDOF 11
ENDMDL
MODEL 5
REMARK VINA RESULT: -7.980766483      2.199      8.325
REMARK  11 active torsions:
REMARK  status: ('A' for Active; 'I' for Inactive)
REMARK    1  A    between atoms: C2_2  and  C3_3 
REMARK    2  A    between atoms: C2_2  and  N5_19 
REMARK    3  A    between atoms: C3_3  and  C4_4 
REMARK    4  A    between atoms: C4_4  and  C5_5 
REMARK    5  A    between atoms: C5_5  and  C6_6 
REMARK    6  A    between atoms: C6_6  and  C7_7 
REMARK    7  A    between atoms: C7_7  and  C8_8 
REMARK    8  A    between atoms: C8_8  and  N1_9 
REMARK       I    between atoms: N5_19  and  C11_20 
REMARK    9  A    between atoms: C11_20  and  C12_22 
REMARK   10  A    between atoms: C12_22  and  C13_24 
REMARK   11  A    between atoms: C13_24  and  N6_25 
ROOT
HETATM    1  N5  UNL     1      16.211 -14.667  21.230  1.00  0.00    -0.373 NA
HETATM    2  C11 UNL     1      16.952 -13.634  21.514  1.00  0.00     0.363 C 
HETATM    3  O1  UNL     1      16.568 -12.721  22.342  1.00  0.00    -0.248 OA
ENDROOT
BRANCH   2   4
HETATM    4  C12 UNL     1      18.293 -13.405  20.926  1.00  0.00     0.249 C 
HETATM    5  O2  UNL     1      18.396 -12.410  20.142  1.00  0.00    -0.284 OA
BRANCH   4   6
HETATM    6  C13 UNL     1      19.412 -14.297  21.256  1.00  0.00     0.221 C 
BRANCH   6   7
HETATM    7  N6  UNL     1      19.580 -14.524  22.699  1.00  0.00    -0.319 N 
HETATM    8  C14 UNL     1      19.180 -15.696  23.092  1.00  0.00     0.137 A 
HETATM    9  N7  UNL     1      18.662 -16.653  22.304  1.00  0.00    -0.336 N 
HETATM   10  C17 UNL     1      19.183 -16.223  24.387  1.00  0.00     0.082 A 
HETATM   11  C15 UNL     1      18.361 -17.718  23.084  1.00  0.00     0.184 A 
ATOM     12  H7  UNL     1      18.519 -16.589  21.297  1.00  0.00     0.168 HD
HETATM   13  N8  UNL     1      18.667 -17.484  24.348  1.00  0.00    -0.344 N 
HETATM   14  C16 UNL     1      18.534 -18.302  25.528  1.00  0.00     0.157 C 
HETATM   15  C18 UNL     1      19.594 -15.643  25.499  1.00  0.00     0.065 A 
HETATM   16  C19 UNL     1      20.149 -14.311  25.684  1.00  0.00     0.058 A 
HETATM   17  C20 UNL     1      20.515 -13.827  26.933  1.00  0.00     0.119 A 
HETATM   18  N10 UNL     1      20.372 -13.409  24.735  1.00  0.00    -0.302 N 
HETATM   19  N9  UNL     1      20.972 -12.578  26.682  1.00  0.00    -0.359 N 
HETATM   20  C21 UNL     1      20.892 -12.325  25.389  1.00  0.00     0.189 A 
ATOM     21  H9  UNL     1      21.325 -11.930  27.386  1.00  0.00     0.166 HD
HETATM   22  C22 UNL     1      20.177 -13.413  23.342  1.00  0.00     0.194 A 
ENDBRANCH   6   7
ENDBRANCH   4   6
ENDBRANCH   2   4
BRANCH   1  23
HETATM   23  C2  UNL     1      15.490 -15.529  20.766  1.00  0.00     0.062 C 
HETATM   24  C1  UNL     1      16.134 -16.526  19.816  1.00  0.00     0.080 C 
BRANCH  23  25
HETATM   25  C3  UNL     1      14.039 -15.692  21.039  1.00  0.00     0.068 C 
BRANCH  25  26
HETATM   26  C4  UNL     1      13.347 -14.533  21.628  1.00  0.00     0.007 C 
BRANCH  26  27
HETATM   27  C5  UNL     1      12.648 -13.581  20.716  1.00  0.00     0.000 C 
BRANCH  27  28
HETATM   28  C6  UNL     1      13.576 -12.384  20.443  1.00  0.00     0.002 C 
BRANCH  28  29
HETATM   29  C7  UNL     1      13.362 -11.278  21.433  1.00  0.00     0.022 C 
BRANCH  29  30
HETATM   30  C8  UNL     1      12.036 -11.343  22.130  1.00  0.00     0.150 C 
BRANCH  30  31
HETATM   31  N1  UNL     1      11.949 -10.280  23.121  1.00  0.00    -0.273 N 
HETATM   32  C9  UNL     1      11.227 -10.377  24.257  1.00  0.00     0.218 A 
HETATM   33  N2  UNL     1      11.402  -9.208  24.900  1.00  0.00    -0.185 N 
HETATM   34  C10 UNL     1      12.213  -8.419  24.170  1.00  0.00     0.691 A 
ATOM     35  H2  UNL     1      10.986  -8.959  25.797  1.00  0.00     0.185 HD
HETATM   36  N3  UNL     1      12.556  -7.236  24.544  1.00  0.00    -0.233 N 
HETATM   37  N4  UNL     1      12.545  -9.106  23.059  1.00  0.00    -0.129 N 
ATOM     38  H32 UNL     1      12.304  -6.716  25.385  1.00  0.00     0.174 HD
ATOM     39  H31 UNL     1      13.171  -6.638  23.992  1.00  0.00     0.174 HD
ATOM     40  H4  UNL     1      13.149  -8.777  22.306  1.00  0.00     0.206 HD
ENDBRANCH  30  31
ENDBRANCH  29  30
ENDBRANCH  28  29
ENDBRANCH  27  28
ENDBRANCH  26  27
ENDBRANCH  25  26
ENDBRANCH  23  25
ENDBRANCH   1  23
TORSDOF 11
ENDMDL
