MODEL 1
REMARK VINA RESULT: -8.331108732      0.000      0.000
REMARK  12 active torsions:
REMARK  status: ('A' for Active; 'I' for Inactive)
REMARK    1  A    between atoms: C3_3  and  C4_4 
REMARK    2  A    between atoms: C4_4  and  C5_5 
REMARK    3  A    between atoms: C5_5  and  C6_6 
REMARK    4  A    between atoms: C7_7  and  C8_8 
REMARK    5  A    between atoms: C13_14  and  C14_15 
REMARK       I    between atoms: N2_17  and  C16_18 
REMARK    6  A    between atoms: C16_18  and  C17_20 
REMARK    7  A    between atoms: C17_20  and  O2_21 
REMARK    8  A    between atoms: C19_26  and  N4_27 
REMARK    9  A    between atoms: N4_27  and  C20_29 
REMARK   10  A    between atoms: C20_29  and  C21_30 
REMARK   11  A    between atoms: C21_30  and  N5_31 
REMARK       I    between atoms: N5_31  and  C22_33 
REMARK       I    between atoms: C22_33  and  N7_37 
REMARK   12  A    between atoms: N7_37  and  N8_39 
ROOT
HETATM    1  C1  UNL     1      19.338 -15.087  26.739  1.00  0.00     0.012 C 
HETATM    2  C2  UNL     1      20.190 -14.227  26.633  1.00  0.00    -0.117 C 
HETATM    3  C3  UNL     1      21.238 -13.199  26.508  1.00  0.00     0.094 C 
ENDROOT
BRANCH   3   4
HETATM    4  C4  UNL     1      20.900 -12.364  25.304  1.00  0.00     0.024 C 
BRANCH   4   5
HETATM    5  C5  UNL     1      21.203 -13.050  24.006  1.00  0.00     0.095 C 
BRANCH   5   6
HETATM    6  C6  UNL     1      19.940 -13.574  23.477  1.00  0.00    -0.101 C 
HETATM    7  C7  UNL     1      18.895 -14.011  23.063  1.00  0.00    -0.063 C 
BRANCH   7   8
HETATM    8  C8  UNL     1      17.645 -14.547  22.575  1.00  0.00     0.062 A 
HETATM    9  C9  UNL     1      17.357 -15.889  22.641  1.00  0.00     0.041 A 
HETATM   10  C10 UNL     1      16.149 -16.389  22.167  1.00  0.00     0.026 A 
HETATM   11  C11 UNL     1      15.951 -17.739  22.275  1.00  0.00     0.107 A 
HETATM   12  C18 UNL     1      15.192 -15.566  21.612  1.00  0.00     0.129 A 
HETATM   13  N1  UNL     1      14.827 -18.268  21.844  1.00  0.00    -0.346 N 
HETATM   14  C12 UNL     1      14.612 -19.710  21.993  1.00  0.00     0.157 C 
HETATM   15  C13 UNL     1      13.873 -17.473  21.292  1.00  0.00     0.117 A 
HETATM   16  N2  UNL     1      14.030 -16.130  21.168  1.00  0.00    -0.250 N 
HETATM   17  C16 UNL     1      13.049 -15.299  20.601  1.00  0.00     0.254 C 
HETATM   18  O1  UNL     1      13.272 -14.045  20.517  1.00  0.00    -0.270 OA
HETATM   19  N3  UNL     1      15.489 -14.261  21.555  1.00  0.00    -0.326 N 
HETATM   20  C19 UNL     1      16.676 -13.756  22.020  1.00  0.00     0.121 A 
ATOM     21  H3  UNL     1      14.807 -13.619  21.151  1.00  0.00     0.169 HD
BRANCH  15  22
HETATM   22  C14 UNL     1      12.696 -18.209  20.823  1.00  0.00     0.039 C 
HETATM   23  C15 UNL     1      12.778 -18.835  19.641  1.00  0.00     0.015 C 
ENDBRANCH  15  22
BRANCH  17  24
HETATM   24  C17 UNL     1      11.730 -15.737  20.071  1.00  0.00     0.267 C 
BRANCH  24  25
HETATM   25  O2  UNL     1      11.786 -15.519  18.635  1.00  0.00    -0.392 OA
ATOM     26  H2  UNL     1      11.309 -14.712  18.476  1.00  0.00     0.210 HD
ENDBRANCH  24  25
ENDBRANCH  17  24
BRANCH  20  27
HETATM   27  N4  UNL     1      16.888 -12.499  21.931  1.00  0.00    -0.373 N 
ATOM     28  H4  UNL     1      16.840 -11.961  22.796  1.00  0.00     0.161 HD
BRANCH  27  29
HETATM   29  C20 UNL     1      17.184 -11.773  20.738  1.00  0.00     0.141 C 
BRANCH  29  30
HETATM   30  C21 UNL     1      15.945 -11.302  19.997  1.00  0.00     0.157 C 
BRANCH  30  31
HETATM   31  N5  UNL     1      15.287 -10.304  20.809  1.00  0.00    -0.224 N 
HETATM   32  C22 UNL     1      13.886 -10.260  20.873  1.00  0.00     0.687 C 
HETATM   33  N6  UNL     1      13.247  -9.403  20.156  1.00  0.00    -0.234 N 
HETATM   34  N7  UNL     1      13.173 -11.161  21.729  1.00  0.00    -0.119 N 
ATOM     35  H62 UNL     1      13.755  -8.762  19.546  1.00  0.00     0.174 HD
ATOM     36  H61 UNL     1      12.229  -9.371  20.203  1.00  0.00     0.174 HD
ATOM     37  H7  UNL     1      13.560 -12.087  21.908  1.00  0.00     0.207 HD
ATOM     38  H5  UNL     1      15.842  -9.631  21.337  1.00  0.00     0.177 HD
BRANCH  34  39
HETATM   39  N8  UNL     1      11.977 -10.808  22.318  1.00  0.00    -0.235 N 
HETATM   40  N9  UNL     1      11.302 -11.608  23.053  1.00  0.00    -0.330 N 
ATOM     41  H92 UNL     1      11.680 -12.545  23.201  1.00  0.00     0.178 HD
ATOM     42  H91 UNL     1      10.418 -11.347  23.489  1.00  0.00     0.178 HD
ATOM     43  H8  UNL     1      11.614  -9.868  22.160  1.00  0.00     0.208 HD
ENDBRANCH  34  39
ENDBRANCH  30  31
ENDBRANCH  29  30
ENDBRANCH  27  29
ENDBRANCH  20  27
ENDBRANCH   7   8
ENDBRANCH   5   6
ENDBRANCH   4   5
ENDBRANCH   3   4
TORSDOF 12
ENDMDL
MODEL 2
REMARK VINA RESULT: -8.215274599      1.421      1.869
REMARK  12 active torsions:
REMARK  status: ('A' for Active; 'I' for Inactive)
REMARK    1  A    between atoms: C3_3  and  C4_4 
REMARK    2  A    between atoms: C4_4  and  C5_5 
REMARK    3  A    between atoms: C5_5  and  C6_6 
REMARK    4  A    between atoms: C7_7  and  C8_8 
REMARK    5  A    between atoms: C13_14  and  C14_15 
REMARK       I    between atoms: N2_17  and  C16_18 
REMARK    6  A    between atoms: C16_18  and  C17_20 
REMARK    7  A    between atoms: C17_20  and  O2_21 
REMARK    8  A    between atoms: C19_26  and  N4_27 
REMARK    9  A    between atoms: N4_27  and  C20_29 
REMARK   10  A    between atoms: C20_29  and  C21_30 
REMARK   11  A    between atoms: C21_30  and  N5_31 
REMARK       I    between atoms: N5_31  and  C22_33 
REMARK       I    between atoms: C22_33  and  N7_37 
REMARK   12  A    between atoms: N7_37  and  N8_39 
ROOT
HETATM    1  C1  UNL     1      20.916 -13.757  26.816  1.00  0.00     0.012 C 
HETATM    2  C2  UNL     1      20.581 -13.321  25.732  1.00  0.00    -0.117 C 
HETATM    3  C3  UNL     1      20.176 -12.772  24.426  1.00  0.00     0.094 C 
ENDROOT
BRANCH   3   4
HETATM    4  C4  UNL     1      20.926 -13.538  23.372  1.00  0.00     0.024 C 
BRANCH   4   5
HETATM    5  C5  UNL     1      20.498 -13.196  21.977  1.00  0.00     0.095 C 
BRANCH   5   6
HETATM    6  C6  UNL     1      19.231 -13.888  21.722  1.00  0.00    -0.101 C 
HETATM    7  C7  UNL     1      18.179 -14.447  21.529  1.00  0.00    -0.063 C 
BRANCH   7   8
HETATM    8  C8  UNL     1      16.918 -15.117  21.313  1.00  0.00     0.062 A 
HETATM    9  C9  UNL     1      16.722 -16.428  21.676  1.00  0.00     0.041 A 
HETATM   10  C10 UNL     1      15.502 -17.059  21.460  1.00  0.00     0.026 A 
HETATM   11  C11 UNL     1      15.401 -18.366  21.855  1.00  0.00     0.107 A 
HETATM   12  C18 UNL     1      14.440 -16.403  20.876  1.00  0.00     0.129 A 
HETATM   13  N1  UNL     1      14.271 -19.013  21.676  1.00  0.00    -0.346 N 
HETATM   14  C12 UNL     1      14.163 -20.403  22.131  1.00  0.00     0.157 C 
HETATM   15  C13 UNL     1      13.214 -18.383  21.100  1.00  0.00     0.117 A 
HETATM   16  N2  UNL     1      13.273 -17.089  20.696  1.00  0.00    -0.250 N 
HETATM   17  C16 UNL     1      12.184 -16.427  20.100  1.00  0.00     0.254 C 
HETATM   18  O1  UNL     1      12.319 -15.209  19.745  1.00  0.00    -0.270 OA
HETATM   19  N3  UNL     1      14.647 -15.126  20.527  1.00  0.00    -0.326 N 
HETATM   20  C19 UNL     1      15.846 -14.493  20.736  1.00  0.00     0.121 A 
ATOM     21  H3  UNL     1      13.886 -14.605  20.092  1.00  0.00     0.169 HD
BRANCH  15  22
HETATM   22  C14 UNL     1      12.039 -19.243  20.932  1.00  0.00     0.039 C 
HETATM   23  C15 UNL     1      12.012 -20.069  19.876  1.00  0.00     0.015 C 
ENDBRANCH  15  22
BRANCH  17  24
HETATM   24  C17 UNL     1      10.844 -17.013  19.832  1.00  0.00     0.267 C 
BRANCH  24  25
HETATM   25  O2  UNL     1      10.531 -16.676  18.454  1.00  0.00    -0.392 OA
ATOM     26  H2  UNL     1      10.385 -17.503  18.010  1.00  0.00     0.210 HD
ENDBRANCH  24  25
ENDBRANCH  17  24
BRANCH  20  27
HETATM   27  N4  UNL     1      15.968 -13.272  20.376  1.00  0.00    -0.373 N 
ATOM     28  H4  UNL     1      16.528 -13.092  19.543  1.00  0.00     0.161 HD
BRANCH  27  29
HETATM   29  C20 UNL     1      15.397 -12.136  21.026  1.00  0.00     0.141 C 
BRANCH  29  30
HETATM   30  C21 UNL     1      14.292 -11.476  20.223  1.00  0.00     0.157 C 
BRANCH  30  31
HETATM   31  N5  UNL     1      13.060 -12.184  20.484  1.00  0.00    -0.224 N 
HETATM   32  C22 UNL     1      12.594 -12.325  21.800  1.00  0.00     0.687 C 
HETATM   33  N6  UNL     1      12.800 -13.429  22.428  1.00  0.00    -0.234 N 
HETATM   34  N7  UNL     1      11.894 -11.249  22.438  1.00  0.00    -0.119 N 
ATOM     35  H62 UNL     1      13.298 -14.195  21.974  1.00  0.00     0.174 HD
ATOM     36  H61 UNL     1      12.461 -13.531  23.385  1.00  0.00     0.174 HD
ATOM     37  H7  UNL     1      12.128 -10.288  22.189  1.00  0.00     0.207 HD
ATOM     38  H5  UNL     1      12.528 -12.583  19.711  1.00  0.00     0.177 HD
BRANCH  34  39
HETATM   39  N8  UNL     1      10.914 -11.479  23.380  1.00  0.00    -0.235 N 
HETATM   40  N9  UNL     1      10.822 -10.808  24.465  1.00  0.00    -0.330 N 
ATOM     41  H92 UNL     1      11.513 -10.075  24.625  1.00  0.00     0.178 HD
ATOM     42  H91 UNL     1      10.097 -10.978  25.161  1.00  0.00     0.178 HD
ATOM     43  H8  UNL     1      10.231 -12.216  23.203  1.00  0.00     0.208 HD
ENDBRANCH  34  39
ENDBRANCH  30  31
ENDBRANCH  29  30
ENDBRANCH  27  29
ENDBRANCH  20  27
ENDBRANCH   7   8
ENDBRANCH   5   6
ENDBRANCH   4   5
ENDBRANCH   3   4
TORSDOF 12
ENDMDL
MODEL 3
REMARK VINA RESULT: -8.204109014      1.525      2.026
REMARK  12 active torsions:
REMARK  status: ('A' for Active; 'I' for Inactive)
REMARK    1  A    between atoms: C3_3  and  C4_4 
REMARK    2  A    between atoms: C4_4  and  C5_5 
REMARK    3  A    between atoms: C5_5  and  C6_6 
REMARK    4  A    between atoms: C7_7  and  C8_8 
REMARK    5  A    between atoms: C13_14  and  C14_15 
REMARK       I    between atoms: N2_17  and  C16_18 
REMARK    6  A    between atoms: C16_18  and  C17_20 
REMARK    7  A    between atoms: C17_20  and  O2_21 
REMARK    8  A    between atoms: C19_26  and  N4_27 
REMARK    9  A    between atoms: N4_27  and  C20_29 
REMARK   10  A    between atoms: C20_29  and  C21_30 
REMARK   11  A    between atoms: C21_30  and  N5_31 
REMARK       I    between atoms: N5_31  and  C22_33 
REMARK       I    between atoms: C22_33  and  N7_37 
REMARK   12  A    between atoms: N7_37  and  N8_39 
ROOT
HETATM    1  C1  UNL     1      20.907 -13.136  27.402  1.00  0.00     0.012 C 
HETATM    2  C2  UNL     1      20.906 -12.826  26.227  1.00  0.00    -0.117 C 
HETATM    3  C3  UNL     1      20.927 -12.451  24.802  1.00  0.00     0.094 C 
ENDROOT
BRANCH   3   4
HETATM    4  C4  UNL     1      19.855 -13.252  24.117  1.00  0.00     0.024 C 
BRANCH   4   5
HETATM    5  C5  UNL     1      19.966 -13.230  22.623  1.00  0.00     0.095 C 
BRANCH   5   6
HETATM    6  C6  UNL     1      18.752 -13.849  22.081  1.00  0.00    -0.101 C 
HETATM    7  C7  UNL     1      17.747 -14.361  21.655  1.00  0.00    -0.063 C 
BRANCH   7   8
HETATM    8  C8  UNL     1      16.543 -14.985  21.157  1.00  0.00     0.062 A 
HETATM    9  C9  UNL     1      16.480 -16.332  20.896  1.00  0.00     0.041 A 
HETATM   10  C10 UNL     1      15.313 -16.918  20.415  1.00  0.00     0.026 A 
HETATM   11  C11 UNL     1      15.346 -18.267  20.184  1.00  0.00     0.107 A 
HETATM   12  C18 UNL     1      14.175 -16.178  20.180  1.00  0.00     0.129 A 
HETATM   13  N1  UNL     1      14.272 -18.874  19.730  1.00  0.00    -0.346 N 
HETATM   14  C12 UNL     1      14.307 -20.325  19.516  1.00  0.00     0.157 C 
HETATM   15  C13 UNL     1      13.141 -18.161  19.491  1.00  0.00     0.117 A 
HETATM   16  N2  UNL     1      13.068 -16.822  19.707  1.00  0.00    -0.250 N 
HETATM   17  C16 UNL     1      11.902 -16.075  19.465  1.00  0.00     0.254 C 
HETATM   18  O1  UNL     1      11.913 -14.820  19.691  1.00  0.00    -0.270 OA
HETATM   19  N3  UNL     1      14.253 -14.866  20.439  1.00  0.00    -0.326 N 
HETATM   20  C19 UNL     1      15.397 -14.277  20.914  1.00  0.00     0.121 A 
ATOM     21  H3  UNL     1      13.432 -14.283  20.278  1.00  0.00     0.169 HD
BRANCH  15  22
HETATM   22  C14 UNL     1      12.043 -18.966  18.951  1.00  0.00     0.039 C 
HETATM   23  C15 UNL     1      11.323 -19.703  19.809  1.00  0.00     0.015 C 
ENDBRANCH  15  22
BRANCH  17  24
HETATM   24  C17 UNL     1      10.610 -16.609  18.957  1.00  0.00     0.267 C 
BRANCH  24  25
HETATM   25  O2  UNL     1      10.487 -16.122  17.593  1.00  0.00    -0.392 OA
ATOM     26  H2  UNL     1      10.782 -16.832  17.035  1.00  0.00     0.210 HD
ENDBRANCH  24  25
ENDBRANCH  17  24
BRANCH  20  27
HETATM   27  N4  UNL     1      15.395 -13.019  21.137  1.00  0.00    -0.373 N 
ATOM     28  H4  UNL     1      15.635 -12.719  22.082  1.00  0.00     0.161 HD
BRANCH  27  29
HETATM   29  C20 UNL     1      15.090 -11.992  20.194  1.00  0.00     0.141 C 
BRANCH  29  30
HETATM   30  C21 UNL     1      13.745 -11.330  20.438  1.00  0.00     0.157 C 
BRANCH  30  31
HETATM   31  N5  UNL     1      13.622 -11.072  21.854  1.00  0.00    -0.224 N 
HETATM   32  C22 UNL     1      12.373 -10.748  22.406  1.00  0.00     0.687 C 
HETATM   33  N6  UNL     1      12.089  -9.516  22.645  1.00  0.00    -0.234 N 
HETATM   34  N7  UNL     1      11.422 -11.779  22.699  1.00  0.00    -0.119 N 
ATOM     35  H62 UNL     1      12.766  -8.781  22.437  1.00  0.00     0.174 HD
ATOM     36  H61 UNL     1      11.181  -9.279  23.046  1.00  0.00     0.174 HD
ATOM     37  H7  UNL     1      11.407 -12.619  22.120  1.00  0.00     0.207 HD
ATOM     38  H5  UNL     1      14.444 -11.126  22.455  1.00  0.00     0.177 HD
BRANCH  34  39
HETATM   39  N8  UNL     1      10.527 -11.666  23.742  1.00  0.00    -0.235 N 
HETATM   40  N9  UNL     1      10.805 -12.025  24.937  1.00  0.00    -0.330 N 
ATOM     41  H92 UNL     1      11.734 -12.410  25.110  1.00  0.00     0.178 HD
ATOM     42  H91 UNL     1      10.143 -11.941  25.708  1.00  0.00     0.178 HD
ATOM     43  H8  UNL     1       9.603 -11.279  23.551  1.00  0.00     0.208 HD
ENDBRANCH  34  39
ENDBRANCH  30  31
ENDBRANCH  29  30
ENDBRANCH  27  29
ENDBRANCH  20  27
ENDBRANCH   7   8
ENDBRANCH   5   6
ENDBRANCH   4   5
ENDBRANCH   3   4
TORSDOF 12
ENDMDL
MODEL 4
REMARK VINA RESULT: -8.056155524      1.840      2.814
REMARK  12 active torsions:
REMARK  status: ('A' for Active; 'I' for Inactive)
REMARK    1  A    between atoms: C3_3  and  C4_4 
REMARK    2  A    between atoms: C4_4  and  C5_5 
REMARK    3  A    between atoms: C5_5  and  C6_6 
REMARK    4  A    between atoms: C7_7  and  C8_8 
REMARK    5  A    between atoms: C13_14  and  C14_15 
REMARK       I    between atoms: N2_17  and  C16_18 
REMARK    6  A    between atoms: C16_18  and  C17_20 
REMARK    7  A    between atoms: C17_20  and  O2_21 
REMARK    8  A    between atoms: C19_26  and  N4_27 
REMARK    9  A    between atoms: N4_27  and  C20_29 
REMARK   10  A    between atoms: C20_29  and  C21_30 
REMARK   11  A    between atoms: C21_30  and  N5_31 
REMARK       I    between atoms: N5_31  and  C22_33 
REMARK       I    between atoms: C22_33  and  N7_37 
REMARK   12  A    between atoms: N7_37  and  N8_39 
ROOT
HETATM    1  C1  UNL     1      20.923 -12.902  26.059  1.00  0.00     0.012 C 
HETATM    2  C2  UNL     1      21.605 -13.540  25.282  1.00  0.00    -0.117 C 
HETATM    3  C3  UNL     1      22.447 -14.296  24.338  1.00  0.00     0.094 C 
ENDROOT
BRANCH   3   4
HETATM    4  C4  UNL     1      22.601 -15.683  24.895  1.00  0.00     0.024 C 
BRANCH   4   5
HETATM    5  C5  UNL     1      22.185 -16.755  23.934  1.00  0.00     0.095 C 
BRANCH   5   6
HETATM    6  C6  UNL     1      20.823 -16.443  23.488  1.00  0.00    -0.101 C 
HETATM    7  C7  UNL     1      19.699 -16.179  23.141  1.00  0.00    -0.063 C 
BRANCH   7   8
HETATM    8  C8  UNL     1      18.347 -15.866  22.739  1.00  0.00     0.062 A 
HETATM    9  C9  UNL     1      17.468 -16.841  22.334  1.00  0.00     0.041 A 
HETATM   10  C10 UNL     1      16.169 -16.524  21.948  1.00  0.00     0.026 A 
HETATM   11  C11 UNL     1      15.367 -17.562  21.560  1.00  0.00     0.107 A 
HETATM   12  C18 UNL     1      15.709 -15.225  21.955  1.00  0.00     0.129 A 
HETATM   13  N1  UNL     1      14.129 -17.321  21.186  1.00  0.00    -0.346 N 
HETATM   14  C12 UNL     1      13.267 -18.444  20.802  1.00  0.00     0.157 C 
HETATM   15  C13 UNL     1      13.658 -16.047  21.185  1.00  0.00     0.117 A 
HETATM   16  N2  UNL     1      14.422 -14.990  21.563  1.00  0.00    -0.250 N 
HETATM   17  C16 UNL     1      13.944 -13.668  21.567  1.00  0.00     0.254 C 
HETATM   18  O1  UNL     1      14.724 -12.729  21.935  1.00  0.00    -0.270 OA
HETATM   19  N3  UNL     1      16.579 -14.286  22.352  1.00  0.00    -0.326 N 
HETATM   20  C19 UNL     1      17.861 -14.587  22.735  1.00  0.00     0.121 A 
ATOM     21  H3  UNL     1      16.277 -13.312  22.371  1.00  0.00     0.169 HD
BRANCH  15  22
HETATM   22  C14 UNL     1      12.278 -15.932  20.707  1.00  0.00     0.039 C 
HETATM   23  C15 UNL     1      12.067 -15.970  19.383  1.00  0.00     0.015 C 
ENDBRANCH  15  22
BRANCH  17  24
HETATM   24  C17 UNL     1      12.577 -13.231  21.178  1.00  0.00     0.267 C 
BRANCH  24  25
HETATM   25  O2  UNL     1      12.755 -12.026  20.385  1.00  0.00    -0.392 OA
ATOM     26  H2  UNL     1      11.987 -11.964  19.829  1.00  0.00     0.210 HD
ENDBRANCH  24  25
ENDBRANCH  17  24
BRANCH  20  27
HETATM   27  N4  UNL     1      18.633 -13.637  23.101  1.00  0.00    -0.373 N 
ATOM     28  H4  UNL     1      18.744 -13.495  24.105  1.00  0.00     0.161 HD
BRANCH  27  29
HETATM   29  C20 UNL     1      19.355 -12.753  22.243  1.00  0.00     0.141 C 
BRANCH  29  30
HETATM   30  C21 UNL     1      19.178 -13.070  20.768  1.00  0.00     0.157 C 
BRANCH  30  31
HETATM   31  N5  UNL     1      18.847 -11.843  20.081  1.00  0.00    -0.224 N 
HETATM   32  C22 UNL     1      17.516 -11.568  19.732  1.00  0.00     0.687 C 
HETATM   33  N6  UNL     1      17.121 -11.785  18.527  1.00  0.00    -0.234 N 
HETATM   34  N7  UNL     1      16.606 -11.049  20.710  1.00  0.00    -0.119 N 
ATOM     35  H62 UNL     1      17.769 -12.154  17.831  1.00  0.00     0.174 HD
ATOM     36  H61 UNL     1      16.153 -11.585  18.274  1.00  0.00     0.174 HD
ATOM     37  H7  UNL     1      16.725 -11.311  21.688  1.00  0.00     0.207 HD
ATOM     38  H5  UNL     1      19.583 -11.176  19.849  1.00  0.00     0.177 HD
BRANCH  34  39
HETATM   39  N8  UNL     1      15.572 -10.204  20.362  1.00  0.00    -0.235 N 
HETATM   40  N9  UNL     1      14.621  -9.906  21.163  1.00  0.00    -0.330 N 
ATOM     41  H92 UNL     1      14.642 -10.319  22.096  1.00  0.00     0.178 HD
ATOM     42  H91 UNL     1      13.857  -9.281  20.906  1.00  0.00     0.178 HD
ATOM     43  H8  UNL     1      15.567  -9.800  19.426  1.00  0.00     0.208 HD
ENDBRANCH  34  39
ENDBRANCH  30  31
ENDBRANCH  29  30
ENDBRANCH  27  29
ENDBRANCH  20  27
ENDBRANCH   7   8
ENDBRANCH   5   6
ENDBRANCH   4   5
ENDBRANCH   3   4
TORSDOF 12
ENDMDL
MODEL 5
REMARK VINA RESULT: -7.803946608      1.662      2.293
REMARK  12 active torsions:
REMARK  status: ('A' for Active; 'I' for Inactive)
REMARK    1  A    between atoms: C3_3  and  C4_4 
REMARK    2  A    between atoms: C4_4  and  C5_5 
REMARK    3  A    between atoms: C5_5  and  C6_6 
REMARK    4  A    between atoms: C7_7  and  C8_8 
REMARK    5  A    between atoms: C13_14  and  C14_15 
REMARK       I    between atoms: N2_17  and  C16_18 
REMARK    6  A    between atoms: C16_18  and  C17_20 
REMARK    7  A    between atoms: C17_20  and  O2_21 
REMARK    8  A    between atoms: C19_26  and  N4_27 
REMARK    9  A    between atoms: N4_27  and  C20_29 
REMARK   10  A    between atoms: C20_29  and  C21_30 
REMARK   11  A    between atoms: C21_30  and  N5_31 
REMARK       I    between atoms: N5_31  and  C22_33 
REMARK       I    between atoms: C22_33  and  N7_37 
REMARK   12  A    between atoms: N7_37  and  N8_39 
ROOT
HETATM    1  C1  UNL     1      20.874 -12.807  26.746  1.00  0.00     0.012 C 
HETATM    2  C2  UNL     1      20.490 -13.624  25.933  1.00  0.00    -0.117 C 
HETATM    3  C3  UNL     1      20.003 -14.615  24.957  1.00  0.00     0.094 C 
ENDROOT
BRANCH   3   4
HETATM    4  C4  UNL     1      20.484 -14.174  23.602  1.00  0.00     0.024 C 
BRANCH   4   5
HETATM    5  C5  UNL     1      19.651 -13.079  23.007  1.00  0.00     0.095 C 
BRANCH   5   6
HETATM    6  C6  UNL     1      18.458 -13.700  22.422  1.00  0.00    -0.101 C 
HETATM    7  C7  UNL     1      17.477 -14.224  21.958  1.00  0.00    -0.063 C 
BRANCH   7   8
HETATM    8  C8  UNL     1      16.305 -14.865  21.406  1.00  0.00     0.062 A 
HETATM    9  C9  UNL     1      16.240 -16.226  21.228  1.00  0.00     0.041 A 
HETATM   10  C10 UNL     1      15.105 -16.829  20.695  1.00  0.00     0.026 A 
HETATM   11  C11 UNL     1      15.134 -18.189  20.554  1.00  0.00     0.107 A 
HETATM   12  C18 UNL     1      14.001 -16.092  20.323  1.00  0.00     0.129 A 
HETATM   13  N1  UNL     1      14.089 -18.813  20.056  1.00  0.00    -0.346 N 
HETATM   14  C12 UNL     1      14.116 -20.274  19.939  1.00  0.00     0.157 C 
HETATM   15  C13 UNL     1      12.992 -18.103  19.683  1.00  0.00     0.117 A 
HETATM   16  N2  UNL     1      12.924 -16.753  19.807  1.00  0.00    -0.250 N 
HETATM   17  C16 UNL     1      11.793 -16.010  19.425  1.00  0.00     0.254 C 
HETATM   18  O1  UNL     1      11.807 -14.743  19.571  1.00  0.00    -0.270 OA
HETATM   19  N3  UNL     1      14.081 -14.767  20.504  1.00  0.00    -0.326 N 
HETATM   20  C19 UNL     1      15.194 -14.162  21.029  1.00  0.00     0.121 A 
ATOM     21  H3  UNL     1      13.285 -14.186  20.241  1.00  0.00     0.169 HD
BRANCH  15  22
HETATM   22  C14 UNL     1      11.926 -18.930  19.110  1.00  0.00     0.039 C 
HETATM   23  C15 UNL     1      12.050 -19.319  17.834  1.00  0.00     0.015 C 
ENDBRANCH  15  22
BRANCH  17  24
HETATM   24  C17 UNL     1      10.537 -16.560  18.852  1.00  0.00     0.267 C 
BRANCH  24  25
HETATM   25  O2  UNL     1      10.480 -16.079  17.482  1.00  0.00    -0.392 OA
ATOM     26  H2  UNL     1       9.716 -15.515  17.436  1.00  0.00     0.210 HD
ENDBRANCH  24  25
ENDBRANCH  17  24
BRANCH  20  27
HETATM   27  N4  UNL     1      15.195 -12.891  21.170  1.00  0.00    -0.373 N 
ATOM     28  H4  UNL     1      16.082 -12.412  21.015  1.00  0.00     0.161 HD
BRANCH  27  29
HETATM   29  C20 UNL     1      14.077 -12.077  21.524  1.00  0.00     0.141 C 
BRANCH  29  30
HETATM   30  C21 UNL     1      13.924 -10.850  20.644  1.00  0.00     0.157 C 
BRANCH  30  31
HETATM   31  N5  UNL     1      12.681 -10.200  20.991  1.00  0.00    -0.224 N 
HETATM   32  C22 UNL     1      12.300 -10.079  22.336  1.00  0.00     0.687 C 
HETATM   33  N6  UNL     1      11.447 -10.907  22.828  1.00  0.00    -0.234 N 
HETATM   34  N7  UNL     1      12.857  -9.043  23.155  1.00  0.00    -0.119 N 
ATOM     35  H62 UNL     1      11.051 -11.645  22.245  1.00  0.00     0.174 HD
ATOM     36  H61 UNL     1      11.170 -10.820  23.805  1.00  0.00     0.174 HD
ATOM     37  H7  UNL     1      13.806  -8.720  22.969  1.00  0.00     0.207 HD
ATOM     38  H5  UNL     1      12.080  -9.827  20.257  1.00  0.00     0.177 HD
BRANCH  34  39
HETATM   39  N8  UNL     1      12.143  -8.472  24.187  1.00  0.00    -0.235 N 
HETATM   40  N9  UNL     1      12.426  -7.324  24.676  1.00  0.00    -0.330 N 
ATOM     41  H92 UNL     1      13.218  -6.823  24.272  1.00  0.00     0.178 HD
ATOM     42  H91 UNL     1      11.898  -6.902  25.439  1.00  0.00     0.178 HD
ATOM     43  H8  UNL     1      11.354  -8.987  24.578  1.00  0.00     0.208 HD
ENDBRANCH  34  39
ENDBRANCH  30  31
ENDBRANCH  29  30
ENDBRANCH  27  29
ENDBRANCH  20  27
ENDBRANCH   7   8
ENDBRANCH   5   6
ENDBRANCH   4   5
ENDBRANCH   3   4
TORSDOF 12
ENDMDL
