MODEL 1
REMARK VINA RESULT: -6.872191811      0.000      0.000
REMARK  12 active torsions:
REMARK  status: ('A' for Active; 'I' for Inactive)
REMARK    1  A    between atoms: C3_3  and  N1_4 
REMARK    2  A    between atoms: N1_4  and  C4_5 
REMARK       I    between atoms: N1_4  and  C20_36 
REMARK    3  A    between atoms: C4_5  and  C5_6 
REMARK    4  A    between atoms: C5_6  and  N2_7 
REMARK    5  A    between atoms: N2_7  and  C6_8 
REMARK    6  A    between atoms: C6_8  and  C7_9 
REMARK    7  A    between atoms: C7_9  and  N3_10 
REMARK    8  A    between atoms: N3_10  and  C8_12 
REMARK    9  A    between atoms: C9_17  and  N6_18 
REMARK   10  A    between atoms: N6_18  and  C10_20 
REMARK   11  A    between atoms: C10_20  and  C11_21 
REMARK   12  A    between atoms: C11_21  and  N7_22 
ROOT
HETATM    1  C1  UNL     1      20.924 -12.806  26.135  1.00  0.00     0.014 C 
HETATM    2  C2  UNL     1      20.996 -13.448  25.122  1.00  0.00    -0.098 C 
HETATM    3  C3  UNL     1      21.079 -14.217  23.859  1.00  0.00     0.219 C 
ENDROOT
BRANCH   3   4
HETATM    4  N1  UNL     1      19.710 -14.483  23.460  1.00  0.00    -0.340 N 
HETATM    5  C20 UNL     1      19.216 -13.956  22.240  1.00  0.00     0.216 C 
HETATM    6  C21 UNL     1      20.018 -13.133  21.320  1.00  0.00     0.117 C 
HETATM    7  O2  UNL     1      18.024 -14.211  21.934  1.00  0.00    -0.274 OA
BRANCH   4   8
HETATM    8  C4  UNL     1      18.861 -15.294  24.331  1.00  0.00     0.154 C 
BRANCH   8   9
HETATM    9  C5  UNL     1      19.520 -16.620  24.452  1.00  0.00     0.257 C 
BRANCH   9  10
HETATM   10  N2  UNL     1      18.755 -17.761  24.010  1.00  0.00    -0.064 N 
HETATM   11  C17 UNL     1      17.688 -18.004  24.943  1.00  0.00     0.239 C 
HETATM   12  C18 UNL     1      18.700 -18.624  25.889  1.00  0.00     0.056 C 
HETATM   13  C19 UNL     1      19.413 -18.945  24.577  1.00  0.00     0.239 C 
BRANCH  10  14
HETATM   14  C6  UNL     1      18.476 -17.773  22.636  1.00  0.00     0.257 C 
BRANCH  14  15
HETATM   15  C7  UNL     1      17.067 -17.847  22.180  1.00  0.00     0.166 C 
BRANCH  15  16
HETATM   16  N3  UNL     1      16.618 -16.727  21.379  1.00  0.00    -0.223 N 
ATOM     17  H3  UNL     1      17.289 -16.215  20.805  1.00  0.00     0.177 HD
BRANCH  16  18
HETATM   18  C8  UNL     1      15.390 -16.371  21.383  1.00  0.00     0.707 A 
HETATM   19  N4  UNL     1      14.318 -17.061  20.971  1.00  0.00    -0.117 N 
HETATM   20  N5  UNL     1      13.229 -16.298  21.162  1.00  0.00    -0.117 N 
ATOM     21  H4  UNL     1      14.327 -18.004  20.581  1.00  0.00     0.206 HD
HETATM   22  C9  UNL     1      13.596 -15.116  21.696  1.00  0.00     0.707 A 
ATOM     23  H5  UNL     1      12.272 -16.571  20.937  1.00  0.00     0.206 HD
HETATM   24  N9  UNL     1      14.926 -15.183  21.823  1.00  0.00    -0.020 N 
ATOM     25  H9  UNL     1      15.509 -14.437  22.202  1.00  0.00     0.203 HD
BRANCH  22  26
HETATM   26  N6  UNL     1      12.809 -14.118  22.018  1.00  0.00    -0.223 N 
ATOM     27  H6  UNL     1      11.816 -14.288  22.181  1.00  0.00     0.177 HD
BRANCH  26  28
HETATM   28  C10 UNL     1      13.341 -12.776  22.144  1.00  0.00     0.166 C 
BRANCH  28  29
HETATM   29  C11 UNL     1      13.174 -12.095  20.828  1.00  0.00     0.257 C 
BRANCH  29  30
HETATM   30  N7  UNL     1      14.229 -11.174  20.490  1.00  0.00    -0.060 N 
HETATM   31  C12 UNL     1      13.999  -9.966  21.287  1.00  0.00     0.273 C 
HETATM   32  C13 UNL     1      14.242 -10.768  19.121  1.00  0.00     0.257 C 
HETATM   33  C14 UNL     1      15.112 -11.650  18.227  1.00  0.00     0.150 C 
HETATM   34  N8  UNL     1      16.472 -11.442  18.691  1.00  0.00    -0.358 N 
HETATM   35  C15 UNL     1      16.632 -11.348  20.102  1.00  0.00     0.243 C 
ATOM     36  H8  UNL     1      17.260 -11.369  18.049  1.00  0.00     0.162 HD
HETATM   37  O1  UNL     1      17.693 -10.954  20.634  1.00  0.00    -0.272 OA
HETATM   38  C16 UNL     1      15.473 -11.742  20.938  1.00  0.00     0.339 C 
ENDBRANCH  29  30
ENDBRANCH  28  29
ENDBRANCH  26  28
ENDBRANCH  22  26
ENDBRANCH  16  18
ENDBRANCH  15  16
ENDBRANCH  14  15
ENDBRANCH  10  14
ENDBRANCH   9  10
ENDBRANCH   8   9
ENDBRANCH   4   8
ENDBRANCH   3   4
TORSDOF 12
ENDMDL
MODEL 2
REMARK VINA RESULT: -6.283573599      1.661      7.019
REMARK  12 active torsions:
REMARK  status: ('A' for Active; 'I' for Inactive)
REMARK    1  A    between atoms: C3_3  and  N1_4 
REMARK    2  A    between atoms: N1_4  and  C4_5 
REMARK       I    between atoms: N1_4  and  C20_36 
REMARK    3  A    between atoms: C4_5  and  C5_6 
REMARK    4  A    between atoms: C5_6  and  N2_7 
REMARK    5  A    between atoms: N2_7  and  C6_8 
REMARK    6  A    between atoms: C6_8  and  C7_9 
REMARK    7  A    between atoms: C7_9  and  N3_10 
REMARK    8  A    between atoms: N3_10  and  C8_12 
REMARK    9  A    between atoms: C9_17  and  N6_18 
REMARK   10  A    between atoms: N6_18  and  C10_20 
REMARK   11  A    between atoms: C10_20  and  C11_21 
REMARK   12  A    between atoms: C11_21  and  N7_22 
ROOT
HETATM    1  C1  UNL     1      16.052 -11.936  17.038  1.00  0.00     0.014 C 
HETATM    2  C2  UNL     1      16.545 -11.659  18.098  1.00  0.00    -0.098 C 
HETATM    3  C3  UNL     1      17.175 -11.330  19.398  1.00  0.00     0.219 C 
ENDROOT
BRANCH   3   4
HETATM    4  N1  UNL     1      17.121 -12.544  20.188  1.00  0.00    -0.340 N 
HETATM    5  C20 UNL     1      18.325 -13.178  20.589  1.00  0.00     0.216 C 
HETATM    6  C21 UNL     1      19.666 -12.676  20.250  1.00  0.00     0.117 C 
HETATM    7  O2  UNL     1      18.232 -14.228  21.274  1.00  0.00    -0.274 OA
BRANCH   4   8
HETATM    8  C4  UNL     1      15.818 -13.095  20.559  1.00  0.00     0.154 C 
BRANCH   8   9
HETATM    9  C5  UNL     1      15.159 -12.081  21.422  1.00  0.00     0.257 C 
BRANCH   9  10
HETATM   10  N2  UNL     1      13.749 -11.869  21.202  1.00  0.00    -0.064 N 
HETATM   11  C17 UNL     1      13.573 -10.978  20.087  1.00  0.00     0.239 C 
HETATM   12  C18 UNL     1      13.950  -9.821  20.995  1.00  0.00     0.056 C 
HETATM   13  C19 UNL     1      13.360 -10.743  22.061  1.00  0.00     0.239 C 
BRANCH  10  14
HETATM   14  C6  UNL     1      12.971 -13.033  21.274  1.00  0.00     0.257 C 
BRANCH  14  15
HETATM   15  C7  UNL     1      13.384 -14.130  22.182  1.00  0.00     0.166 C 
BRANCH  15  16
HETATM   16  N3  UNL     1      13.508 -15.432  21.561  1.00  0.00    -0.223 N 
ATOM     17  H3  UNL     1      12.830 -15.722  20.855  1.00  0.00     0.177 HD
BRANCH  16  18
HETATM   18  C8  UNL     1      14.459 -16.224  21.886  1.00  0.00     0.707 A 
HETATM   19  N4  UNL     1      14.455 -17.562  21.928  1.00  0.00    -0.117 N 
HETATM   20  N5  UNL     1      15.672 -17.973  22.325  1.00  0.00    -0.117 N 
ATOM     21  H4  UNL     1      13.666 -18.166  21.697  1.00  0.00     0.206 HD
HETATM   22  C9  UNL     1      16.460 -16.901  22.540  1.00  0.00     0.707 A 
ATOM     23  H5  UNL     1      15.954 -18.946  22.445  1.00  0.00     0.206 HD
HETATM   24  N9  UNL     1      15.695 -15.839  22.265  1.00  0.00    -0.020 N 
ATOM     25  H9  UNL     1      16.005 -14.869  22.332  1.00  0.00     0.203 HD
BRANCH  22  26
HETATM   26  N6  UNL     1      17.709 -16.908  22.936  1.00  0.00    -0.223 N 
ATOM     27  H6  UNL     1      18.457 -17.018  22.251  1.00  0.00     0.177 HD
BRANCH  26  28
HETATM   28  C10 UNL     1      18.036 -16.761  24.340  1.00  0.00     0.166 C 
BRANCH  28  29
HETATM   29  C11 UNL     1      18.673 -15.425  24.521  1.00  0.00     0.257 C 
BRANCH  29  30
HETATM   30  N7  UNL     1      20.049 -15.469  24.946  1.00  0.00    -0.060 N 
HETATM   31  C12 UNL     1      20.354 -16.875  25.224  1.00  0.00     0.273 C 
HETATM   32  C13 UNL     1      20.321 -14.742  26.145  1.00  0.00     0.257 C 
HETATM   33  C14 UNL     1      20.737 -13.293  25.904  1.00  0.00     0.150 C 
HETATM   34  N8  UNL     1      22.015 -13.371  25.218  1.00  0.00    -0.358 N 
HETATM   35  C15 UNL     1      22.124 -14.396  24.237  1.00  0.00     0.243 C 
ATOM     36  H8  UNL     1      22.783 -12.733  25.425  1.00  0.00     0.162 HD
HETATM   37  O1  UNL     1      23.217 -14.726  23.728  1.00  0.00    -0.272 OA
HETATM   38  C16 UNL     1      20.870 -15.074  23.831  1.00  0.00     0.339 C 
ENDBRANCH  29  30
ENDBRANCH  28  29
ENDBRANCH  26  28
ENDBRANCH  22  26
ENDBRANCH  16  18
ENDBRANCH  15  16
ENDBRANCH  14  15
ENDBRANCH  10  14
ENDBRANCH   9  10
ENDBRANCH   8   9
ENDBRANCH   4   8
ENDBRANCH   3   4
TORSDOF 12
ENDMDL
MODEL 3
REMARK VINA RESULT: -6.163967412      3.772      8.593
REMARK  12 active torsions:
REMARK  status: ('A' for Active; 'I' for Inactive)
REMARK    1  A    between atoms: C3_3  and  N1_4 
REMARK    2  A    between atoms: N1_4  and  C4_5 
REMARK       I    between atoms: N1_4  and  C20_36 
REMARK    3  A    between atoms: C4_5  and  C5_6 
REMARK    4  A    between atoms: C5_6  and  N2_7 
REMARK    5  A    between atoms: N2_7  and  C6_8 
REMARK    6  A    between atoms: C6_8  and  C7_9 
REMARK    7  A    between atoms: C7_9  and  N3_10 
REMARK    8  A    between atoms: N3_10  and  C8_12 
REMARK    9  A    between atoms: C9_17  and  N6_18 
REMARK   10  A    between atoms: N6_18  and  C10_20 
REMARK   11  A    between atoms: C10_20  and  C11_21 
REMARK   12  A    between atoms: C11_21  and  N7_22 
ROOT
HETATM    1  C1  UNL     1      20.179 -12.241  19.544  1.00  0.00     0.014 C 
HETATM    2  C2  UNL     1      19.507 -12.444  20.518  1.00  0.00    -0.098 C 
HETATM    3  C3  UNL     1      18.698 -12.696  21.734  1.00  0.00     0.219 C 
ENDROOT
BRANCH   3   4
HETATM    4  N1  UNL     1      18.770 -14.124  21.974  1.00  0.00    -0.340 N 
HETATM    5  C20 UNL     1      17.673 -14.953  21.629  1.00  0.00     0.216 C 
HETATM    6  C21 UNL     1      16.428 -14.452  21.025  1.00  0.00     0.117 C 
HETATM    7  O2  UNL     1      17.778 -16.185  21.855  1.00  0.00    -0.274 OA
BRANCH   4   8
HETATM    8  C4  UNL     1      19.981 -14.684  22.573  1.00  0.00     0.154 C 
BRANCH   8   9
HETATM    9  C5  UNL     1      19.871 -14.465  24.038  1.00  0.00     0.257 C 
BRANCH   9  10
HETATM   10  N2  UNL     1      21.112 -14.362  24.767  1.00  0.00    -0.064 N 
HETATM   11  C17 UNL     1      21.036 -15.181  25.947  1.00  0.00     0.239 C 
HETATM   12  C18 UNL     1      20.175 -14.111  26.594  1.00  0.00     0.056 C 
HETATM   13  C19 UNL     1      20.974 -13.204  25.659  1.00  0.00     0.239 C 
BRANCH  10  14
HETATM   14  C6  UNL     1      22.261 -14.426  23.966  1.00  0.00     0.257 C 
BRANCH  14  15
HETATM   15  C7  UNL     1      23.215 -13.290  23.968  1.00  0.00     0.166 C 
BRANCH  15  16
HETATM   16  N3  UNL     1      24.606 -13.654  23.802  1.00  0.00    -0.223 N 
ATOM     17  H3  UNL     1      25.322 -12.926  23.810  1.00  0.00     0.177 HD
BRANCH  16  18
HETATM   18  C8  UNL     1      24.949 -14.876  23.648  1.00  0.00     0.707 A 
HETATM   19  N4  UNL     1      25.056 -15.838  24.573  1.00  0.00    -0.117 N 
HETATM   20  N5  UNL     1      25.445 -16.969  23.960  1.00  0.00    -0.117 N 
ATOM     21  H4  UNL     1      24.874 -15.731  25.571  1.00  0.00     0.206 HD
HETATM   22  C9  UNL     1      25.589 -16.737  22.640  1.00  0.00     0.707 A 
ATOM     23  H5  UNL     1      25.607 -17.864  24.422  1.00  0.00     0.206 HD
HETATM   24  N9  UNL     1      25.280 -15.447  22.470  1.00  0.00    -0.020 N 
ATOM     25  H9  UNL     1      25.291 -14.962  21.574  1.00  0.00     0.203 HD
BRANCH  22  26
HETATM   26  N6  UNL     1      25.956 -17.600  21.723  1.00  0.00    -0.223 N 
ATOM     27  H6  UNL     1      26.841 -17.472  21.232  1.00  0.00     0.177 HD
BRANCH  26  28
HETATM   28  C10 UNL     1      25.112 -18.734  21.403  1.00  0.00     0.166 C 
BRANCH  28  29
HETATM   29  C11 UNL     1      23.757 -18.211  21.066  1.00  0.00     0.257 C 
BRANCH  29  30
HETATM   30  N7  UNL     1      22.673 -18.863  21.757  1.00  0.00    -0.060 N 
HETATM   31  C12 UNL     1      23.264 -19.983  22.495  1.00  0.00     0.273 C 
HETATM   32  C13 UNL     1      21.674 -19.416  20.899  1.00  0.00     0.257 C 
HETATM   33  C14 UNL     1      20.526 -18.455  20.594  1.00  0.00     0.150 C 
HETATM   34  N8  UNL     1      19.854 -18.248  21.865  1.00  0.00    -0.358 N 
HETATM   35  C15 UNL     1      20.706 -18.124  22.997  1.00  0.00     0.243 C 
ATOM     36  H8  UNL     1      18.838 -18.194  21.940  1.00  0.00     0.162 HD
HETATM   37  O1  UNL     1      20.274 -18.163  24.171  1.00  0.00    -0.272 OA
HETATM   38  C16 UNL     1      22.153 -17.943  22.734  1.00  0.00     0.339 C 
ENDBRANCH  29  30
ENDBRANCH  28  29
ENDBRANCH  26  28
ENDBRANCH  22  26
ENDBRANCH  16  18
ENDBRANCH  15  16
ENDBRANCH  14  15
ENDBRANCH  10  14
ENDBRANCH   9  10
ENDBRANCH   8   9
ENDBRANCH   4   8
ENDBRANCH   3   4
TORSDOF 12
ENDMDL
MODEL 4
REMARK VINA RESULT: -6.158192696      2.256      7.319
REMARK  12 active torsions:
REMARK  status: ('A' for Active; 'I' for Inactive)
REMARK    1  A    between atoms: C3_3  and  N1_4 
REMARK    2  A    between atoms: N1_4  and  C4_5 
REMARK       I    between atoms: N1_4  and  C20_36 
REMARK    3  A    between atoms: C4_5  and  C5_6 
REMARK    4  A    between atoms: C5_6  and  N2_7 
REMARK    5  A    between atoms: N2_7  and  C6_8 
REMARK    6  A    between atoms: C6_8  and  C7_9 
REMARK    7  A    between atoms: C7_9  and  N3_10 
REMARK    8  A    between atoms: N3_10  and  C8_12 
REMARK    9  A    between atoms: C9_17  and  N6_18 
REMARK   10  A    between atoms: N6_18  and  C10_20 
REMARK   11  A    between atoms: C10_20  and  C11_21 
REMARK   12  A    between atoms: C11_21  and  N7_22 
ROOT
HETATM    1  C1  UNL     1      18.616 -11.690  20.265  1.00  0.00     0.014 C 
HETATM    2  C2  UNL     1      17.629 -12.184  19.793  1.00  0.00    -0.098 C 
HETATM    3  C3  UNL     1      16.421 -12.791  19.187  1.00  0.00     0.219 C 
ENDROOT
BRANCH   3   4
HETATM    4  N1  UNL     1      15.620 -11.685  18.697  1.00  0.00    -0.340 N 
HETATM    5  C20 UNL     1      15.456 -11.499  17.301  1.00  0.00     0.216 C 
HETATM    6  C21 UNL     1      16.059 -12.372  16.283  1.00  0.00     0.117 C 
HETATM    7  O2  UNL     1      14.754 -10.528  16.920  1.00  0.00    -0.274 OA
BRANCH   4   8
HETATM    8  C4  UNL     1      14.993 -10.780  19.659  1.00  0.00     0.154 C 
BRANCH   8   9
HETATM    9  C5  UNL     1      13.672 -11.369  19.998  1.00  0.00     0.257 C 
BRANCH   9  10
HETATM   10  N2  UNL     1      13.426 -11.635  21.395  1.00  0.00    -0.064 N 
HETATM   11  C17 UNL     1      12.035 -11.404  21.682  1.00  0.00     0.239 C 
HETATM   12  C18 UNL     1      12.315  -9.912  21.668  1.00  0.00     0.056 C 
HETATM   13  C19 UNL     1      13.699 -10.382  22.110  1.00  0.00     0.239 C 
BRANCH  10  14
HETATM   14  C6  UNL     1      14.037 -12.800  21.878  1.00  0.00     0.257 C 
BRANCH  14  15
HETATM   15  C7  UNL     1      13.308 -14.089  21.805  1.00  0.00     0.166 C 
BRANCH  15  16
HETATM   16  N3  UNL     1      14.026 -15.234  22.325  1.00  0.00    -0.223 N 
ATOM     17  H3  UNL     1      13.703 -15.688  23.179  1.00  0.00     0.177 HD
BRANCH  16  18
HETATM   18  C8  UNL     1      15.062 -15.684  21.724  1.00  0.00     0.707 A 
HETATM   19  N4  UNL     1      15.126 -16.524  20.683  1.00  0.00    -0.117 N 
HETATM   20  N5  UNL     1      16.421 -16.721  20.382  1.00  0.00    -0.117 N 
ATOM     21  H4  UNL     1      14.330 -16.943  20.203  1.00  0.00     0.206 HD
HETATM   22  C9  UNL     1      17.192 -16.008  21.227  1.00  0.00     0.707 A 
ATOM     23  H5  UNL     1      16.766 -17.317  19.630  1.00  0.00     0.206 HD
HETATM   24  N9  UNL     1      16.338 -15.379  22.041  1.00  0.00    -0.020 N 
ATOM     25  H9  UNL     1      16.613 -14.755  22.799  1.00  0.00     0.203 HD
BRANCH  22  26
HETATM   26  N6  UNL     1      18.502 -15.950  21.240  1.00  0.00    -0.223 N 
ATOM     27  H6  UNL     1      19.045 -16.658  20.745  1.00  0.00     0.177 HD
BRANCH  26  28
HETATM   28  C10 UNL     1      19.182 -14.886  21.952  1.00  0.00     0.166 C 
BRANCH  28  29
HETATM   29  C11 UNL     1      19.725 -15.461  23.217  1.00  0.00     0.257 C 
BRANCH  29  30
HETATM   30  N7  UNL     1      20.654 -14.609  23.913  1.00  0.00    -0.060 N 
HETATM   31  C12 UNL     1      20.863 -13.435  23.060  1.00  0.00     0.273 C 
HETATM   32  C13 UNL     1      21.939 -15.192  24.134  1.00  0.00     0.257 C 
HETATM   33  C14 UNL     1      22.057 -15.931  25.466  1.00  0.00     0.150 C 
HETATM   34  N8  UNL     1      21.933 -14.905  26.485  1.00  0.00    -0.358 N 
HETATM   35  C15 UNL     1      20.964 -13.896  26.227  1.00  0.00     0.243 C 
ATOM     36  H8  UNL     1      22.503 -14.907  27.331  1.00  0.00     0.162 HD
HETATM   37  O1  UNL     1      20.897 -12.840  26.894  1.00  0.00    -0.272 OA
HETATM   38  C16 UNL     1      20.014 -14.145  25.116  1.00  0.00     0.339 C 
ENDBRANCH  29  30
ENDBRANCH  28  29
ENDBRANCH  26  28
ENDBRANCH  22  26
ENDBRANCH  16  18
ENDBRANCH  15  16
ENDBRANCH  14  15
ENDBRANCH  10  14
ENDBRANCH   9  10
ENDBRANCH   8   9
ENDBRANCH   4   8
ENDBRANCH   3   4
TORSDOF 12
ENDMDL
MODEL 5
REMARK VINA RESULT: -6.144739316      1.562      2.058
REMARK  12 active torsions:
REMARK  status: ('A' for Active; 'I' for Inactive)
REMARK    1  A    between atoms: C3_3  and  N1_4 
REMARK    2  A    between atoms: N1_4  and  C4_5 
REMARK       I    between atoms: N1_4  and  C20_36 
REMARK    3  A    between atoms: C4_5  and  C5_6 
REMARK    4  A    between atoms: C5_6  and  N2_7 
REMARK    5  A    between atoms: N2_7  and  C6_8 
REMARK    6  A    between atoms: C6_8  and  C7_9 
REMARK    7  A    between atoms: C7_9  and  N3_10 
REMARK    8  A    between atoms: N3_10  and  C8_12 
REMARK    9  A    between atoms: C9_17  and  N6_18 
REMARK   10  A    between atoms: N6_18  and  C10_20 
REMARK   11  A    between atoms: C10_20  and  C11_21 
REMARK   12  A    between atoms: C11_21  and  N7_22 
ROOT
HETATM    1  C1  UNL     1      19.045 -15.412  26.596  1.00  0.00     0.014 C 
HETATM    2  C2  UNL     1      19.949 -15.634  25.838  1.00  0.00    -0.098 C 
HETATM    3  C3  UNL     1      21.076 -15.883  24.909  1.00  0.00     0.219 C 
ENDROOT
BRANCH   3   4
HETATM    4  N1  UNL     1      20.782 -15.124  23.709  1.00  0.00    -0.340 N 
HETATM    5  C20 UNL     1      21.352 -13.837  23.532  1.00  0.00     0.216 C 
HETATM    6  C21 UNL     1      22.248 -13.198  24.510  1.00  0.00     0.117 C 
HETATM    7  O2  UNL     1      21.071 -13.214  22.478  1.00  0.00    -0.274 OA
BRANCH   4   8
HETATM    8  C4  UNL     1      19.898 -15.703  22.699  1.00  0.00     0.154 C 
BRANCH   8   9
HETATM    9  C5  UNL     1      20.151 -17.167  22.704  1.00  0.00     0.257 C 
BRANCH   9  10
HETATM   10  N2  UNL     1      19.572 -17.923  21.619  1.00  0.00    -0.064 N 
HETATM   11  C17 UNL     1      19.783 -19.326  21.855  1.00  0.00     0.239 C 
HETATM   12  C18 UNL     1      21.224 -19.150  21.411  1.00  0.00     0.056 C 
HETATM   13  C19 UNL     1      20.609 -18.023  20.584  1.00  0.00     0.239 C 
BRANCH  10  14
HETATM   14  C6  UNL     1      18.303 -17.482  21.220  1.00  0.00     0.257 C 
BRANCH  14  15
HETATM   15  C7  UNL     1      17.097 -18.192  21.711  1.00  0.00     0.166 C 
BRANCH  15  16
HETATM   16  N3  UNL     1      16.218 -17.406  22.552  1.00  0.00    -0.223 N 
ATOM     17  H3  UNL     1      16.455 -17.262  23.533  1.00  0.00     0.177 HD
BRANCH  16  18
HETATM   18  C8  UNL     1      15.148 -16.891  22.077  1.00  0.00     0.707 A 
HETATM   19  N4  UNL     1      14.271 -17.427  21.217  1.00  0.00    -0.117 N 
HETATM   20  N5  UNL     1      13.297 -16.528  20.997  1.00  0.00    -0.117 N 
ATOM     21  H4  UNL     1      14.333 -18.357  20.802  1.00  0.00     0.206 HD
HETATM   22  C9  UNL     1      13.544 -15.413  21.712  1.00  0.00     0.707 A 
ATOM     23  H5  UNL     1      12.495 -16.668  20.382  1.00  0.00     0.206 HD
HETATM   24  N9  UNL     1      14.684 -15.657  22.367  1.00  0.00    -0.020 N 
ATOM     25  H9  UNL     1      15.140 -15.001  23.001  1.00  0.00     0.203 HD
BRANCH  22  26
HETATM   26  N6  UNL     1      12.815 -14.324  21.751  1.00  0.00    -0.223 N 
ATOM     27  H6  UNL     1      11.807 -14.383  21.602  1.00  0.00     0.177 HD
BRANCH  26  28
HETATM   28  C10 UNL     1      13.432 -13.037  22.004  1.00  0.00     0.166 C 
BRANCH  28  29
HETATM   29  C11 UNL     1      13.174 -12.169  20.819  1.00  0.00     0.257 C 
BRANCH  29  30
HETATM   30  N7  UNL     1      14.238 -11.248  20.507  1.00  0.00    -0.060 N 
HETATM   31  C12 UNL     1      14.028 -10.068  21.352  1.00  0.00     0.273 C 
HETATM   32  C13 UNL     1      14.244 -10.790  19.154  1.00  0.00     0.257 C 
HETATM   33  C14 UNL     1      15.097 -11.648  18.221  1.00  0.00     0.150 C 
HETATM   34  N8  UNL     1      16.463 -11.473  18.681  1.00  0.00    -0.358 N 
HETATM   35  C15 UNL     1      16.635 -11.435  20.092  1.00  0.00     0.243 C 
ATOM     36  H8  UNL     1      17.247 -11.384  18.035  1.00  0.00     0.162 HD
HETATM   37  O1  UNL     1      17.705 -11.073  20.630  1.00  0.00    -0.272 OA
HETATM   38  C16 UNL     1      15.479 -11.846  20.923  1.00  0.00     0.339 C 
ENDBRANCH  29  30
ENDBRANCH  28  29
ENDBRANCH  26  28
ENDBRANCH  22  26
ENDBRANCH  16  18
ENDBRANCH  15  16
ENDBRANCH  14  15
ENDBRANCH  10  14
ENDBRANCH   9  10
ENDBRANCH   8   9
ENDBRANCH   4   8
ENDBRANCH   3   4
TORSDOF 12
ENDMDL
