MODEL 1
REMARK VINA RESULT: -6.994349161      0.000      0.000
REMARK  15 active torsions:
REMARK  status: ('A' for Active; 'I' for Inactive)
REMARK    1  A    between atoms: C3_3  and  C4_4 
REMARK    2  A    between atoms: C4_4  and  C5_5 
REMARK    3  A    between atoms: C5_5  and  C6_6 
REMARK    4  A    between atoms: C7_7  and  C8_8 
REMARK    5  A    between atoms: C9_9  and  C10_10 
REMARK    6  A    between atoms: C10_10  and  N1_12 
REMARK    7  A    between atoms: N1_12  and  C12_15 
REMARK    8  A    between atoms: C12_15  and  C13_16 
REMARK    9  A    between atoms: C12_15  and  C19_32 
REMARK   10  A    between atoms: C13_16  and  O1_17 
REMARK   11  A    between atoms: C13_16  and  N2_19 
REMARK       I    between atoms: N2_19  and  C14_20 
REMARK       I    between atoms: C14_20  and  N4_22 
REMARK   12  A    between atoms: N4_22  and  C15_24 
REMARK   13  A    between atoms: C15_24  and  C16_25 
REMARK   14  A    between atoms: C16_25  and  C17_26 
REMARK   15  A    between atoms: C17_26  and  N5_27 
ROOT
HETATM    1  C1  UNL     1      20.210 -13.554  22.303  1.00  0.00     0.012 C 
HETATM    2  C2  UNL     1      20.937 -13.374  23.251  1.00  0.00    -0.117 C 
HETATM    3  C3  UNL     1      21.824 -13.149  24.416  1.00  0.00     0.094 C 
ENDROOT
BRANCH   3   4
HETATM    4  C4  UNL     1      20.929 -12.515  25.477  1.00  0.00     0.024 C 
BRANCH   4   5
HETATM    5  C5  UNL     1      20.843 -13.512  26.613  1.00  0.00     0.096 C 
BRANCH   5   6
HETATM    6  C6  UNL     1      19.980 -14.611  26.127  1.00  0.00    -0.092 C 
HETATM    7  C7  UNL     1      19.292 -15.516  25.720  1.00  0.00    -0.015 C 
BRANCH   7   8
HETATM    8  C8  UNL     1      18.502 -16.580  25.227  1.00  0.00    -0.013 C 
HETATM    9  C9  UNL     1      17.811 -17.478  24.794  1.00  0.00    -0.059 C 
BRANCH   9  10
HETATM   10  C10 UNL     1      16.954 -18.545  24.267  1.00  0.00     0.262 C 
HETATM   11  C11 UNL     1      16.508 -19.411  25.413  1.00  0.00     0.054 C 
BRANCH  10  12
HETATM   12  N1  UNL     1      15.867 -17.909  23.582  1.00  0.00    -0.044 N 
ATOM     13  H12 UNL     1      15.073 -18.543  23.489  1.00  0.00     0.279 HD
ATOM     14  H11 UNL     1      15.439 -17.191  24.167  1.00  0.00     0.279 HD
BRANCH  12  15
HETATM   15  C12 UNL     1      16.254 -17.362  22.281  1.00  0.00     0.332 C 
BRANCH  15  16
HETATM   16  C13 UNL     1      15.395 -16.121  22.156  1.00  0.00     0.229 C 
BRANCH  16  17
HETATM   17  O1  UNL     1      14.154 -16.295  22.550  1.00  0.00    -0.337 OA
ATOM     18  H1  UNL     1      13.589 -15.553  22.371  1.00  0.00     0.220 HD
ENDBRANCH  16  17
BRANCH  16  19
HETATM   19  N2  UNL     1      15.746 -14.917  21.712  1.00  0.00    -0.351 NA
HETATM   20  C14 UNL     1      16.066 -13.859  21.314  1.00  0.00     0.265 C 
HETATM   21  N3  UNL     1      17.121 -13.704  20.348  1.00  0.00    -0.049 NA
HETATM   22  N4  UNL     1      15.468 -12.596  21.712  1.00  0.00    -0.353 N 
ATOM     23  H4  UNL     1      15.696 -12.176  22.613  1.00  0.00     0.163 HD
BRANCH  22  24
HETATM   24  C15 UNL     1      14.558 -11.954  20.820  1.00  0.00     0.125 C 
BRANCH  24  25
HETATM   25  C16 UNL     1      14.482 -10.467  20.935  1.00  0.00     0.039 C 
BRANCH  25  26
HETATM   26  C17 UNL     1      13.128  -9.926  21.273  1.00  0.00     0.123 C 
BRANCH  26  27
HETATM   27  N5  UNL     1      12.422 -10.784  22.221  1.00  0.00    -0.367 N 
HETATM   28  C18 UNL     1      11.909 -10.307  23.306  1.00  0.00     0.196 C 
HETATM   29  N6  UNL     1      11.235 -11.179  24.190  1.00  0.00    -0.067 NA
HETATM   30  N7  UNL     1      11.988  -8.933  23.668  1.00  0.00    -0.067 NA
ATOM     31  H5  UNL     1      12.332 -11.781  22.022  1.00  0.00     0.161 HD
ENDBRANCH  26  27
ENDBRANCH  25  26
ENDBRANCH  24  25
ENDBRANCH  22  24
ENDBRANCH  16  19
ENDBRANCH  15  16
BRANCH  15  32
HETATM   32  C19 UNL     1      15.802 -18.443  21.299  1.00  0.00     0.365 C 
HETATM   33  O2  UNL     1      14.832 -17.981  20.455  1.00  0.00    -0.355 OA
HETATM   34  C20 UNL     1      15.241 -18.275  19.185  1.00  0.00     0.198 C 
HETATM   35  C21 UNL     1      16.110 -19.528  19.335  1.00  0.00     0.266 C 
HETATM   36  N8  UNL     1      16.750 -19.183  20.621  1.00  0.00    -0.044 N 
HETATM   37  C22 UNL     1      17.063 -20.473  21.291  1.00  0.00     0.275 C 
HETATM   38  C23 UNL     1      17.993 -18.564  20.284  1.00  0.00     0.275 C 
ENDBRANCH  15  32
ENDBRANCH  12  15
ENDBRANCH  10  12
ENDBRANCH   9  10
ENDBRANCH   7   8
ENDBRANCH   5   6
ENDBRANCH   4   5
ENDBRANCH   3   4
TORSDOF 15
ENDMDL
MODEL 2
REMARK VINA RESULT: -6.882695635      1.487      1.974
REMARK  15 active torsions:
REMARK  status: ('A' for Active; 'I' for Inactive)
REMARK    1  A    between atoms: C3_3  and  C4_4 
REMARK    2  A    between atoms: C4_4  and  C5_5 
REMARK    3  A    between atoms: C5_5  and  C6_6 
REMARK    4  A    between atoms: C7_7  and  C8_8 
REMARK    5  A    between atoms: C9_9  and  C10_10 
REMARK    6  A    between atoms: C10_10  and  N1_12 
REMARK    7  A    between atoms: N1_12  and  C12_15 
REMARK    8  A    between atoms: C12_15  and  C13_16 
REMARK    9  A    between atoms: C12_15  and  C19_32 
REMARK   10  A    between atoms: C13_16  and  O1_17 
REMARK   11  A    between atoms: C13_16  and  N2_19 
REMARK       I    between atoms: N2_19  and  C14_20 
REMARK       I    between atoms: C14_20  and  N4_22 
REMARK   12  A    between atoms: N4_22  and  C15_24 
REMARK   13  A    between atoms: C15_24  and  C16_25 
REMARK   14  A    between atoms: C16_25  and  C17_26 
REMARK   15  A    between atoms: C17_26  and  N5_27 
ROOT
HETATM    1  C1  UNL     1      23.693 -13.721  23.955  1.00  0.00     0.012 C 
HETATM    2  C2  UNL     1      22.524 -13.440  24.079  1.00  0.00    -0.117 C 
HETATM    3  C3  UNL     1      21.093 -13.094  24.237  1.00  0.00     0.094 C 
ENDROOT
BRANCH   3   4
HETATM    4  C4  UNL     1      21.002 -12.399  25.592  1.00  0.00     0.024 C 
BRANCH   4   5
HETATM    5  C5  UNL     1      20.932 -13.496  26.631  1.00  0.00     0.096 C 
BRANCH   5   6
HETATM    6  C6  UNL     1      20.049 -14.540  26.063  1.00  0.00    -0.092 C 
HETATM    7  C7  UNL     1      19.334 -15.384  25.581  1.00  0.00    -0.015 C 
BRANCH   7   8
HETATM    8  C8  UNL     1      18.495 -16.362  24.996  1.00  0.00    -0.013 C 
HETATM    9  C9  UNL     1      17.759 -17.185  24.496  1.00  0.00    -0.059 C 
BRANCH   9  10
HETATM   10  C10 UNL     1      16.846 -18.168  23.903  1.00  0.00     0.262 C 
HETATM   11  C11 UNL     1      16.295 -19.034  25.002  1.00  0.00     0.054 C 
BRANCH  10  12
HETATM   12  N1  UNL     1      15.835 -17.430  23.203  1.00  0.00    -0.044 N 
ATOM     13  H12 UNL     1      14.961 -17.420  23.729  1.00  0.00     0.279 HD
ATOM     14  H11 UNL     1      16.044 -16.432  23.208  1.00  0.00     0.279 HD
BRANCH  12  15
HETATM   15  C12 UNL     1      15.618 -17.912  21.838  1.00  0.00     0.332 C 
BRANCH  15  16
HETATM   16  C13 UNL     1      15.892 -16.688  20.990  1.00  0.00     0.229 C 
BRANCH  16  17
HETATM   17  O1  UNL     1      15.817 -16.913  19.697  1.00  0.00    -0.337 OA
ATOM     18  H1  UNL     1      15.282 -16.283  19.230  1.00  0.00     0.220 HD
ENDBRANCH  16  17
BRANCH  16  19
HETATM   19  N2  UNL     1      16.185 -15.455  21.392  1.00  0.00    -0.351 NA
HETATM   20  C14 UNL     1      16.455 -14.369  21.751  1.00  0.00     0.265 C 
HETATM   21  N3  UNL     1      17.773 -14.038  22.226  1.00  0.00    -0.049 NA
HETATM   22  N4  UNL     1      15.544 -13.238  21.765  1.00  0.00    -0.353 N 
ATOM     23  H4  UNL     1      14.832 -13.155  22.490  1.00  0.00     0.163 HD
BRANCH  22  24
HETATM   24  C15 UNL     1      15.663 -12.246  20.746  1.00  0.00     0.125 C 
BRANCH  24  25
HETATM   25  C16 UNL     1      14.375 -11.695  20.227  1.00  0.00     0.039 C 
BRANCH  25  26
HETATM   26  C17 UNL     1      13.228 -11.755  21.187  1.00  0.00     0.123 C 
BRANCH  26  27
HETATM   27  N5  UNL     1      12.999 -10.469  21.840  1.00  0.00    -0.367 N 
HETATM   28  C18 UNL     1      12.206 -10.363  22.853  1.00  0.00     0.196 C 
HETATM   29  N6  UNL     1      12.018  -9.095  23.449  1.00  0.00    -0.067 NA
HETATM   30  N7  UNL     1      11.498 -11.464  23.411  1.00  0.00    -0.067 NA
ATOM     31  H5  UNL     1      13.474  -9.638  21.487  1.00  0.00     0.161 HD
ENDBRANCH  26  27
ENDBRANCH  25  26
ENDBRANCH  24  25
ENDBRANCH  22  24
ENDBRANCH  16  19
ENDBRANCH  15  16
BRANCH  15  32
HETATM   32  C19 UNL     1      14.131 -18.267  21.825  1.00  0.00     0.365 C 
HETATM   33  O2  UNL     1      13.370 -17.224  21.378  1.00  0.00    -0.355 OA
HETATM   34  C20 UNL     1      12.568 -17.717  20.387  1.00  0.00     0.198 C 
HETATM   35  C21 UNL     1      12.370 -19.194  20.744  1.00  0.00     0.266 C 
HETATM   36  N8  UNL     1      13.724 -19.464  21.269  1.00  0.00    -0.044 N 
HETATM   37  C22 UNL     1      13.573 -20.547  22.277  1.00  0.00     0.275 C 
HETATM   38  C23 UNL     1      14.467 -20.001  20.173  1.00  0.00     0.275 C 
ENDBRANCH  15  32
ENDBRANCH  12  15
ENDBRANCH  10  12
ENDBRANCH   9  10
ENDBRANCH   7   8
ENDBRANCH   5   6
ENDBRANCH   4   5
ENDBRANCH   3   4
TORSDOF 15
ENDMDL
MODEL 3
REMARK VINA RESULT: -6.855703193      2.314      3.375
REMARK  15 active torsions:
REMARK  status: ('A' for Active; 'I' for Inactive)
REMARK    1  A    between atoms: C3_3  and  C4_4 
REMARK    2  A    between atoms: C4_4  and  C5_5 
REMARK    3  A    between atoms: C5_5  and  C6_6 
REMARK    4  A    between atoms: C7_7  and  C8_8 
REMARK    5  A    between atoms: C9_9  and  C10_10 
REMARK    6  A    between atoms: C10_10  and  N1_12 
REMARK    7  A    between atoms: N1_12  and  C12_15 
REMARK    8  A    between atoms: C12_15  and  C13_16 
REMARK    9  A    between atoms: C12_15  and  C19_32 
REMARK   10  A    between atoms: C13_16  and  O1_17 
REMARK   11  A    between atoms: C13_16  and  N2_19 
REMARK       I    between atoms: N2_19  and  C14_20 
REMARK       I    between atoms: C14_20  and  N4_22 
REMARK   12  A    between atoms: N4_22  and  C15_24 
REMARK   13  A    between atoms: C15_24  and  C16_25 
REMARK   14  A    between atoms: C16_25  and  C17_26 
REMARK   15  A    between atoms: C17_26  and  N5_27 
ROOT
HETATM    1  C1  UNL     1      20.466 -13.519  22.280  1.00  0.00     0.012 C 
HETATM    2  C2  UNL     1      21.092 -13.481  23.313  1.00  0.00    -0.117 C 
HETATM    3  C3  UNL     1      21.855 -13.430  24.581  1.00  0.00     0.094 C 
ENDROOT
BRANCH   3   4
HETATM    4  C4  UNL     1      20.968 -12.648  25.545  1.00  0.00     0.024 C 
BRANCH   4   5
HETATM    5  C5  UNL     1      20.611 -13.600  26.666  1.00  0.00     0.096 C 
BRANCH   5   6
HETATM    6  C6  UNL     1      19.735 -14.629  26.063  1.00  0.00    -0.092 C 
HETATM    7  C7  UNL     1      19.027 -15.463  25.553  1.00  0.00    -0.015 C 
BRANCH   7   8
HETATM    8  C8  UNL     1      18.199 -16.430  24.935  1.00  0.00    -0.013 C 
HETATM    9  C9  UNL     1      17.490 -17.270  24.423  1.00  0.00    -0.059 C 
BRANCH   9  10
HETATM   10  C10 UNL     1      16.640 -18.304  23.825  1.00  0.00     0.262 C 
HETATM   11  C11 UNL     1      16.461 -19.413  24.824  1.00  0.00     0.054 C 
BRANCH  10  12
HETATM   12  N1  UNL     1      15.407 -17.671  23.457  1.00  0.00    -0.044 N 
ATOM     13  H12 UNL     1      14.607 -18.233  23.747  1.00  0.00     0.279 HD
ATOM     14  H11 UNL     1      15.241 -16.839  24.024  1.00  0.00     0.279 HD
BRANCH  12  15
HETATM   15  C12 UNL     1      15.332 -17.353  22.030  1.00  0.00     0.332 C 
BRANCH  15  16
HETATM   16  C13 UNL     1      14.974 -15.882  22.019  1.00  0.00     0.229 C 
BRANCH  16  17
HETATM   17  O1  UNL     1      13.770 -15.626  22.478  1.00  0.00    -0.337 OA
ATOM     18  H1  UNL     1      13.764 -15.060  23.240  1.00  0.00     0.220 HD
ENDBRANCH  16  17
BRANCH  16  19
HETATM   19  N2  UNL     1      15.719 -14.855  21.615  1.00  0.00    -0.351 NA
HETATM   20  C14 UNL     1      16.385 -13.958  21.255  1.00  0.00     0.265 C 
HETATM   21  N3  UNL     1      17.607 -14.171  20.525  1.00  0.00    -0.049 NA
HETATM   22  N4  UNL     1      16.090 -12.553  21.474  1.00  0.00    -0.353 N 
ATOM     23  H4  UNL     1      16.246 -12.126  22.386  1.00  0.00     0.163 HD
BRANCH  22  24
HETATM   24  C15 UNL     1      15.577 -11.780  20.389  1.00  0.00     0.125 C 
BRANCH  24  25
HETATM   25  C16 UNL     1      16.548 -11.481  19.293  1.00  0.00     0.039 C 
BRANCH  25  26
HETATM   26  C17 UNL     1      16.185 -12.043  17.954  1.00  0.00     0.123 C 
BRANCH  26  27
HETATM   27  N5  UNL     1      15.429 -11.086  17.151  1.00  0.00    -0.367 N 
HETATM   28  C18 UNL     1      15.906 -10.608  16.050  1.00  0.00     0.196 C 
HETATM   29  N6  UNL     1      15.134  -9.685  15.309  1.00  0.00    -0.067 NA
HETATM   30  N7  UNL     1      17.185 -10.962  15.536  1.00  0.00    -0.067 NA
ATOM     31  H5  UNL     1      14.505 -10.789  17.465  1.00  0.00     0.161 HD
ENDBRANCH  26  27
ENDBRANCH  25  26
ENDBRANCH  24  25
ENDBRANCH  22  24
ENDBRANCH  16  19
ENDBRANCH  15  16
BRANCH  15  32
HETATM   32  C19 UNL     1      14.159 -18.205  21.543  1.00  0.00     0.365 C 
HETATM   33  O2  UNL     1      13.391 -17.532  20.637  1.00  0.00    -0.355 OA
HETATM   34  C20 UNL     1      13.258 -18.348  19.548  1.00  0.00     0.198 C 
HETATM   35  C21 UNL     1      13.363 -19.769  20.111  1.00  0.00     0.266 C 
HETATM   36  N8  UNL     1      14.387 -19.508  21.144  1.00  0.00    -0.044 N 
HETATM   37  C22 UNL     1      14.147 -20.495  22.230  1.00  0.00     0.275 C 
HETATM   38  C23 UNL     1      15.641 -19.833  20.541  1.00  0.00     0.275 C 
ENDBRANCH  15  32
ENDBRANCH  12  15
ENDBRANCH  10  12
ENDBRANCH   9  10
ENDBRANCH   7   8
ENDBRANCH   5   6
ENDBRANCH   4   5
ENDBRANCH   3   4
TORSDOF 15
ENDMDL
MODEL 4
REMARK VINA RESULT: -6.819912497      3.322      6.627
REMARK  15 active torsions:
REMARK  status: ('A' for Active; 'I' for Inactive)
REMARK    1  A    between atoms: C3_3  and  C4_4 
REMARK    2  A    between atoms: C4_4  and  C5_5 
REMARK    3  A    between atoms: C5_5  and  C6_6 
REMARK    4  A    between atoms: C7_7  and  C8_8 
REMARK    5  A    between atoms: C9_9  and  C10_10 
REMARK    6  A    between atoms: C10_10  and  N1_12 
REMARK    7  A    between atoms: N1_12  and  C12_15 
REMARK    8  A    between atoms: C12_15  and  C13_16 
REMARK    9  A    between atoms: C12_15  and  C19_32 
REMARK   10  A    between atoms: C13_16  and  O1_17 
REMARK   11  A    between atoms: C13_16  and  N2_19 
REMARK       I    between atoms: N2_19  and  C14_20 
REMARK       I    between atoms: C14_20  and  N4_22 
REMARK   12  A    between atoms: N4_22  and  C15_24 
REMARK   13  A    between atoms: C15_24  and  C16_25 
REMARK   14  A    between atoms: C16_25  and  C17_26 
REMARK   15  A    between atoms: C17_26  and  N5_27 
ROOT
HETATM    1  C1  UNL     1      11.554 -10.196  23.972  1.00  0.00     0.012 C 
HETATM    2  C2  UNL     1      12.091  -9.975  22.912  1.00  0.00    -0.117 C 
HETATM    3  C3  UNL     1      12.755  -9.708  21.616  1.00  0.00     0.094 C 
ENDROOT
BRANCH   3   4
HETATM    4  C4  UNL     1      13.797 -10.814  21.470  1.00  0.00     0.024 C 
BRANCH   4   5
HETATM    5  C5  UNL     1      13.041 -12.062  21.068  1.00  0.00     0.096 C 
BRANCH   5   6
HETATM    6  C6  UNL     1      13.954 -13.196  21.339  1.00  0.00    -0.092 C 
HETATM    7  C7  UNL     1      14.711 -14.107  21.568  1.00  0.00    -0.015 C 
BRANCH   7   8
HETATM    8  C8  UNL     1      15.615 -15.160  21.841  1.00  0.00    -0.013 C 
HETATM    9  C9  UNL     1      16.382 -16.074  22.058  1.00  0.00    -0.059 C 
BRANCH   9  10
HETATM   10  C10 UNL     1      17.293 -17.197  22.305  1.00  0.00     0.262 C 
HETATM   11  C11 UNL     1      16.763 -18.409  21.591  1.00  0.00     0.054 C 
BRANCH  10  12
HETATM   12  N1  UNL     1      18.590 -16.792  21.847  1.00  0.00    -0.044 N 
ATOM     13  H12 UNL     1      19.282 -17.521  22.020  1.00  0.00     0.279 HD
ATOM     14  H11 UNL     1      18.624 -16.767  20.828  1.00  0.00     0.279 HD
BRANCH  12  15
HETATM   15  C12 UNL     1      19.024 -15.515  22.416  1.00  0.00     0.332 C 
BRANCH  15  16
HETATM   16  C13 UNL     1      19.678 -14.815  21.244  1.00  0.00     0.229 C 
BRANCH  16  17
HETATM   17  O1  UNL     1      20.525 -15.572  20.582  1.00  0.00    -0.337 OA
ATOM     18  H1  UNL     1      21.371 -15.165  20.441  1.00  0.00     0.220 HD
ENDBRANCH  16  17
BRANCH  16  19
HETATM   19  N2  UNL     1      19.494 -13.568  20.821  1.00  0.00    -0.351 NA
HETATM   20  C14 UNL     1      19.342 -12.467  20.440  1.00  0.00     0.265 C 
HETATM   21  N3  UNL     1      20.190 -11.895  19.427  1.00  0.00    -0.049 NA
HETATM   22  N4  UNL     1      18.316 -11.551  20.906  1.00  0.00    -0.353 N 
ATOM     23  H4  UNL     1      18.409 -11.083  21.806  1.00  0.00     0.163 HD
BRANCH  22  24
HETATM   24  C15 UNL     1      17.174 -11.319  20.081  1.00  0.00     0.125 C 
BRANCH  24  25
HETATM   25  C16 UNL     1      16.803 -12.437  19.163  1.00  0.00     0.039 C 
BRANCH  25  26
HETATM   26  C17 UNL     1      16.032 -12.029  17.946  1.00  0.00     0.123 C 
BRANCH  26  27
HETATM   27  N5  UNL     1      16.869 -11.308  16.990  1.00  0.00    -0.367 N 
HETATM   28  C18 UNL     1      16.350 -10.552  16.081  1.00  0.00     0.196 C 
HETATM   29  N6  UNL     1      17.203  -9.876  15.180  1.00  0.00    -0.067 NA
HETATM   30  N7  UNL     1      14.948 -10.362  15.930  1.00  0.00    -0.067 NA
ATOM     31  H5  UNL     1      17.883 -11.404  17.042  1.00  0.00     0.161 HD
ENDBRANCH  26  27
ENDBRANCH  25  26
ENDBRANCH  24  25
ENDBRANCH  22  24
ENDBRANCH  16  19
ENDBRANCH  15  16
BRANCH  15  32
HETATM   32  C19 UNL     1      20.064 -15.931  23.456  1.00  0.00     0.365 C 
HETATM   33  O2  UNL     1      21.295 -15.416  23.169  1.00  0.00    -0.355 OA
HETATM   34  C20 UNL     1      21.739 -14.794  24.302  1.00  0.00     0.198 C 
HETATM   35  C21 UNL     1      21.068 -15.555  25.451  1.00  0.00     0.266 C 
HETATM   36  N8  UNL     1      19.767 -15.810  24.800  1.00  0.00    -0.044 N 
HETATM   37  C22 UNL     1      19.243 -17.069  25.391  1.00  0.00     0.275 C 
HETATM   38  C23 UNL     1      18.906 -14.750  25.220  1.00  0.00     0.275 C 
ENDBRANCH  15  32
ENDBRANCH  12  15
ENDBRANCH  10  12
ENDBRANCH   9  10
ENDBRANCH   7   8
ENDBRANCH   5   6
ENDBRANCH   4   5
ENDBRANCH   3   4
TORSDOF 15
ENDMDL
MODEL 5
REMARK VINA RESULT: -6.799637164      1.624      2.379
REMARK  15 active torsions:
REMARK  status: ('A' for Active; 'I' for Inactive)
REMARK    1  A    between atoms: C3_3  and  C4_4 
REMARK    2  A    between atoms: C4_4  and  C5_5 
REMARK    3  A    between atoms: C5_5  and  C6_6 
REMARK    4  A    between atoms: C7_7  and  C8_8 
REMARK    5  A    between atoms: C9_9  and  C10_10 
REMARK    6  A    between atoms: C10_10  and  N1_12 
REMARK    7  A    between atoms: N1_12  and  C12_15 
REMARK    8  A    between atoms: C12_15  and  C13_16 
REMARK    9  A    between atoms: C12_15  and  C19_32 
REMARK   10  A    between atoms: C13_16  and  O1_17 
REMARK   11  A    between atoms: C13_16  and  N2_19 
REMARK       I    between atoms: N2_19  and  C14_20 
REMARK       I    between atoms: C14_20  and  N4_22 
REMARK   12  A    between atoms: N4_22  and  C15_24 
REMARK   13  A    between atoms: C15_24  and  C16_25 
REMARK   14  A    between atoms: C16_25  and  C17_26 
REMARK   15  A    between atoms: C17_26  and  N5_27 
ROOT
HETATM    1  C1  UNL     1      23.823 -13.630  23.929  1.00  0.00     0.012 C 
HETATM    2  C2  UNL     1      22.637 -13.434  24.057  1.00  0.00    -0.117 C 
HETATM    3  C3  UNL     1      21.185 -13.193  24.221  1.00  0.00     0.094 C 
ENDROOT
BRANCH   3   4
HETATM    4  C4  UNL     1      21.062 -12.380  25.506  1.00  0.00     0.024 C 
BRANCH   4   5
HETATM    5  C5  UNL     1      20.840 -13.378  26.623  1.00  0.00     0.096 C 
BRANCH   5   6
HETATM    6  C6  UNL     1      19.994 -14.449  26.050  1.00  0.00    -0.092 C 
HETATM    7  C7  UNL     1      19.319 -15.326  25.568  1.00  0.00    -0.015 C 
BRANCH   7   8
HETATM    8  C8  UNL     1      18.540 -16.352  24.984  1.00  0.00    -0.013 C 
HETATM    9  C9  UNL     1      17.861 -17.216  24.471  1.00  0.00    -0.059 C 
BRANCH   9  10
HETATM   10  C10 UNL     1      17.022 -18.241  23.843  1.00  0.00     0.262 C 
HETATM   11  C11 UNL     1      16.191 -18.899  24.910  1.00  0.00     0.054 C 
BRANCH  10  12
HETATM   12  N1  UNL     1      16.236 -17.582  22.840  1.00  0.00    -0.044 N 
ATOM     13  H12 UNL     1      15.343 -18.056  22.707  1.00  0.00     0.279 HD
ATOM     14  H11 UNL     1      15.898 -16.681  23.177  1.00  0.00     0.279 HD
BRANCH  12  15
HETATM   15  C12 UNL     1      16.943 -17.433  21.567  1.00  0.00     0.332 C 
BRANCH  15  16
HETATM   16  C13 UNL     1      16.905 -15.939  21.322  1.00  0.00     0.229 C 
BRANCH  16  17
HETATM   17  O1  UNL     1      15.702 -15.474  21.075  1.00  0.00    -0.337 OA
ATOM     18  H1  UNL     1      15.535 -14.621  21.459  1.00  0.00     0.220 HD
ENDBRANCH  16  17
BRANCH  16  19
HETATM   19  N2  UNL     1      17.918 -15.076  21.332  1.00  0.00    -0.351 NA
HETATM   20  C14 UNL     1      18.820 -14.324  21.339  1.00  0.00     0.265 C 
HETATM   21  N3  UNL     1      20.171 -14.764  21.111  1.00  0.00    -0.049 NA
HETATM   22  N4  UNL     1      18.718 -12.893  21.565  1.00  0.00    -0.353 N 
ATOM     23  H4  UNL     1      18.578 -12.524  22.505  1.00  0.00     0.163 HD
BRANCH  22  24
HETATM   24  C15 UNL     1      18.816 -12.011  20.447  1.00  0.00     0.125 C 
BRANCH  24  25
HETATM   25  C16 UNL     1      17.593 -11.910  19.594  1.00  0.00     0.039 C 
BRANCH  25  26
HETATM   26  C17 UNL     1      16.296 -11.937  20.341  1.00  0.00     0.123 C 
BRANCH  26  27
HETATM   27  N5  UNL     1      15.640 -10.632  20.336  1.00  0.00    -0.367 N 
HETATM   28  C18 UNL     1      14.546 -10.428  20.990  1.00  0.00     0.196 C 
HETATM   29  N6  UNL     1      13.950  -9.147  20.953  1.00  0.00    -0.067 NA
HETATM   30  N7  UNL     1      13.895 -11.436  21.755  1.00  0.00    -0.067 NA
ATOM     31  H5  UNL     1      16.055  -9.866  19.804  1.00  0.00     0.161 HD
ENDBRANCH  26  27
ENDBRANCH  25  26
ENDBRANCH  24  25
ENDBRANCH  22  24
ENDBRANCH  16  19
ENDBRANCH  15  16
BRANCH  15  32
HETATM   32  C19 UNL     1      16.043 -18.174  20.578  1.00  0.00     0.365 C 
HETATM   33  O2  UNL     1      16.034 -17.567  19.355  1.00  0.00    -0.355 OA
HETATM   34  C20 UNL     1      16.312 -18.535  18.431  1.00  0.00     0.198 C 
HETATM   35  C21 UNL     1      15.789 -19.832  19.057  1.00  0.00     0.266 C 
HETATM   36  N8  UNL     1      16.150 -19.546  20.460  1.00  0.00    -0.044 N 
HETATM   37  C22 UNL     1      15.166 -20.276  21.303  1.00  0.00     0.275 C 
HETATM   38  C23 UNL     1      17.425 -20.157  20.668  1.00  0.00     0.275 C 
ENDBRANCH  15  32
ENDBRANCH  12  15
ENDBRANCH  10  12
ENDBRANCH   9  10
ENDBRANCH   7   8
ENDBRANCH   5   6
ENDBRANCH   4   5
ENDBRANCH   3   4
TORSDOF 15
ENDMDL
