MODEL 1
REMARK VINA RESULT: -7.100734716      0.000      0.000
REMARK  10 active torsions:
REMARK  status: ('A' for Active; 'I' for Inactive)
REMARK       I    between atoms: C2_2  and  N1_4 
REMARK    1  A    between atoms: C4_7  and  N2_8 
REMARK       I    between atoms: N2_8  and  C5_10 
REMARK    2  A    between atoms: C5_10  and  C6_12 
REMARK    3  A    between atoms: C6_12  and  C7_13 
REMARK    4  A    between atoms: C7_13  and  C8_14 
REMARK    5  A    between atoms: C8_14  and  S1_15 
REMARK    6  A    between atoms: C14_22  and  C15_23 
REMARK    7  A    between atoms: C16_24  and  C17_25 
REMARK    8  A    between atoms: C17_25  and  C18_26 
REMARK    9  A    between atoms: C18_26  and  N4_27 
REMARK       I    between atoms: C19_29  and  N6_31 
REMARK   10  A    between atoms: N6_31  and  N7_33 
ROOT
HETATM    1  C1  UNL     1      19.835 -12.490  19.455  1.00  0.00     0.117 C 
HETATM    2  C2  UNL     1      19.289 -12.851  20.786  1.00  0.00     0.217 C 
HETATM    3  O1  UNL     1      18.803 -11.875  21.459  1.00  0.00    -0.274 OA
HETATM    4  N1  UNL     1      19.250 -14.110  21.362  1.00  0.00    -0.330 N 
ATOM      5  H1  UNL     1      20.157 -14.467  21.665  1.00  0.00     0.168 HD
HETATM    6  C3  UNL     1      18.276 -14.892  21.576  1.00  0.00     0.048 C 
HETATM    7  C4  UNL     1      16.837 -14.809  21.317  1.00  0.00     0.159 C 
HETATM    8  C11 UNL     1      16.577 -16.236  20.815  1.00  0.00     0.268 C 
HETATM    9  N3  UNL     1      17.542 -17.058  21.512  1.00  0.00    -0.060 N 
HETATM   10  C12 UNL     1      18.186 -17.999  20.616  1.00  0.00     0.273 C 
HETATM   11  C13 UNL     1      16.835 -17.894  22.498  1.00  0.00     0.273 C 
HETATM   12  C14 UNL     1      18.451 -16.226  22.221  1.00  0.00     0.259 C 
ENDROOT
BRANCH  12  13
HETATM   13  C15 UNL     1      19.857 -16.685  22.162  1.00  0.00     0.008 C 
HETATM   14  C16 UNL     1      20.448 -17.141  23.261  1.00  0.00    -0.023 C 
BRANCH  14  15
HETATM   15  C17 UNL     1      21.894 -17.611  23.191  1.00  0.00     0.071 C 
BRANCH  15  16
HETATM   16  C18 UNL     1      22.737 -16.377  23.179  1.00  0.00     0.067 C 
BRANCH  16  17
HETATM   17  N4  UNL     1      22.619 -15.486  24.254  1.00  0.00    -0.343 N 
HETATM   18  C19 UNL     1      22.193 -14.319  24.294  1.00  0.00     0.207 C 
HETATM   19  N5  UNL     1      21.709 -13.603  23.190  1.00  0.00    -0.062 NA
HETATM   20  N6  UNL     1      22.186 -13.626  25.556  1.00  0.00    -0.259 N 
ATOM     21  H6  UNL     1      22.726 -12.765  25.648  1.00  0.00     0.191 HD
ATOM     22  H4  UNL     1      22.933 -15.856  25.151  1.00  0.00     0.167 HD
BRANCH  20  23
HETATM   23  N7  UNL     1      21.472 -14.088  26.649  1.00  0.00    -0.247 N 
HETATM   24  N8  UNL     1      20.257 -14.438  26.611  1.00  0.00    -0.331 N 
ATOM     25  H82 UNL     1      19.786 -14.369  25.708  1.00  0.00     0.178 HD
ATOM     26  H81 UNL     1      19.731 -14.778  27.415  1.00  0.00     0.178 HD
ATOM     27  H7  UNL     1      21.958 -14.150  27.543  1.00  0.00     0.207 HD
ENDBRANCH  20  23
ENDBRANCH  16  17
ENDBRANCH  15  16
ENDBRANCH  14  15
ENDBRANCH  12  13
BRANCH   7  28
HETATM   28  N2  UNL     1      16.423 -13.824  20.392  1.00  0.00    -0.350 N 
HETATM   29  C5  UNL     1      15.629 -12.736  20.810  1.00  0.00     0.218 C 
HETATM   30  O2  UNL     1      15.274 -12.613  22.003  1.00  0.00    -0.274 OA
ATOM     31  H2  UNL     1      16.701 -13.900  19.413  1.00  0.00     0.163 HD
BRANCH  29  32
HETATM   32  C6  UNL     1      15.182 -11.683  19.825  1.00  0.00     0.103 C 
BRANCH  32  33
HETATM   33  C7  UNL     1      13.770 -11.320  20.161  1.00  0.00     0.019 C 
BRANCH  33  34
HETATM   34  C8  UNL     1      13.573 -10.037  20.896  1.00  0.00     0.063 C 
BRANCH  34  35
HETATM   35  S1  UNL     1      12.215  -9.963  21.995  1.00  0.00    -0.228 SA
HETATM   36  C9  UNL     1      12.662  -8.738  23.251  1.00  0.00     0.078 C 
HETATM   37  C10 UNL     1      11.993 -11.484  22.858  1.00  0.00     0.078 C 
ENDBRANCH  34  35
ENDBRANCH  33  34
ENDBRANCH  32  33
ENDBRANCH  29  32
ENDBRANCH   7  28
TORSDOF 10
ENDMDL
MODEL 2
REMARK VINA RESULT: -7.039241305      3.894      7.977
REMARK  10 active torsions:
REMARK  status: ('A' for Active; 'I' for Inactive)
REMARK       I    between atoms: C2_2  and  N1_4 
REMARK    1  A    between atoms: C4_7  and  N2_8 
REMARK       I    between atoms: N2_8  and  C5_10 
REMARK    2  A    between atoms: C5_10  and  C6_12 
REMARK    3  A    between atoms: C6_12  and  C7_13 
REMARK    4  A    between atoms: C7_13  and  C8_14 
REMARK    5  A    between atoms: C8_14  and  S1_15 
REMARK    6  A    between atoms: C14_22  and  C15_23 
REMARK    7  A    between atoms: C16_24  and  C17_25 
REMARK    8  A    between atoms: C17_25  and  C18_26 
REMARK    9  A    between atoms: C18_26  and  N4_27 
REMARK       I    between atoms: C19_29  and  N6_31 
REMARK   10  A    between atoms: N6_31  and  N7_33 
ROOT
HETATM    1  C1  UNL     1      20.215 -13.214  24.717  1.00  0.00     0.117 C 
HETATM    2  C2  UNL     1      20.174 -13.427  23.251  1.00  0.00     0.217 C 
HETATM    3  O1  UNL     1      21.310 -13.383  22.661  1.00  0.00    -0.274 OA
HETATM    4  N1  UNL     1      19.055 -13.665  22.470  1.00  0.00    -0.330 N 
ATOM      5  H1  UNL     1      18.444 -12.858  22.344  1.00  0.00     0.168 HD
HETATM    6  C3  UNL     1      18.663 -14.720  21.885  1.00  0.00     0.048 C 
HETATM    7  C4  UNL     1      19.199 -16.080  21.787  1.00  0.00     0.159 C 
HETATM    8  C11 UNL     1      17.902 -16.885  21.948  1.00  0.00     0.268 C 
HETATM    9  N3  UNL     1      16.869 -16.047  21.380  1.00  0.00    -0.060 N 
HETATM   10  C12 UNL     1      15.694 -16.002  22.228  1.00  0.00     0.273 C 
HETATM   11  C13 UNL     1      16.406 -16.647  20.117  1.00  0.00     0.273 C 
HETATM   12  C14 UNL     1      17.409 -14.766  21.079  1.00  0.00     0.259 C 
ENDROOT
BRANCH  12  13
HETATM   13  C15 UNL     1      16.504 -13.641  21.405  1.00  0.00     0.008 C 
HETATM   14  C16 UNL     1      16.258 -12.707  20.492  1.00  0.00    -0.023 C 
BRANCH  14  15
HETATM   15  C17 UNL     1      15.326 -11.554  20.836  1.00  0.00     0.071 C 
BRANCH  15  16
HETATM   16  C18 UNL     1      13.962 -12.146  20.982  1.00  0.00     0.067 C 
BRANCH  16  17
HETATM   17  N4  UNL     1      13.196 -11.776  22.096  1.00  0.00    -0.343 N 
HETATM   18  C19 UNL     1      12.490 -10.773  22.294  1.00  0.00     0.207 C 
HETATM   19  N5  UNL     1      12.300  -9.730  21.377  1.00  0.00    -0.062 NA
HETATM   20  N6  UNL     1      11.802 -10.647  23.553  1.00  0.00    -0.259 N 
ATOM     21  H6  UNL     1      12.007  -9.843  24.147  1.00  0.00     0.191 HD
ATOM     22  H4  UNL     1      13.223 -12.439  22.871  1.00  0.00     0.167 HD
BRANCH  20  23
HETATM   23  N7  UNL     1      10.873 -11.579  23.984  1.00  0.00    -0.247 N 
HETATM   24  N8  UNL     1      10.908 -12.152  25.112  1.00  0.00    -0.331 N 
ATOM     25  H82 UNL     1      11.678 -11.900  25.733  1.00  0.00     0.178 HD
ATOM     26  H81 UNL     1      10.224 -12.839  25.429  1.00  0.00     0.178 HD
ATOM     27  H7  UNL     1      10.111 -11.820  23.351  1.00  0.00     0.207 HD
ENDBRANCH  20  23
ENDBRANCH  16  17
ENDBRANCH  15  16
ENDBRANCH  14  15
ENDBRANCH  12  13
BRANCH   7  28
HETATM   28  N2  UNL     1      20.181 -16.436  22.739  1.00  0.00    -0.350 N 
HETATM   29  C5  UNL     1      21.438 -16.923  22.324  1.00  0.00     0.218 C 
HETATM   30  O2  UNL     1      21.716 -17.049  21.111  1.00  0.00    -0.274 OA
ATOM     31  H2  UNL     1      19.980 -16.340  23.734  1.00  0.00     0.163 HD
BRANCH  29  32
HETATM   32  C6  UNL     1      22.489 -17.307  23.336  1.00  0.00     0.103 C 
BRANCH  32  33
HETATM   33  C7  UNL     1      22.085 -16.722  24.653  1.00  0.00     0.019 C 
BRANCH  33  34
HETATM   34  C8  UNL     1      21.913 -17.683  25.781  1.00  0.00     0.063 C 
BRANCH  34  35
HETATM   35  S1  UNL     1      20.272 -18.033  26.270  1.00  0.00    -0.228 SA
HETATM   36  C9  UNL     1      19.599 -19.130  24.996  1.00  0.00     0.078 C 
HETATM   37  C10 UNL     1      19.263 -16.587  26.247  1.00  0.00     0.078 C 
ENDBRANCH  34  35
ENDBRANCH  33  34
ENDBRANCH  32  33
ENDBRANCH  29  32
ENDBRANCH   7  28
TORSDOF 10
ENDMDL
MODEL 3
REMARK VINA RESULT: -6.979923228      4.293      8.767
REMARK  10 active torsions:
REMARK  status: ('A' for Active; 'I' for Inactive)
REMARK       I    between atoms: C2_2  and  N1_4 
REMARK    1  A    between atoms: C4_7  and  N2_8 
REMARK       I    between atoms: N2_8  and  C5_10 
REMARK    2  A    between atoms: C5_10  and  C6_12 
REMARK    3  A    between atoms: C6_12  and  C7_13 
REMARK    4  A    between atoms: C7_13  and  C8_14 
REMARK    5  A    between atoms: C8_14  and  S1_15 
REMARK    6  A    between atoms: C14_22  and  C15_23 
REMARK    7  A    between atoms: C16_24  and  C17_25 
REMARK    8  A    between atoms: C17_25  and  C18_26 
REMARK    9  A    between atoms: C18_26  and  N4_27 
REMARK       I    between atoms: C19_29  and  N6_31 
REMARK   10  A    between atoms: N6_31  and  N7_33 
ROOT
HETATM    1  C1  UNL     1      20.256 -13.205  24.886  1.00  0.00     0.117 C 
HETATM    2  C2  UNL     1      20.243 -13.427  23.421  1.00  0.00     0.217 C 
HETATM    3  O1  UNL     1      21.392 -13.401  22.855  1.00  0.00    -0.274 OA
HETATM    4  N1  UNL     1      19.139 -13.658  22.617  1.00  0.00    -0.330 N 
ATOM      5  H1  UNL     1      18.540 -12.844  22.474  1.00  0.00     0.168 HD
HETATM    6  C3  UNL     1      18.748 -14.711  22.031  1.00  0.00     0.048 C 
HETATM    7  C4  UNL     1      19.269 -16.078  21.953  1.00  0.00     0.159 C 
HETATM    8  C11 UNL     1      17.960 -16.867  22.091  1.00  0.00     0.268 C 
HETATM    9  N3  UNL     1      16.949 -16.020  21.496  1.00  0.00    -0.060 N 
HETATM   10  C12 UNL     1      15.756 -15.956  22.318  1.00  0.00     0.273 C 
HETATM   11  C13 UNL     1      16.505 -16.623  20.227  1.00  0.00     0.273 C 
HETATM   12  C14 UNL     1      17.510 -14.748  21.198  1.00  0.00     0.259 C 
ENDROOT
BRANCH  12  13
HETATM   13  C15 UNL     1      16.612 -13.610  21.498  1.00  0.00     0.008 C 
HETATM   14  C16 UNL     1      16.330 -12.725  20.548  1.00  0.00    -0.023 C 
BRANCH  14  15
HETATM   15  C17 UNL     1      15.405 -11.559  20.865  1.00  0.00     0.071 C 
BRANCH  15  16
HETATM   16  C18 UNL     1      14.028 -12.129  20.962  1.00  0.00     0.067 C 
BRANCH  16  17
HETATM   17  N4  UNL     1      13.225 -11.740  22.043  1.00  0.00    -0.343 N 
HETATM   18  C19 UNL     1      12.515 -10.733  22.201  1.00  0.00     0.207 C 
HETATM   19  N5  UNL     1      12.358  -9.705  21.260  1.00  0.00    -0.062 NA
HETATM   20  N6  UNL     1      11.785 -10.585  23.433  1.00  0.00    -0.259 N 
ATOM     21  H6  UNL     1      11.971  -9.772  24.021  1.00  0.00     0.191 HD
ATOM     22  H4  UNL     1      13.224 -12.390  22.829  1.00  0.00     0.167 HD
BRANCH  20  23
HETATM   23  N7  UNL     1      10.840 -11.509  23.848  1.00  0.00    -0.247 N 
HETATM   24  N8  UNL     1      10.856 -12.090  24.972  1.00  0.00    -0.331 N 
ATOM     25  H82 UNL     1      11.621 -11.851  25.603  1.00  0.00     0.178 HD
ATOM     26  H81 UNL     1      10.160 -12.770  25.277  1.00  0.00     0.178 HD
ATOM     27  H7  UNL     1      10.082 -11.736  23.205  1.00  0.00     0.207 HD
ENDBRANCH  20  23
ENDBRANCH  16  17
ENDBRANCH  15  16
ENDBRANCH  14  15
ENDBRANCH  12  13
BRANCH   7  28
HETATM   28  N2  UNL     1      20.226 -16.440  22.928  1.00  0.00    -0.350 N 
HETATM   29  C5  UNL     1      21.497 -16.913  22.542  1.00  0.00     0.218 C 
HETATM   30  O2  UNL     1      21.811 -17.023  21.337  1.00  0.00    -0.274 OA
ATOM     31  H2  UNL     1      19.997 -16.357  23.918  1.00  0.00     0.163 HD
BRANCH  29  32
HETATM   32  C6  UNL     1      22.522 -17.303  23.580  1.00  0.00     0.103 C 
BRANCH  32  33
HETATM   33  C7  UNL     1      23.236 -16.057  24.002  1.00  0.00     0.019 C 
BRANCH  33  34
HETATM   34  C8  UNL     1      24.697 -16.000  23.711  1.00  0.00     0.063 C 
BRANCH  34  35
HETATM   35  S1  UNL     1      25.454 -17.489  23.199  1.00  0.00    -0.228 SA
HETATM   36  C9  UNL     1      26.069 -18.277  24.709  1.00  0.00     0.078 C 
HETATM   37  C10 UNL     1      26.874 -17.188  22.196  1.00  0.00     0.078 C 
ENDBRANCH  34  35
ENDBRANCH  33  34
ENDBRANCH  32  33
ENDBRANCH  29  32
ENDBRANCH   7  28
TORSDOF 10
ENDMDL
MODEL 4
REMARK VINA RESULT: -6.945499642      3.620      8.099
REMARK  10 active torsions:
REMARK  status: ('A' for Active; 'I' for Inactive)
REMARK       I    between atoms: C2_2  and  N1_4 
REMARK    1  A    between atoms: C4_7  and  N2_8 
REMARK       I    between atoms: N2_8  and  C5_10 
REMARK    2  A    between atoms: C5_10  and  C6_12 
REMARK    3  A    between atoms: C6_12  and  C7_13 
REMARK    4  A    between atoms: C7_13  and  C8_14 
REMARK    5  A    between atoms: C8_14  and  S1_15 
REMARK    6  A    between atoms: C14_22  and  C15_23 
REMARK    7  A    between atoms: C16_24  and  C17_25 
REMARK    8  A    between atoms: C17_25  and  C18_26 
REMARK    9  A    between atoms: C18_26  and  N4_27 
REMARK       I    between atoms: C19_29  and  N6_31 
REMARK   10  A    between atoms: N6_31  and  N7_33 
ROOT
HETATM    1  C1  UNL     1      21.444 -12.957  25.316  1.00  0.00     0.117 C 
HETATM    2  C2  UNL     1      21.546 -13.392  23.902  1.00  0.00     0.217 C 
HETATM    3  O1  UNL     1      22.739 -13.499  23.449  1.00  0.00    -0.274 OA
HETATM    4  N1  UNL     1      20.503 -13.689  23.040  1.00  0.00    -0.330 N 
ATOM      5  H1  UNL     1      19.967 -12.880  22.726  1.00  0.00     0.168 HD
HETATM    6  C3  UNL     1      20.104 -14.799  22.575  1.00  0.00     0.048 C 
HETATM    7  C4  UNL     1      20.551 -16.184  22.742  1.00  0.00     0.159 C 
HETATM    8  C11 UNL     1      19.192 -16.885  22.868  1.00  0.00     0.268 C 
HETATM    9  N3  UNL     1      18.286 -16.091  22.066  1.00  0.00    -0.060 N 
HETATM   10  C12 UNL     1      17.033 -15.854  22.755  1.00  0.00     0.273 C 
HETATM   11  C13 UNL     1      17.920 -16.854  20.860  1.00  0.00     0.273 C 
HETATM   12  C14 UNL     1      18.943 -14.902  21.644  1.00  0.00     0.259 C 
ENDROOT
BRANCH  12  13
HETATM   13  C15 UNL     1      18.089 -13.695  21.693  1.00  0.00     0.008 C 
HETATM   14  C16 UNL     1      17.925 -12.958  20.599  1.00  0.00    -0.023 C 
BRANCH  14  15
HETATM   15  C17 UNL     1      17.045 -11.718  20.659  1.00  0.00     0.071 C 
BRANCH  15  16
HETATM   16  C18 UNL     1      15.708 -12.127  20.135  1.00  0.00     0.067 C 
BRANCH  16  17
HETATM   17  N4  UNL     1      14.967 -13.062  20.870  1.00  0.00    -0.343 N 
HETATM   18  C19 UNL     1      14.021 -12.903  21.660  1.00  0.00     0.207 C 
HETATM   19  N5  UNL     1      13.459 -11.665  22.001  1.00  0.00    -0.062 NA
HETATM   20  N6  UNL     1      13.438 -14.062  22.286  1.00  0.00    -0.259 N 
ATOM     21  H6  UNL     1      13.452 -14.131  23.304  1.00  0.00     0.191 HD
ATOM     22  H4  UNL     1      15.251 -14.032  20.735  1.00  0.00     0.167 HD
BRANCH  20  23
HETATM   23  N7  UNL     1      12.859 -15.084  21.554  1.00  0.00    -0.247 N 
HETATM   24  N8  UNL     1      13.446 -16.162  21.245  1.00  0.00    -0.331 N 
ATOM     25  H82 UNL     1      14.409 -16.269  21.565  1.00  0.00     0.178 HD
ATOM     26  H81 UNL     1      13.020 -16.915  20.706  1.00  0.00     0.178 HD
ATOM     27  H7  UNL     1      11.896 -14.961  21.242  1.00  0.00     0.207 HD
ENDBRANCH  20  23
ENDBRANCH  16  17
ENDBRANCH  15  16
ENDBRANCH  14  15
ENDBRANCH  12  13
BRANCH   7  28
HETATM   28  N2  UNL     1      21.398 -16.440  23.843  1.00  0.00    -0.350 N 
HETATM   29  C5  UNL     1      22.741 -16.819  23.641  1.00  0.00     0.218 C 
HETATM   30  O2  UNL     1      23.217 -16.935  22.491  1.00  0.00    -0.274 OA
ATOM     31  H2  UNL     1      21.036 -16.350  24.793  1.00  0.00     0.163 HD
BRANCH  29  32
HETATM   32  C6  UNL     1      23.649 -17.097  24.815  1.00  0.00     0.103 C 
BRANCH  32  33
HETATM   33  C7  UNL     1      22.793 -17.186  26.039  1.00  0.00     0.019 C 
BRANCH  33  34
HETATM   34  C8  UNL     1      22.607 -18.547  26.620  1.00  0.00     0.063 C 
BRANCH  34  35
HETATM   35  S1  UNL     1      21.014 -19.252  26.475  1.00  0.00    -0.228 SA
HETATM   36  C9  UNL     1      20.910 -19.898  24.787  1.00  0.00     0.078 C 
HETATM   37  C10 UNL     1      19.748 -18.031  26.607  1.00  0.00     0.078 C 
ENDBRANCH  34  35
ENDBRANCH  33  34
ENDBRANCH  32  33
ENDBRANCH  29  32
ENDBRANCH   7  28
TORSDOF 10
ENDMDL
MODEL 5
REMARK VINA RESULT: -6.945414007      1.004      1.669
REMARK  10 active torsions:
REMARK  status: ('A' for Active; 'I' for Inactive)
REMARK       I    between atoms: C2_2  and  N1_4 
REMARK    1  A    between atoms: C4_7  and  N2_8 
REMARK       I    between atoms: N2_8  and  C5_10 
REMARK    2  A    between atoms: C5_10  and  C6_12 
REMARK    3  A    between atoms: C6_12  and  C7_13 
REMARK    4  A    between atoms: C7_13  and  C8_14 
REMARK    5  A    between atoms: C8_14  and  S1_15 
REMARK    6  A    between atoms: C14_22  and  C15_23 
REMARK    7  A    between atoms: C16_24  and  C17_25 
REMARK    8  A    between atoms: C17_25  and  C18_26 
REMARK    9  A    between atoms: C18_26  and  N4_27 
REMARK       I    between atoms: C19_29  and  N6_31 
REMARK   10  A    between atoms: N6_31  and  N7_33 
ROOT
HETATM    1  C1  UNL     1      19.833 -12.845  19.890  1.00  0.00     0.117 C 
HETATM    2  C2  UNL     1      19.141 -13.195  21.153  1.00  0.00     0.217 C 
HETATM    3  O1  UNL     1      18.705 -12.199  21.830  1.00  0.00    -0.274 OA
HETATM    4  N1  UNL     1      18.922 -14.463  21.665  1.00  0.00    -0.330 N 
ATOM      5  H1  UNL     1      19.756 -14.928  22.023  1.00  0.00     0.168 HD
HETATM    6  C3  UNL     1      17.856 -15.143  21.763  1.00  0.00     0.048 C 
HETATM    7  C4  UNL     1      16.460 -14.894  21.393  1.00  0.00     0.159 C 
HETATM    8  C11 UNL     1      16.096 -16.264  20.805  1.00  0.00     0.268 C 
HETATM    9  N3  UNL     1      16.906 -17.212  21.537  1.00  0.00    -0.060 N 
HETATM   10  C12 UNL     1      17.522 -18.182  20.653  1.00  0.00     0.273 C 
HETATM   11  C13 UNL     1      16.035 -18.004  22.423  1.00  0.00     0.273 C 
HETATM   12  C14 UNL     1      17.835 -16.511  22.356  1.00  0.00     0.259 C 
ENDROOT
BRANCH  12  13
HETATM   13  C15 UNL     1      19.184 -17.118  22.389  1.00  0.00     0.008 C 
HETATM   14  C16 UNL     1      19.633 -17.668  23.512  1.00  0.00    -0.023 C 
BRANCH  14  15
HETATM   15  C17 UNL     1      21.022 -18.290  23.536  1.00  0.00     0.071 C 
BRANCH  15  16
HETATM   16  C18 UNL     1      21.829 -17.476  24.494  1.00  0.00     0.067 C 
BRANCH  16  17
HETATM   17  N4  UNL     1      22.523 -16.364  23.997  1.00  0.00    -0.343 N 
HETATM   18  C19 UNL     1      22.461 -15.164  24.316  1.00  0.00     0.207 C 
HETATM   19  N5  UNL     1      21.623 -14.640  25.311  1.00  0.00    -0.062 NA
HETATM   20  N6  UNL     1      23.302 -14.220  23.628  1.00  0.00    -0.259 N 
ATOM     21  H6  UNL     1      22.864 -13.456  23.112  1.00  0.00     0.191 HD
ATOM     22  H4  UNL     1      23.187 -16.574  23.253  1.00  0.00     0.167 HD
BRANCH  20  23
HETATM   23  N7  UNL     1      24.683 -14.313  23.642  1.00  0.00    -0.247 N 
HETATM   24  N8  UNL     1      25.359 -15.021  22.839  1.00  0.00    -0.331 N 
ATOM     25  H82 UNL     1      24.836 -15.551  22.142  1.00  0.00     0.178 HD
ATOM     26  H81 UNL     1      26.376 -15.090  22.850  1.00  0.00     0.178 HD
ATOM     27  H7  UNL     1      25.190 -13.777  24.346  1.00  0.00     0.207 HD
ENDBRANCH  20  23
ENDBRANCH  16  17
ENDBRANCH  15  16
ENDBRANCH  14  15
ENDBRANCH  12  13
BRANCH   7  28
HETATM   28  N2  UNL     1      16.233 -13.835  20.485  1.00  0.00    -0.350 N 
HETATM   29  C5  UNL     1      15.492 -12.701  20.878  1.00  0.00     0.218 C 
HETATM   30  O2  UNL     1      15.023 -12.601  22.032  1.00  0.00    -0.274 OA
ATOM     31  H2  UNL     1      16.607 -13.891  19.538  1.00  0.00     0.163 HD
BRANCH  29  32
HETATM   32  C6  UNL     1      15.244 -11.569  19.911  1.00  0.00     0.103 C 
BRANCH  32  33
HETATM   33  C7  UNL     1      13.853 -11.068  20.148  1.00  0.00     0.019 C 
BRANCH  33  34
HETATM   34  C8  UNL     1      13.720  -9.885  21.046  1.00  0.00     0.063 C 
BRANCH  34  35
HETATM   35  S1  UNL     1      12.265  -9.792  22.010  1.00  0.00    -0.228 SA
HETATM   36  C9  UNL     1      12.618  -8.598  23.325  1.00  0.00     0.078 C 
HETATM   37  C10 UNL     1      11.922 -11.320  22.821  1.00  0.00     0.078 C 
ENDBRANCH  34  35
ENDBRANCH  33  34
ENDBRANCH  32  33
ENDBRANCH  29  32
ENDBRANCH   7  28
TORSDOF 10
ENDMDL
