MODEL 1
REMARK VINA RESULT: -7.682872669      0.000      0.000
REMARK  13 active torsions:
REMARK  status: ('A' for Active; 'I' for Inactive)
REMARK    1  A    between atoms: C2_2  and  C3_3 
REMARK       I    between atoms: N2_7  and  C5_9 
REMARK    2  A    between atoms: C5_9  and  C6_11 
REMARK    3  A    between atoms: C6_11  and  C7_12 
REMARK    4  A    between atoms: C6_11  and  N8_24 
REMARK    5  A    between atoms: C7_12  and  C8_13 
REMARK    6  A    between atoms: C8_13  and  C9_14 
REMARK    7  A    between atoms: C9_14  and  N3_15 
REMARK       I    between atoms: C10_17  and  N5_19 
REMARK    8  A    between atoms: N8_24  and  C12_26 
REMARK    9  A    between atoms: C12_26  and  C13_27 
REMARK   10  A    between atoms: C13_27  and  C14_28 
REMARK   11  A    between atoms: C14_28  and  N9_29 
REMARK   12  A    between atoms: C20_35  and  C21_36 
REMARK   13  A    between atoms: C21_36  and  C22_37 
ROOT
HETATM    1  C6  UNL     1      16.793 -12.934  21.346  1.00  0.00     0.169 C 
ENDROOT
BRANCH   1   2
HETATM    2  C5  UNL     1      18.177 -13.430  21.459  1.00  0.00     0.245 C 
HETATM    3  N2  UNL     1      18.843 -13.113  22.699  1.00  0.00    -0.311 N 
HETATM    4  C4  UNL     1      18.978 -14.046  23.566  1.00  0.00     0.108 A 
ATOM      5  H2  UNL     1      19.196 -12.173  22.881  1.00  0.00     0.170 HD
HETATM    6  N1  UNL     1      19.598 -13.736  24.708  1.00  0.00    -0.342 N 
HETATM    7  C18 UNL     1      18.505 -15.312  23.325  1.00  0.00     0.049 A 
HETATM    8  C3  UNL     1      19.797 -14.634  25.691  1.00  0.00     0.039 A 
ATOM      9  H1  UNL     1      19.933 -12.782  24.841  1.00  0.00     0.167 HD
HETATM   10  C20 UNL     1      19.336 -15.913  25.484  1.00  0.00    -0.013 A 
HETATM   11  C19 UNL     1      18.693 -16.259  24.314  1.00  0.00     0.017 A 
HETATM   12  O1  UNL     1      18.794 -14.084  20.584  1.00  0.00    -0.271 OA
BRANCH   8  13
HETATM   13  C2  UNL     1      20.413 -14.225  26.767  1.00  0.00    -0.001 C 
HETATM   14  C1  UNL     1      21.189 -12.968  26.749  1.00  0.00     0.038 C 
ENDBRANCH   8  13
BRANCH  10  15
HETATM   15  C21 UNL     1      19.487 -16.854  26.391  1.00  0.00    -0.009 C 
BRANCH  15  16
HETATM   16  C22 UNL     1      20.133 -18.168  26.067  1.00  0.00     0.001 C 
HETATM   17  C23 UNL     1      21.649 -17.946  26.016  1.00  0.00     0.013 C 
HETATM   18  C24 UNL     1      19.909 -19.195  27.156  1.00  0.00     0.013 C 
ENDBRANCH  15  16
ENDBRANCH  10  15
ENDBRANCH   1   2
BRANCH   1  19
HETATM   19  C7  UNL     1      16.531 -12.663  19.878  1.00  0.00     0.036 C 
BRANCH  19  20
HETATM   20  C8  UNL     1      15.938 -11.291  19.653  1.00  0.00     0.022 C 
BRANCH  20  21
HETATM   21  C9  UNL     1      14.429 -11.361  19.645  1.00  0.00     0.122 C 
BRANCH  21  22
HETATM   22  N3  UNL     1      13.845 -10.437  20.565  1.00  0.00    -0.364 N 
HETATM   23  C10 UNL     1      13.401 -10.722  21.728  1.00  0.00     0.190 C 
HETATM   24  N4  UNL     1      13.435 -12.035  22.260  1.00  0.00    -0.063 NA
HETATM   25  N5  UNL     1      12.848  -9.687  22.526  1.00  0.00    -0.307 N 
HETATM   26  C11 UNL     1      11.957  -9.837  23.425  1.00  0.00     0.203 C 
ATOM     27  H5  UNL     1      13.193  -8.740  22.366  1.00  0.00     0.170 HD
HETATM   28  N6  UNL     1      11.452 -11.155  23.672  1.00  0.00    -0.066 NA
HETATM   29  N7  UNL     1      11.495  -8.719  24.147  1.00  0.00    -0.066 NA
ATOM     30  H3  UNL     1      13.777  -9.464  20.267  1.00  0.00     0.162 HD
ENDBRANCH  21  22
ENDBRANCH  20  21
ENDBRANCH  19  20
ENDBRANCH   1  19
BRANCH   1  31
HETATM   31  N8  UNL     1      15.862 -13.844  21.893  1.00  0.00    -0.409 N 
ATOM     32  H8  UNL     1      15.451 -13.715  22.817  1.00  0.00     0.154 HD
BRANCH  31  33
HETATM   33  C12 UNL     1      15.539 -14.954  21.062  1.00  0.00     0.116 C 
BRANCH  33  34
HETATM   34  C13 UNL     1      14.154 -15.441  21.533  1.00  0.00     0.047 C 
BRANCH  34  35
HETATM   35  C14 UNL     1      13.208 -15.184  20.378  1.00  0.00     0.237 C 
BRANCH  35  36
HETATM   36  N9  UNL     1      12.681 -16.383  19.802  1.00  0.00    -0.079 N 
HETATM   37  C15 UNL     1      11.626 -15.977  18.859  1.00  0.00     0.271 C 
HETATM   38  C16 UNL     1      13.641 -17.132  19.024  1.00  0.00     0.271 C 
HETATM   39  C17 UNL     1      12.056 -17.275  20.747  1.00  0.00     0.271 C 
ENDBRANCH  35  36
ENDBRANCH  34  35
ENDBRANCH  33  34
ENDBRANCH  31  33
ENDBRANCH   1  31
TORSDOF 13
ENDMDL
MODEL 2
REMARK VINA RESULT: -7.639597069      2.224      3.761
REMARK  13 active torsions:
REMARK  status: ('A' for Active; 'I' for Inactive)
REMARK    1  A    between atoms: C2_2  and  C3_3 
REMARK       I    between atoms: N2_7  and  C5_9 
REMARK    2  A    between atoms: C5_9  and  C6_11 
REMARK    3  A    between atoms: C6_11  and  C7_12 
REMARK    4  A    between atoms: C6_11  and  N8_24 
REMARK    5  A    between atoms: C7_12  and  C8_13 
REMARK    6  A    between atoms: C8_13  and  C9_14 
REMARK    7  A    between atoms: C9_14  and  N3_15 
REMARK       I    between atoms: C10_17  and  N5_19 
REMARK    8  A    between atoms: N8_24  and  C12_26 
REMARK    9  A    between atoms: C12_26  and  C13_27 
REMARK   10  A    between atoms: C13_27  and  C14_28 
REMARK   11  A    between atoms: C14_28  and  N9_29 
REMARK   12  A    between atoms: C20_35  and  C21_36 
REMARK   13  A    between atoms: C21_36  and  C22_37 
ROOT
HETATM    1  C6  UNL     1      14.034 -15.306  21.236  1.00  0.00     0.169 C 
ENDROOT
BRANCH   1   2
HETATM    2  C5  UNL     1      15.306 -15.884  20.763  1.00  0.00     0.245 C 
HETATM    3  N2  UNL     1      16.320 -14.923  20.402  1.00  0.00    -0.311 N 
HETATM    4  C4  UNL     1      17.292 -14.742  21.215  1.00  0.00     0.108 A 
ATOM      5  H2  UNL     1      16.264 -14.404  19.526  1.00  0.00     0.170 HD
HETATM    6  N1  UNL     1      18.224 -13.850  20.865  1.00  0.00    -0.342 N 
HETATM    7  C18 UNL     1      17.372 -15.440  22.394  1.00  0.00     0.049 A 
HETATM    8  C3  UNL     1      19.291 -13.576  21.639  1.00  0.00     0.039 A 
ATOM      9  H1  UNL     1      18.123 -13.357  19.978  1.00  0.00     0.167 HD
HETATM   10  C20 UNL     1      19.403 -14.257  22.829  1.00  0.00    -0.013 A 
HETATM   11  C19 UNL     1      18.456 -15.183  23.213  1.00  0.00     0.017 A 
HETATM   12  O1  UNL     1      15.557 -17.108  20.655  1.00  0.00    -0.271 OA
BRANCH   8  13
HETATM   13  C2  UNL     1      20.141 -12.686  21.204  1.00  0.00    -0.001 C 
HETATM   14  C1  UNL     1      20.047 -12.181  19.817  1.00  0.00     0.038 C 
ENDBRANCH   8  13
BRANCH  10  15
HETATM   15  C21 UNL     1      20.414 -14.052  23.647  1.00  0.00    -0.009 C 
BRANCH  15  16
HETATM   16  C22 UNL     1      20.231 -13.385  24.976  1.00  0.00     0.001 C 
HETATM   17  C23 UNL     1      20.558 -14.412  26.066  1.00  0.00     0.013 C 
HETATM   18  C24 UNL     1      21.211 -12.250  25.181  1.00  0.00     0.013 C 
ENDBRANCH  15  16
ENDBRANCH  10  15
ENDBRANCH   1   2
BRANCH   1  19
HETATM   19  C7  UNL     1      13.994 -13.864  20.769  1.00  0.00     0.036 C 
BRANCH  19  20
HETATM   20  C8  UNL     1      13.650 -12.916  21.895  1.00  0.00     0.022 C 
BRANCH  20  21
HETATM   21  C9  UNL     1      12.213 -12.464  21.786  1.00  0.00     0.122 C 
BRANCH  21  22
HETATM   22  N3  UNL     1      11.900 -11.440  22.733  1.00  0.00    -0.364 N 
HETATM   23  C10 UNL     1      12.173 -10.199  22.607  1.00  0.00     0.190 C 
HETATM   24  N4  UNL     1      12.842  -9.674  21.473  1.00  0.00    -0.063 NA
HETATM   25  N5  UNL     1      11.794  -9.303  23.640  1.00  0.00    -0.307 N 
HETATM   26  C11 UNL     1      12.379  -8.207  23.924  1.00  0.00     0.203 C 
ATOM     27  H5  UNL     1      10.984  -9.559  24.204  1.00  0.00     0.170 HD
HETATM   28  N6  UNL     1      13.521  -7.822  23.150  1.00  0.00    -0.066 NA
HETATM   29  N7  UNL     1      11.896  -7.408  24.979  1.00  0.00    -0.066 NA
ATOM     30  H3  UNL     1      11.417 -11.727  23.585  1.00  0.00     0.162 HD
ENDBRANCH  21  22
ENDBRANCH  20  21
ENDBRANCH  19  20
ENDBRANCH   1  19
BRANCH   1  31
HETATM   31  N8  UNL     1      12.920 -16.043  20.778  1.00  0.00    -0.409 N 
ATOM     32  H8  UNL     1      12.585 -16.880  21.254  1.00  0.00     0.154 HD
BRANCH  31  33
HETATM   33  C12 UNL     1      12.296 -15.533  19.603  1.00  0.00     0.116 C 
BRANCH  33  34
HETATM   34  C13 UNL     1      11.311 -16.627  19.144  1.00  0.00     0.047 C 
BRANCH  34  35
HETATM   35  C14 UNL     1      11.707 -17.883  19.893  1.00  0.00     0.237 C 
BRANCH  35  36
HETATM   36  N9  UNL     1      11.965 -18.997  19.033  1.00  0.00    -0.079 N 
HETATM   37  C15 UNL     1      10.975 -20.034  19.366  1.00  0.00     0.271 C 
HETATM   38  C16 UNL     1      11.781 -18.709  17.629  1.00  0.00     0.271 C 
HETATM   39  C17 UNL     1      13.261 -19.604  19.213  1.00  0.00     0.271 C 
ENDBRANCH  35  36
ENDBRANCH  34  35
ENDBRANCH  33  34
ENDBRANCH  31  33
ENDBRANCH   1  31
TORSDOF 13
ENDMDL
MODEL 3
REMARK VINA RESULT: -7.586318070      1.048      1.253
REMARK  13 active torsions:
REMARK  status: ('A' for Active; 'I' for Inactive)
REMARK    1  A    between atoms: C2_2  and  C3_3 
REMARK       I    between atoms: N2_7  and  C5_9 
REMARK    2  A    between atoms: C5_9  and  C6_11 
REMARK    3  A    between atoms: C6_11  and  C7_12 
REMARK    4  A    between atoms: C6_11  and  N8_24 
REMARK    5  A    between atoms: C7_12  and  C8_13 
REMARK    6  A    between atoms: C8_13  and  C9_14 
REMARK    7  A    between atoms: C9_14  and  N3_15 
REMARK       I    between atoms: C10_17  and  N5_19 
REMARK    8  A    between atoms: N8_24  and  C12_26 
REMARK    9  A    between atoms: C12_26  and  C13_27 
REMARK   10  A    between atoms: C13_27  and  C14_28 
REMARK   11  A    between atoms: C14_28  and  N9_29 
REMARK   12  A    between atoms: C20_35  and  C21_36 
REMARK   13  A    between atoms: C21_36  and  C22_37 
ROOT
HETATM    1  C6  UNL     1      16.820 -12.900  21.307  1.00  0.00     0.169 C 
ENDROOT
BRANCH   1   2
HETATM    2  C5  UNL     1      18.196 -13.419  21.425  1.00  0.00     0.245 C 
HETATM    3  N2  UNL     1      18.863 -13.110  22.666  1.00  0.00    -0.311 N 
HETATM    4  C4  UNL     1      18.981 -14.044  23.534  1.00  0.00     0.108 A 
ATOM      5  H2  UNL     1      19.231 -12.176  22.848  1.00  0.00     0.170 HD
HETATM    6  N1  UNL     1      19.602 -13.742  24.678  1.00  0.00    -0.342 N 
HETATM    7  C18 UNL     1      18.488 -15.302  23.294  1.00  0.00     0.049 A 
HETATM    8  C3  UNL     1      19.784 -14.642  25.663  1.00  0.00     0.039 A 
ATOM      9  H1  UNL     1      19.953 -12.793  24.811  1.00  0.00     0.167 HD
HETATM   10  C20 UNL     1      19.303 -15.914  25.456  1.00  0.00    -0.013 A 
HETATM   11  C19 UNL     1      18.658 -16.251  24.285  1.00  0.00     0.017 A 
HETATM   12  O1  UNL     1      18.804 -14.083  20.553  1.00  0.00    -0.271 OA
BRANCH   8  13
HETATM   13  C2  UNL     1      20.403 -14.242  26.740  1.00  0.00    -0.001 C 
HETATM   14  C1  UNL     1      21.188 -12.989  26.727  1.00  0.00     0.038 C 
ENDBRANCH   8  13
BRANCH  10  15
HETATM   15  C21 UNL     1      19.436 -16.856  26.365  1.00  0.00    -0.009 C 
BRANCH  15  16
HETATM   16  C22 UNL     1      20.151 -18.141  26.072  1.00  0.00     0.001 C 
HETATM   17  C23 UNL     1      21.653 -17.840  26.012  1.00  0.00     0.013 C 
HETATM   18  C24 UNL     1      19.984 -19.150  27.187  1.00  0.00     0.013 C 
ENDBRANCH  15  16
ENDBRANCH  10  15
ENDBRANCH   1   2
BRANCH   1  19
HETATM   19  C7  UNL     1      16.572 -12.611  19.840  1.00  0.00     0.036 C 
BRANCH  19  20
HETATM   20  C8  UNL     1      15.962 -11.244  19.628  1.00  0.00     0.022 C 
BRANCH  20  21
HETATM   21  C9  UNL     1      14.455 -11.336  19.600  1.00  0.00     0.122 C 
BRANCH  21  22
HETATM   22  N3  UNL     1      13.847 -10.435  20.528  1.00  0.00    -0.364 N 
HETATM   23  C10 UNL     1      13.415 -10.741  21.690  1.00  0.00     0.190 C 
HETATM   24  N4  UNL     1      13.492 -12.056  22.214  1.00  0.00    -0.063 NA
HETATM   25  N5  UNL     1      12.834  -9.728  22.497  1.00  0.00    -0.307 N 
HETATM   26  C11 UNL     1      11.952  -9.911  23.398  1.00  0.00     0.203 C 
ATOM     27  H5  UNL     1      13.150  -8.771  22.342  1.00  0.00     0.170 HD
HETATM   28  N6  UNL     1      11.487 -11.245  23.638  1.00  0.00    -0.066 NA
HETATM   29  N7  UNL     1      11.458  -8.813  24.129  1.00  0.00    -0.066 NA
ATOM     30  H3  UNL     1      13.748  -9.463  20.236  1.00  0.00     0.162 HD
ENDBRANCH  21  22
ENDBRANCH  20  21
ENDBRANCH  19  20
ENDBRANCH   1  19
BRANCH   1  31
HETATM   31  N8  UNL     1      15.872 -13.801  21.838  1.00  0.00    -0.409 N 
ATOM     32  H8  UNL     1      15.533 -13.735  22.797  1.00  0.00     0.154 HD
BRANCH  31  33
HETATM   33  C12 UNL     1      15.423 -14.810  20.939  1.00  0.00     0.116 C 
BRANCH  33  34
HETATM   34  C13 UNL     1      14.387 -15.640  21.724  1.00  0.00     0.047 C 
BRANCH  34  35
HETATM   35  C14 UNL     1      15.136 -16.848  22.248  1.00  0.00     0.237 C 
BRANCH  35  36
HETATM   36  N9  UNL     1      14.639 -18.087  21.734  1.00  0.00    -0.079 N 
HETATM   37  C15 UNL     1      13.307 -17.814  21.169  1.00  0.00     0.271 C 
HETATM   38  C16 UNL     1      15.426 -18.630  20.650  1.00  0.00     0.271 C 
HETATM   39  C17 UNL     1      14.453 -19.115  22.729  1.00  0.00     0.271 C 
ENDBRANCH  35  36
ENDBRANCH  34  35
ENDBRANCH  33  34
ENDBRANCH  31  33
ENDBRANCH   1  31
TORSDOF 13
ENDMDL
MODEL 4
REMARK VINA RESULT: -7.473316985      1.316      1.697
REMARK  13 active torsions:
REMARK  status: ('A' for Active; 'I' for Inactive)
REMARK    1  A    between atoms: C2_2  and  C3_3 
REMARK       I    between atoms: N2_7  and  C5_9 
REMARK    2  A    between atoms: C5_9  and  C6_11 
REMARK    3  A    between atoms: C6_11  and  C7_12 
REMARK    4  A    between atoms: C6_11  and  N8_24 
REMARK    5  A    between atoms: C7_12  and  C8_13 
REMARK    6  A    between atoms: C8_13  and  C9_14 
REMARK    7  A    between atoms: C9_14  and  N3_15 
REMARK       I    between atoms: C10_17  and  N5_19 
REMARK    8  A    between atoms: N8_24  and  C12_26 
REMARK    9  A    between atoms: C12_26  and  C13_27 
REMARK   10  A    between atoms: C13_27  and  C14_28 
REMARK   11  A    between atoms: C14_28  and  N9_29 
REMARK   12  A    between atoms: C20_35  and  C21_36 
REMARK   13  A    between atoms: C21_36  and  C22_37 
ROOT
HETATM    1  C6  UNL     1      16.853 -12.793  20.942  1.00  0.00     0.169 C 
ENDROOT
BRANCH   1   2
HETATM    2  C5  UNL     1      18.302 -12.570  20.775  1.00  0.00     0.245 C 
HETATM    3  N2  UNL     1      19.014 -12.234  21.984  1.00  0.00    -0.311 N 
HETATM    4  C4  UNL     1      19.734 -13.142  22.529  1.00  0.00     0.108 A 
ATOM      5  H2  UNL     1      18.947 -11.302  22.392  1.00  0.00     0.170 HD
HETATM    6  N1  UNL     1      20.388 -12.814  23.647  1.00  0.00    -0.342 N 
HETATM    7  C18 UNL     1      19.827 -14.398  21.983  1.00  0.00     0.049 A 
HETATM    8  C3  UNL     1      21.174 -13.686  24.308  1.00  0.00     0.039 A 
ATOM      9  H1  UNL     1      20.289 -11.868  24.015  1.00  0.00     0.167 HD
HETATM   10  C20 UNL     1      21.291 -14.954  23.789  1.00  0.00    -0.013 A 
HETATM   11  C19 UNL     1      20.627 -15.317  22.636  1.00  0.00     0.017 A 
HETATM   12  O1  UNL     1      18.933 -12.647  19.694  1.00  0.00    -0.271 OA
BRANCH   8  13
HETATM   13  C2  UNL     1      21.767 -13.263  25.391  1.00  0.00    -0.001 C 
HETATM   14  C1  UNL     1      21.040 -13.239  26.678  1.00  0.00     0.038 C 
ENDBRANCH   8  13
BRANCH  10  15
HETATM   15  C21 UNL     1      22.037 -15.869  24.370  1.00  0.00    -0.009 C 
BRANCH  15  16
HETATM   16  C22 UNL     1      21.443 -17.105  24.975  1.00  0.00     0.001 C 
HETATM   17  C23 UNL     1      22.513 -17.755  25.859  1.00  0.00     0.013 C 
HETATM   18  C24 UNL     1      20.291 -16.785  25.902  1.00  0.00     0.013 C 
ENDBRANCH  15  16
ENDBRANCH  10  15
ENDBRANCH   1   2
BRANCH   1  19
HETATM   19  C7  UNL     1      16.166 -11.457  20.740  1.00  0.00     0.036 C 
BRANCH  19  20
HETATM   20  C8  UNL     1      15.223 -11.481  19.558  1.00  0.00     0.022 C 
BRANCH  20  21
HETATM   21  C9  UNL     1      13.792 -11.336  20.019  1.00  0.00     0.122 C 
BRANCH  21  22
HETATM   22  N3  UNL     1      13.620 -10.212  20.884  1.00  0.00    -0.364 N 
HETATM   23  C10 UNL     1      13.154 -10.249  22.072  1.00  0.00     0.190 C 
HETATM   24  N4  UNL     1      12.737 -11.453  22.694  1.00  0.00    -0.063 NA
HETATM   25  N5  UNL     1      13.045  -9.040  22.808  1.00  0.00    -0.307 N 
HETATM   26  C11 UNL     1      12.200  -8.806  23.732  1.00  0.00     0.203 C 
ATOM     27  H5  UNL     1      13.701  -8.294  22.575  1.00  0.00     0.170 HD
HETATM   28  N6  UNL     1      11.266  -9.835  24.080  1.00  0.00    -0.066 NA
HETATM   29  N7  UNL     1      12.202  -7.557  24.384  1.00  0.00    -0.066 NA
ATOM     30  H3  UNL     1      13.894  -9.299  20.520  1.00  0.00     0.162 HD
ENDBRANCH  21  22
ENDBRANCH  20  21
ENDBRANCH  19  20
ENDBRANCH   1  19
BRANCH   1  31
HETATM   31  N8  UNL     1      16.368 -13.779  20.056  1.00  0.00    -0.409 N 
ATOM     32  H8  UNL     1      16.247 -13.606  19.059  1.00  0.00     0.154 HD
BRANCH  31  33
HETATM   33  C12 UNL     1      16.059 -15.034  20.655  1.00  0.00     0.116 C 
BRANCH  33  34
HETATM   34  C13 UNL     1      14.595 -14.922  21.129  1.00  0.00     0.047 C 
BRANCH  34  35
HETATM   35  C14 UNL     1      14.043 -16.332  21.110  1.00  0.00     0.237 C 
BRANCH  35  36
HETATM   36  N9  UNL     1      13.084 -16.550  20.071  1.00  0.00    -0.079 N 
HETATM   37  C15 UNL     1      12.037 -17.420  20.630  1.00  0.00     0.271 C 
HETATM   38  C16 UNL     1      12.410 -15.349  19.635  1.00  0.00     0.271 C 
HETATM   39  C17 UNL     1      13.602 -17.235  18.912  1.00  0.00     0.271 C 
ENDBRANCH  35  36
ENDBRANCH  34  35
ENDBRANCH  33  34
ENDBRANCH  31  33
ENDBRANCH   1  31
TORSDOF 13
ENDMDL
MODEL 5
REMARK VINA RESULT: -7.440704381      1.719      7.094
REMARK  13 active torsions:
REMARK  status: ('A' for Active; 'I' for Inactive)
REMARK    1  A    between atoms: C2_2  and  C3_3 
REMARK       I    between atoms: N2_7  and  C5_9 
REMARK    2  A    between atoms: C5_9  and  C6_11 
REMARK    3  A    between atoms: C6_11  and  C7_12 
REMARK    4  A    between atoms: C6_11  and  N8_24 
REMARK    5  A    between atoms: C7_12  and  C8_13 
REMARK    6  A    between atoms: C8_13  and  C9_14 
REMARK    7  A    between atoms: C9_14  and  N3_15 
REMARK       I    between atoms: C10_17  and  N5_19 
REMARK    8  A    between atoms: N8_24  and  C12_26 
REMARK    9  A    between atoms: C12_26  and  C13_27 
REMARK   10  A    between atoms: C13_27  and  C14_28 
REMARK   11  A    between atoms: C14_28  and  N9_29 
REMARK   12  A    between atoms: C20_35  and  C21_36 
REMARK   13  A    between atoms: C21_36  and  C22_37 
ROOT
HETATM    1  C6  UNL     1      18.846 -13.964  21.089  1.00  0.00     0.169 C 
ENDROOT
BRANCH   1   2
HETATM    2  C5  UNL     1      18.114 -15.013  21.823  1.00  0.00     0.245 C 
HETATM    3  N2  UNL     1      16.676 -14.898  21.784  1.00  0.00    -0.311 N 
HETATM    4  C4  UNL     1      16.029 -15.695  21.019  1.00  0.00     0.108 A 
ATOM      5  H2  UNL     1      16.189 -14.202  22.350  1.00  0.00     0.170 HD
HETATM    6  N1  UNL     1      14.699 -15.576  20.996  1.00  0.00    -0.342 N 
HETATM    7  C18 UNL     1      16.681 -16.633  20.257  1.00  0.00     0.049 A 
HETATM    8  C3  UNL     1      13.915 -16.359  20.230  1.00  0.00     0.039 A 
ATOM      9  H1  UNL     1      14.259 -14.866  21.580  1.00  0.00     0.167 HD
HETATM   10  C20 UNL     1      14.535 -17.310  19.453  1.00  0.00    -0.013 A 
HETATM   11  C19 UNL     1      15.906 -17.453  19.459  1.00  0.00     0.017 A 
HETATM   12  O1  UNL     1      18.634 -15.962  22.456  1.00  0.00    -0.271 OA
BRANCH   8  13
HETATM   13  C2  UNL     1      12.626 -16.158  20.282  1.00  0.00    -0.001 C 
HETATM   14  C1  UNL     1      12.017 -15.031  19.546  1.00  0.00     0.038 C 
ENDBRANCH   8  13
BRANCH  10  15
HETATM   15  C21 UNL     1      13.846 -18.118  18.674  1.00  0.00    -0.009 C 
BRANCH  15  16
HETATM   16  C22 UNL     1      13.936 -18.040  17.180  1.00  0.00     0.001 C 
HETATM   17  C23 UNL     1      13.658 -19.440  16.620  1.00  0.00     0.013 C 
HETATM   18  C24 UNL     1      12.864 -17.148  16.592  1.00  0.00     0.013 C 
ENDBRANCH  15  16
ENDBRANCH  10  15
ENDBRANCH   1   2
BRANCH   1  19
HETATM   19  C7  UNL     1      18.185 -12.639  21.417  1.00  0.00     0.036 C 
BRANCH  19  20
HETATM   20  C8  UNL     1      17.962 -11.798  20.180  1.00  0.00     0.022 C 
BRANCH  20  21
HETATM   21  C9  UNL     1      16.564 -12.002  19.647  1.00  0.00     0.122 C 
BRANCH  21  22
HETATM   22  N3  UNL     1      15.642 -11.053  20.187  1.00  0.00    -0.364 N 
HETATM   23  C10 UNL     1      14.795 -11.281  21.116  1.00  0.00     0.190 C 
HETATM   24  N4  UNL     1      14.667 -12.546  21.742  1.00  0.00    -0.063 NA
HETATM   25  N5  UNL     1      13.945 -10.229  21.545  1.00  0.00    -0.307 N 
HETATM   26  C11 UNL     1      12.784 -10.372  22.050  1.00  0.00     0.203 C 
ATOM     27  H5  UNL     1      14.294  -9.276  21.440  1.00  0.00     0.170 HD
HETATM   28  N6  UNL     1      12.266 -11.698  22.209  1.00  0.00    -0.066 NA
HETATM   29  N7  UNL     1      12.043  -9.237  22.436  1.00  0.00    -0.066 NA
ATOM     30  H3  UNL     1      15.661 -10.111  19.796  1.00  0.00     0.162 HD
ENDBRANCH  21  22
ENDBRANCH  20  21
ENDBRANCH  19  20
ENDBRANCH   1  19
BRANCH   1  31
HETATM   31  N8  UNL     1      20.222 -13.963  21.408  1.00  0.00    -0.409 N 
ATOM     32  H8  UNL     1      20.878 -14.628  20.999  1.00  0.00     0.154 HD
BRANCH  31  33
HETATM   33  C12 UNL     1      20.628 -12.967  22.342  1.00  0.00     0.116 C 
BRANCH  33  34
HETATM   34  C13 UNL     1      21.221 -13.735  23.540  1.00  0.00     0.047 C 
BRANCH  34  35
HETATM   35  C14 UNL     1      20.173 -13.674  24.632  1.00  0.00     0.237 C 
BRANCH  35  36
HETATM   36  N9  UNL     1      20.498 -14.475  25.773  1.00  0.00    -0.079 N 
HETATM   37  C15 UNL     1      20.935 -13.552  26.833  1.00  0.00     0.271 C 
HETATM   38  C16 UNL     1      19.374 -15.201  26.318  1.00  0.00     0.271 C 
HETATM   39  C17 UNL     1      21.587 -15.397  25.566  1.00  0.00     0.271 C 
ENDBRANCH  35  36
ENDBRANCH  34  35
ENDBRANCH  33  34
ENDBRANCH  31  33
ENDBRANCH   1  31
TORSDOF 13
ENDMDL
