MODEL 1
REMARK VINA RESULT: -8.630000196      0.000      0.000
REMARK  13 active torsions:
REMARK  status: ('A' for Active; 'I' for Inactive)
REMARK    1  A    between atoms: C2_2  and  C3_3 
REMARK    2  A    between atoms: C3_3  and  C4_4 
REMARK    3  A    between atoms: C4_4  and  N1_5 
REMARK    4  A    between atoms: C7_8  and  C8_9 
REMARK    5  A    between atoms: C8_9  and  C9_10 
REMARK    6  A    between atoms: C9_10  and  C10_11 
REMARK    7  A    between atoms: C10_11  and  N2_12 
REMARK    8  A    between atoms: C12_14  and  C13_15 
REMARK       I    between atoms: C13_15  and  N3_17 
REMARK    9  A    between atoms: N3_17  and  C14_19 
REMARK   10  A    between atoms: C14_19  and  C15_20 
REMARK   11  A    between atoms: C15_20  and  N4_21 
REMARK   12  A    between atoms: N4_21  and  C16_23 
REMARK   13  A    between atoms: N8_34  and  N9_35 
ROOT
HETATM    1  N2  UNL     1      17.941 -15.586  21.233  1.00  0.00    -0.350 N 
HETATM    2  C11 UNL     1      16.832 -14.864  21.169  1.00  0.00     0.111 A 
HETATM    3  C12 UNL     1      16.897 -13.471  21.024  1.00  0.00     0.071 A 
HETATM    4  C18 UNL     1      18.144 -12.938  20.959  1.00  0.00     0.048 A 
HETATM    5  C19 UNL     1      18.334 -11.457  20.869  1.00  0.00     0.071 C 
HETATM    6  N8  UNL     1      19.279 -13.695  21.026  1.00  0.00    -0.262 N 
HETATM    7  C20 UNL     1      19.144 -15.015  21.163  1.00  0.00     0.208 A 
ENDROOT
BRANCH   3   8
HETATM    8  C13 UNL     1      15.623 -12.759  20.885  1.00  0.00     0.255 C 
HETATM    9  O1  UNL     1      14.830 -12.918  21.876  1.00  0.00    -0.268 OA
HETATM   10  N3  UNL     1      15.258 -11.975  19.794  1.00  0.00    -0.352 N 
ATOM     11  H3  UNL     1      15.945 -11.905  19.044  1.00  0.00     0.163 HD
BRANCH  10  12
HETATM   12  C14 UNL     1      14.045 -11.259  19.595  1.00  0.00     0.167 C 
BRANCH  12  13
HETATM   13  C15 UNL     1      13.549 -10.356  20.662  1.00  0.00     0.098 C 
BRANCH  13  14
HETATM   14  N4  UNL     1      12.628 -10.857  21.604  1.00  0.00    -0.202 N 
ATOM     15  H4  UNL     1      12.278 -11.805  21.472  1.00  0.00     0.183 HD
BRANCH  14  16
HETATM   16  C16 UNL     1      12.196 -10.184  22.632  1.00  0.00     0.700 A 
HETATM   17  N5  UNL     1      11.222 -10.484  23.502  1.00  0.00    -0.128 N 
HETATM   18  N6  UNL     1      11.134  -9.500  24.381  1.00  0.00    -0.237 N 
ATOM     19  H5  UNL     1      10.648 -11.327  23.489  1.00  0.00     0.205 HD
HETATM   20  C17 UNL     1      12.045  -8.556  24.092  1.00  0.00     0.353 A 
ATOM     21  H6  UNL     1      10.476  -9.464  25.159  1.00  0.00     0.192 HD
HETATM   22  O2  UNL     1      12.255  -7.472  24.711  1.00  0.00    -0.245 OA
HETATM   23  N7  UNL     1      12.710  -8.997  22.988  1.00  0.00    -0.139 N 
ATOM     24  H7  UNL     1      13.468  -8.508  22.512  1.00  0.00     0.189 HD
ENDBRANCH  14  16
ENDBRANCH  13  14
ENDBRANCH  12  13
ENDBRANCH  10  12
ENDBRANCH   3   8
BRANCH   1  25
HETATM   25  C10 UNL     1      17.823 -17.025  21.379  1.00  0.00     0.129 C 
BRANCH  25  26
HETATM   26  C9  UNL     1      17.292 -17.451  22.709  1.00  0.00     0.026 C 
BRANCH  26  27
HETATM   27  C8  UNL     1      18.249 -18.300  23.504  1.00  0.00     0.059 C 
BRANCH  27  28
HETATM   28  C7  UNL     1      19.141 -17.384  24.238  1.00  0.00     0.014 A 
HETATM   29  C6  UNL     1      18.621 -16.650  25.279  1.00  0.00     0.042 A 
HETATM   30  C5  UNL     1      19.413 -15.782  26.010  1.00  0.00     0.094 A 
HETATM   31  N1  UNL     1      20.739 -15.637  25.709  1.00  0.00    -0.347 N 
HETATM   32  C22 UNL     1      21.204 -16.373  24.687  1.00  0.00     0.081 A 
HETATM   33  N10 UNL     1      20.436 -17.229  23.960  1.00  0.00    -0.345 N 
HETATM   34  C23 UNL     1      22.639 -16.256  24.334  1.00  0.00     0.089 C 
HETATM   35  C21 UNL     1      21.020 -17.984  22.872  1.00  0.00     0.157 C 
BRANCH  31  36
HETATM   36  C4  UNL     1      21.542 -14.717  26.492  1.00  0.00     0.130 C 
BRANCH  36  37
HETATM   37  C3  UNL     1      20.870 -13.385  26.683  1.00  0.00     0.020 C 
BRANCH  37  38
HETATM   38  C2  UNL     1      21.315 -12.419  25.593  1.00  0.00    -0.003 C 
HETATM   39  C1  UNL     1      20.612 -12.678  24.297  1.00  0.00     0.005 C 
ENDBRANCH  37  38
ENDBRANCH  36  37
ENDBRANCH  31  36
ENDBRANCH  27  28
ENDBRANCH  26  27
ENDBRANCH  25  26
ENDBRANCH   1  25
BRANCH   6  40
HETATM   40  N9  UNL     1      20.536 -13.093  20.956  1.00  0.00    -0.338 N 
ATOM     41  H92 UNL     1      21.109 -12.956  21.788  1.00  0.00     0.177 HD
ATOM     42  H91 UNL     1      20.908 -12.774  20.061  1.00  0.00     0.177 HD
ENDBRANCH   6  40
TORSDOF 13
ENDMDL
MODEL 2
REMARK VINA RESULT: -8.450105925      2.553      4.324
REMARK  13 active torsions:
REMARK  status: ('A' for Active; 'I' for Inactive)
REMARK    1  A    between atoms: C2_2  and  C3_3 
REMARK    2  A    between atoms: C3_3  and  C4_4 
REMARK    3  A    between atoms: C4_4  and  N1_5 
REMARK    4  A    between atoms: C7_8  and  C8_9 
REMARK    5  A    between atoms: C8_9  and  C9_10 
REMARK    6  A    between atoms: C9_10  and  C10_11 
REMARK    7  A    between atoms: C10_11  and  N2_12 
REMARK    8  A    between atoms: C12_14  and  C13_15 
REMARK       I    between atoms: C13_15  and  N3_17 
REMARK    9  A    between atoms: N3_17  and  C14_19 
REMARK   10  A    between atoms: C14_19  and  C15_20 
REMARK   11  A    between atoms: C15_20  and  N4_21 
REMARK   12  A    between atoms: N4_21  and  C16_23 
REMARK   13  A    between atoms: N8_34  and  N9_35 
ROOT
HETATM    1  N2  UNL     1      15.288 -16.573  21.660  1.00  0.00    -0.350 N 
HETATM    2  C11 UNL     1      14.750 -15.371  21.515  1.00  0.00     0.111 A 
HETATM    3  C12 UNL     1      13.421 -15.232  21.092  1.00  0.00     0.071 A 
HETATM    4  C18 UNL     1      12.751 -16.387  20.849  1.00  0.00     0.048 A 
HETATM    5  C19 UNL     1      11.348 -16.357  20.331  1.00  0.00     0.071 C 
HETATM    6  N8  UNL     1      13.317 -17.620  21.003  1.00  0.00    -0.262 N 
HETATM    7  C20 UNL     1      14.586 -17.679  21.409  1.00  0.00     0.208 A 
ENDROOT
BRANCH   3   8
HETATM    8  C13 UNL     1      12.884 -13.869  21.032  1.00  0.00     0.255 C 
HETATM    9  O1  UNL     1      12.804 -13.396  19.846  1.00  0.00    -0.268 OA
HETATM   10  N3  UNL     1      12.489 -13.113  22.132  1.00  0.00    -0.352 N 
ATOM     11  H3  UNL     1      12.592 -13.562  23.042  1.00  0.00     0.163 HD
BRANCH  10  12
HETATM   12  C14 UNL     1      11.962 -11.792  22.147  1.00  0.00     0.167 C 
BRANCH  12  13
HETATM   13  C15 UNL     1      12.823 -10.670  22.592  1.00  0.00     0.098 C 
BRANCH  13  14
HETATM   14  N4  UNL     1      13.471  -9.881  21.620  1.00  0.00    -0.202 N 
ATOM     15  H4  UNL     1      13.342  -8.870  21.661  1.00  0.00     0.183 HD
BRANCH  14  16
HETATM   16  C16 UNL     1      14.224 -10.362  20.673  1.00  0.00     0.700 A 
HETATM   17  N5  UNL     1      13.899 -10.728  19.425  1.00  0.00    -0.128 N 
HETATM   18  N6  UNL     1      14.992 -11.163  18.823  1.00  0.00    -0.237 N 
ATOM     19  H5  UNL     1      12.968 -10.678  19.011  1.00  0.00     0.205 HD
HETATM   20  C17 UNL     1      16.033 -11.086  19.669  1.00  0.00     0.353 A 
ATOM     21  H6  UNL     1      15.038 -11.505  17.863  1.00  0.00     0.192 HD
HETATM   22  O2  UNL     1      17.235 -11.413  19.444  1.00  0.00    -0.245 OA
HETATM   23  N7  UNL     1      15.538 -10.580  20.832  1.00  0.00    -0.139 N 
ATOM     24  H7  UNL     1      16.074 -10.397  21.680  1.00  0.00     0.189 HD
ENDBRANCH  14  16
ENDBRANCH  13  14
ENDBRANCH  12  13
ENDBRANCH  10  12
ENDBRANCH   3   8
BRANCH   1  25
HETATM   25  C10 UNL     1      16.665 -16.667  22.104  1.00  0.00     0.129 C 
BRANCH  25  26
HETATM   26  C9  UNL     1      17.653 -16.158  21.106  1.00  0.00     0.026 C 
BRANCH  26  27
HETATM   27  C8  UNL     1      19.009 -16.808  21.205  1.00  0.00     0.059 C 
BRANCH  27  28
HETATM   28  C7  UNL     1      19.848 -15.943  22.053  1.00  0.00     0.014 A 
HETATM   29  C6  UNL     1      19.635 -14.583  22.024  1.00  0.00     0.042 A 
HETATM   30  C5  UNL     1      20.385 -13.724  22.808  1.00  0.00     0.094 A 
HETATM   31  N1  UNL     1      21.360 -14.213  23.632  1.00  0.00    -0.347 N 
HETATM   32  C22 UNL     1      21.532 -15.544  23.629  1.00  0.00     0.081 A 
HETATM   33  N10 UNL     1      20.803 -16.400  22.864  1.00  0.00    -0.345 N 
HETATM   34  C23 UNL     1      22.570 -16.120  24.517  1.00  0.00     0.089 C 
HETATM   35  C21 UNL     1      21.057 -17.824  22.922  1.00  0.00     0.157 C 
BRANCH  31  36
HETATM   36  C4  UNL     1      22.132 -13.286  24.438  1.00  0.00     0.130 C 
BRANCH  36  37
HETATM   37  C3  UNL     1      21.272 -12.489  25.380  1.00  0.00     0.020 C 
BRANCH  37  38
HETATM   38  C2  UNL     1      21.149 -13.216  26.713  1.00  0.00    -0.003 C 
HETATM   39  C1  UNL     1      20.117 -14.299  26.664  1.00  0.00     0.005 C 
ENDBRANCH  37  38
ENDBRANCH  36  37
ENDBRANCH  31  36
ENDBRANCH  27  28
ENDBRANCH  26  27
ENDBRANCH  25  26
ENDBRANCH   1  25
BRANCH   6  40
HETATM   40  N9  UNL     1      12.581 -18.775  20.736  1.00  0.00    -0.338 N 
ATOM     41  H92 UNL     1      11.833 -18.783  20.043  1.00  0.00     0.177 HD
ATOM     42  H91 UNL     1      12.778 -19.642  21.237  1.00  0.00     0.177 HD
ENDBRANCH   6  40
TORSDOF 13
ENDMDL
MODEL 3
REMARK VINA RESULT: -8.177419658      1.170      3.284
REMARK  13 active torsions:
REMARK  status: ('A' for Active; 'I' for Inactive)
REMARK    1  A    between atoms: C2_2  and  C3_3 
REMARK    2  A    between atoms: C3_3  and  C4_4 
REMARK    3  A    between atoms: C4_4  and  N1_5 
REMARK    4  A    between atoms: C7_8  and  C8_9 
REMARK    5  A    between atoms: C8_9  and  C9_10 
REMARK    6  A    between atoms: C9_10  and  C10_11 
REMARK    7  A    between atoms: C10_11  and  N2_12 
REMARK    8  A    between atoms: C12_14  and  C13_15 
REMARK       I    between atoms: C13_15  and  N3_17 
REMARK    9  A    between atoms: N3_17  and  C14_19 
REMARK   10  A    between atoms: C14_19  and  C15_20 
REMARK   11  A    between atoms: C15_20  and  N4_21 
REMARK   12  A    between atoms: N4_21  and  C16_23 
REMARK   13  A    between atoms: N8_34  and  N9_35 
ROOT
HETATM    1  N2  UNL     1      19.476 -13.766  22.134  1.00  0.00    -0.350 N 
HETATM    2  C11 UNL     1      18.369 -13.096  21.848  1.00  0.00     0.111 A 
HETATM    3  C12 UNL     1      17.259 -13.754  21.303  1.00  0.00     0.071 A 
HETATM    4  C18 UNL     1      17.403 -15.088  21.094  1.00  0.00     0.048 A 
HETATM    5  C19 UNL     1      16.306 -15.880  20.457  1.00  0.00     0.071 C 
HETATM    6  N8  UNL     1      18.549 -15.767  21.394  1.00  0.00    -0.262 N 
HETATM    7  C20 UNL     1      19.567 -15.078  21.912  1.00  0.00     0.208 A 
ENDROOT
BRANCH   3   8
HETATM    8  C13 UNL     1      16.052 -12.951  21.089  1.00  0.00     0.255 C 
HETATM    9  O1  UNL     1      15.250 -12.947  22.085  1.00  0.00    -0.268 OA
HETATM   10  N3  UNL     1      15.754 -12.245  19.927  1.00  0.00    -0.352 N 
ATOM     11  H3  UNL     1      16.443 -12.306  19.178  1.00  0.00     0.163 HD
BRANCH  10  12
HETATM   12  C14 UNL     1      14.607 -11.449  19.653  1.00  0.00     0.167 C 
BRANCH  12  13
HETATM   13  C15 UNL     1      14.048 -10.587  20.722  1.00  0.00     0.098 C 
BRANCH  13  14
HETATM   14  N4  UNL     1      12.934 -11.046  21.454  1.00  0.00    -0.202 N 
ATOM     15  H4  UNL     1      12.518 -11.936  21.183  1.00  0.00     0.183 HD
BRANCH  14  16
HETATM   16  C16 UNL     1      12.403 -10.404  22.455  1.00  0.00     0.700 A 
HETATM   17  N5  UNL     1      11.429 -10.783  23.294  1.00  0.00    -0.128 N 
HETATM   18  N6  UNL     1      11.216  -9.801  24.153  1.00  0.00    -0.237 N 
ATOM     19  H5  UNL     1      10.936 -11.675  23.273  1.00  0.00     0.205 HD
HETATM   20  C17 UNL     1      12.046  -8.778  23.882  1.00  0.00     0.353 A 
ATOM     21  H6  UNL     1      10.529  -9.816  24.905  1.00  0.00     0.192 HD
HETATM   22  O2  UNL     1      12.130  -7.672  24.491  1.00  0.00    -0.245 OA
HETATM   23  N7  UNL     1      12.789  -9.169  22.810  1.00  0.00    -0.139 N 
ATOM     24  H7  UNL     1      13.516  -8.617  22.354  1.00  0.00     0.189 HD
ENDBRANCH  14  16
ENDBRANCH  13  14
ENDBRANCH  12  13
ENDBRANCH  10  12
ENDBRANCH   3   8
BRANCH   1  25
HETATM   25  C10 UNL     1      20.598 -13.042  22.701  1.00  0.00     0.129 C 
BRANCH  25  26
HETATM   26  C9  UNL     1      20.409 -12.673  24.137  1.00  0.00     0.026 C 
BRANCH  26  27
HETATM   27  C8  UNL     1      21.456 -13.249  25.056  1.00  0.00     0.059 C 
BRANCH  27  28
HETATM   28  C7  UNL     1      21.049 -14.631  25.370  1.00  0.00     0.014 A 
HETATM   29  C6  UNL     1      19.885 -14.831  26.078  1.00  0.00     0.042 A 
HETATM   30  C5  UNL     1      19.449 -16.106  26.392  1.00  0.00     0.094 A 
HETATM   31  N1  UNL     1      20.171 -17.199  26.003  1.00  0.00    -0.347 N 
HETATM   32  C22 UNL     1      21.298 -16.957  25.314  1.00  0.00     0.081 A 
HETATM   33  N10 UNL     1      21.739 -15.710  24.999  1.00  0.00    -0.345 N 
HETATM   34  C23 UNL     1      22.106 -18.114  24.861  1.00  0.00     0.089 C 
HETATM   35  C21 UNL     1      22.968 -15.539  24.254  1.00  0.00     0.157 C 
BRANCH  31  36
HETATM   36  C4  UNL     1      19.689 -18.523  26.351  1.00  0.00     0.130 C 
BRANCH  36  37
HETATM   37  C3  UNL     1      18.287 -18.770  25.866  1.00  0.00     0.020 C 
BRANCH  37  38
HETATM   38  C2  UNL     1      18.290 -18.992  24.359  1.00  0.00    -0.003 C 
HETATM   39  C1  UNL     1      19.108 -20.185  23.973  1.00  0.00     0.005 C 
ENDBRANCH  37  38
ENDBRANCH  36  37
ENDBRANCH  31  36
ENDBRANCH  27  28
ENDBRANCH  26  27
ENDBRANCH  25  26
ENDBRANCH   1  25
BRANCH   6  40
HETATM   40  N9  UNL     1      18.642 -17.139  21.157  1.00  0.00    -0.338 N 
ATOM     41  H92 UNL     1      19.030 -17.776  21.853  1.00  0.00     0.177 HD
ATOM     42  H91 UNL     1      18.322 -17.535  20.273  1.00  0.00     0.177 HD
ENDBRANCH   6  40
TORSDOF 13
ENDMDL
MODEL 4
REMARK VINA RESULT: -8.121330878      2.718      3.845
REMARK  13 active torsions:
REMARK  status: ('A' for Active; 'I' for Inactive)
REMARK    1  A    between atoms: C2_2  and  C3_3 
REMARK    2  A    between atoms: C3_3  and  C4_4 
REMARK    3  A    between atoms: C4_4  and  N1_5 
REMARK    4  A    between atoms: C7_8  and  C8_9 
REMARK    5  A    between atoms: C8_9  and  C9_10 
REMARK    6  A    between atoms: C9_10  and  C10_11 
REMARK    7  A    between atoms: C10_11  and  N2_12 
REMARK    8  A    between atoms: C12_14  and  C13_15 
REMARK       I    between atoms: C13_15  and  N3_17 
REMARK    9  A    between atoms: N3_17  and  C14_19 
REMARK   10  A    between atoms: C14_19  and  C15_20 
REMARK   11  A    between atoms: C15_20  and  N4_21 
REMARK   12  A    between atoms: N4_21  and  C16_23 
REMARK   13  A    between atoms: N8_34  and  N9_35 
ROOT
HETATM    1  N2  UNL     1      14.829 -18.713  23.083  1.00  0.00    -0.350 N 
HETATM    2  C11 UNL     1      15.169 -17.517  22.625  1.00  0.00     0.111 A 
HETATM    3  C12 UNL     1      14.425 -16.906  21.608  1.00  0.00     0.071 A 
HETATM    4  C18 UNL     1      13.363 -17.612  21.141  1.00  0.00     0.048 A 
HETATM    5  C19 UNL     1      12.536 -17.085  20.012  1.00  0.00     0.071 C 
HETATM    6  N8  UNL     1      13.023 -18.844  21.622  1.00  0.00    -0.262 N 
HETATM    7  C20 UNL     1      13.774 -19.367  22.592  1.00  0.00     0.208 A 
ENDROOT
BRANCH   3   8
HETATM    8  C13 UNL     1      14.826 -15.552  21.215  1.00  0.00     0.255 C 
HETATM    9  O1  UNL     1      15.664 -15.520  20.249  1.00  0.00    -0.268 OA
HETATM   10  N3  UNL     1      14.374 -14.377  21.810  1.00  0.00    -0.352 N 
ATOM     11  H3  UNL     1      13.712 -14.491  22.578  1.00  0.00     0.163 HD
BRANCH  10  12
HETATM   12  C14 UNL     1      14.719 -13.037  21.481  1.00  0.00     0.167 C 
BRANCH  12  13
HETATM   13  C15 UNL     1      13.650 -12.085  21.093  1.00  0.00     0.098 C 
BRANCH  13  14
HETATM   14  N4  UNL     1      12.381 -12.203  21.696  1.00  0.00    -0.202 N 
ATOM     15  H4  UNL     1      11.766 -12.949  21.372  1.00  0.00     0.183 HD
BRANCH  14  16
HETATM   16  C16 UNL     1      11.945 -11.419  22.640  1.00  0.00     0.700 A 
HETATM   17  N5  UNL     1      11.076 -11.672  23.627  1.00  0.00    -0.128 N 
HETATM   18  N6  UNL     1      10.933 -10.572  24.346  1.00  0.00    -0.237 N 
ATOM     19  H5  UNL     1      10.604 -12.561  23.795  1.00  0.00     0.205 HD
HETATM   20  C17 UNL     1      11.705  -9.597  23.836  1.00  0.00     0.353 A 
ATOM     21  H6  UNL     1      10.330 -10.477  25.163  1.00  0.00     0.192 HD
HETATM   22  O2  UNL     1      11.828  -8.411  24.258  1.00  0.00    -0.245 OA
HETATM   23  N7  UNL     1      12.339 -10.142  22.760  1.00  0.00    -0.139 N 
ATOM     24  H7  UNL     1      13.000  -9.662  22.150  1.00  0.00     0.189 HD
ENDBRANCH  14  16
ENDBRANCH  13  14
ENDBRANCH  12  13
ENDBRANCH  10  12
ENDBRANCH   3   8
BRANCH   1  25
HETATM   25  C10 UNL     1      15.627 -19.304  24.140  1.00  0.00     0.129 C 
BRANCH  25  26
HETATM   26  C9  UNL     1      17.096 -19.087  23.974  1.00  0.00     0.026 C 
BRANCH  26  27
HETATM   27  C8  UNL     1      17.791 -18.640  25.234  1.00  0.00     0.059 C 
BRANCH  27  28
HETATM   28  C7  UNL     1      18.696 -17.536  24.865  1.00  0.00     0.014 A 
HETATM   29  C6  UNL     1      18.229 -16.552  24.024  1.00  0.00     0.042 A 
HETATM   30  C5  UNL     1      19.030 -15.487  23.652  1.00  0.00     0.094 A 
HETATM   31  N1  UNL     1      20.311 -15.391  24.119  1.00  0.00    -0.347 N 
HETATM   32  C22 UNL     1      20.725 -16.371  24.938  1.00  0.00     0.081 A 
HETATM   33  N10 UNL     1      19.949 -17.424  25.310  1.00  0.00    -0.345 N 
HETATM   34  C23 UNL     1      22.104 -16.300  25.477  1.00  0.00     0.089 C 
HETATM   35  C21 UNL     1      20.476 -18.439  26.197  1.00  0.00     0.157 C 
BRANCH  31  36
HETATM   36  C4  UNL     1      21.128 -14.263  23.709  1.00  0.00     0.130 C 
BRANCH  36  37
HETATM   37  C3  UNL     1      20.535 -12.944  24.121  1.00  0.00     0.020 C 
BRANCH  37  38
HETATM   38  C2  UNL     1      21.342 -12.348  25.267  1.00  0.00    -0.003 C 
HETATM   39  C1  UNL     1      21.032 -13.013  26.572  1.00  0.00     0.005 C 
ENDBRANCH  37  38
ENDBRANCH  36  37
ENDBRANCH  31  36
ENDBRANCH  27  28
ENDBRANCH  26  27
ENDBRANCH  25  26
ENDBRANCH   1  25
BRANCH   6  40
HETATM   40  N9  UNL     1      11.921 -19.527  21.104  1.00  0.00    -0.338 N 
ATOM     41  H92 UNL     1      11.469 -19.232  20.239  1.00  0.00     0.177 HD
ATOM     42  H91 UNL     1      11.542 -20.341  21.588  1.00  0.00     0.177 HD
ENDBRANCH   6  40
TORSDOF 13
ENDMDL
MODEL 5
REMARK VINA RESULT: -8.097238731      2.632      3.699
REMARK  13 active torsions:
REMARK  status: ('A' for Active; 'I' for Inactive)
REMARK    1  A    between atoms: C2_2  and  C3_3 
REMARK    2  A    between atoms: C3_3  and  C4_4 
REMARK    3  A    between atoms: C4_4  and  N1_5 
REMARK    4  A    between atoms: C7_8  and  C8_9 
REMARK    5  A    between atoms: C8_9  and  C9_10 
REMARK    6  A    between atoms: C9_10  and  C10_11 
REMARK    7  A    between atoms: C10_11  and  N2_12 
REMARK    8  A    between atoms: C12_14  and  C13_15 
REMARK       I    between atoms: C13_15  and  N3_17 
REMARK    9  A    between atoms: N3_17  and  C14_19 
REMARK   10  A    between atoms: C14_19  and  C15_20 
REMARK   11  A    between atoms: C15_20  and  N4_21 
REMARK   12  A    between atoms: N4_21  and  C16_23 
REMARK   13  A    between atoms: N8_34  and  N9_35 
ROOT
HETATM    1  N2  UNL     1      15.531 -18.590  20.401  1.00  0.00    -0.350 N 
HETATM    2  C11 UNL     1      15.398 -17.345  20.834  1.00  0.00     0.111 A 
HETATM    3  C12 UNL     1      14.302 -16.567  20.437  1.00  0.00     0.071 A 
HETATM    4  C18 UNL     1      13.418 -17.167  19.600  1.00  0.00     0.048 A 
HETATM    5  C19 UNL     1      12.246 -16.410  19.061  1.00  0.00     0.071 C 
HETATM    6  N8  UNL     1      13.567 -18.452  19.162  1.00  0.00    -0.262 N 
HETATM    7  C20 UNL     1      14.632 -19.137  19.579  1.00  0.00     0.208 A 
ENDROOT
BRANCH   3   8
HETATM    8  C13 UNL     1      14.194 -15.228  21.023  1.00  0.00     0.255 C 
HETATM    9  O1  UNL     1      13.537 -15.194  22.121  1.00  0.00    -0.268 OA
HETATM   10  N3  UNL     1      14.732 -14.066  20.476  1.00  0.00    -0.352 N 
ATOM     11  H3  UNL     1      15.236 -14.180  19.596  1.00  0.00     0.163 HD
BRANCH  10  12
HETATM   12  C14 UNL     1      14.667 -12.741  20.989  1.00  0.00     0.167 C 
BRANCH  12  13
HETATM   13  C15 UNL     1      13.413 -11.964  20.838  1.00  0.00     0.098 C 
BRANCH  13  14
HETATM   14  N4  UNL     1      12.327 -12.250  21.691  1.00  0.00    -0.202 N 
ATOM     15  H4  UNL     1      11.832 -13.131  21.555  1.00  0.00     0.183 HD
BRANCH  14  16
HETATM   16  C16 UNL     1      11.918 -11.459  22.641  1.00  0.00     0.700 A 
HETATM   17  N5  UNL     1      11.065 -11.701  23.646  1.00  0.00    -0.128 N 
HETATM   18  N6  UNL     1      10.947 -10.597  24.364  1.00  0.00    -0.237 N 
ATOM     19  H5  UNL     1      10.588 -12.585  23.826  1.00  0.00     0.205 HD
HETATM   20  C17 UNL     1      11.718  -9.632  23.836  1.00  0.00     0.353 A 
ATOM     21  H6  UNL     1      10.361 -10.494  25.192  1.00  0.00     0.192 HD
HETATM   22  O2  UNL     1      11.861  -8.445  24.251  1.00  0.00    -0.245 OA
HETATM   23  N7  UNL     1      12.326 -10.186  22.750  1.00  0.00    -0.139 N 
ATOM     24  H7  UNL     1      12.979  -9.713  22.126  1.00  0.00     0.189 HD
ENDBRANCH  14  16
ENDBRANCH  13  14
ENDBRANCH  12  13
ENDBRANCH  10  12
ENDBRANCH   3   8
BRANCH   1  25
HETATM   25  C10 UNL     1      16.679 -19.359  20.842  1.00  0.00     0.129 C 
BRANCH  25  26
HETATM   26  C9  UNL     1      17.514 -18.657  21.862  1.00  0.00     0.026 C 
BRANCH  26  27
HETATM   27  C8  UNL     1      18.990 -18.670  21.556  1.00  0.00     0.059 C 
BRANCH  27  28
HETATM   28  C7  UNL     1      19.536 -17.367  21.977  1.00  0.00     0.014 A 
HETATM   29  C6  UNL     1      18.869 -16.221  21.605  1.00  0.00     0.042 A 
HETATM   30  C5  UNL     1      19.329 -14.971  21.980  1.00  0.00     0.094 A 
HETATM   31  N1  UNL     1      20.464 -14.850  22.733  1.00  0.00    -0.347 N 
HETATM   32  C22 UNL     1      21.080 -15.993  23.074  1.00  0.00     0.081 A 
HETATM   33  N10 UNL     1      20.640 -17.227  22.711  1.00  0.00    -0.345 N 
HETATM   34  C23 UNL     1      22.308 -15.909  23.900  1.00  0.00     0.089 C 
HETATM   35  C21 UNL     1      21.368 -18.409  23.120  1.00  0.00     0.157 C 
BRANCH  31  36
HETATM   36  C4  UNL     1      20.922 -13.525  23.108  1.00  0.00     0.130 C 
BRANCH  36  37
HETATM   37  C3  UNL     1      20.210 -12.990  24.319  1.00  0.00     0.020 C 
BRANCH  37  38
HETATM   38  C2  UNL     1      21.222 -12.598  25.387  1.00  0.00    -0.003 C 
HETATM   39  C1  UNL     1      20.997 -13.338  26.668  1.00  0.00     0.005 C 
ENDBRANCH  37  38
ENDBRANCH  36  37
ENDBRANCH  31  36
ENDBRANCH  27  28
ENDBRANCH  26  27
ENDBRANCH  25  26
ENDBRANCH   1  25
BRANCH   6  40
HETATM   40  N9  UNL     1      12.627 -19.020  18.300  1.00  0.00    -0.338 N 
ATOM     41  H92 UNL     1      11.626 -18.936  18.473  1.00  0.00     0.177 HD
ATOM     42  H91 UNL     1      12.928 -19.536  17.473  1.00  0.00     0.177 HD
ENDBRANCH   6  40
TORSDOF 13
ENDMDL
