MODEL 1
REMARK VINA RESULT: -7.958424646      0.000      0.000
REMARK  7 active torsions:
REMARK  status: ('A' for Active; 'I' for Inactive)
REMARK    1  A    between atoms: C1_4  and  O1_5 
REMARK    2  A    between atoms: C1_4  and  C2_7 
REMARK    3  A    between atoms: C2_7  and  O2_8 
REMARK    4  A    between atoms: C2_7  and  N2_10 
REMARK    5  A    between atoms: C4_12  and  N3_13 
REMARK    6  A    between atoms: N6_20  and  N7_21 
REMARK    7  A    between atoms: N7_21  and  C7_23 
ROOT
HETATM    1  N2  UNL     1      49.201  31.828  15.193  1.00  0.00    -0.241 N 
HETATM    2  C3  UNL     1      50.451  31.478  14.847  1.00  0.00     0.146 A 
HETATM    3  C4  UNL     1      51.468  31.529  15.759  1.00  0.00     0.071 A 
HETATM    4  C5  UNL     1      51.138  31.945  17.005  1.00  0.00     0.118 A 
HETATM    5  N4  UNL     1      52.130  32.036  18.038  1.00  0.00    -0.096 NA
HETATM    6  C6  UNL     1      49.832  32.315  17.374  1.00  0.00     0.183 A 
HETATM    7  N5  UNL     1      49.665  32.775  18.711  1.00  0.00    -0.077 NA
HETATM    8  N6  UNL     1      48.873  32.247  16.446  1.00  0.00    -0.162 N 
ENDROOT
BRANCH   8   9
HETATM    9  N7  UNL     1      47.595  32.653  16.650  1.00  0.00    -0.106 N 
ATOM     10  H7  UNL     1      47.429  33.608  16.330  1.00  0.00     0.208 HD
BRANCH   9  11
HETATM   11  C7  UNL     1      46.445  32.056  17.202  1.00  0.00     0.730 A 
HETATM   12  N8  UNL     1      46.323  30.658  17.183  1.00  0.00    -0.114 N 
HETATM   13  N9  UNL     1      45.213  30.346  17.793  1.00  0.00    -0.213 N 
ATOM     14  H8  UNL     1      46.984  30.003  16.766  1.00  0.00     0.207 HD
HETATM   15  N10 UNL     1      44.588  31.450  18.217  1.00  0.00    -0.213 N 
ATOM     16  H9  UNL     1      44.871  29.395  17.928  1.00  0.00     0.210 HD
HETATM   17  N11 UNL     1      45.358  32.421  17.840  1.00  0.00    -0.114 N 
ATOM     18  H10 UNL     1      43.704  31.513  18.723  1.00  0.00     0.210 HD
ATOM     19  H11 UNL     1      45.136  33.400  18.025  1.00  0.00     0.207 HD
ENDBRANCH   9  11
ENDBRANCH   8   9
BRANCH   1  20
HETATM   20  C2  UNL     1      48.168  31.707  14.159  1.00  0.00     0.317 C 
BRANCH  20  21
HETATM   21  C1  UNL     1      47.669  30.294  14.118  1.00  0.00     0.161 C 
HETATM   22  N1  UNL     1      46.436  30.045  13.896  1.00  0.00    -0.380 N 
ATOM     23  H12 UNL     1      46.097  29.083  13.869  1.00  0.00     0.158 HD
ATOM     24  H11 UNL     1      45.784  30.815  13.746  1.00  0.00     0.158 HD
BRANCH  21  25
HETATM   25  O1  UNL     1      48.553  29.250  14.322  1.00  0.00    -0.346 OA
ATOM     26  H1  UNL     1      49.266  29.352  14.941  1.00  0.00     0.219 HD
ENDBRANCH  21  25
ENDBRANCH  20  21
BRANCH  20  27
HETATM   27  O2  UNL     1      48.753  32.052  12.949  1.00  0.00    -0.368 OA
ATOM     28  H2  UNL     1      48.608  32.971  12.758  1.00  0.00     0.212 HD
ENDBRANCH  20  27
ENDBRANCH   1  20
BRANCH   3  29
HETATM   29  N3  UNL     1      52.695  31.192  15.458  1.00  0.00    -0.396 N 
ATOM     30  H32 UNL     1      52.891  30.451  14.786  1.00  0.00     0.156 HD
ATOM     31  H31 UNL     1      53.505  31.652  15.875  1.00  0.00     0.156 HD
ENDBRANCH   3  29
TORSDOF 7
ENDMDL
MODEL 2
REMARK VINA RESULT: -7.356286414      1.018      1.023
REMARK  7 active torsions:
REMARK  status: ('A' for Active; 'I' for Inactive)
REMARK    1  A    between atoms: C1_4  and  O1_5 
REMARK    2  A    between atoms: C1_4  and  C2_7 
REMARK    3  A    between atoms: C2_7  and  O2_8 
REMARK    4  A    between atoms: C2_7  and  N2_10 
REMARK    5  A    between atoms: C4_12  and  N3_13 
REMARK    6  A    between atoms: N6_20  and  N7_21 
REMARK    7  A    between atoms: N7_21  and  C7_23 
ROOT
HETATM    1  N2  UNL     1      48.336  31.730  15.589  1.00  0.00    -0.241 N 
HETATM    2  C3  UNL     1      49.500  31.297  15.076  1.00  0.00     0.146 A 
HETATM    3  C4  UNL     1      50.663  31.421  15.783  1.00  0.00     0.071 A 
HETATM    4  C5  UNL     1      50.566  31.995  17.005  1.00  0.00     0.118 A 
HETATM    5  N4  UNL     1      51.727  32.174  17.830  1.00  0.00    -0.096 NA
HETATM    6  C6  UNL     1      49.351  32.452  17.548  1.00  0.00     0.183 A 
HETATM    7  N5  UNL     1      49.431  33.075  18.827  1.00  0.00    -0.077 NA
HETATM    8  N6  UNL     1      48.242  32.308  16.818  1.00  0.00    -0.162 N 
ENDROOT
BRANCH   8   9
HETATM    9  N7  UNL     1      47.026  32.781  17.190  1.00  0.00    -0.106 N 
ATOM     10  H7  UNL     1      46.976  33.799  17.171  1.00  0.00     0.208 HD
BRANCH   9  11
HETATM   11  C7  UNL     1      45.816  32.184  17.596  1.00  0.00     0.730 A 
HETATM   12  N8  UNL     1      45.805  30.822  17.936  1.00  0.00    -0.114 N 
HETATM   13  N9  UNL     1      44.598  30.519  18.326  1.00  0.00    -0.213 N 
ATOM     14  H8  UNL     1      46.599  30.184  17.887  1.00  0.00     0.207 HD
HETATM   15  N10 UNL     1      43.805  31.594  18.266  1.00  0.00    -0.213 N 
ATOM     16  H9  UNL     1      44.302  29.593  18.633  1.00  0.00     0.210 HD
HETATM   17  N11 UNL     1      44.575  32.539  17.829  1.00  0.00    -0.114 N 
ATOM     18  H10 UNL     1      42.816  31.655  18.509  1.00  0.00     0.210 HD
ATOM     19  H11 UNL     1      44.242  33.491  17.678  1.00  0.00     0.207 HD
ENDBRANCH   9  11
ENDBRANCH   8   9
BRANCH   1  20
HETATM   20  C2  UNL     1      47.134  31.522  14.775  1.00  0.00     0.317 C 
BRANCH  20  21
HETATM   21  C1  UNL     1      46.891  30.052  14.613  1.00  0.00     0.161 C 
HETATM   22  N1  UNL     1      47.108  29.474  13.496  1.00  0.00    -0.380 N 
ATOM     23  H12 UNL     1      46.942  28.473  13.386  1.00  0.00     0.158 HD
ATOM     24  H11 UNL     1      47.451  30.019  12.704  1.00  0.00     0.158 HD
BRANCH  21  25
HETATM   25  O1  UNL     1      46.426  29.314  15.687  1.00  0.00    -0.346 OA
ATOM     26  H1  UNL     1      46.685  29.553  16.569  1.00  0.00     0.219 HD
ENDBRANCH  21  25
ENDBRANCH  20  21
BRANCH  20  27
HETATM   27  O2  UNL     1      47.364  32.116  13.542  1.00  0.00    -0.368 OA
ATOM     28  H2  UNL     1      47.157  31.513  12.837  1.00  0.00     0.212 HD
ENDBRANCH  20  27
ENDBRANCH   1  20
BRANCH   3  29
HETATM   29  N3  UNL     1      51.813  31.007  15.317  1.00  0.00    -0.396 N 
ATOM     30  H32 UNL     1      51.932  30.777  14.330  1.00  0.00     0.156 HD
ATOM     31  H31 UNL     1      52.636  30.900  15.910  1.00  0.00     0.156 HD
ENDBRANCH   3  29
TORSDOF 7
ENDMDL
MODEL 3
REMARK VINA RESULT: -7.089937131      1.362      4.726
REMARK  7 active torsions:
REMARK  status: ('A' for Active; 'I' for Inactive)
REMARK    1  A    between atoms: C1_4  and  O1_5 
REMARK    2  A    between atoms: C1_4  and  C2_7 
REMARK    3  A    between atoms: C2_7  and  O2_8 
REMARK    4  A    between atoms: C2_7  and  N2_10 
REMARK    5  A    between atoms: C4_12  and  N3_13 
REMARK    6  A    between atoms: N6_20  and  N7_21 
REMARK    7  A    between atoms: N7_21  and  C7_23 
ROOT
HETATM    1  N2  UNL     1      47.802  31.343  15.438  1.00  0.00    -0.241 N 
HETATM    2  C3  UNL     1      46.618  31.375  16.072  1.00  0.00     0.146 A 
HETATM    3  C4  UNL     1      46.434  32.172  17.168  1.00  0.00     0.071 A 
HETATM    4  C5  UNL     1      47.500  32.908  17.562  1.00  0.00     0.118 A 
HETATM    5  N4  UNL     1      47.415  33.777  18.701  1.00  0.00    -0.096 NA
HETATM    6  C6  UNL     1      48.744  32.878  16.904  1.00  0.00     0.183 A 
HETATM    7  N5  UNL     1      49.775  33.677  17.476  1.00  0.00    -0.077 NA
HETATM    8  N6  UNL     1      48.872  32.084  15.838  1.00  0.00    -0.162 N 
ENDROOT
BRANCH   8   9
HETATM    9  N7  UNL     1      50.038  31.901  15.168  1.00  0.00    -0.106 N 
ATOM     10  H7  UNL     1      49.998  32.241  14.208  1.00  0.00     0.208 HD
BRANCH   9  11
HETATM   11  C7  UNL     1      51.291  31.347  15.499  1.00  0.00     0.730 A 
HETATM   12  N8  UNL     1      52.284  32.176  16.041  1.00  0.00    -0.114 N 
HETATM   13  N9  UNL     1      53.321  31.433  16.310  1.00  0.00    -0.213 N 
ATOM     14  H8  UNL     1      52.209  33.182  16.197  1.00  0.00     0.207 HD
HETATM   15  N10 UNL     1      53.080  30.159  15.981  1.00  0.00    -0.213 N 
ATOM     16  H9  UNL     1      54.192  31.774  16.715  1.00  0.00     0.210 HD
HETATM   17  N11 UNL     1      51.873  30.172  15.509  1.00  0.00    -0.114 N 
ATOM     18  H10 UNL     1      53.705  29.359  16.078  1.00  0.00     0.210 HD
ATOM     19  H11 UNL     1      51.410  29.329  15.169  1.00  0.00     0.207 HD
ENDBRANCH   9  11
ENDBRANCH   8   9
BRANCH   1  20
HETATM   20  C2  UNL     1      47.896  30.487  14.251  1.00  0.00     0.317 C 
BRANCH  20  21
HETATM   21  C1  UNL     1      46.600  29.760  14.059  1.00  0.00     0.161 C 
HETATM   22  N1  UNL     1      45.900  29.943  13.007  1.00  0.00    -0.380 N 
ATOM     23  H12 UNL     1      45.017  29.448  12.877  1.00  0.00     0.158 HD
ATOM     24  H11 UNL     1      46.226  30.590  12.289  1.00  0.00     0.158 HD
BRANCH  21  25
HETATM   25  O1  UNL     1      46.157  28.882  15.032  1.00  0.00    -0.346 OA
ATOM     26  H1  UNL     1      46.632  28.810  15.852  1.00  0.00     0.219 HD
ENDBRANCH  21  25
ENDBRANCH  20  21
BRANCH  20  27
HETATM   27  O2  UNL     1      48.931  29.589  14.471  1.00  0.00    -0.368 OA
ATOM     28  H2  UNL     1      49.747  29.927  14.120  1.00  0.00     0.212 HD
ENDBRANCH  20  27
ENDBRANCH   1  20
BRANCH   3  29
HETATM   29  N3  UNL     1      45.295  32.231  17.806  1.00  0.00    -0.396 N 
ATOM     30  H32 UNL     1      44.544  32.845  17.492  1.00  0.00     0.156 HD
ATOM     31  H31 UNL     1      45.105  31.670  18.637  1.00  0.00     0.156 HD
ENDBRANCH   3  29
TORSDOF 7
ENDMDL
MODEL 4
REMARK VINA RESULT: -7.075725543      1.303      4.675
REMARK  7 active torsions:
REMARK  status: ('A' for Active; 'I' for Inactive)
REMARK    1  A    between atoms: C1_4  and  O1_5 
REMARK    2  A    between atoms: C1_4  and  C2_7 
REMARK    3  A    between atoms: C2_7  and  O2_8 
REMARK    4  A    between atoms: C2_7  and  N2_10 
REMARK    5  A    between atoms: C4_12  and  N3_13 
REMARK    6  A    between atoms: N6_20  and  N7_21 
REMARK    7  A    between atoms: N7_21  and  C7_23 
ROOT
HETATM    1  N2  UNL     1      47.920  31.750  15.334  1.00  0.00    -0.241 N 
HETATM    2  C3  UNL     1      46.723  31.815  15.941  1.00  0.00     0.146 A 
HETATM    3  C4  UNL     1      46.583  32.454  17.141  1.00  0.00     0.071 A 
HETATM    4  C5  UNL     1      47.705  33.005  17.664  1.00  0.00     0.118 A 
HETATM    5  N4  UNL     1      47.670  33.698  18.920  1.00  0.00    -0.096 NA
HETATM    6  C6  UNL     1      48.962  32.939  17.034  1.00  0.00     0.183 A 
HETATM    7  N5  UNL     1      50.049  33.528  17.741  1.00  0.00    -0.077 NA
HETATM    8  N6  UNL     1      49.045  32.303  15.863  1.00  0.00    -0.162 N 
ENDROOT
BRANCH   8   9
HETATM    9  N7  UNL     1      50.209  32.097  15.196  1.00  0.00    -0.106 N 
ATOM     10  H7  UNL     1      50.162  32.390  14.220  1.00  0.00     0.208 HD
BRANCH   9  11
HETATM   11  C7  UNL     1      51.469  31.571  15.546  1.00  0.00     0.730 A 
HETATM   12  N8  UNL     1      52.499  32.449  15.915  1.00  0.00    -0.114 N 
HETATM   13  N9  UNL     1      53.537  31.731  16.242  1.00  0.00    -0.213 N 
ATOM     14  H8  UNL     1      52.447  33.467  15.924  1.00  0.00     0.207 HD
HETATM   15  N10 UNL     1      53.262  30.428  16.114  1.00  0.00    -0.213 N 
ATOM     16  H9  UNL     1      54.432  32.109  16.552  1.00  0.00     0.210 HD
HETATM   17  N11 UNL     1      52.034  30.397  15.702  1.00  0.00    -0.114 N 
ATOM     18  H10 UNL     1      53.879  29.637  16.299  1.00  0.00     0.210 HD
ATOM     19  H11 UNL     1      51.542  29.524  15.511  1.00  0.00     0.207 HD
ENDBRANCH   9  11
ENDBRANCH   8   9
BRANCH   1  20
HETATM   20  C2  UNL     1      47.967  31.075  14.032  1.00  0.00     0.317 C 
BRANCH  20  21
HETATM   21  C1  UNL     1      48.346  29.639  14.230  1.00  0.00     0.161 C 
HETATM   22  N1  UNL     1      47.450  28.731  14.289  1.00  0.00    -0.380 N 
ATOM     23  H12 UNL     1      47.709  27.753  14.424  1.00  0.00     0.158 HD
ATOM     24  H11 UNL     1      46.467  28.985  14.201  1.00  0.00     0.158 HD
BRANCH  21  25
HETATM   25  O1  UNL     1      49.680  29.294  14.350  1.00  0.00    -0.346 OA
ATOM     26  H1  UNL     1      50.211  29.698  15.026  1.00  0.00     0.219 HD
ENDBRANCH  21  25
ENDBRANCH  20  21
BRANCH  20  27
HETATM   27  O2  UNL     1      48.920  31.729  13.263  1.00  0.00    -0.368 OA
ATOM     28  H2  UNL     1      49.305  32.449  13.750  1.00  0.00     0.212 HD
ENDBRANCH  20  27
ENDBRANCH   1  20
BRANCH   3  29
HETATM   29  N3  UNL     1      45.434  32.540  17.759  1.00  0.00    -0.396 N 
ATOM     30  H32 UNL     1      45.372  32.893  18.714  1.00  0.00     0.156 HD
ATOM     31  H31 UNL     1      44.556  32.265  17.319  1.00  0.00     0.156 HD
ENDBRANCH   3  29
TORSDOF 7
ENDMDL
MODEL 5
REMARK VINA RESULT: -6.681984687      2.363      3.945
REMARK  7 active torsions:
REMARK  status: ('A' for Active; 'I' for Inactive)
REMARK    1  A    between atoms: C1_4  and  O1_5 
REMARK    2  A    between atoms: C1_4  and  C2_7 
REMARK    3  A    between atoms: C2_7  and  O2_8 
REMARK    4  A    between atoms: C2_7  and  N2_10 
REMARK    5  A    between atoms: C4_12  and  N3_13 
REMARK    6  A    between atoms: N6_20  and  N7_21 
REMARK    7  A    between atoms: N7_21  and  C7_23 
ROOT
HETATM    1  N2  UNL     1      48.393  32.555  16.885  1.00  0.00    -0.241 N 
HETATM    2  C3  UNL     1      49.647  32.347  16.450  1.00  0.00     0.146 A 
HETATM    3  C4  UNL     1      49.916  31.360  15.543  1.00  0.00     0.071 A 
HETATM    4  C5  UNL     1      48.860  30.625  15.123  1.00  0.00     0.118 A 
HETATM    5  N4  UNL     1      49.031  29.563  14.173  1.00  0.00    -0.096 NA
HETATM    6  C6  UNL     1      47.544  30.836  15.575  1.00  0.00     0.183 A 
HETATM    7  N5  UNL     1      46.556  29.944  15.070  1.00  0.00    -0.077 NA
HETATM    8  N6  UNL     1      47.334  31.813  16.462  1.00  0.00    -0.162 N 
ENDROOT
BRANCH   8   9
HETATM    9  N7  UNL     1      46.131  32.064  17.038  1.00  0.00    -0.106 N 
ATOM     10  H7  UNL     1      45.871  33.050  16.994  1.00  0.00     0.208 HD
BRANCH   9  11
HETATM   11  C7  UNL     1      45.160  31.273  17.683  1.00  0.00     0.730 A 
HETATM   12  N8  UNL     1      43.959  31.868  18.100  1.00  0.00    -0.114 N 
HETATM   13  N9  UNL     1      43.209  30.934  18.615  1.00  0.00    -0.213 N 
ATOM     14  H8  UNL     1      43.716  32.855  18.017  1.00  0.00     0.207 HD
HETATM   15  N10 UNL     1      43.836  29.753  18.567  1.00  0.00    -0.213 N 
ATOM     16  H9  UNL     1      42.277  31.082  19.000  1.00  0.00     0.210 HD
HETATM   17  N11 UNL     1      44.977  30.016  18.011  1.00  0.00    -0.114 N 
ATOM     18  H10 UNL     1      43.495  28.849  18.895  1.00  0.00     0.210 HD
ATOM     19  H11 UNL     1      45.681  29.299  17.840  1.00  0.00     0.207 HD
ENDBRANCH   9  11
ENDBRANCH   8   9
BRANCH   1  20
HETATM   20  C2  UNL     1      48.194  33.659  17.830  1.00  0.00     0.317 C 
BRANCH  20  21
HETATM   21  C1  UNL     1      49.212  33.565  18.926  1.00  0.00     0.161 C 
HETATM   22  N1  UNL     1      49.210  34.401  19.891  1.00  0.00    -0.380 N 
ATOM     23  H12 UNL     1      49.904  34.337  20.636  1.00  0.00     0.158 HD
ATOM     24  H11 UNL     1      48.508  35.140  19.917  1.00  0.00     0.158 HD
BRANCH  21  25
HETATM   25  O1  UNL     1      50.165  32.563  18.890  1.00  0.00    -0.346 OA
ATOM     26  H1  UNL     1      50.175  31.949  18.165  1.00  0.00     0.219 HD
ENDBRANCH  21  25
ENDBRANCH  20  21
BRANCH  20  27
HETATM   27  O2  UNL     1      46.911  33.534  18.345  1.00  0.00    -0.368 OA
ATOM     28  H2  UNL     1      46.264  33.775  17.692  1.00  0.00     0.212 HD
ENDBRANCH  20  27
ENDBRANCH   1  20
BRANCH   3  29
HETATM   29  N3  UNL     1      51.123  31.132  15.095  1.00  0.00    -0.396 N 
ATOM     30  H32 UNL     1      51.719  30.421  15.519  1.00  0.00     0.156 HD
ATOM     31  H31 UNL     1      51.519  31.645  14.308  1.00  0.00     0.156 HD
ENDBRANCH   3  29
TORSDOF 7
ENDMDL
