MODEL 1
REMARK VINA RESULT: -8.231658182      0.000      0.000
REMARK  8 active torsions:
REMARK  status: ('A' for Active; 'I' for Inactive)
REMARK    1  A    between atoms: N1_1  and  N2_4 
REMARK    2  A    between atoms: N2_4  and  N3_6 
REMARK    3  A    between atoms: N3_6  and  N4_8 
REMARK       I    between atoms: N4_8  and  C1_10 
REMARK       I    between atoms: C1_10  and  N5_11 
REMARK       I    between atoms: C1_10  and  N11_30 
REMARK    4  A    between atoms: N5_11  and  C2_13 
REMARK    5  A    between atoms: C5_19  and  N7_20 
REMARK    6  A    between atoms: N8_22  and  O2_24 
REMARK    7  A    between atoms: N9_26  and  N10_27 
REMARK    8  A    between atoms: N11_30  and  N12_32 
ROOT
HETATM    1  C2  UNL     1      48.555  31.845  15.937  1.00  0.00     0.722 A 
HETATM    2  N6  UNL     1      48.642  30.814  15.011  1.00  0.00    -0.154 N 
ATOM      3  H6  UNL     1      49.526  30.662  14.526  1.00  0.00     0.187 HD
HETATM    4  C3  UNL     1      47.616  30.019  14.736  1.00  0.00     0.263 A 
HETATM    5  O1  UNL     1      47.724  29.096  13.895  1.00  0.00    -0.268 OA
HETATM    6  C4  UNL     1      46.413  30.218  15.386  1.00  0.00     0.127 A 
HETATM    7  C5  UNL     1      46.333  31.243  16.303  1.00  0.00     0.166 A 
HETATM    8  N9  UNL     1      47.401  32.054  16.577  1.00  0.00    -0.074 N 
ENDROOT
BRANCH   1   9
HETATM    9  N5  UNL     1      49.568  32.548  16.137  1.00  0.00    -0.018 N 
HETATM   10  C1  UNL     1      50.852  32.206  16.493  1.00  0.00     0.726 C 
HETATM   11  N4  UNL     1      51.204  32.212  17.750  1.00  0.00    -0.115 N 
HETATM   12  N11 UNL     1      51.889  31.850  15.562  1.00  0.00    -0.137 N 
ATOM     13  H4  UNL     1      52.155  31.959  18.021  1.00  0.00     0.207 HD
ATOM     14  H11 UNL     1      51.748  32.023  14.566  1.00  0.00     0.205 HD
ATOM     15  H5  UNL     1      49.417  33.549  16.014  1.00  0.00     0.203 HD
BRANCH  11  16
HETATM   16  N3  UNL     1      50.265  32.568  18.715  1.00  0.00    -0.214 N 
ATOM     17  H3  UNL     1      49.851  31.837  19.294  1.00  0.00     0.210 HD
BRANCH  16  18
HETATM   18  N2  UNL     1      49.908  33.770  18.899  1.00  0.00    -0.234 N 
ATOM     19  H2  UNL     1      50.131  34.494  18.216  1.00  0.00     0.209 HD
BRANCH  18  20
HETATM   20  N1  UNL     1      49.202  34.072  20.063  1.00  0.00    -0.330 N 
ATOM     21  H12 UNL     1      48.721  33.332  20.576  1.00  0.00     0.178 HD
ATOM     22  H11 UNL     1      49.186  35.043  20.374  1.00  0.00     0.178 HD
ENDBRANCH  18  20
ENDBRANCH  16  18
ENDBRANCH  11  16
BRANCH  12  23
HETATM   23  N12 UNL     1      53.078  31.277  15.990  1.00  0.00    -0.331 N 
ATOM     24 2H12 UNL     1      53.934  31.828  15.919  1.00  0.00     0.177 HD
ATOM     25 1H12 UNL     1      53.106  30.329  16.367  1.00  0.00     0.177 HD
ENDBRANCH  12  23
ENDBRANCH   1   9
BRANCH   8  26
HETATM   26  N10 UNL     1      47.174  33.038  17.516  1.00  0.00    -0.322 N 
ATOM     27 2H10 UNL     1      46.525  32.792  18.263  1.00  0.00     0.178 HD
ATOM     28 1H10 UNL     1      47.598  33.966  17.514  1.00  0.00     0.178 HD
ENDBRANCH   8  26
BRANCH   7  29
HETATM   29  N7  UNL     1      45.124  31.481  16.990  1.00  0.00    -0.264 N 
HETATM   30  N8  UNL     1      44.733  30.801  17.986  1.00  0.00    -0.208 N 
ATOM     31  H8  UNL     1      43.845  31.040  18.426  1.00  0.00     0.215 HD
ATOM     32  H7  UNL     1      44.530  32.245  16.668  1.00  0.00     0.190 HD
BRANCH  30  33
HETATM   33  O2  UNL     1      45.463  29.751  18.495  1.00  0.00    -0.274 OA
ATOM     34  H2  UNL     1      45.096  28.883  18.607  1.00  0.00     0.246 HD
ENDBRANCH  30  33
ENDBRANCH   7  29
TORSDOF 8
ENDMDL
MODEL 2
REMARK VINA RESULT: -8.086911384      1.649      3.045
REMARK  8 active torsions:
REMARK  status: ('A' for Active; 'I' for Inactive)
REMARK    1  A    between atoms: N1_1  and  N2_4 
REMARK    2  A    between atoms: N2_4  and  N3_6 
REMARK    3  A    between atoms: N3_6  and  N4_8 
REMARK       I    between atoms: N4_8  and  C1_10 
REMARK       I    between atoms: C1_10  and  N5_11 
REMARK       I    between atoms: C1_10  and  N11_30 
REMARK    4  A    between atoms: N5_11  and  C2_13 
REMARK    5  A    between atoms: C5_19  and  N7_20 
REMARK    6  A    between atoms: N8_22  and  O2_24 
REMARK    7  A    between atoms: N9_26  and  N10_27 
REMARK    8  A    between atoms: N11_30  and  N12_32 
ROOT
HETATM    1  C2  UNL     1      50.206  32.274  16.775  1.00  0.00     0.722 A 
HETATM    2  N6  UNL     1      50.111  31.731  15.501  1.00  0.00    -0.154 N 
ATOM      3  H6  UNL     1      50.958  31.383  15.051  1.00  0.00     0.187 HD
HETATM    4  C3  UNL     1      48.959  31.647  14.849  1.00  0.00     0.263 A 
HETATM    5  O1  UNL     1      48.905  31.151  13.699  1.00  0.00    -0.268 OA
HETATM    6  C4  UNL     1      47.806  32.117  15.450  1.00  0.00     0.127 A 
HETATM    7  C5  UNL     1      47.906  32.655  16.713  1.00  0.00     0.166 A 
HETATM    8  N9  UNL     1      49.103  32.733  17.373  1.00  0.00    -0.074 N 
ENDROOT
BRANCH   1   9
HETATM    9  N5  UNL     1      51.329  32.316  17.319  1.00  0.00    -0.018 N 
HETATM   10  C1  UNL     1      52.589  32.098  16.813  1.00  0.00     0.726 C 
HETATM   11  N4  UNL     1      53.134  30.915  16.904  1.00  0.00    -0.115 N 
HETATM   12  N11 UNL     1      53.402  33.105  16.186  1.00  0.00    -0.137 N 
ATOM     13  H4  UNL     1      54.068  30.746  16.531  1.00  0.00     0.207 HD
ATOM     14  H11 UNL     1      53.131  34.086  16.265  1.00  0.00     0.205 HD
ATOM     15  H5  UNL     1      51.308  32.553  18.311  1.00  0.00     0.203 HD
BRANCH  11  16
HETATM   16  N3  UNL     1      52.422  29.887  17.519  1.00  0.00    -0.214 N 
ATOM     17  H3  UNL     1      52.033  30.044  18.448  1.00  0.00     0.210 HD
BRANCH  16  18
HETATM   18  N2  UNL     1      52.242  28.763  16.962  1.00  0.00    -0.234 N 
ATOM     19  H2  UNL     1      52.128  27.914  17.515  1.00  0.00     0.209 HD
BRANCH  18  20
HETATM   20  N1  UNL     1      52.205  28.723  15.569  1.00  0.00    -0.330 N 
ATOM     21  H12 UNL     1      53.054  28.895  15.029  1.00  0.00     0.178 HD
ATOM     22  H11 UNL     1      51.312  28.520  15.119  1.00  0.00     0.178 HD
ENDBRANCH  18  20
ENDBRANCH  16  18
ENDBRANCH  11  16
BRANCH  12  23
HETATM   23  N12 UNL     1      54.548  32.772  15.477  1.00  0.00    -0.331 N 
ATOM     24 2H12 UNL     1      54.663  33.152  14.538  1.00  0.00     0.177 HD
ATOM     25 1H12 UNL     1      55.262  32.163  15.878  1.00  0.00     0.177 HD
ENDBRANCH  12  23
ENDBRANCH   1   9
BRANCH   8  26
HETATM   26  N10 UNL     1      49.051  33.297  18.632  1.00  0.00    -0.322 N 
ATOM     27 2H10 UNL     1      48.936  32.640  19.403  1.00  0.00     0.178 HD
ATOM     28 1H10 UNL     1      49.118  34.294  18.835  1.00  0.00     0.178 HD
ENDBRANCH   8  26
BRANCH   7  29
HETATM   29  N7  UNL     1      46.755  33.146  17.364  1.00  0.00    -0.264 N 
HETATM   30  N8  UNL     1      45.786  32.415  17.730  1.00  0.00    -0.208 N 
ATOM     31  H8  UNL     1      44.990  32.851  18.195  1.00  0.00     0.215 HD
ATOM     32  H7  UNL     1      46.698  34.147  17.550  1.00  0.00     0.190 HD
BRANCH  30  33
HETATM   33  O2  UNL     1      45.769  31.054  17.523  1.00  0.00    -0.274 OA
ATOM     34  H2  UNL     1      45.346  30.659  16.771  1.00  0.00     0.246 HD
ENDBRANCH  30  33
ENDBRANCH   7  29
TORSDOF 8
ENDMDL
MODEL 3
REMARK VINA RESULT: -7.548183881      2.640      5.511
REMARK  8 active torsions:
REMARK  status: ('A' for Active; 'I' for Inactive)
REMARK    1  A    between atoms: N1_1  and  N2_4 
REMARK    2  A    between atoms: N2_4  and  N3_6 
REMARK    3  A    between atoms: N3_6  and  N4_8 
REMARK       I    between atoms: N4_8  and  C1_10 
REMARK       I    between atoms: C1_10  and  N5_11 
REMARK       I    between atoms: C1_10  and  N11_30 
REMARK    4  A    between atoms: N5_11  and  C2_13 
REMARK    5  A    between atoms: C5_19  and  N7_20 
REMARK    6  A    between atoms: N8_22  and  O2_24 
REMARK    7  A    between atoms: N9_26  and  N10_27 
REMARK    8  A    between atoms: N11_30  and  N12_32 
ROOT
HETATM    1  C2  UNL     1      49.440  31.445  15.937  1.00  0.00     0.722 A 
HETATM    2  N6  UNL     1      49.053  32.456  16.806  1.00  0.00    -0.154 N 
ATOM      3  H6  UNL     1      48.152  32.911  16.661  1.00  0.00     0.187 HD
HETATM    4  C3  UNL     1      49.814  32.853  17.818  1.00  0.00     0.263 A 
HETATM    5  O1  UNL     1      49.438  33.769  18.586  1.00  0.00    -0.268 OA
HETATM    6  C4  UNL     1      51.038  32.245  18.022  1.00  0.00     0.127 A 
HETATM    7  C5  UNL     1      51.417  31.242  17.157  1.00  0.00     0.166 A 
HETATM    8  N9  UNL     1      50.620  30.844  16.118  1.00  0.00    -0.074 N 
ENDROOT
BRANCH   1   9
HETATM    9  N5  UNL     1      48.665  31.133  15.010  1.00  0.00    -0.018 N 
HETATM   10  C1  UNL     1      47.479  31.691  14.593  1.00  0.00     0.726 C 
HETATM   11  N4  UNL     1      46.345  31.222  15.039  1.00  0.00    -0.115 N 
HETATM   12  N11 UNL     1      47.373  32.775  13.655  1.00  0.00    -0.137 N 
ATOM     13  H4  UNL     1      45.461  31.632  14.735  1.00  0.00     0.207 HD
ATOM     14  H11 UNL     1      48.193  33.050  13.114  1.00  0.00     0.205 HD
ATOM     15  H5  UNL     1      48.963  30.323  14.466  1.00  0.00     0.203 HD
BRANCH  11  16
HETATM   16  N3  UNL     1      46.357  30.155  15.936  1.00  0.00    -0.214 N 
ATOM     17  H3  UNL     1      46.591  29.225  15.590  1.00  0.00     0.210 HD
BRANCH  16  18
HETATM   18  N2  UNL     1      46.088  30.303  17.165  1.00  0.00    -0.234 N 
ATOM     19  H2  UNL     1      46.175  31.214  17.616  1.00  0.00     0.209 HD
BRANCH  18  20
HETATM   20  N1  UNL     1      45.670  29.183  17.882  1.00  0.00    -0.330 N 
ATOM     21  H12 UNL     1      44.675  29.005  18.017  1.00  0.00     0.178 HD
ATOM     22  H11 UNL     1      46.386  28.561  18.258  1.00  0.00     0.178 HD
ENDBRANCH  18  20
ENDBRANCH  16  18
ENDBRANCH  11  16
BRANCH  12  23
HETATM   23  N12 UNL     1      46.177  33.455  13.468  1.00  0.00    -0.331 N 
ATOM     24 2H12 UNL     1      45.346  32.915  13.227  1.00  0.00     0.177 HD
ATOM     25 1H12 UNL     1      46.121  34.469  13.568  1.00  0.00     0.177 HD
ENDBRANCH  12  23
ENDBRANCH   1   9
BRANCH   8  26
HETATM   26  N10 UNL     1      51.129  29.830  15.333  1.00  0.00    -0.322 N 
ATOM     27 2H10 UNL     1      51.859  30.106  14.677  1.00  0.00     0.178 HD
ATOM     28 1H10 UNL     1      50.834  28.854  15.364  1.00  0.00     0.178 HD
ENDBRANCH   8  26
BRANCH   7  29
HETATM   29  N7  UNL     1      52.658  30.594  17.329  1.00  0.00    -0.264 N 
HETATM   30  N8  UNL     1      52.795  29.474  17.906  1.00  0.00    -0.208 N 
ATOM     31  H8  UNL     1      53.730  29.075  17.988  1.00  0.00     0.215 HD
ATOM     32  H7  UNL     1      53.494  31.053  16.968  1.00  0.00     0.190 HD
BRANCH  30  33
HETATM   33  O2  UNL     1      51.729  28.777  18.426  1.00  0.00    -0.274 OA
ATOM     34  H2  UNL     1      51.840  28.004  18.967  1.00  0.00     0.246 HD
ENDBRANCH  30  33
ENDBRANCH   7  29
TORSDOF 8
ENDMDL
MODEL 4
REMARK VINA RESULT: -7.405626688      1.895      4.567
REMARK  8 active torsions:
REMARK  status: ('A' for Active; 'I' for Inactive)
REMARK    1  A    between atoms: N1_1  and  N2_4 
REMARK    2  A    between atoms: N2_4  and  N3_6 
REMARK    3  A    between atoms: N3_6  and  N4_8 
REMARK       I    between atoms: N4_8  and  C1_10 
REMARK       I    between atoms: C1_10  and  N5_11 
REMARK       I    between atoms: C1_10  and  N11_30 
REMARK    4  A    between atoms: N5_11  and  C2_13 
REMARK    5  A    between atoms: C5_19  and  N7_20 
REMARK    6  A    between atoms: N8_22  and  O2_24 
REMARK    7  A    between atoms: N9_26  and  N10_27 
REMARK    8  A    between atoms: N11_30  and  N12_32 
ROOT
HETATM    1  C2  UNL     1      49.442  32.153  16.096  1.00  0.00     0.722 A 
HETATM    2  N6  UNL     1      48.548  31.390  15.357  1.00  0.00    -0.154 N 
ATOM      3  H6  UNL     1      47.589  31.720  15.252  1.00  0.00     0.187 HD
HETATM    4  C3  UNL     1      48.897  30.245  14.783  1.00  0.00     0.263 A 
HETATM    5  O1  UNL     1      48.067  29.577  14.123  1.00  0.00    -0.268 OA
HETATM    6  C4  UNL     1      50.194  29.788  14.921  1.00  0.00     0.127 A 
HETATM    7  C5  UNL     1      51.076  30.549  15.654  1.00  0.00     0.166 A 
HETATM    8  N9  UNL     1      50.701  31.729  16.240  1.00  0.00    -0.074 N 
ENDROOT
BRANCH   1   9
HETATM    9  N5  UNL     1      49.032  33.218  16.604  1.00  0.00    -0.018 N 
HETATM   10  C1  UNL     1      48.706  33.536  17.901  1.00  0.00     0.726 C 
HETATM   11  N4  UNL     1      47.468  33.441  18.305  1.00  0.00    -0.115 N 
HETATM   12  N11 UNL     1      49.643  34.005  18.886  1.00  0.00    -0.137 N 
ATOM     13  H4  UNL     1      47.218  33.675  19.266  1.00  0.00     0.207 HD
ATOM     14  H11 UNL     1      50.574  34.297  18.591  1.00  0.00     0.205 HD
ATOM     15  H5  UNL     1      48.920  33.985  15.940  1.00  0.00     0.203 HD
BRANCH  11  16
HETATM   16  N3  UNL     1      46.492  33.017  17.406  1.00  0.00    -0.214 N 
ATOM     17  H3  UNL     1      46.502  33.388  16.456  1.00  0.00     0.210 HD
BRANCH  16  18
HETATM   18  N2  UNL     1      45.592  32.185  17.728  1.00  0.00    -0.234 N 
ATOM     19  H2  UNL     1      44.765  32.480  18.248  1.00  0.00     0.209 HD
BRANCH  18  20
HETATM   20  N1  UNL     1      45.767  30.854  17.352  1.00  0.00    -0.330 N 
ATOM     21  H12 UNL     1      45.163  30.129  17.740  1.00  0.00     0.178 HD
ATOM     22  H11 UNL     1      46.510  30.638  16.687  1.00  0.00     0.178 HD
ENDBRANCH  18  20
ENDBRANCH  16  18
ENDBRANCH  11  16
BRANCH  12  23
HETATM   23  N12 UNL     1      49.306  34.067  20.232  1.00  0.00    -0.331 N 
ATOM     24 2H12 UNL     1      49.930  34.569  20.863  1.00  0.00     0.177 HD
ATOM     25 1H12 UNL     1      48.458  33.626  20.588  1.00  0.00     0.177 HD
ENDBRANCH  12  23
ENDBRANCH   1   9
BRANCH   8  26
HETATM   26  N10 UNL     1      51.690  32.384  16.944  1.00  0.00    -0.322 N 
ATOM     27 2H10 UNL     1      51.365  32.977  17.707  1.00  0.00     0.178 HD
ATOM     28 1H10 UNL     1      52.690  32.316  16.759  1.00  0.00     0.178 HD
ENDBRANCH   8  26
BRANCH   7  29
HETATM   29  N7  UNL     1      52.410  30.121  15.819  1.00  0.00    -0.264 N 
HETATM   30  N8  UNL     1      52.833  29.516  16.850  1.00  0.00    -0.208 N 
ATOM     31  H8  UNL     1      53.814  29.240  16.889  1.00  0.00     0.215 HD
ATOM     32  H7  UNL     1      53.072  30.307  15.066  1.00  0.00     0.190 HD
BRANCH  30  33
HETATM   33  O2  UNL     1      52.019  29.218  17.918  1.00  0.00    -0.274 OA
ATOM     34  H2  UNL     1      52.361  28.924  18.753  1.00  0.00     0.246 HD
ENDBRANCH  30  33
ENDBRANCH   7  29
TORSDOF 8
ENDMDL
MODEL 5
REMARK VINA RESULT: -7.385381249      2.640      5.729
REMARK  8 active torsions:
REMARK  status: ('A' for Active; 'I' for Inactive)
REMARK    1  A    between atoms: N1_1  and  N2_4 
REMARK    2  A    between atoms: N2_4  and  N3_6 
REMARK    3  A    between atoms: N3_6  and  N4_8 
REMARK       I    between atoms: N4_8  and  C1_10 
REMARK       I    between atoms: C1_10  and  N5_11 
REMARK       I    between atoms: C1_10  and  N11_30 
REMARK    4  A    between atoms: N5_11  and  C2_13 
REMARK    5  A    between atoms: C5_19  and  N7_20 
REMARK    6  A    between atoms: N8_22  and  O2_24 
REMARK    7  A    between atoms: N9_26  and  N10_27 
REMARK    8  A    between atoms: N11_30  and  N12_32 
ROOT
HETATM    1  C2  UNL     1      49.135  31.505  16.289  1.00  0.00     0.722 A 
HETATM    2  N6  UNL     1      48.898  32.406  17.318  1.00  0.00    -0.154 N 
ATOM      3  H6  UNL     1      47.950  32.755  17.459  1.00  0.00     0.187 HD
HETATM    4  C3  UNL     1      49.862  32.830  18.126  1.00  0.00     0.263 A 
HETATM    5  O1  UNL     1      49.619  33.645  19.046  1.00  0.00    -0.268 OA
HETATM    6  C4  UNL     1      51.150  32.365  17.942  1.00  0.00     0.127 A 
HETATM    7  C5  UNL     1      51.379  31.472  16.920  1.00  0.00     0.166 A 
HETATM    8  N9  UNL     1      50.373  31.043  16.096  1.00  0.00    -0.074 N 
ENDROOT
BRANCH   1   9
HETATM    9  N5  UNL     1      48.171  31.158  15.574  1.00  0.00    -0.018 N 
HETATM   10  C1  UNL     1      47.140  31.885  15.028  1.00  0.00     0.726 C 
HETATM   11  N4  UNL     1      46.001  31.979  15.660  1.00  0.00    -0.115 N 
HETATM   12  N11 UNL     1      47.199  32.560  13.759  1.00  0.00    -0.137 N 
ATOM     13  H4  UNL     1      45.232  32.517  15.261  1.00  0.00     0.207 HD
ATOM     14  H11 UNL     1      47.972  32.361  13.123  1.00  0.00     0.205 HD
ATOM     15  H5  UNL     1      48.146  30.161  15.357  1.00  0.00     0.203 HD
BRANCH  11  16
HETATM   16  N3  UNL     1      45.851  31.334  16.886  1.00  0.00    -0.214 N 
ATOM     17  H3  UNL     1      46.173  30.371  16.979  1.00  0.00     0.210 HD
BRANCH  16  18
HETATM   18  N2  UNL     1      45.329  31.905  17.890  1.00  0.00    -0.234 N 
ATOM     19  H2  UNL     1      45.787  32.696  18.342  1.00  0.00     0.209 HD
BRANCH  18  20
HETATM   20  N1  UNL     1      44.109  31.418  18.357  1.00  0.00    -0.330 N 
ATOM     21  H12 UNL     1      43.506  30.872  17.741  1.00  0.00     0.178 HD
ATOM     22  H11 UNL     1      43.849  31.626  19.322  1.00  0.00     0.178 HD
ENDBRANCH  18  20
ENDBRANCH  16  18
ENDBRANCH  11  16
BRANCH  12  23
HETATM   23  N12 UNL     1      46.227  33.476  13.382  1.00  0.00    -0.331 N 
ATOM     24 2H12 UNL     1      45.262  33.298  13.659  1.00  0.00     0.177 HD
ATOM     25 1H12 UNL     1      46.464  34.309  12.842  1.00  0.00     0.177 HD
ENDBRANCH  12  23
ENDBRANCH   1   9
BRANCH   8  26
HETATM   26  N10 UNL     1      50.749  30.149  15.115  1.00  0.00    -0.322 N 
ATOM     27 2H10 UNL     1      51.742  30.143  14.884  1.00  0.00     0.178 HD
ATOM     28 1H10 UNL     1      50.122  29.514  14.622  1.00  0.00     0.178 HD
ENDBRANCH   8  26
BRANCH   7  29
HETATM   29  N7  UNL     1      52.679  30.971  16.698  1.00  0.00    -0.264 N 
HETATM   30  N8  UNL     1      53.617  31.650  16.184  1.00  0.00    -0.208 N 
ATOM     31  H8  UNL     1      54.529  31.211  16.058  1.00  0.00     0.215 HD
ATOM     32  H7  UNL     1      52.875  30.007  16.967  1.00  0.00     0.190 HD
BRANCH  30  33
HETATM   33  O2  UNL     1      53.452  32.957  15.789  1.00  0.00    -0.274 OA
ATOM     34  H2  UNL     1      52.666  33.453  15.983  1.00  0.00     0.246 HD
ENDBRANCH  30  33
ENDBRANCH   7  29
TORSDOF 8
ENDMDL
