MODEL 1
REMARK VINA RESULT: -7.447421212      0.000      0.000
REMARK  7 active torsions:
REMARK  status: ('A' for Active; 'I' for Inactive)
REMARK    1  A    between atoms: C2_2  and  C3_3 
REMARK    2  A    between atoms: C2_2  and  N2_8 
REMARK    3  A    between atoms: C3_3  and  N1_4 
REMARK    4  A    between atoms: C5_16  and  N6_17 
REMARK    5  A    between atoms: C6_22  and  N8_23 
REMARK    6  A    between atoms: N8_23  and  N9_25 
REMARK    7  A    between atoms: N10_30  and  N11_32 
ROOT
HETATM    1  N2  UNL     1      50.848  31.498  16.420  1.00  0.00    -0.254 N 
HETATM    2  N3  UNL     1      51.017  30.694  15.351  1.00  0.00    -0.237 N 
ATOM      3  H3  UNL     1      51.960  30.357  15.159  1.00  0.00     0.208 HD
HETATM    4  N4  UNL     1      50.058  30.313  14.538  1.00  0.00    -0.269 N 
ATOM      5  H4  UNL     1      50.288  29.703  13.754  1.00  0.00     0.190 HD
HETATM    6  C4  UNL     1      48.784  30.702  14.710  1.00  0.00     0.154 A 
HETATM    7  N5  UNL     1      47.823  30.286  13.850  1.00  0.00    -0.174 N 
ATOM      8  H5  UNL     1      48.026  29.675  13.058  1.00  0.00     0.186 HD
HETATM    9  C5  UNL     1      46.581  30.736  14.112  1.00  0.00     0.679 A 
HETATM   10  N7  UNL     1      46.297  31.538  15.147  1.00  0.00    -0.174 N 
ATOM     11  H7  UNL     1      45.334  31.843  15.292  1.00  0.00     0.186 HD
HETATM   12  C6  UNL     1      47.256  31.952  16.003  1.00  0.00     0.153 A 
HETATM   13  C7  UNL     1      48.537  31.515  15.769  1.00  0.00     0.102 A 
HETATM   14  C8  UNL     1      49.584  31.920  16.638  1.00  0.00     0.156 A 
HETATM   15  N10 UNL     1      49.324  32.644  17.563  1.00  0.00    -0.290 N 
ATOM     16  H10 UNL     1      48.319  32.757  17.426  1.00  0.00     0.188 HD
ENDROOT
BRANCH   1  17
HETATM   17  C2  UNL     1      52.014  31.781  17.155  1.00  0.00     0.133 C 
HETATM   18  C1  UNL     1      53.286  32.118  16.526  1.00  0.00     0.036 C 
BRANCH  17  19
HETATM   19  C3  UNL     1      52.229  30.678  18.185  1.00  0.00     0.256 C 
BRANCH  19  20
HETATM   20  N1  UNL     1      52.761  29.477  17.549  1.00  0.00    -0.077 N 
ATOM     21  H13 UNL     1      52.780  29.564  16.533  1.00  0.00     0.274 HD
ATOM     22  H12 UNL     1      53.762  29.373  17.712  1.00  0.00     0.274 HD
ATOM     23  H11 UNL     1      52.241  28.652  17.849  1.00  0.00     0.274 HD
ENDBRANCH  19  20
ENDBRANCH  17  19
ENDBRANCH   1  17
BRANCH  15  24
HETATM   24  N11 UNL     1      49.494  33.369  18.615  1.00  0.00    -0.344 N 
ATOM     25 2H11 UNL     1      50.486  33.170  18.745  1.00  0.00     0.176 HD
ATOM     26 1H11 UNL     1      49.278  34.001  19.385  1.00  0.00     0.176 HD
ENDBRANCH  15  24
BRANCH  12  27
HETATM   27  N8  UNL     1      46.982  32.724  16.999  1.00  0.00    -0.291 N 
ATOM     28  H8  UNL     1      47.600  33.496  17.249  1.00  0.00     0.188 HD
BRANCH  27  29
HETATM   29  N9  UNL     1      45.828  32.478  17.720  1.00  0.00    -0.344 N 
ATOM     30  H92 UNL     1      45.375  31.566  17.658  1.00  0.00     0.176 HD
ATOM     31  H91 UNL     1      45.455  33.226  18.305  1.00  0.00     0.176 HD
ENDBRANCH  27  29
ENDBRANCH  12  27
BRANCH   9  32
HETATM   32  N6  UNL     1      45.656  30.336  13.285  1.00  0.00    -0.234 N 
ATOM     33  H62 UNL     1      45.056  29.539  13.501  1.00  0.00     0.174 HD
ATOM     34  H61 UNL     1      45.581  30.872  12.421  1.00  0.00     0.174 HD
ENDBRANCH   9  32
TORSDOF 7
ENDMDL
MODEL 2
REMARK VINA RESULT: -7.245655089      1.382      5.002
REMARK  7 active torsions:
REMARK  status: ('A' for Active; 'I' for Inactive)
REMARK    1  A    between atoms: C2_2  and  C3_3 
REMARK    2  A    between atoms: C2_2  and  N2_8 
REMARK    3  A    between atoms: C3_3  and  N1_4 
REMARK    4  A    between atoms: C5_16  and  N6_17 
REMARK    5  A    between atoms: C6_22  and  N8_23 
REMARK    6  A    between atoms: N8_23  and  N9_25 
REMARK    7  A    between atoms: N10_30  and  N11_32 
ROOT
HETATM    1  N2  UNL     1      47.947  30.660  15.389  1.00  0.00    -0.254 N 
HETATM    2  N3  UNL     1      48.811  29.967  14.621  1.00  0.00    -0.237 N 
ATOM      3  H3  UNL     1      48.423  29.269  13.987  1.00  0.00     0.208 HD
HETATM    4  N4  UNL     1      50.115  30.123  14.628  1.00  0.00    -0.269 N 
ATOM      5  H4  UNL     1      50.686  29.547  14.009  1.00  0.00     0.190 HD
HETATM    6  C4  UNL     1      50.719  31.019  15.426  1.00  0.00     0.154 A 
HETATM    7  N5  UNL     1      52.068  31.151  15.404  1.00  0.00    -0.174 N 
ATOM      8  H5  UNL     1      52.661  30.588  14.793  1.00  0.00     0.186 HD
HETATM    9  C5  UNL     1      52.571  32.076  16.243  1.00  0.00     0.679 A 
HETATM   10  N7  UNL     1      51.806  32.823  17.051  1.00  0.00    -0.174 N 
ATOM     11  H7  UNL     1      52.249  33.508  17.664  1.00  0.00     0.186 HD
HETATM   12  C6  UNL     1      50.462  32.690  17.072  1.00  0.00     0.153 A 
HETATM   13  C7  UNL     1      49.911  31.756  16.230  1.00  0.00     0.102 A 
HETATM   14  C8  UNL     1      48.503  31.575  16.213  1.00  0.00     0.156 A 
HETATM   15  N10 UNL     1      47.822  32.245  16.943  1.00  0.00    -0.290 N 
ATOM     16  H10 UNL     1      48.544  32.802  17.402  1.00  0.00     0.188 HD
ENDROOT
BRANCH   1  17
HETATM   17  C2  UNL     1      46.589  30.330  15.222  1.00  0.00     0.133 C 
HETATM   18  C1  UNL     1      46.069  28.983  15.424  1.00  0.00     0.036 C 
BRANCH  17  19
HETATM   19  C3  UNL     1      46.113  30.866  13.877  1.00  0.00     0.256 C 
BRANCH  19  20
HETATM   20  N1  UNL     1      46.068  32.325  13.891  1.00  0.00    -0.077 N 
ATOM     21  H13 UNL     1      45.689  32.683  14.768  1.00  0.00     0.274 HD
ATOM     22  H12 UNL     1      47.001  32.733  13.951  1.00  0.00     0.274 HD
ATOM     23  H11 UNL     1      45.552  32.677  13.084  1.00  0.00     0.274 HD
ENDBRANCH  19  20
ENDBRANCH  17  19
ENDBRANCH   1  17
BRANCH  15  24
HETATM   24  N11 UNL     1      46.770  32.715  17.521  1.00  0.00    -0.344 N 
ATOM     25 2H11 UNL     1      47.181  32.842  18.446  1.00  0.00     0.176 HD
ATOM     26 1H11 UNL     1      45.809  33.035  17.644  1.00  0.00     0.176 HD
ENDBRANCH  15  24
BRANCH  12  27
HETATM   27  N8  UNL     1      49.727  33.409  17.850  1.00  0.00    -0.291 N 
ATOM     28  H8  UNL     1      49.037  34.056  17.468  1.00  0.00     0.188 HD
BRANCH  27  29
HETATM   29  N9  UNL     1      49.899  33.283  19.216  1.00  0.00    -0.344 N 
ATOM     30  H92 UNL     1      50.821  33.067  19.594  1.00  0.00     0.176 HD
ATOM     31  H91 UNL     1      49.086  33.411  19.819  1.00  0.00     0.176 HD
ENDBRANCH  27  29
ENDBRANCH  12  27
BRANCH   9  32
HETATM   32  N6  UNL     1      53.868  32.204  16.222  1.00  0.00    -0.234 N 
ATOM     33  H62 UNL     1      54.420  32.181  17.080  1.00  0.00     0.174 HD
ATOM     34  H61 UNL     1      54.280  32.328  15.298  1.00  0.00     0.174 HD
ENDBRANCH   9  32
TORSDOF 7
ENDMDL
MODEL 3
REMARK VINA RESULT: -6.463678104      0.972      1.347
REMARK  7 active torsions:
REMARK  status: ('A' for Active; 'I' for Inactive)
REMARK    1  A    between atoms: C2_2  and  C3_3 
REMARK    2  A    between atoms: C2_2  and  N2_8 
REMARK    3  A    between atoms: C3_3  and  N1_4 
REMARK    4  A    between atoms: C5_16  and  N6_17 
REMARK    5  A    between atoms: C6_22  and  N8_23 
REMARK    6  A    between atoms: N8_23  and  N9_25 
REMARK    7  A    between atoms: N10_30  and  N11_32 
ROOT
HETATM    1  N2  UNL     1      50.940  30.727  16.284  1.00  0.00    -0.254 N 
HETATM    2  N3  UNL     1      50.812  30.045  15.130  1.00  0.00    -0.237 N 
ATOM      3  H3  UNL     1      51.598  29.466  14.834  1.00  0.00     0.208 HD
HETATM    4  N4  UNL     1      49.751  30.067  14.357  1.00  0.00    -0.269 N 
ATOM      5  H4  UNL     1      49.751  29.516  13.499  1.00  0.00     0.190 HD
HETATM    6  C4  UNL     1      48.665  30.796  14.663  1.00  0.00     0.154 A 
HETATM    7  N5  UNL     1      47.588  30.793  13.839  1.00  0.00    -0.174 N 
ATOM      8  H5  UNL     1      47.563  30.249  12.976  1.00  0.00     0.186 HD
HETATM    9  C5  UNL     1      46.554  31.558  14.238  1.00  0.00     0.679 A 
HETATM   10  N7  UNL     1      46.571  32.279  15.368  1.00  0.00    -0.174 N 
ATOM     11  H7  UNL     1      45.754  32.838  15.615  1.00  0.00     0.186 HD
HETATM   12  C6  UNL     1      47.645  32.281  16.188  1.00  0.00     0.153 A 
HETATM   13  C7  UNL     1      48.720  31.512  15.814  1.00  0.00     0.102 A 
HETATM   14  C8  UNL     1      49.876  31.479  16.639  1.00  0.00     0.156 A 
HETATM   15  N10 UNL     1      49.886  32.130  17.650  1.00  0.00    -0.290 N 
ATOM     16  H10 UNL     1      48.959  32.554  17.601  1.00  0.00     0.188 HD
ENDROOT
BRANCH   1  17
HETATM   17  C2  UNL     1      52.166  30.558  16.955  1.00  0.00     0.133 C 
HETATM   18  C1  UNL     1      52.280  29.870  18.236  1.00  0.00     0.036 C 
BRANCH  17  19
HETATM   19  C3  UNL     1      52.877  31.904  17.031  1.00  0.00     0.256 C 
BRANCH  19  20
HETATM   20  N1  UNL     1      53.186  32.399  15.693  1.00  0.00    -0.077 N 
ATOM     21  H13 UNL     1      52.928  31.725  14.972  1.00  0.00     0.274 HD
ATOM     22  H12 UNL     1      52.567  33.161  15.418  1.00  0.00     0.274 HD
ATOM     23  H11 UNL     1      54.168  32.667  15.627  1.00  0.00     0.274 HD
ENDBRANCH  19  20
ENDBRANCH  17  19
ENDBRANCH   1  17
BRANCH  15  24
HETATM   24  N11 UNL     1      50.313  32.639  18.755  1.00  0.00    -0.344 N 
ATOM     25 2H11 UNL     1      50.127  31.829  19.346  1.00  0.00     0.176 HD
ATOM     26 1H11 UNL     1      50.709  33.318  19.405  1.00  0.00     0.176 HD
ENDBRANCH  15  24
BRANCH  12  27
HETATM   27  N8  UNL     1      47.660  32.974  17.275  1.00  0.00    -0.291 N 
ATOM     28  H8  UNL     1      48.528  33.382  17.623  1.00  0.00     0.188 HD
BRANCH  27  29
HETATM   29  N9  UNL     1      46.471  33.149  17.956  1.00  0.00    -0.344 N 
ATOM     30  H92 UNL     1      45.630  32.661  17.646  1.00  0.00     0.176 HD
ATOM     31  H91 UNL     1      46.464  33.772  18.764  1.00  0.00     0.176 HD
ENDBRANCH  27  29
ENDBRANCH  12  27
BRANCH   9  32
HETATM   32  N6  UNL     1      45.519  31.556  13.447  1.00  0.00    -0.234 N 
ATOM     33  H62 UNL     1      45.615  31.702  12.442  1.00  0.00     0.174 HD
ATOM     34  H61 UNL     1      44.620  31.401  13.904  1.00  0.00     0.174 HD
ENDBRANCH   9  32
TORSDOF 7
ENDMDL
MODEL 4
REMARK VINA RESULT: -5.902419839      1.533      4.846
REMARK  7 active torsions:
REMARK  status: ('A' for Active; 'I' for Inactive)
REMARK    1  A    between atoms: C2_2  and  C3_3 
REMARK    2  A    between atoms: C2_2  and  N2_8 
REMARK    3  A    between atoms: C3_3  and  N1_4 
REMARK    4  A    between atoms: C5_16  and  N6_17 
REMARK    5  A    between atoms: C6_22  and  N8_23 
REMARK    6  A    between atoms: N8_23  and  N9_25 
REMARK    7  A    between atoms: N10_30  and  N11_32 
ROOT
HETATM    1  N2  UNL     1      48.013  30.675  15.281  1.00  0.00    -0.254 N 
HETATM    2  N3  UNL     1      48.887  29.943  14.562  1.00  0.00    -0.237 N 
ATOM      3  H3  UNL     1      48.505  29.243  13.927  1.00  0.00     0.208 HD
HETATM    4  N4  UNL     1      50.194  30.064  14.618  1.00  0.00    -0.269 N 
ATOM      5  H4  UNL     1      50.772  29.460  14.034  1.00  0.00     0.190 HD
HETATM    6  C4  UNL     1      50.791  30.959  15.422  1.00  0.00     0.154 A 
HETATM    7  N5  UNL     1      52.143  31.054  15.451  1.00  0.00    -0.174 N 
ATOM      8  H5  UNL     1      52.743  30.463  14.875  1.00  0.00     0.186 HD
HETATM    9  C5  UNL     1      52.638  31.981  16.291  1.00  0.00     0.679 A 
HETATM   10  N7  UNL     1      51.863  32.766  17.054  1.00  0.00    -0.174 N 
ATOM     11  H7  UNL     1      52.301  33.451  17.670  1.00  0.00     0.186 HD
HETATM   12  C6  UNL     1      50.516  32.670  17.024  1.00  0.00     0.153 A 
HETATM   13  C7  UNL     1      49.973  31.734  16.178  1.00  0.00     0.102 A 
HETATM   14  C8  UNL     1      48.561  31.591  16.108  1.00  0.00     0.156 A 
HETATM   15  N10 UNL     1      47.872  32.295  16.798  1.00  0.00    -0.290 N 
ATOM     16  H10 UNL     1      48.590  32.841  17.274  1.00  0.00     0.188 HD
ENDROOT
BRANCH   1  17
HETATM   17  C2  UNL     1      46.654  30.379  15.066  1.00  0.00     0.133 C 
HETATM   18  C1  UNL     1      45.777  31.222  14.261  1.00  0.00     0.036 C 
BRANCH  17  19
HETATM   19  C3  UNL     1      45.994  30.087  16.408  1.00  0.00     0.256 C 
BRANCH  19  20
HETATM   20  N1  UNL     1      45.899  28.648  16.632  1.00  0.00    -0.077 N 
ATOM     21  H13 UNL     1      44.949  28.305  16.490  1.00  0.00     0.274 HD
ATOM     22  H12 UNL     1      46.364  28.118  15.894  1.00  0.00     0.274 HD
ATOM     23  H11 UNL     1      46.256  28.404  17.555  1.00  0.00     0.274 HD
ENDBRANCH  19  20
ENDBRANCH  17  19
ENDBRANCH   1  17
BRANCH  15  24
HETATM   24  N11 UNL     1      46.811  32.805  17.324  1.00  0.00    -0.344 N 
ATOM     25 2H11 UNL     1      46.371  31.926  17.595  1.00  0.00     0.176 HD
ATOM     26 1H11 UNL     1      46.143  33.509  17.636  1.00  0.00     0.176 HD
ENDBRANCH  15  24
BRANCH  12  27
HETATM   27  N8  UNL     1      49.772  33.425  17.757  1.00  0.00    -0.291 N 
ATOM     28  H8  UNL     1      49.129  34.095  17.335  1.00  0.00     0.188 HD
BRANCH  27  29
HETATM   29  N9  UNL     1      49.867  33.303  19.131  1.00  0.00    -0.344 N 
ATOM     30  H92 UNL     1      49.284  33.884  19.734  1.00  0.00     0.176 HD
ATOM     31  H91 UNL     1      50.527  32.625  19.512  1.00  0.00     0.176 HD
ENDBRANCH  27  29
ENDBRANCH  12  27
BRANCH   9  32
HETATM   32  N6  UNL     1      53.938  32.074  16.320  1.00  0.00    -0.234 N 
ATOM     33  H62 UNL     1      54.522  31.289  16.612  1.00  0.00     0.174 HD
ATOM     34  H61 UNL     1      54.318  32.976  16.034  1.00  0.00     0.174 HD
ENDBRANCH   9  32
TORSDOF 7
ENDMDL
MODEL 5
REMARK VINA RESULT: -5.650281257      1.713      5.446
REMARK  7 active torsions:
REMARK  status: ('A' for Active; 'I' for Inactive)
REMARK    1  A    between atoms: C2_2  and  C3_3 
REMARK    2  A    between atoms: C2_2  and  N2_8 
REMARK    3  A    between atoms: C3_3  and  N1_4 
REMARK    4  A    between atoms: C5_16  and  N6_17 
REMARK    5  A    between atoms: C6_22  and  N8_23 
REMARK    6  A    between atoms: N8_23  and  N9_25 
REMARK    7  A    between atoms: N10_30  and  N11_32 
ROOT
HETATM    1  N2  UNL     1      47.516  31.301  15.406  1.00  0.00    -0.254 N 
HETATM    2  N3  UNL     1      46.545  32.034  15.985  1.00  0.00    -0.237 N 
ATOM      3  H3  UNL     1      45.611  31.985  15.579  1.00  0.00     0.208 HD
HETATM    4  N4  UNL     1      46.711  32.807  17.034  1.00  0.00    -0.269 N 
ATOM      5  H4  UNL     1      45.911  33.325  17.399  1.00  0.00     0.190 HD
HETATM    6  C4  UNL     1      47.903  32.935  17.641  1.00  0.00     0.154 A 
HETATM    7  N5  UNL     1      48.033  33.742  18.722  1.00  0.00    -0.174 N 
ATOM      8  H5  UNL     1      47.249  34.270  19.107  1.00  0.00     0.186 HD
HETATM    9  C5  UNL     1      49.269  33.800  19.253  1.00  0.00     0.679 A 
HETATM   10  N7  UNL     1      50.310  33.113  18.760  1.00  0.00    -0.174 N 
ATOM     11  H7  UNL     1      51.222  33.200  19.209  1.00  0.00     0.186 HD
HETATM   12  C6  UNL     1      50.177  32.310  17.682  1.00  0.00     0.153 A 
HETATM   13  C7  UNL     1      48.931  32.225  17.112  1.00  0.00     0.102 A 
HETATM   14  C8  UNL     1      48.737  31.394  15.976  1.00  0.00     0.156 A 
HETATM   15  N10 UNL     1      49.675  30.784  15.536  1.00  0.00    -0.290 N 
ATOM     16  H10 UNL     1      50.404  31.081  16.186  1.00  0.00     0.188 HD
ENDROOT
BRANCH   1  17
HETATM   17  C2  UNL     1      47.118  30.543  14.289  1.00  0.00     0.133 C 
HETATM   18  C1  UNL     1      46.016  30.933  13.418  1.00  0.00     0.036 C 
BRANCH  17  19
HETATM   19  C3  UNL     1      46.946  29.090  14.714  1.00  0.00     0.256 C 
BRANCH  19  20
HETATM   20  N1  UNL     1      46.122  29.000  15.915  1.00  0.00    -0.077 N 
ATOM     21  H13 UNL     1      46.660  29.198  16.759  1.00  0.00     0.274 HD
ATOM     22  H12 UNL     1      45.455  29.769  15.976  1.00  0.00     0.274 HD
ATOM     23  H11 UNL     1      45.659  28.093  15.966  1.00  0.00     0.274 HD
ENDBRANCH  19  20
ENDBRANCH  17  19
ENDBRANCH   1  17
BRANCH  15  24
HETATM   24  N11 UNL     1      50.354  29.997  14.774  1.00  0.00    -0.344 N 
ATOM     25 2H11 UNL     1      50.907  29.557  15.510  1.00  0.00     0.176 HD
ATOM     26 1H11 UNL     1      50.687  29.542  13.924  1.00  0.00     0.176 HD
ENDBRANCH  15  24
BRANCH  12  27
HETATM   27  N8  UNL     1      51.179  31.650  17.209  1.00  0.00    -0.291 N 
ATOM     28  H8  UNL     1      51.049  30.725  16.799  1.00  0.00     0.188 HD
BRANCH  27  29
HETATM   29  N9  UNL     1      52.433  32.227  17.272  1.00  0.00    -0.344 N 
ATOM     30  H92 UNL     1      53.203  31.829  16.735  1.00  0.00     0.176 HD
ATOM     31  H91 UNL     1      52.558  33.049  17.864  1.00  0.00     0.176 HD
ENDBRANCH  27  29
ENDBRANCH  12  27
BRANCH   9  32
HETATM   32  N6  UNL     1      49.396  34.576  20.292  1.00  0.00    -0.234 N 
ATOM     33  H62 UNL     1      49.858  34.255  21.144  1.00  0.00     0.174 HD
ATOM     34  H61 UNL     1      49.003  35.511  20.190  1.00  0.00     0.174 HD
ENDBRANCH   9  32
TORSDOF 7
ENDMDL
