MODEL 1
REMARK VINA RESULT: -7.198930344      0.000      0.000
REMARK  5 active torsions:
REMARK  status: ('A' for Active; 'I' for Inactive)
REMARK    1  A    between atoms: C2_3  and  C3_4 
REMARK    2  A    between atoms: C2_3  and  C9_28 
REMARK    3  A    between atoms: C5_10  and  N4_11 
REMARK       I    between atoms: N4_11  and  C6_13 
REMARK       I    between atoms: C6_13  and  N5_14 
REMARK       I    between atoms: C6_13  and  N6_18 
REMARK    4  A    between atoms: C9_28  and  N9_29 
REMARK    5  A    between atoms: C9_28  and  N10_33 
ROOT
HETATM    1  N1  UNL     1      54.025  33.030  15.778  1.00  0.00    -0.196 NA
HETATM    2  C1  UNL     1      53.258  32.173  15.698  1.00  0.00     0.074 C 
HETATM    3  C2  UNL     1      52.280  31.110  15.582  1.00  0.00     0.204 C 
ENDROOT
BRANCH   3   4
HETATM    4  C3  UNL     1      50.928  31.550  15.999  1.00  0.00     0.076 A 
HETATM    5  N2  UNL     1      50.530  32.433  16.909  1.00  0.00    -0.300 N 
HETATM    6  N3  UNL     1      49.211  32.514  16.954  1.00  0.00    -0.295 N 
ATOM      7  H2  UNL     1      51.162  32.978  17.496  1.00  0.00     0.186 HD
HETATM    8  C4  UNL     1      48.711  31.660  16.049  1.00  0.00     0.121 A 
ATOM      9  H3  UNL     1      48.668  33.120  17.570  1.00  0.00     0.187 HD
HETATM   10  C5  UNL     1      47.420  31.309  15.643  1.00  0.00     0.136 A 
HETATM   11  C8  UNL     1      49.765  31.040  15.433  1.00  0.00     0.091 A 
HETATM   12  N7  UNL     1      47.292  30.399  14.687  1.00  0.00    -0.337 N 
HETATM   13  C7  UNL     1      48.330  29.790  14.081  1.00  0.00     0.182 A 
ATOM     14  H7  UNL     1      46.349  30.144  14.392  1.00  0.00     0.168 HD
HETATM   15  N8  UNL     1      49.572  30.120  14.465  1.00  0.00    -0.349 N 
ATOM     16  H8  UNL     1      50.375  29.673  14.022  1.00  0.00     0.167 HD
BRANCH  10  17
HETATM   17  N4  UNL     1      46.447  31.891  16.224  1.00  0.00    -0.325 N 
HETATM   18  C6  UNL     1      46.094  31.796  17.591  1.00  0.00     0.481 C 
HETATM   19  N5  UNL     1      45.568  33.034  18.141  1.00  0.00    -0.033 N 
HETATM   20  N6  UNL     1      45.087  30.783  17.859  1.00  0.00    -0.033 N 
ATOM     21  H53 UNL     1      46.222  33.803  17.990  1.00  0.00     0.278 HD
ATOM     22  H52 UNL     1      44.780  33.370  17.587  1.00  0.00     0.278 HD
ATOM     23  H51 UNL     1      45.314  32.965  19.127  1.00  0.00     0.278 HD
ATOM     24  H63 UNL     1      44.261  30.935  17.282  1.00  0.00     0.278 HD
ATOM     25  H62 UNL     1      45.383  29.876  17.498  1.00  0.00     0.278 HD
ATOM     26  H61 UNL     1      44.833  30.714  18.844  1.00  0.00     0.278 HD
ATOM     27  H4  UNL     1      45.861  32.491  15.643  1.00  0.00     0.165 HD
ENDBRANCH  10  17
ENDBRANCH   3   4
BRANCH   3  28
HETATM   28  C9  UNL     1      52.737  29.893  16.334  1.00  0.00     0.401 C 
BRANCH  28  29
HETATM   29  N9  UNL     1      52.188  29.991  17.678  1.00  0.00    -0.049 N 
ATOM     30  H93 UNL     1      51.893  30.936  17.922  1.00  0.00     0.276 HD
ATOM     31  H92 UNL     1      51.277  29.542  17.772  1.00  0.00     0.276 HD
ATOM     32  H91 UNL     1      52.888  29.612  18.315  1.00  0.00     0.276 HD
ENDBRANCH  28  29
BRANCH  28  33
HETATM   33  N10 UNL     1      52.157  28.673  15.751  1.00  0.00    -0.049 N 
ATOM     34 3H10 UNL     1      51.142  28.737  15.673  1.00  0.00     0.276 HD
ATOM     35 2H10 UNL     1      52.382  28.584  14.760  1.00  0.00     0.276 HD
ATOM     36 1H10 UNL     1      52.443  27.848  16.279  1.00  0.00     0.276 HD
ENDBRANCH  28  33
ENDBRANCH   3  28
TORSDOF 5
ENDMDL
MODEL 2
REMARK VINA RESULT: -7.105001951      1.061      2.203
REMARK  5 active torsions:
REMARK  status: ('A' for Active; 'I' for Inactive)
REMARK    1  A    between atoms: C2_3  and  C3_4 
REMARK    2  A    between atoms: C2_3  and  C9_28 
REMARK    3  A    between atoms: C5_10  and  N4_11 
REMARK       I    between atoms: N4_11  and  C6_13 
REMARK       I    between atoms: C6_13  and  N5_14 
REMARK       I    between atoms: C6_13  and  N6_18 
REMARK    4  A    between atoms: C9_28  and  N9_29 
REMARK    5  A    between atoms: C9_28  and  N10_33 
ROOT
HETATM    1  N1  UNL     1      53.424  33.117  16.167  1.00  0.00    -0.196 NA
HETATM    2  C1  UNL     1      52.918  32.138  15.827  1.00  0.00     0.074 C 
HETATM    3  C2  UNL     1      52.268  30.922  15.382  1.00  0.00     0.204 C 
ENDROOT
BRANCH   3   4
HETATM    4  C3  UNL     1      50.791  31.017  15.465  1.00  0.00     0.076 A 
HETATM    5  N2  UNL     1      49.830  30.424  14.766  1.00  0.00    -0.300 N 
HETATM    6  N3  UNL     1      48.632  30.804  15.179  1.00  0.00    -0.295 N 
ATOM      7  H2  UNL     1      49.995  29.762  14.008  1.00  0.00     0.186 HD
HETATM    8  C4  UNL     1      48.797  31.677  16.184  1.00  0.00     0.121 A 
ATOM      9  H3  UNL     1      47.739  30.489  14.799  1.00  0.00     0.187 HD
HETATM   10  C5  UNL     1      47.926  32.403  17.003  1.00  0.00     0.136 A 
HETATM   11  C8  UNL     1      50.143  31.830  16.387  1.00  0.00     0.091 A 
HETATM   12  N7  UNL     1      48.453  33.195  17.926  1.00  0.00    -0.337 N 
HETATM   13  C7  UNL     1      49.778  33.346  18.126  1.00  0.00     0.182 A 
ATOM     14  H7  UNL     1      47.816  33.724  18.523  1.00  0.00     0.168 HD
HETATM   15  N8  UNL     1      50.619  32.654  17.345  1.00  0.00    -0.349 N 
ATOM     16  H8  UNL     1      51.627  32.750  17.475  1.00  0.00     0.167 HD
BRANCH  10  17
HETATM   17  N4  UNL     1      46.677  32.252  16.803  1.00  0.00    -0.325 N 
HETATM   18  C6  UNL     1      45.747  31.628  17.668  1.00  0.00     0.481 C 
HETATM   19  N5  UNL     1      44.432  32.248  17.649  1.00  0.00    -0.033 N 
HETATM   20  N6  UNL     1      45.528  30.224  17.365  1.00  0.00    -0.033 N 
ATOM     21  H53 UNL     1      44.501  33.245  17.852  1.00  0.00     0.278 HD
ATOM     22  H52 UNL     1      44.067  32.292  16.698  1.00  0.00     0.278 HD
ATOM     23  H51 UNL     1      43.762  31.797  18.272  1.00  0.00     0.278 HD
ATOM     24  H63 UNL     1      45.254  30.103  16.391  1.00  0.00     0.278 HD
ATOM     25  H62 UNL     1      46.412  29.715  17.357  1.00  0.00     0.278 HD
ATOM     26  H61 UNL     1      44.858  29.774  17.989  1.00  0.00     0.278 HD
ATOM     27  H4  UNL     1      46.307  32.622  15.927  1.00  0.00     0.165 HD
ENDBRANCH  10  17
ENDBRANCH   3   4
BRANCH   3  28
HETATM   28  C9  UNL     1      52.802  29.737  16.134  1.00  0.00     0.401 C 
BRANCH  28  29
HETATM   29  N9  UNL     1      52.483  29.943  17.538  1.00  0.00    -0.049 N 
ATOM     30  H93 UNL     1      52.848  30.821  17.907  1.00  0.00     0.276 HD
ATOM     31  H92 UNL     1      51.495  30.134  17.701  1.00  0.00     0.276 HD
ATOM     32  H91 UNL     1      52.820  29.125  18.044  1.00  0.00     0.276 HD
ENDBRANCH  28  29
BRANCH  28  33
HETATM   33  N10 UNL     1      52.097  28.508  15.738  1.00  0.00    -0.049 N 
ATOM     34 3H10 UNL     1      52.063  27.830  16.499  1.00  0.00     0.276 HD
ATOM     35 2H10 UNL     1      51.095  28.666  15.628  1.00  0.00     0.276 HD
ATOM     36 1H10 UNL     1      52.510  28.109  14.895  1.00  0.00     0.276 HD
ENDBRANCH  28  33
ENDBRANCH   3  28
TORSDOF 5
ENDMDL
MODEL 3
REMARK VINA RESULT: -6.861774903      1.058      1.832
REMARK  5 active torsions:
REMARK  status: ('A' for Active; 'I' for Inactive)
REMARK    1  A    between atoms: C2_3  and  C3_4 
REMARK    2  A    between atoms: C2_3  and  C9_28 
REMARK    3  A    between atoms: C5_10  and  N4_11 
REMARK       I    between atoms: N4_11  and  C6_13 
REMARK       I    between atoms: C6_13  and  N5_14 
REMARK       I    between atoms: C6_13  and  N6_18 
REMARK    4  A    between atoms: C9_28  and  N9_29 
REMARK    5  A    between atoms: C9_28  and  N10_33 
ROOT
HETATM    1  N1  UNL     1      52.756  29.570  18.039  1.00  0.00    -0.196 NA
HETATM    2  C1  UNL     1      52.428  30.593  17.622  1.00  0.00     0.074 C 
HETATM    3  C2  UNL     1      52.002  31.884  17.121  1.00  0.00     0.204 C 
ENDROOT
BRANCH   3   4
HETATM    4  C3  UNL     1      50.532  32.057  17.202  1.00  0.00     0.076 A 
HETATM    5  N2  UNL     1      49.771  32.740  18.049  1.00  0.00    -0.300 N 
HETATM    6  N3  UNL     1      48.488  32.615  17.748  1.00  0.00    -0.295 N 
ATOM      7  H2  UNL     1      50.129  33.290  18.830  1.00  0.00     0.186 HD
HETATM    8  C4  UNL     1      48.390  31.826  16.669  1.00  0.00     0.121 A 
ATOM      9  H3  UNL     1      47.711  33.045  18.250  1.00  0.00     0.187 HD
HETATM   10  C5  UNL     1      47.323  31.343  15.903  1.00  0.00     0.136 A 
HETATM   11  C8  UNL     1      49.657  31.459  16.302  1.00  0.00     0.091 A 
HETATM   12  N7  UNL     1      47.602  30.561  14.870  1.00  0.00    -0.337 N 
HETATM   13  C7  UNL     1      48.849  30.201  14.509  1.00  0.00     0.182 A 
ATOM     14  H7  UNL     1      46.823  30.210  14.312  1.00  0.00     0.168 HD
HETATM   15  N8  UNL     1      49.877  30.659  15.238  1.00  0.00    -0.349 N 
ATOM     16  H8  UNL     1      50.832  30.401  14.986  1.00  0.00     0.167 HD
BRANCH  10  17
HETATM   17  N4  UNL     1      46.149  31.690  16.256  1.00  0.00    -0.325 N 
HETATM   18  C6  UNL     1      45.588  31.596  17.551  1.00  0.00     0.481 C 
HETATM   19  N5  UNL     1      44.684  32.688  17.871  1.00  0.00    -0.033 N 
HETATM   20  N6  UNL     1      44.828  30.376  17.766  1.00  0.00    -0.033 N 
ATOM     21  H53 UNL     1      45.147  33.589  17.742  1.00  0.00     0.278 HD
ATOM     22  H52 UNL     1      43.952  32.770  17.166  1.00  0.00     0.278 HD
ATOM     23  H51 UNL     1      44.280  32.621  18.805  1.00  0.00     0.278 HD
ATOM     24  H63 UNL     1      44.109  30.269  17.051  1.00  0.00     0.278 HD
ATOM     25  H62 UNL     1      45.397  29.556  17.558  1.00  0.00     0.278 HD
ATOM     26  H61 UNL     1      44.424  30.308  18.700  1.00  0.00     0.278 HD
ATOM     27  H4  UNL     1      45.550  32.077  15.526  1.00  0.00     0.165 HD
ENDBRANCH  10  17
ENDBRANCH   3   4
BRANCH   3  28
HETATM   28  C9  UNL     1      52.524  32.105  15.731  1.00  0.00     0.401 C 
BRANCH  28  29
HETATM   29  N9  UNL     1      53.733  32.906  15.851  1.00  0.00    -0.049 N 
ATOM     30  H93 UNL     1      53.663  33.810  15.384  1.00  0.00     0.276 HD
ATOM     31  H92 UNL     1      53.888  33.258  16.795  1.00  0.00     0.276 HD
ATOM     32  H91 UNL     1      54.504  32.335  15.505  1.00  0.00     0.276 HD
ENDBRANCH  28  29
BRANCH  28  33
HETATM   33  N10 UNL     1      52.943  30.832  15.123  1.00  0.00    -0.049 N 
ATOM     34 3H10 UNL     1      53.851  30.914  14.665  1.00  0.00     0.276 HD
ATOM     35 2H10 UNL     1      53.190  30.140  15.830  1.00  0.00     0.276 HD
ATOM     36 1H10 UNL     1      52.228  30.483  14.485  1.00  0.00     0.276 HD
ENDBRANCH  28  33
ENDBRANCH   3  28
TORSDOF 5
ENDMDL
MODEL 4
REMARK VINA RESULT: -6.500650564      1.402      6.015
REMARK  5 active torsions:
REMARK  status: ('A' for Active; 'I' for Inactive)
REMARK    1  A    between atoms: C2_3  and  C3_4 
REMARK    2  A    between atoms: C2_3  and  C9_28 
REMARK    3  A    between atoms: C5_10  and  N4_11 
REMARK       I    between atoms: N4_11  and  C6_13 
REMARK       I    between atoms: C6_13  and  N5_14 
REMARK       I    between atoms: C6_13  and  N6_18 
REMARK    4  A    between atoms: C9_28  and  N9_29 
REMARK    5  A    between atoms: C9_28  and  N10_33 
ROOT
HETATM    1  N1  UNL     1      45.420  28.436  17.026  1.00  0.00    -0.196 NA
HETATM    2  C1  UNL     1      45.391  29.588  17.008  1.00  0.00     0.074 C 
HETATM    3  C2  UNL     1      45.370  31.036  16.965  1.00  0.00     0.204 C 
ENDROOT
BRANCH   3   4
HETATM    4  C3  UNL     1      46.735  31.612  16.911  1.00  0.00     0.076 A 
HETATM    5  N2  UNL     1      47.299  32.604  17.591  1.00  0.00    -0.300 N 
HETATM    6  N3  UNL     1      48.555  32.788  17.217  1.00  0.00    -0.295 N 
ATOM      7  H2  UNL     1      46.826  33.151  18.310  1.00  0.00     0.186 HD
HETATM    8  C4  UNL     1      48.838  31.894  16.259  1.00  0.00     0.121 A 
ATOM      9  H3  UNL     1      49.195  33.488  17.592  1.00  0.00     0.187 HD
HETATM   10  C5  UNL     1      49.973  31.603  15.495  1.00  0.00     0.136 A 
HETATM   11  C8  UNL     1      47.714  31.140  16.045  1.00  0.00     0.091 A 
HETATM   12  N7  UNL     1      49.895  30.618  14.611  1.00  0.00    -0.337 N 
HETATM   13  C7  UNL     1      48.789  29.877  14.402  1.00  0.00     0.182 A 
ATOM     14  H7  UNL     1      50.724  30.408  14.055  1.00  0.00     0.168 HD
HETATM   15  N8  UNL     1      47.696  30.149  15.129  1.00  0.00    -0.349 N 
ATOM     16  H8  UNL     1      46.845  29.603  14.990  1.00  0.00     0.167 HD
BRANCH  10  17
HETATM   17  N4  UNL     1      51.011  32.312  15.702  1.00  0.00    -0.325 N 
HETATM   18  C6  UNL     1      52.242  31.878  16.249  1.00  0.00     0.481 C 
HETATM   19  N5  UNL     1      53.399  32.542  15.671  1.00  0.00    -0.033 N 
HETATM   20  N6  UNL     1      52.342  32.081  17.683  1.00  0.00    -0.033 N 
ATOM     21  H53 UNL     1      53.400  32.446  14.656  1.00  0.00     0.278 HD
ATOM     22  H52 UNL     1      53.308  33.556  15.747  1.00  0.00     0.278 HD
ATOM     23  H51 UNL     1      54.286  32.229  16.066  1.00  0.00     0.278 HD
ATOM     24  H63 UNL     1      52.164  33.056  17.923  1.00  0.00     0.278 HD
ATOM     25  H62 UNL     1      51.558  31.642  18.165  1.00  0.00     0.278 HD
ATOM     26  H61 UNL     1      53.229  31.767  18.078  1.00  0.00     0.278 HD
ATOM     27  H4  UNL     1      50.949  33.298  15.446  1.00  0.00     0.165 HD
ENDBRANCH  10  17
ENDBRANCH   3   4
BRANCH   3  28
HETATM   28  C9  UNL     1      44.569  31.583  18.111  1.00  0.00     0.401 C 
BRANCH  28  29
HETATM   29  N9  UNL     1      43.654  32.571  17.558  1.00  0.00    -0.049 N 
ATOM     30  H93 UNL     1      43.629  33.438  18.095  1.00  0.00     0.276 HD
ATOM     31  H92 UNL     1      43.980  32.971  16.679  1.00  0.00     0.276 HD
ATOM     32  H91 UNL     1      42.742  32.122  17.480  1.00  0.00     0.276 HD
ENDBRANCH  28  29
BRANCH  28  33
HETATM   33  N10 UNL     1      43.721  30.536  18.701  1.00  0.00    -0.049 N 
ATOM     34 3H10 UNL     1      43.046  30.172  18.028  1.00  0.00     0.276 HD
ATOM     35 2H10 UNL     1      44.245  29.678  18.873  1.00  0.00     0.276 HD
ATOM     36 1H10 UNL     1      43.263  30.875  19.547  1.00  0.00     0.276 HD
ENDBRANCH  28  33
ENDBRANCH   3  28
TORSDOF 5
ENDMDL
MODEL 5
REMARK VINA RESULT: -6.459378906      1.678      3.052
REMARK  5 active torsions:
REMARK  status: ('A' for Active; 'I' for Inactive)
REMARK    1  A    between atoms: C2_3  and  C3_4 
REMARK    2  A    between atoms: C2_3  and  C9_28 
REMARK    3  A    between atoms: C5_10  and  N4_11 
REMARK       I    between atoms: N4_11  and  C6_13 
REMARK       I    between atoms: C6_13  and  N5_14 
REMARK       I    between atoms: C6_13  and  N6_18 
REMARK    4  A    between atoms: C9_28  and  N9_29 
REMARK    5  A    between atoms: C9_28  and  N10_33 
ROOT
HETATM    1  N1  UNL     1      52.821  29.548  18.068  1.00  0.00    -0.196 NA
HETATM    2  C1  UNL     1      52.422  30.506  17.565  1.00  0.00     0.074 C 
HETATM    3  C2  UNL     1      51.905  31.713  16.954  1.00  0.00     0.204 C 
ENDROOT
BRANCH   3   4
HETATM    4  C3  UNL     1      50.434  31.659  16.773  1.00  0.00     0.076 A 
HETATM    5  N2  UNL     1      49.674  30.942  15.953  1.00  0.00    -0.300 N 
HETATM    6  N3  UNL     1      48.391  31.214  16.129  1.00  0.00    -0.295 N 
ATOM      7  H2  UNL     1      50.032  30.269  15.277  1.00  0.00     0.186 HD
HETATM    8  C4  UNL     1      48.291  32.140  17.093  1.00  0.00     0.121 A 
ATOM      9  H3  UNL     1      47.614  30.793  15.619  1.00  0.00     0.187 HD
HETATM   10  C5  UNL     1      47.224  32.807  17.704  1.00  0.00     0.136 A 
HETATM   11  C8  UNL     1      49.558  32.440  17.518  1.00  0.00     0.091 A 
HETATM   12  N7  UNL     1      47.501  33.687  18.656  1.00  0.00    -0.337 N 
HETATM   13  C7  UNL     1      48.748  33.981  19.073  1.00  0.00     0.182 A 
ATOM     14  H7  UNL     1      46.721  34.172  19.100  1.00  0.00     0.168 HD
HETATM   15  N8  UNL     1      49.777  33.347  18.493  1.00  0.00    -0.349 N 
ATOM     16  H8  UNL     1      50.731  33.551  18.790  1.00  0.00     0.167 HD
BRANCH  10  17
HETATM   17  N4  UNL     1      46.050  32.521  17.300  1.00  0.00    -0.325 N 
HETATM   18  C6  UNL     1      45.065  31.785  18.000  1.00  0.00     0.481 C 
HETATM   19  N5  UNL     1      43.711  32.255  17.759  1.00  0.00    -0.033 N 
HETATM   20  N6  UNL     1      45.059  30.370  17.674  1.00  0.00    -0.033 N 
ATOM     21  H53 UNL     1      43.633  33.252  17.964  1.00  0.00     0.278 HD
ATOM     22  H52 UNL     1      43.507  32.271  16.760  1.00  0.00     0.278 HD
ATOM     23  H51 UNL     1      43.001  31.725  18.264  1.00  0.00     0.278 HD
ATOM     24  H63 UNL     1      44.965  30.232  16.668  1.00  0.00     0.278 HD
ATOM     25  H62 UNL     1      45.982  29.962  17.817  1.00  0.00     0.278 HD
ATOM     26  H61 UNL     1      44.349  29.840  18.179  1.00  0.00     0.278 HD
ATOM     27  H4  UNL     1      45.793  32.858  16.372  1.00  0.00     0.165 HD
ENDBRANCH  10  17
ENDBRANCH   3   4
BRANCH   3  28
HETATM   28  C9  UNL     1      52.623  31.999  15.667  1.00  0.00     0.401 C 
BRANCH  28  29
HETATM   29  N9  UNL     1      53.859  32.685  16.012  1.00  0.00    -0.049 N 
ATOM     30  H93 UNL     1      53.867  33.665  15.727  1.00  0.00     0.276 HD
ATOM     31  H92 UNL     1      53.965  32.840  17.014  1.00  0.00     0.276 HD
ATOM     32  H91 UNL     1      54.624  32.145  15.608  1.00  0.00     0.276 HD
ENDBRANCH  28  29
BRANCH  28  33
HETATM   33  N10 UNL     1      53.030  30.748  15.007  1.00  0.00    -0.049 N 
ATOM     34 3H10 UNL     1      52.464  30.555  14.181  1.00  0.00     0.276 HD
ATOM     35 2H10 UNL     1      53.939  30.838  14.554  1.00  0.00     0.276 HD
ATOM     36 1H10 UNL     1      53.012  29.970  15.666  1.00  0.00     0.276 HD
ENDBRANCH  28  33
ENDBRANCH   3  28
TORSDOF 5
ENDMDL
