MODEL 1
REMARK VINA RESULT: -9.444875375      0.000      0.000
REMARK  4 active torsions:
REMARK  status: ('A' for Active; 'I' for Inactive)
REMARK    1  A    between atoms: C2_7  and  C3_8 
REMARK    2  A    between atoms: C3_8  and  N3_9 
REMARK    3  A    between atoms: N3_9  and  N4_10 
REMARK    4  A    between atoms: N3_9  and  C4_13 
ROOT
HETATM    1  N1  UNL     1      52.110  28.981  15.626  1.00  0.00    -0.234 N 
ATOM      2  H11 UNL     1      52.783  28.707  16.341  1.00  0.00     0.174 HD
ATOM      3  H12 UNL     1      51.997  28.566  14.701  1.00  0.00     0.174 HD
HETATM    4  C1  UNL     1      51.334  29.925  15.902  1.00  0.00     0.677 C 
HETATM    5  N2  UNL     1      50.401  30.304  14.911  1.00  0.00    -0.187 N 
ATOM      6  H2  UNL     1      50.580  29.999  13.954  1.00  0.00     0.184 HD
HETATM    7  C2  UNL     1      49.292  31.038  15.134  1.00  0.00     0.119 C 
HETATM    8  C6  UNL     1      49.286  32.168  15.931  1.00  0.00     0.228 C 
HETATM    9  O2  UNL     1      48.486  33.034  15.581  1.00  0.00    -0.284 OA
HETATM   10  C7  UNL     1      50.086  32.417  17.056  1.00  0.00     0.140 C 
HETATM   11  N8  UNL     1      49.752  33.629  17.714  1.00  0.00    -0.095 NA
HETATM   12  C8  UNL     1      51.093  31.677  17.614  1.00  0.00     0.160 C 
HETATM   13  N9  UNL     1      51.740  32.196  18.744  1.00  0.00    -0.080 NA
HETATM   14  N10 UNL     1      51.485  30.478  17.133  1.00  0.00    -0.177 N 
ATOM     15  H10 UNL     1      51.977  29.890  17.806  1.00  0.00     0.185 HD
ENDROOT
BRANCH   7  16
HETATM   16  C3  UNL     1      47.981  30.560  14.683  1.00  0.00     0.168 C 
BRANCH  16  17
HETATM   17  N3  UNL     1      46.786  31.157  15.102  1.00  0.00    -0.100 N 
BRANCH  17  18
HETATM   18  N4  UNL     1      46.169  32.069  14.187  1.00  0.00    -0.324 N 
ATOM     19  H42 UNL     1      46.203  31.820  13.199  1.00  0.00     0.178 HD
ATOM     20  H41 UNL     1      45.810  32.940  14.580  1.00  0.00     0.178 HD
ENDBRANCH  17  18
BRANCH  17  21
HETATM   21  C4  UNL     1      46.079  30.868  16.276  1.00  0.00     0.721 A 
HETATM   22  N5  UNL     1      46.025  29.646  16.896  1.00  0.00    -0.126 N 
HETATM   23  N6  UNL     1      45.333  29.714  18.029  1.00  0.00    -0.236 N 
ATOM     24  H5  UNL     1      46.458  28.796  16.534  1.00  0.00     0.206 HD
HETATM   25  C5  UNL     1      44.932  30.982  18.126  1.00  0.00     0.353 A 
ATOM     26  H6  UNL     1      45.148  28.957  18.686  1.00  0.00     0.192 HD
HETATM   27  O1  UNL     1      44.197  31.393  19.115  1.00  0.00    -0.245 OA
HETATM   28  N7  UNL     1      45.367  31.691  17.090  1.00  0.00    -0.137 N 
ATOM     29  H7  UNL     1      45.196  32.684  16.933  1.00  0.00     0.189 HD
ENDBRANCH  17  21
ENDBRANCH  16  17
ENDBRANCH   7  16
TORSDOF 4
ENDMDL
MODEL 2
REMARK VINA RESULT: -9.214854590      0.875      1.022
REMARK  4 active torsions:
REMARK  status: ('A' for Active; 'I' for Inactive)
REMARK    1  A    between atoms: C2_7  and  C3_8 
REMARK    2  A    between atoms: C3_8  and  N3_9 
REMARK    3  A    between atoms: N3_9  and  N4_10 
REMARK    4  A    between atoms: N3_9  and  C4_13 
ROOT
HETATM    1  N1  UNL     1      52.221  29.961  15.405  1.00  0.00    -0.234 N 
ATOM      2  H11 UNL     1      52.882  29.601  16.093  1.00  0.00     0.174 HD
ATOM      3  H12 UNL     1      52.225  29.785  14.400  1.00  0.00     0.174 HD
HETATM    4  C1  UNL     1      51.299  30.697  15.830  1.00  0.00     0.677 C 
HETATM    5  N2  UNL     1      50.382  31.196  14.877  1.00  0.00    -0.187 N 
ATOM      6  H2  UNL     1      50.661  31.171  13.897  1.00  0.00     0.184 HD
HETATM    7  C2  UNL     1      49.167  31.702  15.167  1.00  0.00     0.119 C 
HETATM    8  C6  UNL     1      48.947  32.581  16.213  1.00  0.00     0.228 C 
HETATM    9  O2  UNL     1      48.052  33.399  16.011  1.00  0.00    -0.284 OA
HETATM   10  C7  UNL     1      49.633  32.633  17.434  1.00  0.00     0.140 C 
HETATM   11  N8  UNL     1      49.087  33.585  18.335  1.00  0.00    -0.095 NA
HETATM   12  C8  UNL     1      50.703  31.909  17.888  1.00  0.00     0.160 C 
HETATM   13  N9  UNL     1      51.198  32.199  19.167  1.00  0.00    -0.080 NA
HETATM   14  N10 UNL     1      51.294  30.932  17.167  1.00  0.00    -0.177 N 
ATOM     15  H10 UNL     1      51.826  30.258  17.719  1.00  0.00     0.185 HD
ENDROOT
BRANCH   7  16
HETATM   16  C3  UNL     1      47.969  31.193  14.491  1.00  0.00     0.168 C 
BRANCH  16  17
HETATM   17  N3  UNL     1      47.190  30.162  15.031  1.00  0.00    -0.100 N 
BRANCH  17  18
HETATM   18  N4  UNL     1      47.307  28.877  14.411  1.00  0.00    -0.324 N 
ATOM     19  H42 UNL     1      48.051  28.767  13.722  1.00  0.00     0.178 HD
ATOM     20  H41 UNL     1      46.589  28.190  14.642  1.00  0.00     0.178 HD
ENDBRANCH  17  18
BRANCH  17  21
HETATM   21  C4  UNL     1      46.396  30.236  16.182  1.00  0.00     0.721 A 
HETATM   22  N5  UNL     1      45.972  29.167  16.930  1.00  0.00    -0.126 N 
HETATM   23  N6  UNL     1      45.297  29.570  18.001  1.00  0.00    -0.236 N 
ATOM     24  H5  UNL     1      46.152  28.191  16.695  1.00  0.00     0.206 HD
HETATM   25  C5  UNL     1      45.276  30.902  17.929  1.00  0.00     0.353 A 
ATOM     26  H6  UNL     1      44.882  28.985  18.726  1.00  0.00     0.192 HD
HETATM   27  O1  UNL     1      44.663  31.625  18.817  1.00  0.00    -0.245 OA
HETATM   28  N7  UNL     1      45.928  31.322  16.851  1.00  0.00    -0.137 N 
ATOM     29  H7  UNL     1      46.055  32.295  16.572  1.00  0.00     0.189 HD
ENDBRANCH  17  21
ENDBRANCH  16  17
ENDBRANCH   7  16
TORSDOF 4
ENDMDL
MODEL 3
REMARK VINA RESULT: -9.031125351      2.112      5.870
REMARK  4 active torsions:
REMARK  status: ('A' for Active; 'I' for Inactive)
REMARK    1  A    between atoms: C2_7  and  C3_8 
REMARK    2  A    between atoms: C3_8  and  N3_9 
REMARK    3  A    between atoms: N3_9  and  N4_10 
REMARK    4  A    between atoms: N3_9  and  C4_13 
ROOT
HETATM    1  N1  UNL     1      45.168  31.793  18.248  1.00  0.00    -0.234 N 
ATOM      2  H11 UNL     1      44.584  30.989  18.477  1.00  0.00     0.174 HD
ATOM      3  H12 UNL     1      45.131  32.718  18.676  1.00  0.00     0.174 HD
HETATM    4  C1  UNL     1      46.028  31.637  17.350  1.00  0.00     0.677 C 
HETATM    5  N2  UNL     1      46.837  32.751  17.034  1.00  0.00    -0.187 N 
ATOM      6  H2  UNL     1      46.513  33.671  17.334  1.00  0.00     0.184 HD
HETATM    7  C2  UNL     1      48.007  32.691  16.365  1.00  0.00     0.119 C 
HETATM    8  C6  UNL     1      48.187  31.918  15.232  1.00  0.00     0.228 C 
HETATM    9  O2  UNL     1      48.980  32.386  14.417  1.00  0.00    -0.284 OA
HETATM   10  C7  UNL     1      47.563  30.700  14.929  1.00  0.00     0.140 C 
HETATM   11  N8  UNL     1      48.052  30.111  13.734  1.00  0.00    -0.095 NA
HETATM   12  C8  UNL     1      46.599  30.000  15.604  1.00  0.00     0.160 C 
HETATM   13  N9  UNL     1      46.143  28.800  15.040  1.00  0.00    -0.080 NA
HETATM   14  N10 UNL     1      46.077  30.406  16.781  1.00  0.00    -0.177 N 
ATOM     15  H10 UNL     1      45.648  29.664  17.334  1.00  0.00     0.185 HD
ENDROOT
BRANCH   7  16
HETATM   16  C3  UNL     1      49.215  33.308  16.923  1.00  0.00     0.168 C 
BRANCH  16  17
HETATM   17  N3  UNL     1      50.252  32.547  17.477  1.00  0.00    -0.100 N 
BRANCH  17  18
HETATM   18  N4  UNL     1      50.332  32.516  18.906  1.00  0.00    -0.324 N 
ATOM     19  H42 UNL     1      49.532  32.886  19.418  1.00  0.00     0.178 HD
ATOM     20  H41 UNL     1      51.216  32.201  19.308  1.00  0.00     0.178 HD
ENDBRANCH  17  18
BRANCH  17  21
HETATM   21  C4  UNL     1      51.146  31.727  16.778  1.00  0.00     0.721 A 
HETATM   22  N5  UNL     1      51.753  32.039  15.588  1.00  0.00    -0.126 N 
HETATM   23  N6  UNL     1      52.603  31.085  15.220  1.00  0.00    -0.236 N 
ATOM     24  H5  UNL     1      51.575  32.890  15.055  1.00  0.00     0.206 HD
HETATM   25  C5  UNL     1      52.528  30.154  16.172  1.00  0.00     0.353 A 
ATOM     26  H6  UNL     1      53.190  31.069  14.386  1.00  0.00     0.192 HD
HETATM   27  O1  UNL     1      53.217  29.055  16.108  1.00  0.00    -0.245 OA
HETATM   28  N7  UNL     1      51.665  30.516  17.114  1.00  0.00    -0.137 N 
ATOM     29  H7  UNL     1      51.430  29.978  17.947  1.00  0.00     0.189 HD
ENDBRANCH  17  21
ENDBRANCH  16  17
ENDBRANCH   7  16
TORSDOF 4
ENDMDL
MODEL 4
REMARK VINA RESULT: -8.959441639      0.743      1.226
REMARK  4 active torsions:
REMARK  status: ('A' for Active; 'I' for Inactive)
REMARK    1  A    between atoms: C2_7  and  C3_8 
REMARK    2  A    between atoms: C3_8  and  N3_9 
REMARK    3  A    between atoms: N3_9  and  N4_10 
REMARK    4  A    between atoms: N3_9  and  C4_13 
ROOT
HETATM    1  N1  UNL     1      52.254  29.208  15.630  1.00  0.00    -0.234 N 
ATOM      2  H11 UNL     1      52.846  28.887  16.395  1.00  0.00     0.174 HD
ATOM      3  H12 UNL     1      52.256  28.866  14.669  1.00  0.00     0.174 HD
HETATM    4  C1  UNL     1      51.431  30.118  15.886  1.00  0.00     0.677 C 
HETATM    5  N2  UNL     1      50.611  30.563  14.825  1.00  0.00    -0.187 N 
ATOM      6  H2  UNL     1      50.905  30.337  13.875  1.00  0.00     0.184 HD
HETATM    7  C2  UNL     1      49.468  31.263  14.973  1.00  0.00     0.119 C 
HETATM    8  C6  UNL     1      49.346  32.327  15.850  1.00  0.00     0.228 C 
HETATM    9  O2  UNL     1      48.574  33.208  15.476  1.00  0.00    -0.284 OA
HETATM   10  C7  UNL     1      50.006  32.496  17.075  1.00  0.00     0.140 C 
HETATM   11  N8  UNL     1      49.574  33.648  17.781  1.00  0.00    -0.095 NA
HETATM   12  C8  UNL     1      50.958  31.726  17.688  1.00  0.00     0.160 C 
HETATM   13  N9  UNL     1      51.460  32.162  18.923  1.00  0.00    -0.080 NA
HETATM   14  N10 UNL     1      51.428  30.574  17.165  1.00  0.00    -0.177 N 
ATOM     15  H10 UNL     1      51.852  29.940  17.843  1.00  0.00     0.185 HD
ENDROOT
BRANCH   7  16
HETATM   16  C3  UNL     1      48.228  30.807  14.338  1.00  0.00     0.168 C 
BRANCH  16  17
HETATM   17  N3  UNL     1      47.230  30.132  15.052  1.00  0.00    -0.100 N 
BRANCH  17  18
HETATM   18  N4  UNL     1      47.016  28.758  14.712  1.00  0.00    -0.324 N 
ATOM     19  H42 UNL     1      47.075  28.083  15.475  1.00  0.00     0.178 HD
ATOM     20  H41 UNL     1      46.899  28.543  13.721  1.00  0.00     0.178 HD
ENDBRANCH  17  18
BRANCH  17  21
HETATM   21  C4  UNL     1      46.500  30.634  16.137  1.00  0.00     0.721 A 
HETATM   22  N5  UNL     1      46.261  31.960  16.394  1.00  0.00    -0.126 N 
HETATM   23  N6  UNL     1      45.475  32.106  17.456  1.00  0.00    -0.236 N 
ATOM     24  H5  UNL     1      46.637  32.731  15.843  1.00  0.00     0.206 HD
HETATM   25  C5  UNL     1      45.224  30.869  17.887  1.00  0.00     0.353 A 
ATOM     26  H6  UNL     1      45.135  32.980  17.856  1.00  0.00     0.192 HD
HETATM   27  O1  UNL     1      44.500  30.648  18.942  1.00  0.00    -0.245 OA
HETATM   28  N7  UNL     1      45.825  29.973  17.114  1.00  0.00    -0.137 N 
ATOM     29  H7  UNL     1      45.787  28.961  17.233  1.00  0.00     0.189 HD
ENDBRANCH  17  21
ENDBRANCH  16  17
ENDBRANCH   7  16
TORSDOF 4
ENDMDL
MODEL 5
REMARK VINA RESULT: -8.898610269      2.077      5.816
REMARK  4 active torsions:
REMARK  status: ('A' for Active; 'I' for Inactive)
REMARK    1  A    between atoms: C2_7  and  C3_8 
REMARK    2  A    between atoms: C3_8  and  N3_9 
REMARK    3  A    between atoms: N3_9  and  N4_10 
REMARK    4  A    between atoms: N3_9  and  C4_13 
ROOT
HETATM    1  N1  UNL     1      45.151  32.277  18.083  1.00  0.00    -0.234 N 
ATOM      2  H11 UNL     1      44.496  31.659  18.560  1.00  0.00     0.174 HD
ATOM      3  H12 UNL     1      45.228  33.289  18.190  1.00  0.00     0.174 HD
HETATM    4  C1  UNL     1      45.954  31.749  17.279  1.00  0.00     0.677 C 
HETATM    5  N2  UNL     1      46.863  32.606  16.619  1.00  0.00    -0.187 N 
ATOM      6  H2  UNL     1      46.649  33.603  16.609  1.00  0.00     0.184 HD
HETATM    7  C2  UNL     1      47.993  32.206  16.001  1.00  0.00     0.119 C 
HETATM    8  C6  UNL     1      48.047  31.097  15.176  1.00  0.00     0.228 C 
HETATM    9  O2  UNL     1      48.852  31.189  14.252  1.00  0.00    -0.284 OA
HETATM   10  C7  UNL     1      47.287  29.923  15.282  1.00  0.00     0.140 C 
HETATM   11  N8  UNL     1      47.666  28.933  14.339  1.00  0.00    -0.095 NA
HETATM   12  C8  UNL     1      46.283  29.587  16.150  1.00  0.00     0.160 C 
HETATM   13  N9  UNL     1      45.682  28.329  16.003  1.00  0.00    -0.080 NA
HETATM   14  N10 UNL     1      45.853  30.403  17.136  1.00  0.00    -0.177 N 
ATOM     15  H10 UNL     1      45.371  29.929  17.900  1.00  0.00     0.185 HD
ENDROOT
BRANCH   7  16
HETATM   16  C3  UNL     1      49.279  32.830  16.327  1.00  0.00     0.168 C 
BRANCH  16  17
HETATM   17  N3  UNL     1      50.120  32.325  17.327  1.00  0.00    -0.100 N 
BRANCH  17  18
HETATM   18  N4  UNL     1      49.914  32.827  18.652  1.00  0.00    -0.324 N 
ATOM     19  H42 UNL     1      48.947  32.950  18.950  1.00  0.00     0.178 HD
ATOM     20  H41 UNL     1      50.748  33.100  19.173  1.00  0.00     0.178 HD
ENDBRANCH  17  18
BRANCH  17  21
HETATM   21  C4  UNL     1      51.063  31.300  17.181  1.00  0.00     0.721 A 
HETATM   22  N5  UNL     1      51.751  30.696  18.203  1.00  0.00    -0.126 N 
HETATM   23  N6  UNL     1      52.517  29.710  17.747  1.00  0.00    -0.236 N 
ATOM     24  H5  UNL     1      51.683  30.968  19.184  1.00  0.00     0.206 HD
HETATM   25  C5  UNL     1      52.329  29.695  16.427  1.00  0.00     0.353 A 
ATOM     26  H6  UNL     1      53.121  29.095  18.291  1.00  0.00     0.192 HD
HETATM   27  O1  UNL     1      52.960  28.860  15.657  1.00  0.00    -0.245 OA
HETATM   28  N7  UNL     1      51.464  30.635  16.066  1.00  0.00    -0.137 N 
ATOM     29  H7  UNL     1      51.152  30.826  15.114  1.00  0.00     0.189 HD
ENDBRANCH  17  21
ENDBRANCH  16  17
ENDBRANCH   7  16
TORSDOF 4
ENDMDL
