MODEL 1
REMARK VINA RESULT: -4.329218188      0.000      0.000
REMARK  4 active torsions:
REMARK  status: ('A' for Active; 'I' for Inactive)
REMARK    1  A    between atoms: N1_2  and  N2_5 
REMARK    2  A    between atoms: N2_5  and  N3_7 
REMARK    3  A    between atoms: N3_7  and  N4_8 
REMARK    4  A    between atoms: N4_8  and  N5_9 
ROOT
HETATM    1  N2  UNL     1      11.259  -9.094  23.878  1.00  0.00    -0.128 N 
ATOM      2  H2  UNL     1      10.390  -9.627  23.917  1.00  0.00     0.214 HD
ENDROOT
BRANCH   1   3
HETATM    3  N1  UNL     1      11.619  -8.199  24.857  1.00  0.00     0.102 N 
HETATM    4  C1  UNL     1      11.840  -8.800  26.152  1.00  0.00     0.327 C 
HETATM    5  C2  UNL     1      12.786  -7.411  24.538  1.00  0.00     0.327 C 
HETATM    6 CL1  UNL     1      10.281  -7.075  25.063  1.00  0.00     0.144 Cl
ENDBRANCH   1   3
BRANCH   1   7
HETATM    7  N3  UNL     1      12.154  -9.220  22.843  1.00  0.00     0.013 NA
BRANCH   7   8
HETATM    8  N4  UNL     1      12.256 -10.534  22.411  1.00  0.00    -0.015 NA
BRANCH   8   9
HETATM    9  N5  UNL     1      13.540 -11.045  22.438  1.00  0.00    -0.330 N 
ATOM     10  H52 UNL     1      14.361 -10.440  22.418  1.00  0.00     0.173 HD
ATOM     11  H51 UNL     1      13.587 -12.063  22.481  1.00  0.00     0.173 HD
ENDBRANCH   8   9
ENDBRANCH   7   8
ENDBRANCH   1   7
TORSDOF 4
ENDMDL
MODEL 2
REMARK VINA RESULT: -4.324343157      1.279      1.507
REMARK  4 active torsions:
REMARK  status: ('A' for Active; 'I' for Inactive)
REMARK    1  A    between atoms: N1_2  and  N2_5 
REMARK    2  A    between atoms: N2_5  and  N3_7 
REMARK    3  A    between atoms: N3_7  and  N4_8 
REMARK    4  A    between atoms: N4_8  and  N5_9 
ROOT
HETATM    1  N2  UNL     1      11.206  -9.160  23.825  1.00  0.00    -0.128 N 
ATOM      2  H2  UNL     1      10.332  -9.683  23.770  1.00  0.00     0.214 HD
ENDROOT
BRANCH   1   3
HETATM    3  N1  UNL     1      11.485  -8.299  24.860  1.00  0.00     0.102 N 
HETATM    4  C1  UNL     1      10.427  -7.359  25.144  1.00  0.00     0.327 C 
HETATM    5  C2  UNL     1      11.828  -8.956  26.099  1.00  0.00     0.327 C 
HETATM    6 CL1  UNL     1      12.879  -7.336  24.385  1.00  0.00     0.144 Cl
ENDBRANCH   1   3
BRANCH   1   7
HETATM    7  N3  UNL     1      12.189  -9.267  22.871  1.00  0.00     0.013 NA
BRANCH   7   8
HETATM    8  N4  UNL     1      12.283 -10.558  22.374  1.00  0.00    -0.015 NA
BRANCH   8   9
HETATM    9  N5  UNL     1      13.563 -11.078  22.376  1.00  0.00    -0.330 N 
ATOM     10  H52 UNL     1      14.382 -10.496  22.553  1.00  0.00     0.173 HD
ATOM     11  H51 UNL     1      13.612 -12.080  22.188  1.00  0.00     0.173 HD
ENDBRANCH   8   9
ENDBRANCH   7   8
ENDBRANCH   1   7
TORSDOF 4
ENDMDL
MODEL 3
REMARK VINA RESULT: -4.240955327      1.308      1.569
REMARK  4 active torsions:
REMARK  status: ('A' for Active; 'I' for Inactive)
REMARK    1  A    between atoms: N1_2  and  N2_5 
REMARK    2  A    between atoms: N2_5  and  N3_7 
REMARK    3  A    between atoms: N3_7  and  N4_8 
REMARK    4  A    between atoms: N4_8  and  N5_9 
ROOT
HETATM    1  N2  UNL     1      11.278  -9.087  23.797  1.00  0.00    -0.128 N 
ATOM      2  H2  UNL     1      10.373  -9.558  23.798  1.00  0.00     0.214 HD
ENDROOT
BRANCH   1   3
HETATM    3  N1  UNL     1      11.670  -8.245  24.811  1.00  0.00     0.102 N 
HETATM    4  C1  UNL     1      12.862  -7.484  24.517  1.00  0.00     0.327 C 
HETATM    5  C2  UNL     1      10.651  -7.312  25.232  1.00  0.00     0.327 C 
HETATM    6 CL1  UNL     1      12.060  -9.244  26.206  1.00  0.00     0.144 Cl
ENDBRANCH   1   3
BRANCH   1   7
HETATM    7  N3  UNL     1      12.190  -9.247  22.783  1.00  0.00     0.013 NA
BRANCH   7   8
HETATM    8  N4  UNL     1      12.289 -10.572  22.387  1.00  0.00    -0.015 NA
BRANCH   8   9
HETATM    9  N5  UNL     1      13.574 -11.079  22.405  1.00  0.00    -0.330 N 
ATOM     10  H52 UNL     1      14.341 -10.623  21.910  1.00  0.00     0.173 HD
ATOM     11  H51 UNL     1      13.682 -11.934  22.950  1.00  0.00     0.173 HD
ENDBRANCH   8   9
ENDBRANCH   7   8
ENDBRANCH   1   7
TORSDOF 4
ENDMDL
MODEL 4
REMARK VINA RESULT: -4.118769330      2.068      2.566
REMARK  4 active torsions:
REMARK  status: ('A' for Active; 'I' for Inactive)
REMARK    1  A    between atoms: N1_2  and  N2_5 
REMARK    2  A    between atoms: N2_5  and  N3_7 
REMARK    3  A    between atoms: N3_7  and  N4_8 
REMARK    4  A    between atoms: N4_8  and  N5_9 
ROOT
HETATM    1  N2  UNL     1      10.150  -9.374  24.292  1.00  0.00    -0.128 N 
ATOM      2  H2  UNL     1       9.924 -10.321  23.989  1.00  0.00     0.214 HD
ENDROOT
BRANCH   1   3
HETATM    3  N1  UNL     1       9.287  -8.620  25.053  1.00  0.00     0.102 N 
HETATM    4  C1  UNL     1       8.019  -8.355  24.416  1.00  0.00     0.327 C 
HETATM    5  C2  UNL     1       9.012  -9.175  26.358  1.00  0.00     0.327 C 
HETATM    6 CL1  UNL     1      10.042  -7.052  25.310  1.00  0.00     0.144 Cl
ENDBRANCH   1   3
BRANCH   1   7
HETATM    7  N3  UNL     1      11.336  -8.760  23.970  1.00  0.00     0.013 NA
BRANCH   7   8
HETATM    8  N4  UNL     1      12.016  -9.449  22.977  1.00  0.00    -0.015 NA
BRANCH   8   9
HETATM    9  N5  UNL     1      11.853 -10.820  23.019  1.00  0.00    -0.330 N 
ATOM     10  H52 UNL     1      12.517 -11.456  22.578  1.00  0.00     0.173 HD
ATOM     11  H51 UNL     1      11.022 -11.130  23.524  1.00  0.00     0.173 HD
ENDBRANCH   8   9
ENDBRANCH   7   8
ENDBRANCH   1   7
TORSDOF 4
ENDMDL
MODEL 5
REMARK VINA RESULT: -4.101785886      1.822      2.017
REMARK  4 active torsions:
REMARK  status: ('A' for Active; 'I' for Inactive)
REMARK    1  A    between atoms: N1_2  and  N2_5 
REMARK    2  A    between atoms: N2_5  and  N3_7 
REMARK    3  A    between atoms: N3_7  and  N4_8 
REMARK    4  A    between atoms: N4_8  and  N5_9 
ROOT
HETATM    1  N2  UNL     1      10.331  -9.178  24.300  1.00  0.00    -0.128 N 
ATOM      2  H2  UNL     1      10.040 -10.135  24.103  1.00  0.00     0.214 HD
ENDROOT
BRANCH   1   3
HETATM    3  N1  UNL     1       9.578  -8.323  25.069  1.00  0.00     0.102 N 
HETATM    4  C1  UNL     1       9.262  -8.835  26.381  1.00  0.00     0.327 C 
HETATM    5  C2  UNL     1      10.164  -7.014  25.243  1.00  0.00     0.327 C 
HETATM    6 CL1  UNL     1       8.038  -8.092  24.250  1.00  0.00     0.144 Cl
ENDBRANCH   1   3
BRANCH   1   7
HETATM    7  N3  UNL     1      11.504  -8.651  23.815  1.00  0.00     0.013 NA
BRANCH   7   8
HETATM    8  N4  UNL     1      12.084  -9.479  22.866  1.00  0.00    -0.015 NA
BRANCH   8   9
HETATM    9  N5  UNL     1      11.851 -10.826  23.066  1.00  0.00    -0.330 N 
ATOM     10  H52 UNL     1      12.602 -11.474  23.300  1.00  0.00     0.173 HD
ATOM     11  H51 UNL     1      10.875 -11.105  22.959  1.00  0.00     0.173 HD
ENDBRANCH   8   9
ENDBRANCH   7   8
ENDBRANCH   1   7
TORSDOF 4
ENDMDL
