MODEL 1
REMARK VINA RESULT: -4.696208559      0.000      0.000
REMARK  5 active torsions:
REMARK  status: ('A' for Active; 'I' for Inactive)
REMARK    1  A    between atoms: N1_2  and  N2_4 
REMARK    2  A    between atoms: N2_4  and  C2_5 
REMARK    3  A    between atoms: N2_4  and  N3_7 
REMARK    4  A    between atoms: N3_7  and  N4_9 
REMARK    5  A    between atoms: N4_9  and  O2_11 
ROOT
HETATM    1  N2  UNL     1      13.359  -8.967  23.779  1.00  0.00    -0.158 N 
ENDROOT
BRANCH   1   2
HETATM    2  N1  UNL     1      13.074  -7.631  23.734  1.00  0.00    -0.316 N 
HETATM    3  C1  UNL     1      12.433  -7.080  24.887  1.00  0.00     0.170 C 
ATOM      4  H1  UNL     1      13.306  -7.060  22.923  1.00  0.00     0.181 HD
ENDBRANCH   1   2
BRANCH   1   5
HETATM    5  C2  UNL     1      12.348  -9.923  23.603  1.00  0.00     0.395 C 
HETATM    6  O1  UNL     1      12.116 -10.318  22.391  1.00  0.00    -0.280 OA
ENDBRANCH   1   5
BRANCH   1   7
HETATM    7  N3  UNL     1      14.661  -9.422  23.979  1.00  0.00    -0.200 N 
ATOM      8  H3  UNL     1      14.963 -10.233  23.439  1.00  0.00     0.212 HD
BRANCH   7   9
HETATM    9  N4  UNL     1      15.588  -8.853  24.863  1.00  0.00    -0.194 N 
ATOM     10  H4  UNL     1      15.440  -8.953  25.867  1.00  0.00     0.217 HD
BRANCH   9  11
HETATM   11  O2  UNL     1      16.609  -8.216  24.451  1.00  0.00    -0.273 OA
ATOM     12  H2  UNL     1      16.632  -7.267  24.421  1.00  0.00     0.246 HD
ENDBRANCH   9  11
ENDBRANCH   7   9
ENDBRANCH   1   7
TORSDOF 5
ENDMDL
MODEL 2
REMARK VINA RESULT: -4.602420300      2.927      3.896
REMARK  5 active torsions:
REMARK  status: ('A' for Active; 'I' for Inactive)
REMARK    1  A    between atoms: N1_2  and  N2_4 
REMARK    2  A    between atoms: N2_4  and  C2_5 
REMARK    3  A    between atoms: N2_4  and  N3_7 
REMARK    4  A    between atoms: N3_7  and  N4_9 
REMARK    5  A    between atoms: N4_9  and  O2_11 
ROOT
HETATM    1  N2  UNL     1      10.725  -8.772  24.431  1.00  0.00    -0.158 N 
ENDROOT
BRANCH   1   2
HETATM    2  N1  UNL     1       9.602  -7.994  24.383  1.00  0.00    -0.316 N 
HETATM    3  C1  UNL     1       8.369  -8.638  24.716  1.00  0.00     0.170 C 
ATOM      4  H1  UNL     1       9.642  -7.009  24.124  1.00  0.00     0.181 HD
ENDBRANCH   1   2
BRANCH   1   5
HETATM    5  C2  UNL     1      11.981  -8.205  24.694  1.00  0.00     0.395 C 
HETATM    6  O1  UNL     1      12.786  -8.066  23.688  1.00  0.00    -0.280 OA
ENDBRANCH   1   5
BRANCH   1   7
HETATM    7  N3  UNL     1      10.658 -10.151  24.243  1.00  0.00    -0.200 N 
ATOM      8  H3  UNL     1       9.835 -10.635  24.604  1.00  0.00     0.212 HD
BRANCH   7   9
HETATM    9  N4  UNL     1      11.631 -10.926  23.597  1.00  0.00    -0.194 N 
ATOM     10  H4  UNL     1      12.122 -11.646  24.128  1.00  0.00     0.217 HD
BRANCH   9  11
HETATM   11  O2  UNL     1      11.921 -10.759  22.371  1.00  0.00    -0.273 OA
ATOM     12  H2  UNL     1      12.736 -11.074  21.999  1.00  0.00     0.246 HD
ENDBRANCH   9  11
ENDBRANCH   7   9
ENDBRANCH   1   7
TORSDOF 5
ENDMDL
MODEL 3
REMARK VINA RESULT: -4.506090641      2.723      3.188
REMARK  5 active torsions:
REMARK  status: ('A' for Active; 'I' for Inactive)
REMARK    1  A    between atoms: N1_2  and  N2_4 
REMARK    2  A    between atoms: N2_4  and  C2_5 
REMARK    3  A    between atoms: N2_4  and  N3_7 
REMARK    4  A    between atoms: N3_7  and  N4_9 
REMARK    5  A    between atoms: N4_9  and  O2_11 
ROOT
HETATM    1  N2  UNL     1      11.995  -8.677  23.843  1.00  0.00    -0.158 N 
ENDROOT
BRANCH   1   2
HETATM    2  N1  UNL     1      10.681  -8.707  24.220  1.00  0.00    -0.316 N 
HETATM    3  C1  UNL     1      10.343  -9.614  25.273  1.00  0.00     0.170 C 
ATOM      4  H1  UNL     1       9.981  -8.115  23.775  1.00  0.00     0.181 HD
ENDBRANCH   1   2
BRANCH   1   5
HETATM    5  C2  UNL     1      12.648  -9.846  23.425  1.00  0.00     0.395 C 
HETATM    6  O1  UNL     1      12.215 -10.407  22.340  1.00  0.00    -0.280 OA
ENDBRANCH   1   5
BRANCH   1   7
HETATM    7  N3  UNL     1      12.719  -7.487  23.841  1.00  0.00    -0.200 N 
ATOM      8  H3  UNL     1      13.634  -7.495  23.389  1.00  0.00     0.212 HD
BRANCH   7   9
HETATM    9  N4  UNL     1      12.291  -6.280  24.411  1.00  0.00    -0.194 N 
ATOM     10  H4  UNL     1      12.983  -5.660  24.833  1.00  0.00     0.217 HD
BRANCH   9  11
HETATM   11  O2  UNL     1      11.068  -5.935  24.419  1.00  0.00    -0.273 OA
ATOM     12  H2  UNL     1      10.392  -6.482  24.801  1.00  0.00     0.246 HD
ENDBRANCH   9  11
ENDBRANCH   7   9
ENDBRANCH   1   7
TORSDOF 5
ENDMDL
MODEL 4
REMARK VINA RESULT: -4.489867168      3.146      3.639
REMARK  5 active torsions:
REMARK  status: ('A' for Active; 'I' for Inactive)
REMARK    1  A    between atoms: N1_2  and  N2_4 
REMARK    2  A    between atoms: N2_4  and  C2_5 
REMARK    3  A    between atoms: N2_4  and  N3_7 
REMARK    4  A    between atoms: N3_7  and  N4_9 
REMARK    5  A    between atoms: N4_9  and  O2_11 
ROOT
HETATM    1  N2  UNL     1      10.732  -8.236  24.593  1.00  0.00    -0.158 N 
ENDROOT
BRANCH   1   2
HETATM    2  N1  UNL     1      10.972  -6.920  24.875  1.00  0.00    -0.316 N 
HETATM    3  C1  UNL     1      12.334  -6.492  24.799  1.00  0.00     0.170 C 
ATOM      4  H1  UNL     1      10.220  -6.279  25.127  1.00  0.00     0.181 HD
ENDBRANCH   1   2
BRANCH   1   5
HETATM    5  C2  UNL     1       9.629  -8.900  25.151  1.00  0.00     0.395 C 
HETATM    6  O1  UNL     1       8.723  -9.327  24.329  1.00  0.00    -0.280 OA
ENDBRANCH   1   5
BRANCH   1   7
HETATM    7  N3  UNL     1      11.559  -8.952  23.731  1.00  0.00    -0.200 N 
ATOM      8  H3  UNL     1      12.309  -8.441  23.265  1.00  0.00     0.212 HD
BRANCH   7   9
HETATM    9  N4  UNL     1      11.443 -10.321  23.453  1.00  0.00    -0.194 N 
ATOM     10  H4  UNL     1      10.951 -10.921  24.117  1.00  0.00     0.217 HD
BRANCH   9  11
HETATM   11  O2  UNL     1      11.932 -10.839  22.400  1.00  0.00    -0.273 OA
ATOM     12  H2  UNL     1      12.208 -11.748  22.366  1.00  0.00     0.246 HD
ENDBRANCH   9  11
ENDBRANCH   7   9
ENDBRANCH   1   7
TORSDOF 5
ENDMDL
MODEL 5
REMARK VINA RESULT: -4.489048598      2.409      3.718
REMARK  5 active torsions:
REMARK  status: ('A' for Active; 'I' for Inactive)
REMARK    1  A    between atoms: N1_2  and  N2_4 
REMARK    2  A    between atoms: N2_4  and  C2_5 
REMARK    3  A    between atoms: N2_4  and  N3_7 
REMARK    4  A    between atoms: N3_7  and  N4_9 
REMARK    5  A    between atoms: N4_9  and  O2_11 
ROOT
HETATM    1  N2  UNL     1      12.244  -8.797  23.726  1.00  0.00    -0.158 N 
ENDROOT
BRANCH   1   2
HETATM    2  N1  UNL     1      13.015  -7.684  23.912  1.00  0.00    -0.316 N 
HETATM    3  C1  UNL     1      12.464  -6.662  24.746  1.00  0.00     0.170 C 
ATOM      4  H1  UNL     1      13.933  -7.589  23.479  1.00  0.00     0.181 HD
ENDBRANCH   1   2
BRANCH   1   5
HETATM    5  C2  UNL     1      12.808  -9.990  23.250  1.00  0.00     0.395 C 
HETATM    6  O1  UNL     1      12.191 -10.587  22.279  1.00  0.00    -0.280 OA
ENDBRANCH   1   5
BRANCH   1   7
HETATM    7  N3  UNL     1      10.882  -8.790  24.019  1.00  0.00    -0.200 N 
ATOM      8  H3  UNL     1      10.394  -7.895  23.963  1.00  0.00     0.212 HD
BRANCH   7   9
HETATM    9  N4  UNL     1      10.129  -9.914  24.386  1.00  0.00    -0.194 N 
ATOM     10  H4  UNL     1      10.615 -10.780  24.620  1.00  0.00     0.217 HD
BRANCH   9  11
HETATM   11  O2  UNL     1       8.859  -9.887  24.436  1.00  0.00    -0.273 OA
ATOM     12  H2  UNL     1       8.327 -10.599  24.102  1.00  0.00     0.246 HD
ENDBRANCH   9  11
ENDBRANCH   7   9
ENDBRANCH   1   7
TORSDOF 5
ENDMDL
