MODEL 1
REMARK VINA RESULT: -4.133249278      0.000      0.000
REMARK  5 active torsions:
REMARK  status: ('A' for Active; 'I' for Inactive)
REMARK    1  A    between atoms: O1_2  and  C2_3 
REMARK    2  A    between atoms: C2_3  and  N1_4 
REMARK    3  A    between atoms: C3_5  and  O2_6 
REMARK    4  A    between atoms: C4_8  and  N2_9 
REMARK    5  A    between atoms: N2_9  and  N3_10 
ROOT
HETATM    1  N1  UNL     1      15.376  -2.617  29.798  1.00  0.00     0.169 N 
HETATM    2  C3  UNL     1      15.692  -1.586  28.802  1.00  0.00     0.413 A 
HETATM    3  C4  UNL     1      15.730  -3.036  28.467  1.00  0.00     0.399 A 
ENDROOT
BRANCH   3   4
HETATM    4  N2  UNL     1      17.047  -3.581  28.229  1.00  0.00    -0.107 NA
BRANCH   4   5
HETATM    5  N3  UNL     1      16.978  -4.953  28.247  1.00  0.00    -0.346 N 
ATOM      6  H32 UNL     1      17.561  -5.554  28.828  1.00  0.00     0.172 HD
ATOM      7  H31 UNL     1      16.260  -5.263  27.593  1.00  0.00     0.172 HD
ENDBRANCH   4   5
ENDBRANCH   3   4
BRANCH   1   8
HETATM    8  C2  UNL     1      13.991  -2.595  30.208  1.00  0.00     0.446 C 
BRANCH   8   9
HETATM    9  O1  UNL     1      13.259  -3.247  29.219  1.00  0.00    -0.367 OA
HETATM   10  C1  UNL     1      11.968  -3.553  29.641  1.00  0.00     0.204 C 
ENDBRANCH   8   9
ENDBRANCH   1   8
BRANCH   2  11
HETATM   11  O2  UNL     1      14.657  -0.827  28.281  1.00  0.00    -0.365 OA
ATOM     12  H2  UNL     1      14.696  -0.570  27.368  1.00  0.00     0.212 HD
ENDBRANCH   2  11
TORSDOF 5
ENDMDL
MODEL 2
REMARK VINA RESULT: -4.130618440      1.354      1.653
REMARK  5 active torsions:
REMARK  status: ('A' for Active; 'I' for Inactive)
REMARK    1  A    between atoms: O1_2  and  C2_3 
REMARK    2  A    between atoms: C2_3  and  N1_4 
REMARK    3  A    between atoms: C3_5  and  O2_6 
REMARK    4  A    between atoms: C4_8  and  N2_9 
REMARK    5  A    between atoms: N2_9  and  N3_10 
ROOT
HETATM    1  N1  UNL     1      15.477  -2.346  29.879  1.00  0.00     0.169 N 
HETATM    2  C3  UNL     1      15.678  -1.430  28.748  1.00  0.00     0.413 A 
HETATM    3  C4  UNL     1      15.684  -2.908  28.570  1.00  0.00     0.399 A 
ENDROOT
BRANCH   3   4
HETATM    4  N2  UNL     1      16.968  -3.487  28.249  1.00  0.00    -0.107 NA
BRANCH   4   5
HETATM    5  N3  UNL     1      16.874  -4.857  28.303  1.00  0.00    -0.346 N 
ATOM      6  H32 UNL     1      16.009  -5.371  28.467  1.00  0.00     0.172 HD
ATOM      7  H31 UNL     1      17.797  -5.264  28.153  1.00  0.00     0.172 HD
ENDBRANCH   4   5
ENDBRANCH   3   4
BRANCH   1   8
HETATM    8  C2  UNL     1      14.146  -2.269  30.433  1.00  0.00     0.446 C 
BRANCH   8   9
HETATM    9  O1  UNL     1      14.126  -1.186  31.308  1.00  0.00    -0.367 OA
HETATM   10  C1  UNL     1      13.511  -1.502  32.516  1.00  0.00     0.204 C 
ENDBRANCH   8   9
ENDBRANCH   1   8
BRANCH   2  11
HETATM   11  O2  UNL     1      14.589  -0.724  28.266  1.00  0.00    -0.365 OA
ATOM     12  H2  UNL     1      14.580  -0.472  27.350  1.00  0.00     0.212 HD
ENDBRANCH   2  11
TORSDOF 5
ENDMDL
MODEL 3
REMARK VINA RESULT: -4.063669031      1.163      1.209
REMARK  5 active torsions:
REMARK  status: ('A' for Active; 'I' for Inactive)
REMARK    1  A    between atoms: O1_2  and  C2_3 
REMARK    2  A    between atoms: C2_3  and  N1_4 
REMARK    3  A    between atoms: C3_5  and  O2_6 
REMARK    4  A    between atoms: C4_8  and  N2_9 
REMARK    5  A    between atoms: N2_9  and  N3_10 
ROOT
HETATM    1  N1  UNL     1      14.926  -2.776  30.230  1.00  0.00     0.169 N 
HETATM    2  C3  UNL     1      15.445  -1.403  30.164  1.00  0.00     0.413 A 
HETATM    3  C4  UNL     1      15.344  -2.260  28.952  1.00  0.00     0.399 A 
ENDROOT
BRANCH   3   4
HETATM    4  N2  UNL     1      16.603  -2.697  28.396  1.00  0.00    -0.107 NA
BRANCH   4   5
HETATM    5  N3  UNL     1      16.509  -4.023  28.047  1.00  0.00    -0.346 N 
ATOM      6  H32 UNL     1      16.340  -4.783  28.704  1.00  0.00     0.172 HD
ATOM      7  H31 UNL     1      16.635  -4.115  27.039  1.00  0.00     0.172 HD
ENDBRANCH   4   5
ENDBRANCH   3   4
BRANCH   1   8
HETATM    8  C2  UNL     1      13.523  -2.829  30.568  1.00  0.00     0.446 C 
BRANCH   8   9
HETATM    9  O1  UNL     1      12.812  -2.447  29.433  1.00  0.00    -0.367 OA
HETATM   10  C1  UNL     1      11.473  -2.189  29.719  1.00  0.00     0.204 C 
ENDBRANCH   8   9
ENDBRANCH   1   8
BRANCH   2  11
HETATM   11  O2  UNL     1      14.554  -0.351  30.291  1.00  0.00    -0.365 OA
ATOM     12  H2  UNL     1      14.874   0.479  30.624  1.00  0.00     0.212 HD
ENDBRANCH   2  11
TORSDOF 5
ENDMDL
MODEL 4
REMARK VINA RESULT: -4.054121149      2.127      2.417
REMARK  5 active torsions:
REMARK  status: ('A' for Active; 'I' for Inactive)
REMARK    1  A    between atoms: O1_2  and  C2_3 
REMARK    2  A    between atoms: C2_3  and  N1_4 
REMARK    3  A    between atoms: C3_5  and  O2_6 
REMARK    4  A    between atoms: C4_8  and  N2_9 
REMARK    5  A    between atoms: N2_9  and  N3_10 
ROOT
HETATM    1  N1  UNL     1      15.750  -4.599  29.450  1.00  0.00     0.169 N 
HETATM    2  C3  UNL     1      16.750  -4.025  28.540  1.00  0.00     0.413 A 
HETATM    3  C4  UNL     1      16.319  -5.446  28.435  1.00  0.00     0.399 A 
ENDROOT
BRANCH   3   4
HETATM    4  N2  UNL     1      17.313  -6.423  28.812  1.00  0.00    -0.107 NA
BRANCH   4   5
HETATM    5  N3  UNL     1      17.497  -7.306  27.775  1.00  0.00    -0.346 N 
ATOM      6  H32 UNL     1      17.180  -8.275  27.776  1.00  0.00     0.172 HD
ATOM      7  H31 UNL     1      17.995  -6.837  27.018  1.00  0.00     0.172 HD
ENDBRANCH   4   5
ENDBRANCH   3   4
BRANCH   1   8
HETATM    8  C2  UNL     1      14.435  -4.030  29.268  1.00  0.00     0.446 C 
BRANCH   8   9
HETATM    9  O1  UNL     1      13.881  -4.628  28.140  1.00  0.00    -0.367 OA
HETATM   10  C1  UNL     1      12.738  -5.363  28.446  1.00  0.00     0.204 C 
ENDBRANCH   8   9
ENDBRANCH   1   8
BRANCH   2  11
HETATM   11  O2  UNL     1      16.325  -3.145  27.559  1.00  0.00    -0.365 OA
ATOM     12  H2  UNL     1      16.081  -2.263  27.814  1.00  0.00     0.212 HD
ENDBRANCH   2  11
TORSDOF 5
ENDMDL
MODEL 5
REMARK VINA RESULT: -3.826727340      1.996      2.429
REMARK  5 active torsions:
REMARK  status: ('A' for Active; 'I' for Inactive)
REMARK    1  A    between atoms: O1_2  and  C2_3 
REMARK    2  A    between atoms: C2_3  and  N1_4 
REMARK    3  A    between atoms: C3_5  and  O2_6 
REMARK    4  A    between atoms: C4_8  and  N2_9 
REMARK    5  A    between atoms: N2_9  and  N3_10 
ROOT
HETATM    1  N1  UNL     1      15.691  -4.710  29.452  1.00  0.00     0.169 N 
HETATM    2  C3  UNL     1      16.702  -4.093  28.584  1.00  0.00     0.413 A 
HETATM    3  C4  UNL     1      16.311  -5.522  28.438  1.00  0.00     0.399 A 
ENDROOT
BRANCH   3   4
HETATM    4  N2  UNL     1      17.319  -6.481  28.825  1.00  0.00    -0.107 NA
BRANCH   4   5
HETATM    5  N3  UNL     1      17.546  -7.345  27.781  1.00  0.00    -0.346 N 
ATOM      6  H32 UNL     1      16.913  -8.093  27.501  1.00  0.00     0.172 HD
ATOM      7  H31 UNL     1      18.438  -7.117  27.344  1.00  0.00     0.172 HD
ENDBRANCH   4   5
ENDBRANCH   3   4
BRANCH   1   8
HETATM    8  C2  UNL     1      14.367  -4.171  29.242  1.00  0.00     0.446 C 
BRANCH   8   9
HETATM    9  O1  UNL     1      14.364  -2.877  29.755  1.00  0.00    -0.367 OA
HETATM   10  C1  UNL     1      13.753  -2.812  31.005  1.00  0.00     0.204 C 
ENDBRANCH   8   9
ENDBRANCH   1   8
BRANCH   2  11
HETATM   11  O2  UNL     1      16.284  -3.203  27.608  1.00  0.00    -0.365 OA
ATOM     12  H2  UNL     1      16.042  -3.545  26.755  1.00  0.00     0.212 HD
ENDBRANCH   2  11
TORSDOF 5
ENDMDL
