MODEL 1
REMARK VINA RESULT: -4.576678006      0.000      0.000
REMARK  4 active torsions:
REMARK  status: ('A' for Active; 'I' for Inactive)
REMARK    1  A    between atoms: N1_1  and  C1_5 
REMARK    2  A    between atoms: C1_5  and  N2_6 
REMARK    3  A    between atoms: N2_6  and  C2_9 
REMARK    4  A    between atoms: C3_13  and  N4_14 
ROOT
HETATM    1  C2  UNL     1      16.194  -4.135  28.856  1.00  0.00     0.443 A 
HETATM    2  N3  UNL     1      14.893  -4.060  28.169  1.00  0.00    -0.011 N 
ATOM      3  H31 UNL     1      13.916  -4.216  28.418  1.00  0.00     0.282 HD
ATOM      4  H32 UNL     1      14.405  -4.594  27.450  1.00  0.00     0.282 HD
HETATM    5  C3  UNL     1      15.873  -2.880  28.204  1.00  0.00     0.414 A 
ENDROOT
BRANCH   1   6
HETATM    6  N2  UNL     1      17.160  -5.013  28.322  1.00  0.00    -0.018 N 
ATOM      7  H22 UNL     1      18.109  -4.781  28.616  1.00  0.00     0.281 HD
ATOM      8  H21 UNL     1      17.294  -4.890  27.319  1.00  0.00     0.281 HD
BRANCH   6   9
HETATM    9  C1  UNL     1      16.782  -6.355  28.672  1.00  0.00     0.462 C 
BRANCH   9  10
HETATM   10  N1  UNL     1      17.396  -7.355  27.824  1.00  0.00    -0.055 N 
ATOM     11  H13 UNL     1      16.740  -7.684  27.116  1.00  0.00     0.276 HD
ATOM     12  H12 UNL     1      18.099  -6.934  27.216  1.00  0.00     0.276 HD
ATOM     13  H11 UNL     1      17.788  -8.136  28.349  1.00  0.00     0.276 HD
ENDBRANCH   9  10
ENDBRANCH   6   9
ENDBRANCH   1   6
BRANCH   5  14
HETATM   14  N4  UNL     1      15.428  -1.750  29.009  1.00  0.00    -0.118 N 
HETATM   15  O1  UNL     1      15.690  -1.675  30.216  1.00  0.00    -0.535 OA
HETATM   16  O2  UNL     1      14.687  -0.734  28.448  1.00  0.00    -0.535 OA
ENDBRANCH   5  14
TORSDOF 4
ENDMDL
MODEL 2
REMARK VINA RESULT: -4.385575941      6.777      7.160
REMARK  4 active torsions:
REMARK  status: ('A' for Active; 'I' for Inactive)
REMARK    1  A    between atoms: N1_1  and  C1_5 
REMARK    2  A    between atoms: C1_5  and  N2_6 
REMARK    3  A    between atoms: N2_6  and  C2_9 
REMARK    4  A    between atoms: C3_13  and  N4_14 
ROOT
HETATM    1  C2  UNL     1      12.542  -7.659  24.675  1.00  0.00     0.443 A 
HETATM    2  N3  UNL     1      12.100  -6.279  24.413  1.00  0.00    -0.011 N 
ATOM      3  H31 UNL     1      11.796  -5.743  23.600  1.00  0.00     0.282 HD
ATOM      4  H32 UNL     1      12.533  -5.355  24.392  1.00  0.00     0.282 HD
HETATM    5  C3  UNL     1      11.431  -7.169  25.470  1.00  0.00     0.414 A 
ENDROOT
BRANCH   1   6
HETATM    6  N2  UNL     1      13.824  -7.835  25.237  1.00  0.00    -0.018 N 
ATOM      7  H22 UNL     1      13.790  -8.120  26.215  1.00  0.00     0.281 HD
ATOM      8  H21 UNL     1      14.322  -6.954  25.368  1.00  0.00     0.281 HD
BRANCH   6   9
HETATM    9  C1  UNL     1      14.545  -8.763  24.410  1.00  0.00     0.462 C 
BRANCH   9  10
HETATM   10  N1  UNL     1      15.981  -8.593  24.490  1.00  0.00    -0.055 N 
ATOM     11  H13 UNL     1      16.219  -7.701  24.923  1.00  0.00     0.276 HD
ATOM     12  H12 UNL     1      16.385  -9.226  25.182  1.00  0.00     0.276 HD
ATOM     13  H11 UNL     1      16.446  -8.696  23.588  1.00  0.00     0.276 HD
ENDBRANCH   9  10
ENDBRANCH   6   9
ENDBRANCH   1   6
BRANCH   5  14
HETATM   14  N4  UNL     1      10.076  -7.586  25.136  1.00  0.00    -0.118 N 
HETATM   15  O1  UNL     1       9.825  -8.180  24.080  1.00  0.00    -0.535 OA
HETATM   16  O2  UNL     1       9.027  -7.317  25.987  1.00  0.00    -0.535 OA
ENDBRANCH   5  14
TORSDOF 4
ENDMDL
MODEL 3
REMARK VINA RESULT: -4.302065961      6.896      7.760
REMARK  4 active torsions:
REMARK  status: ('A' for Active; 'I' for Inactive)
REMARK    1  A    between atoms: N1_1  and  C1_5 
REMARK    2  A    between atoms: C1_5  and  N2_6 
REMARK    3  A    between atoms: N2_6  and  C2_9 
REMARK    4  A    between atoms: C3_13  and  N4_14 
ROOT
HETATM    1  C2  UNL     1      14.251  -8.691  24.073  1.00  0.00     0.443 A 
HETATM    2  N3  UNL     1      13.315  -7.653  24.536  1.00  0.00    -0.011 N 
ATOM      3  H31 UNL     1      12.868  -6.829  24.133  1.00  0.00     0.282 HD
ATOM      4  H32 UNL     1      13.349  -6.859  25.176  1.00  0.00     0.282 HD
HETATM    5  C3  UNL     1      12.998  -9.151  24.639  1.00  0.00     0.414 A 
ENDROOT
BRANCH   1   6
HETATM    6  N2  UNL     1      15.467  -8.829  24.774  1.00  0.00    -0.018 N 
ATOM      7  H22 UNL     1      16.071  -8.012  24.681  1.00  0.00     0.281 HD
ATOM      8  H21 UNL     1      16.094  -9.511  24.346  1.00  0.00     0.281 HD
BRANCH   6   9
HETATM    9  C1  UNL     1      15.158  -9.140  26.142  1.00  0.00     0.462 C 
BRANCH   9  10
HETATM   10  N1  UNL     1      15.906  -8.338  27.088  1.00  0.00    -0.055 N 
ATOM     11  H13 UNL     1      15.396  -7.489  27.328  1.00  0.00     0.276 HD
ATOM     12  H12 UNL     1      15.929  -8.784  28.005  1.00  0.00     0.276 HD
ATOM     13  H11 UNL     1      16.848  -8.118  26.765  1.00  0.00     0.276 HD
ENDBRANCH   9  10
ENDBRANCH   6   9
ENDBRANCH   1   6
BRANCH   5  14
HETATM   14  N4  UNL     1      11.936  -9.605  23.751  1.00  0.00    -0.118 N 
HETATM   15  O1  UNL     1      10.745  -9.533  24.079  1.00  0.00    -0.535 OA
HETATM   16  O2  UNL     1      12.231 -10.142  22.518  1.00  0.00    -0.535 OA
ENDBRANCH   5  14
TORSDOF 4
ENDMDL
MODEL 4
REMARK VINA RESULT: -4.297036164      1.264      1.756
REMARK  4 active torsions:
REMARK  status: ('A' for Active; 'I' for Inactive)
REMARK    1  A    between atoms: N1_1  and  C1_5 
REMARK    2  A    between atoms: C1_5  and  N2_6 
REMARK    3  A    between atoms: N2_6  and  C2_9 
REMARK    4  A    between atoms: C3_13  and  N4_14 
ROOT
HETATM    1  C2  UNL     1      15.442  -2.865  28.337  1.00  0.00     0.443 A 
HETATM    2  N3  UNL     1      16.568  -2.101  28.899  1.00  0.00    -0.011 N 
ATOM      3  H31 UNL     1      17.175  -1.343  28.588  1.00  0.00     0.282 HD
ATOM      4  H32 UNL     1      17.545  -2.286  29.128  1.00  0.00     0.282 HD
HETATM    5  C3  UNL     1      15.217  -2.221  29.616  1.00  0.00     0.414 A 
ENDROOT
BRANCH   1   6
HETATM    6  N2  UNL     1      15.591  -4.264  28.236  1.00  0.00    -0.018 N 
ATOM      7  H22 UNL     1      15.221  -4.639  27.362  1.00  0.00     0.281 HD
ATOM      8  H21 UNL     1      14.978  -4.774  28.873  1.00  0.00     0.281 HD
BRANCH   6   9
HETATM    9  C1  UNL     1      16.980  -4.577  28.433  1.00  0.00     0.462 C 
BRANCH   9  10
HETATM   10  N1  UNL     1      17.260  -5.995  28.332  1.00  0.00    -0.055 N 
ATOM     11  H13 UNL     1      16.425  -6.512  28.055  1.00  0.00     0.276 HD
ATOM     12  H12 UNL     1      17.853  -6.193  27.526  1.00  0.00     0.276 HD
ATOM     13  H11 UNL     1      17.662  -6.383  29.186  1.00  0.00     0.276 HD
ENDBRANCH   9  10
ENDBRANCH   6   9
ENDBRANCH   1   6
BRANCH   5  14
HETATM   14  N4  UNL     1      14.450  -0.983  29.668  1.00  0.00    -0.118 N 
HETATM   15  O1  UNL     1      14.000  -0.546  30.734  1.00  0.00    -0.535 OA
HETATM   16  O2  UNL     1      14.194  -0.265  28.521  1.00  0.00    -0.535 OA
ENDBRANCH   5  14
TORSDOF 4
ENDMDL
MODEL 5
REMARK VINA RESULT: -4.277344255      1.914      2.799
REMARK  4 active torsions:
REMARK  status: ('A' for Active; 'I' for Inactive)
REMARK    1  A    between atoms: N1_1  and  C1_5 
REMARK    2  A    between atoms: C1_5  and  N2_6 
REMARK    3  A    between atoms: N2_6  and  C2_9 
REMARK    4  A    between atoms: C3_13  and  N4_14 
ROOT
HETATM    1  C2  UNL     1      15.365  -1.633  28.756  1.00  0.00     0.443 A 
HETATM    2  N3  UNL     1      15.728  -1.651  30.184  1.00  0.00    -0.011 N 
ATOM      3  H31 UNL     1      16.282  -1.070  30.812  1.00  0.00     0.282 HD
ATOM      4  H32 UNL     1      16.325  -2.217  30.787  1.00  0.00     0.282 HD
HETATM    5  C3  UNL     1      14.270  -1.694  29.705  1.00  0.00     0.414 A 
ENDROOT
BRANCH   1   6
HETATM    6  N2  UNL     1      15.727  -2.753  27.980  1.00  0.00    -0.018 N 
ATOM      7  H22 UNL     1      16.432  -2.534  27.275  1.00  0.00     0.281 HD
ATOM      8  H21 UNL     1      14.986  -3.049  27.344  1.00  0.00     0.281 HD
BRANCH   6   9
HETATM    9  C1  UNL     1      16.140  -3.799  28.875  1.00  0.00     0.462 C 
BRANCH   9  10
HETATM   10  N1  UNL     1      16.978  -4.792  28.235  1.00  0.00    -0.055 N 
ATOM     11  H13 UNL     1      17.179  -4.532  27.270  1.00  0.00     0.276 HD
ATOM     12  H12 UNL     1      17.925  -4.769  28.615  1.00  0.00     0.276 HD
ATOM     13  H11 UNL     1      16.588  -5.734  28.285  1.00  0.00     0.276 HD
ENDBRANCH   9  10
ENDBRANCH   6   9
ENDBRANCH   1   6
BRANCH   5  14
HETATM   14  N4  UNL     1      13.506  -0.488  29.993  1.00  0.00    -0.118 N 
HETATM   15  O1  UNL     1      13.921   0.631  29.670  1.00  0.00    -0.535 OA
HETATM   16  O2  UNL     1      12.297  -0.560  30.649  1.00  0.00    -0.535 OA
ENDBRANCH   5  14
TORSDOF 4
ENDMDL
