MODEL 1
REMARK VINA RESULT: -7.584138215      0.000      0.000
REMARK  8 active torsions:
REMARK  status: ('A' for Active; 'I' for Inactive)
REMARK    1  A    between atoms: C2_2  and  C3_3 
REMARK    2  A    between atoms: C8_9  and  C9_10 
REMARK    3  A    between atoms: C9_10  and  O2_11 
REMARK    4  A    between atoms: N1_13  and  O3_15 
REMARK    5  A    between atoms: O3_15  and  C10_16 
REMARK    6  A    between atoms: C15_22  and  O5_23 
REMARK    7  A    between atoms: C17_28  and  O6_29 
REMARK    8  A    between atoms: O6_29  and  C18_30 
ROOT
HETATM    1  C3  UNL     1       7.762  20.959  22.480  1.00  0.00     0.108 C 
HETATM    2  C4  UNL     1       8.423  21.847  21.458  1.00  0.00     0.051 C 
HETATM    3  O1  UNL     1       8.209  21.393  23.796  1.00  0.00    -0.334 OA
HETATM    4  C5  UNL     1       7.756  22.642  24.242  1.00  0.00     0.099 A 
HETATM    5  C6  UNL     1       8.388  23.327  25.243  1.00  0.00     0.040 A 
HETATM    6  C7  UNL     1       7.914  24.544  25.647  1.00  0.00     0.022 A 
HETATM    7  C8  UNL     1       6.778  25.145  25.072  1.00  0.00     0.052 A 
HETATM    8  C15 UNL     1       6.135  24.464  24.065  1.00  0.00     0.109 A 
HETATM    9  C16 UNL     1       6.647  23.206  23.665  1.00  0.00     0.098 A 
HETATM   10  N2  UNL     1       5.983  22.502  22.624  1.00  0.00    -0.356 N 
ATOM     11  H2  UNL     1       5.342  22.964  21.979  1.00  0.00     0.162 HD
HETATM   12  C17 UNL     1       6.281  21.057  22.537  1.00  0.00     0.265 C 
ENDROOT
BRANCH   7  13
HETATM   13  C9  UNL     1       6.331  26.433  25.546  1.00  0.00     0.173 C 
HETATM   14  N1  UNL     1       5.164  26.500  26.081  1.00  0.00    -0.244 N 
ATOM     15  H1  UNL     1       4.593  25.658  26.156  1.00  0.00     0.196 HD
BRANCH  13  16
HETATM   16  O2  UNL     1       7.068  27.569  25.462  1.00  0.00    -0.344 OA
ATOM     17  H2  UNL     1       6.730  28.398  25.143  1.00  0.00     0.219 HD
ENDBRANCH  13  16
BRANCH  14  18
HETATM   18  O3  UNL     1       4.691  27.673  26.542  1.00  0.00    -0.273 OA
BRANCH  18  19
HETATM   19  C10 UNL     1       4.280  27.967  27.830  1.00  0.00     0.156 C 
HETATM   20  C11 UNL     1       2.822  27.718  28.093  1.00  0.00     0.061 C 
HETATM   21  C12 UNL     1       2.488  28.454  29.398  1.00  0.00     0.170 C 
HETATM   22  O4  UNL     1       3.652  28.726  30.115  1.00  0.00    -0.391 OA
HETATM   23  C13 UNL     1       4.462  27.599  30.231  1.00  0.00     0.170 C 
HETATM   24  C14 UNL     1       5.061  27.204  28.896  1.00  0.00     0.061 C 
ENDBRANCH  18  19
ENDBRANCH  14  18
ENDBRANCH   7  13
BRANCH   8  25
HETATM   25  O5  UNL     1       5.024  24.880  23.388  1.00  0.00    -0.357 OA
ATOM     26  H5  UNL     1       4.701  24.529  22.566  1.00  0.00     0.217 HD
ENDBRANCH   8  25
BRANCH  12  27
HETATM   27  O6  UNL     1       5.563  20.457  21.510  1.00  0.00    -0.292 OA
BRANCH  27  28
HETATM   28  C18 UNL     1       4.275  19.968  21.810  1.00  0.00     0.256 C 
HETATM   29  C19 UNL     1       3.789  18.680  21.273  1.00  0.00     0.126 C 
HETATM   30  O7  UNL     1       3.503  20.628  22.553  1.00  0.00    -0.266 OA
ENDBRANCH  27  28
ENDBRANCH  12  27
BRANCH   1  31
HETATM   31  C2  UNL     1       8.213  19.546  22.356  1.00  0.00     0.038 C 
HETATM   32  C1  UNL     1       7.766  18.627  23.458  1.00  0.00     0.008 C 
ENDBRANCH   1  31
TORSDOF 8
ENDMDL
MODEL 2
REMARK VINA RESULT: -7.490357939      1.799      2.425
REMARK  8 active torsions:
REMARK  status: ('A' for Active; 'I' for Inactive)
REMARK    1  A    between atoms: C2_2  and  C3_3 
REMARK    2  A    between atoms: C8_9  and  C9_10 
REMARK    3  A    between atoms: C9_10  and  O2_11 
REMARK    4  A    between atoms: N1_13  and  O3_15 
REMARK    5  A    between atoms: O3_15  and  C10_16 
REMARK    6  A    between atoms: C15_22  and  O5_23 
REMARK    7  A    between atoms: C17_28  and  O6_29 
REMARK    8  A    between atoms: O6_29  and  C18_30 
ROOT
HETATM    1  C3  UNL     1       7.896  20.050  21.126  1.00  0.00     0.108 C 
HETATM    2  C4  UNL     1       7.722  21.252  20.234  1.00  0.00     0.051 C 
HETATM    3  O1  UNL     1       9.036  20.306  21.995  1.00  0.00    -0.334 OA
HETATM    4  C5  UNL     1       8.882  21.301  22.969  1.00  0.00     0.099 A 
HETATM    5  C6  UNL     1       9.954  21.904  23.567  1.00  0.00     0.040 A 
HETATM    6  C7  UNL     1       9.760  22.871  24.511  1.00  0.00     0.022 A 
HETATM    7  C8  UNL     1       8.479  23.292  24.914  1.00  0.00     0.052 A 
HETATM    8  C15 UNL     1       7.393  22.694  24.319  1.00  0.00     0.109 A 
HETATM    9  C16 UNL     1       7.622  21.694  23.344  1.00  0.00     0.098 A 
HETATM   10  N2  UNL     1       6.500  21.075  22.728  1.00  0.00    -0.356 N 
ATOM     11  H2  UNL     1       5.570  21.493  22.748  1.00  0.00     0.162 HD
HETATM   12  C17 UNL     1       6.768  19.786  22.056  1.00  0.00     0.265 C 
ENDROOT
BRANCH   7  13
HETATM   13  C9  UNL     1       8.344  24.321  25.918  1.00  0.00     0.173 C 
HETATM   14  N1  UNL     1       7.158  24.722  26.207  1.00  0.00    -0.244 N 
ATOM     15  H1  UNL     1       6.355  24.313  25.729  1.00  0.00     0.196 HD
BRANCH  13  16
HETATM   16  O2  UNL     1       9.392  24.883  26.571  1.00  0.00    -0.344 OA
ATOM     17  H2  UNL     1      10.101  25.344  26.138  1.00  0.00     0.219 HD
ENDBRANCH  13  16
BRANCH  14  18
HETATM   18  O3  UNL     1       6.968  25.679  27.135  1.00  0.00    -0.273 OA
BRANCH  18  19
HETATM   19  C10 UNL     1       5.915  26.573  27.219  1.00  0.00     0.156 C 
HETATM   20  C11 UNL     1       4.831  26.360  26.202  1.00  0.00     0.061 C 
HETATM   21  C12 UNL     1       3.986  27.641  26.198  1.00  0.00     0.170 C 
HETATM   22  O4  UNL     1       4.198  28.368  27.368  1.00  0.00    -0.391 OA
HETATM   23  C13 UNL     1       4.096  27.563  28.501  1.00  0.00     0.170 C 
HETATM   24  C14 UNL     1       5.244  26.579  28.590  1.00  0.00     0.061 C 
ENDBRANCH  18  19
ENDBRANCH  14  18
ENDBRANCH   7  13
BRANCH   8  25
HETATM   25  O5  UNL     1       6.078  22.965  24.575  1.00  0.00    -0.357 OA
ATOM     26  H5  UNL     1       5.361  22.341  24.556  1.00  0.00     0.217 HD
ENDBRANCH   8  25
BRANCH  12  27
HETATM   27  O6  UNL     1       5.607  19.251  21.514  1.00  0.00    -0.292 OA
BRANCH  27  28
HETATM   28  C18 UNL     1       4.461  20.071  21.483  1.00  0.00     0.256 C 
HETATM   29  C19 UNL     1       4.023  20.747  20.243  1.00  0.00     0.126 C 
HETATM   30  O7  UNL     1       3.777  20.245  22.524  1.00  0.00    -0.266 OA
ENDBRANCH  27  28
ENDBRANCH  12  27
BRANCH   1  31
HETATM   31  C2  UNL     1       8.258  18.834  20.347  1.00  0.00     0.038 C 
HETATM   32  C1  UNL     1       9.329  19.028  19.310  1.00  0.00     0.008 C 
ENDBRANCH   1  31
TORSDOF 8
ENDMDL
MODEL 3
REMARK VINA RESULT: -7.489010763      1.961      3.381
REMARK  8 active torsions:
REMARK  status: ('A' for Active; 'I' for Inactive)
REMARK    1  A    between atoms: C2_2  and  C3_3 
REMARK    2  A    between atoms: C8_9  and  C9_10 
REMARK    3  A    between atoms: C9_10  and  O2_11 
REMARK    4  A    between atoms: N1_13  and  O3_15 
REMARK    5  A    between atoms: O3_15  and  C10_16 
REMARK    6  A    between atoms: C15_22  and  O5_23 
REMARK    7  A    between atoms: C17_28  and  O6_29 
REMARK    8  A    between atoms: O6_29  and  C18_30 
ROOT
HETATM    1  C3  UNL     1       6.465  21.599  21.824  1.00  0.00     0.108 C 
HETATM    2  C4  UNL     1       5.528  20.797  22.689  1.00  0.00     0.051 C 
HETATM    3  O1  UNL     1       5.722  22.738  21.306  1.00  0.00    -0.334 OA
HETATM    4  C5  UNL     1       5.349  23.726  22.227  1.00  0.00     0.099 A 
HETATM    5  C6  UNL     1       4.345  24.617  21.970  1.00  0.00     0.040 A 
HETATM    6  C7  UNL     1       4.012  25.565  22.896  1.00  0.00     0.022 A 
HETATM    7  C8  UNL     1       4.668  25.676  24.137  1.00  0.00     0.052 A 
HETATM    8  C15 UNL     1       5.680  24.785  24.407  1.00  0.00     0.109 A 
HETATM    9  C16 UNL     1       6.004  23.814  23.430  1.00  0.00     0.098 A 
HETATM   10  N2  UNL     1       7.050  22.891  23.708  1.00  0.00    -0.356 N 
ATOM     11  H2  UNL     1       7.384  22.719  24.656  1.00  0.00     0.162 HD
HETATM   12  C17 UNL     1       7.622  22.199  22.536  1.00  0.00     0.265 C 
ENDROOT
BRANCH   7  13
HETATM   13  C9  UNL     1       4.266  26.701  25.071  1.00  0.00     0.173 C 
HETATM   14  N1  UNL     1       4.303  26.414  26.323  1.00  0.00    -0.244 N 
ATOM     15  H1  UNL     1       4.610  25.489  26.622  1.00  0.00     0.196 HD
BRANCH  13  16
HETATM   16  O2  UNL     1       3.855  27.940  24.705  1.00  0.00    -0.344 OA
ATOM     17  H2  UNL     1       2.993  28.131  24.354  1.00  0.00     0.219 HD
ENDBRANCH  13  16
BRANCH  14  18
HETATM   18  O3  UNL     1       3.941  27.328  27.244  1.00  0.00    -0.273 OA
BRANCH  18  19
HETATM   19  C10 UNL     1       3.879  27.162  28.617  1.00  0.00     0.156 C 
HETATM   20  C11 UNL     1       2.669  26.419  29.102  1.00  0.00     0.061 C 
HETATM   21  C12 UNL     1       2.581  26.679  30.613  1.00  0.00     0.170 C 
HETATM   22  O4  UNL     1       3.809  27.118  31.103  1.00  0.00    -0.391 OA
HETATM   23  C13 UNL     1       4.857  26.304  30.676  1.00  0.00     0.170 C 
HETATM   24  C14 UNL     1       5.100  26.447  29.187  1.00  0.00     0.061 C 
ENDBRANCH  18  19
ENDBRANCH  14  18
ENDBRANCH   7  13
BRANCH   8  25
HETATM   25  O5  UNL     1       6.429  24.733  25.548  1.00  0.00    -0.357 OA
ATOM     26  H5  UNL     1       6.788  25.475  26.021  1.00  0.00     0.217 HD
ENDBRANCH   8  25
BRANCH  12  27
HETATM   27  O6  UNL     1       8.653  21.346  22.909  1.00  0.00    -0.292 OA
BRANCH  27  28
HETATM   28  C18 UNL     1       9.966  21.706  22.545  1.00  0.00     0.256 C 
HETATM   29  C19 UNL     1      10.487  21.470  21.182  1.00  0.00     0.126 C 
HETATM   30  O7  UNL     1      10.732  22.245  23.386  1.00  0.00    -0.266 OA
ENDBRANCH  27  28
ENDBRANCH  12  27
BRANCH   1  31
HETATM   31  C2  UNL     1       6.898  20.832  20.624  1.00  0.00     0.038 C 
HETATM   32  C1  UNL     1       6.042  19.648  20.271  1.00  0.00     0.008 C 
ENDBRANCH   1  31
TORSDOF 8
ENDMDL
MODEL 4
REMARK VINA RESULT: -7.471300558      1.156      1.325
REMARK  8 active torsions:
REMARK  status: ('A' for Active; 'I' for Inactive)
REMARK    1  A    between atoms: C2_2  and  C3_3 
REMARK    2  A    between atoms: C8_9  and  C9_10 
REMARK    3  A    between atoms: C9_10  and  O2_11 
REMARK    4  A    between atoms: N1_13  and  O3_15 
REMARK    5  A    between atoms: O3_15  and  C10_16 
REMARK    6  A    between atoms: C15_22  and  O5_23 
REMARK    7  A    between atoms: C17_28  and  O6_29 
REMARK    8  A    between atoms: O6_29  and  C18_30 
ROOT
HETATM    1  C3  UNL     1       8.016  21.168  22.551  1.00  0.00     0.108 C 
HETATM    2  C4  UNL     1       8.093  22.169  21.427  1.00  0.00     0.051 C 
HETATM    3  O1  UNL     1       8.813  21.682  23.656  1.00  0.00    -0.334 OA
HETATM    4  C5  UNL     1       8.326  22.817  24.318  1.00  0.00     0.099 A 
HETATM    5  C6  UNL     1       9.133  23.615  25.080  1.00  0.00     0.040 A 
HETATM    6  C7  UNL     1       8.618  24.713  25.708  1.00  0.00     0.022 A 
HETATM    7  C8  UNL     1       7.261  25.077  25.610  1.00  0.00     0.052 A 
HETATM    8  C15 UNL     1       6.440  24.282  24.845  1.00  0.00     0.109 A 
HETATM    9  C16 UNL     1       7.000  23.150  24.206  1.00  0.00     0.098 A 
HETATM   10  N2  UNL     1       6.152  22.327  23.415  1.00  0.00    -0.356 N 
ATOM     11  H2  UNL     1       5.250  22.653  23.068  1.00  0.00     0.162 HD
HETATM   12  C17 UNL     1       6.661  20.971  23.128  1.00  0.00     0.265 C 
ENDROOT
BRANCH   7  13
HETATM   13  C9  UNL     1       6.782  26.251  26.299  1.00  0.00     0.173 C 
HETATM   14  N1  UNL     1       6.391  26.111  27.516  1.00  0.00    -0.244 N 
ATOM     15  H1  UNL     1       6.429  25.192  27.957  1.00  0.00     0.196 HD
BRANCH  13  16
HETATM   16  O2  UNL     1       6.721  27.486  25.741  1.00  0.00    -0.344 OA
ATOM     17  H2  UNL     1       6.933  28.288  26.203  1.00  0.00     0.219 HD
ENDBRANCH  13  16
BRANCH  14  18
HETATM   18  O3  UNL     1       5.933  27.168  28.212  1.00  0.00    -0.273 OA
BRANCH  18  19
HETATM   19  C10 UNL     1       4.792  27.233  28.993  1.00  0.00     0.156 C 
HETATM   20  C11 UNL     1       3.525  26.856  28.281  1.00  0.00     0.061 C 
HETATM   21  C12 UNL     1       2.371  27.357  29.161  1.00  0.00     0.170 C 
HETATM   22  O4  UNL     1       2.816  27.585  30.462  1.00  0.00    -0.391 OA
HETATM   23  C13 UNL     1       3.545  26.506  30.955  1.00  0.00     0.170 C 
HETATM   24  C14 UNL     1       4.875  26.363  30.244  1.00  0.00     0.061 C 
ENDBRANCH  18  19
ENDBRANCH  14  18
ENDBRANCH   7  13
BRANCH   8  25
HETATM   25  O5  UNL     1       5.104  24.469  24.630  1.00  0.00    -0.357 OA
ATOM     26  H5  UNL     1       4.431  23.799  24.652  1.00  0.00     0.217 HD
ENDBRANCH   8  25
BRANCH  12  27
HETATM   27  O6  UNL     1       5.750  20.240  22.377  1.00  0.00    -0.292 OA
BRANCH  27  28
HETATM   28  C18 UNL     1       4.647  20.929  21.834  1.00  0.00     0.256 C 
HETATM   29  C19 UNL     1       4.579  21.280  20.399  1.00  0.00     0.126 C 
HETATM   30  O7  UNL     1       3.683  21.265  22.570  1.00  0.00    -0.266 OA
ENDBRANCH  27  28
ENDBRANCH  12  27
BRANCH   1  31
HETATM   31  C2  UNL     1       8.646  19.872  22.179  1.00  0.00     0.038 C 
HETATM   32  C1  UNL     1       8.982  19.713  20.722  1.00  0.00     0.008 C 
ENDBRANCH   1  31
TORSDOF 8
ENDMDL
MODEL 5
REMARK VINA RESULT: -7.437010635      1.620      3.129
REMARK  8 active torsions:
REMARK  status: ('A' for Active; 'I' for Inactive)
REMARK    1  A    between atoms: C2_2  and  C3_3 
REMARK    2  A    between atoms: C8_9  and  C9_10 
REMARK    3  A    between atoms: C9_10  and  O2_11 
REMARK    4  A    between atoms: N1_13  and  O3_15 
REMARK    5  A    between atoms: O3_15  and  C10_16 
REMARK    6  A    between atoms: C15_22  and  O5_23 
REMARK    7  A    between atoms: C17_28  and  O6_29 
REMARK    8  A    between atoms: O6_29  and  C18_30 
ROOT
HETATM    1  C3  UNL     1       5.752  21.605  21.779  1.00  0.00     0.108 C 
HETATM    2  C4  UNL     1       5.100  20.824  22.890  1.00  0.00     0.051 C 
HETATM    3  O1  UNL     1       5.114  22.912  21.725  1.00  0.00    -0.334 OA
HETATM    4  C5  UNL     1       5.353  23.783  22.797  1.00  0.00     0.099 A 
HETATM    5  C6  UNL     1       4.534  24.844  23.066  1.00  0.00     0.040 A 
HETATM    6  C7  UNL     1       4.802  25.668  24.122  1.00  0.00     0.022 A 
HETATM    7  C8  UNL     1       5.909  25.477  24.971  1.00  0.00     0.052 A 
HETATM    8  C15 UNL     1       6.739  24.413  24.710  1.00  0.00     0.109 A 
HETATM    9  C16 UNL     1       6.438  23.575  23.610  1.00  0.00     0.098 A 
HETATM   10  N2  UNL     1       7.296  22.474  23.338  1.00  0.00    -0.356 N 
ATOM     11  H2  UNL     1       7.939  22.102  24.037  1.00  0.00     0.162 HD
HETATM   12  C17 UNL     1       7.194  21.902  21.980  1.00  0.00     0.265 C 
ENDROOT
BRANCH   7  13
HETATM   13  C9  UNL     1       6.135  26.386  26.070  1.00  0.00     0.173 C 
HETATM   14  N1  UNL     1       5.831  25.981  27.251  1.00  0.00    -0.244 N 
ATOM     15  H1  UNL     1       5.445  25.046  27.383  1.00  0.00     0.196 HD
BRANCH  13  16
HETATM   16  O2  UNL     1       6.647  27.634  25.928  1.00  0.00    -0.344 OA
ATOM     17  H2  UNL     1       7.191  27.904  25.198  1.00  0.00     0.219 HD
ENDBRANCH  13  16
BRANCH  14  18
HETATM   18  O3  UNL     1       6.017  26.783  28.317  1.00  0.00    -0.273 OA
BRANCH  18  19
HETATM   19  C10 UNL     1       5.073  27.182  29.247  1.00  0.00     0.156 C 
HETATM   20  C11 UNL     1       3.675  27.289  28.711  1.00  0.00     0.061 C 
HETATM   21  C12 UNL     1       2.878  28.098  29.744  1.00  0.00     0.170 C 
HETATM   22  O4  UNL     1       3.533  28.094  30.975  1.00  0.00    -0.391 OA
HETATM   23  C13 UNL     1       3.911  26.808  31.355  1.00  0.00     0.170 C 
HETATM   24  C14 UNL     1       5.014  26.267  30.467  1.00  0.00     0.061 C 
ENDBRANCH  18  19
ENDBRANCH  14  18
ENDBRANCH   7  13
BRANCH   8  25
HETATM   25  O5  UNL     1       7.856  24.065  25.415  1.00  0.00    -0.357 OA
ATOM     26  H5  UNL     1       7.876  23.653  26.272  1.00  0.00     0.217 HD
ENDBRANCH   8  25
BRANCH  12  27
HETATM   27  O6  UNL     1       8.090  20.855  21.807  1.00  0.00    -0.292 OA
BRANCH  27  28
HETATM   28  C18 UNL     1       9.390  21.012  22.330  1.00  0.00     0.256 C 
HETATM   29  C19 UNL     1      10.514  21.480  21.490  1.00  0.00     0.126 C 
HETATM   30  O7  UNL     1       9.623  20.755  23.539  1.00  0.00    -0.266 OA
ENDBRANCH  27  28
ENDBRANCH  12  27
BRANCH   1  31
HETATM   31  C2  UNL     1       5.501  20.987  20.450  1.00  0.00     0.038 C 
HETATM   32  C1  UNL     1       5.088  19.541  20.478  1.00  0.00     0.008 C 
ENDBRANCH   1  31
TORSDOF 8
ENDMDL
