MODEL 1
REMARK VINA RESULT: -7.002189502      0.000      0.000
REMARK  7 active torsions:
REMARK  status: ('A' for Active; 'I' for Inactive)
REMARK    1  A    between atoms: C2_2  and  N1_3 
REMARK    2  A    between atoms: C6_7  and  C7_8 
REMARK    3  A    between atoms: C7_8  and  C8_9 
REMARK    4  A    between atoms: C7_8  and  C13_16 
REMARK    5  A    between atoms: C8_9  and  C9_10 
REMARK    6  A    between atoms: C16_24  and  N4_25 
REMARK    7  A    between atoms: C17_30  and  N6_31 
ROOT
HETATM    1  N1  UNL     1       1.388  23.166  21.876  1.00  0.00    -0.307 N 
HETATM    2  C3  UNL     1       1.500  22.311  23.055  1.00  0.00     0.149 C 
HETATM    3  C4  UNL     1       2.939  22.583  23.547  1.00  0.00     0.082 C 
HETATM    4  C5  UNL     1       3.620  23.038  22.308  1.00  0.00     0.064 A 
HETATM    5  C6  UNL     1       4.972  23.157  22.049  1.00  0.00     0.023 A 
HETATM    6  C16 UNL     1       5.287  23.626  20.766  1.00  0.00     0.123 A 
HETATM    7  N5  UNL     1       4.360  23.939  19.849  1.00  0.00    -0.175 N 
ATOM      8  H5  UNL     1       4.632  24.277  18.926  1.00  0.00     0.186 HD
HETATM    9  C17 UNL     1       3.066  23.795  20.175  1.00  0.00     0.698 A 
HETATM   10  N7  UNL     1       2.682  23.353  21.382  1.00  0.00    -0.092 N 
ENDROOT
BRANCH   5  11
HETATM   11  C7  UNL     1       6.070  22.865  22.954  1.00  0.00     0.096 C 
BRANCH  11  12
HETATM   12  C8  UNL     1       6.148  21.491  23.535  1.00  0.00     0.043 C 
BRANCH  12  13
HETATM   13  C9  UNL     1       7.230  20.616  22.977  1.00  0.00     0.109 C 
HETATM   14  S1  UNL     1       8.616  21.740  22.514  1.00  0.00    -0.154 SA
HETATM   15  C10 UNL     1       9.840  20.663  21.672  1.00  0.00     0.076 C 
HETATM   16  C11 UNL     1       9.230  20.111  20.380  1.00  0.00     0.020 C 
HETATM   17  C12 UNL     1       8.189  19.055  20.698  1.00  0.00     0.076 C 
HETATM   18  S2  UNL     1       6.718  19.871  21.375  1.00  0.00    -0.154 SA
ENDBRANCH  12  13
ENDBRANCH  11  12
BRANCH  11  19
HETATM   19  C13 UNL     1       6.185  23.865  24.070  1.00  0.00     0.112 A 
HETATM   20  N2  UNL     1       6.568  23.619  25.329  1.00  0.00    -0.246 N 
HETATM   21  O1  UNL     1       6.525  24.743  25.969  1.00  0.00    -0.223 OA
ATOM     22  H2  UNL     1       6.841  22.715  25.713  1.00  0.00     0.196 HD
HETATM   23  C14 UNL     1       6.134  25.734  25.206  1.00  0.00     0.144 A 
HETATM   24  C15 UNL     1       5.953  27.165  25.549  1.00  0.00     0.100 C 
HETATM   25  N3  UNL     1       5.918  25.175  24.002  1.00  0.00    -0.327 N 
ATOM     26  H3  UNL     1       5.602  25.671  23.169  1.00  0.00     0.169 HD
ENDBRANCH  11  19
ENDBRANCH   5  11
BRANCH   6  27
HETATM   27  N4  UNL     1       6.541  23.778  20.460  1.00  0.00    -0.385 N 
ATOM     28  H42 UNL     1       7.097  24.443  20.997  1.00  0.00     0.157 HD
ATOM     29  H41 UNL     1       6.923  23.216  19.699  1.00  0.00     0.157 HD
ENDBRANCH   6  27
BRANCH   1  30
HETATM   30  C2  UNL     1       0.116  23.652  21.423  1.00  0.00     0.139 C 
HETATM   31  C1  UNL     1      -0.140  25.042  21.989  1.00  0.00     0.028 C 
ENDBRANCH   1  30
BRANCH   9  32
HETATM   32  N6  UNL     1       2.124  24.083  19.310  1.00  0.00    -0.233 N 
ATOM     33  H62 UNL     1       1.771  23.323  18.728  1.00  0.00     0.174 HD
ATOM     34  H61 UNL     1       1.766  25.034  19.230  1.00  0.00     0.174 HD
ENDBRANCH   9  32
TORSDOF 7
ENDMDL
MODEL 2
REMARK VINA RESULT: -6.916456576      0.905      1.099
REMARK  7 active torsions:
REMARK  status: ('A' for Active; 'I' for Inactive)
REMARK    1  A    between atoms: C2_2  and  N1_3 
REMARK    2  A    between atoms: C6_7  and  C7_8 
REMARK    3  A    between atoms: C7_8  and  C8_9 
REMARK    4  A    between atoms: C7_8  and  C13_16 
REMARK    5  A    between atoms: C8_9  and  C9_10 
REMARK    6  A    between atoms: C16_24  and  N4_25 
REMARK    7  A    between atoms: C17_30  and  N6_31 
ROOT
HETATM    1  N1  UNL     1       1.174  23.429  21.599  1.00  0.00    -0.307 N 
HETATM    2  C3  UNL     1       1.146  22.787  22.911  1.00  0.00     0.149 C 
HETATM    3  C4  UNL     1       2.530  23.139  23.500  1.00  0.00     0.082 C 
HETATM    4  C5  UNL     1       3.346  23.377  22.282  1.00  0.00     0.064 A 
HETATM    5  C6  UNL     1       4.719  23.452  22.152  1.00  0.00     0.023 A 
HETATM    6  C16 UNL     1       5.176  23.696  20.849  1.00  0.00     0.123 A 
HETATM    7  N5  UNL     1       4.356  23.847  19.799  1.00  0.00    -0.175 N 
ATOM      8  H5  UNL     1       4.729  24.024  18.867  1.00  0.00     0.186 HD
HETATM    9  C17 UNL     1       3.032  23.760  20.005  1.00  0.00     0.698 A 
HETATM   10  N7  UNL     1       2.516  23.530  21.222  1.00  0.00    -0.092 N 
ENDROOT
BRANCH   5  11
HETATM   11  C7  UNL     1       5.711  23.319  23.206  1.00  0.00     0.096 C 
BRANCH  11  12
HETATM   12  C8  UNL     1       5.748  22.035  23.969  1.00  0.00     0.043 C 
BRANCH  12  13
HETATM   13  C9  UNL     1       6.923  21.149  23.685  1.00  0.00     0.109 C 
HETATM   14  S1  UNL     1       8.363  22.270  23.423  1.00  0.00    -0.154 SA
HETATM   15  C10 UNL     1       9.734  21.168  22.900  1.00  0.00     0.076 C 
HETATM   16  C11 UNL     1       9.386  20.526  21.554  1.00  0.00     0.020 C 
HETATM   17  C12 UNL     1       8.312  19.471  21.735  1.00  0.00     0.076 C 
HETATM   18  S2  UNL     1       6.733  20.298  22.066  1.00  0.00    -0.154 SA
ENDBRANCH  12  13
ENDBRANCH  11  12
BRANCH  11  19
HETATM   19  C13 UNL     1       5.677  24.459  24.184  1.00  0.00     0.112 A 
HETATM   20  N2  UNL     1       5.204  25.691  23.962  1.00  0.00    -0.246 N 
HETATM   21  O1  UNL     1       5.365  26.366  25.053  1.00  0.00    -0.223 OA
ATOM     22  H2  UNL     1       4.793  26.034  23.094  1.00  0.00     0.196 HD
HETATM   23  C14 UNL     1       5.923  25.653  26.001  1.00  0.00     0.144 A 
HETATM   24  C15 UNL     1       6.277  26.048  27.385  1.00  0.00     0.100 C 
HETATM   25  N3  UNL     1       6.120  24.444  25.447  1.00  0.00    -0.327 N 
ATOM     26  H3  UNL     1       6.540  23.641  25.916  1.00  0.00     0.169 HD
ENDBRANCH  11  19
ENDBRANCH   5  11
BRANCH   6  27
HETATM   27  N4  UNL     1       6.457  23.795  20.657  1.00  0.00    -0.385 N 
ATOM     28  H42 UNL     1       7.056  23.027  20.960  1.00  0.00     0.157 HD
ATOM     29  H41 UNL     1       6.812  24.633  20.198  1.00  0.00     0.157 HD
ENDBRANCH   6  27
BRANCH   1  30
HETATM   30  C2  UNL     1      -0.035  23.830  20.938  1.00  0.00     0.139 C 
HETATM   31  C1  UNL     1      -0.310  25.303  21.209  1.00  0.00     0.028 C 
ENDBRANCH   1  30
BRANCH   9  32
HETATM   32  N6  UNL     1       2.192  23.897  19.009  1.00  0.00    -0.233 N 
ATOM     33  H62 UNL     1       2.434  23.450  18.124  1.00  0.00     0.174 HD
ATOM     34  H61 UNL     1       1.332  24.432  19.125  1.00  0.00     0.174 HD
ENDBRANCH   9  32
TORSDOF 7
ENDMDL
MODEL 3
REMARK VINA RESULT: -6.821528836      1.677      2.156
REMARK  7 active torsions:
REMARK  status: ('A' for Active; 'I' for Inactive)
REMARK    1  A    between atoms: C2_2  and  N1_3 
REMARK    2  A    between atoms: C6_7  and  C7_8 
REMARK    3  A    between atoms: C7_8  and  C8_9 
REMARK    4  A    between atoms: C7_8  and  C13_16 
REMARK    5  A    between atoms: C8_9  and  C9_10 
REMARK    6  A    between atoms: C16_24  and  N4_25 
REMARK    7  A    between atoms: C17_30  and  N6_31 
ROOT
HETATM    1  N1  UNL     1       0.759  22.663  21.595  1.00  0.00    -0.307 N 
HETATM    2  C3  UNL     1       0.984  22.222  22.969  1.00  0.00     0.149 C 
HETATM    3  C4  UNL     1       2.206  23.060  23.407  1.00  0.00     0.082 C 
HETATM    4  C5  UNL     1       2.859  23.376  22.110  1.00  0.00     0.064 A 
HETATM    5  C6  UNL     1       4.132  23.855  21.869  1.00  0.00     0.023 A 
HETATM    6  C16 UNL     1       4.440  24.055  20.515  1.00  0.00     0.123 A 
HETATM    7  N5  UNL     1       3.576  23.806  19.520  1.00  0.00    -0.175 N 
ATOM      8  H5  UNL     1       3.838  23.966  18.548  1.00  0.00     0.186 HD
HETATM    9  C17 UNL     1       2.356  23.341  19.835  1.00  0.00     0.698 A 
HETATM   10  N7  UNL     1       1.985  23.124  21.107  1.00  0.00    -0.092 N 
ENDROOT
BRANCH   5  11
HETATM   11  C7  UNL     1       5.154  24.174  22.851  1.00  0.00     0.096 C 
BRANCH  11  12
HETATM   12  C8  UNL     1       5.617  23.079  23.755  1.00  0.00     0.043 C 
BRANCH  12  13
HETATM   13  C9  UNL     1       6.518  22.061  23.124  1.00  0.00     0.109 C 
HETATM   14  S1  UNL     1       5.481  20.566  22.828  1.00  0.00    -0.154 SA
HETATM   15  C10 UNL     1       6.652  19.286  22.229  1.00  0.00     0.076 C 
HETATM   16  C11 UNL     1       7.653  18.952  23.338  1.00  0.00     0.020 C 
HETATM   17  C12 UNL     1       8.641  20.088  23.517  1.00  0.00     0.076 C 
HETATM   18  S2  UNL     1       7.793  21.477  24.315  1.00  0.00    -0.154 SA
ENDBRANCH  12  13
ENDBRANCH  11  12
BRANCH  11  19
HETATM   19  C13 UNL     1       4.800  25.371  23.689  1.00  0.00     0.112 A 
HETATM   20  N2  UNL     1       3.944  26.348  23.368  1.00  0.00    -0.246 N 
HETATM   21  O1  UNL     1       3.931  27.185  24.354  1.00  0.00    -0.223 OA
ATOM     22  H2  UNL     1       3.402  26.419  22.507  1.00  0.00     0.196 HD
HETATM   23  C14 UNL     1       4.736  26.824  25.324  1.00  0.00     0.144 A 
HETATM   24  C15 UNL     1       5.010  27.499  26.614  1.00  0.00     0.100 C 
HETATM   25  N3  UNL     1       5.286  25.673  24.900  1.00  0.00    -0.327 N 
ATOM     26  H3  UNL     1       5.966  25.117  25.418  1.00  0.00     0.169 HD
ENDBRANCH  11  19
ENDBRANCH   5  11
BRANCH   6  27
HETATM   27  N4  UNL     1       5.616  24.519  20.216  1.00  0.00    -0.385 N 
ATOM     28  H42 UNL     1       5.810  25.505  20.390  1.00  0.00     0.157 HD
ATOM     29  H41 UNL     1       6.304  23.873  19.828  1.00  0.00     0.157 HD
ENDBRANCH   6  27
BRANCH   1  30
HETATM   30  C2  UNL     1      -0.538  22.580  20.986  1.00  0.00     0.139 C 
HETATM   31  C1  UNL     1      -1.290  23.889  21.186  1.00  0.00     0.028 C 
ENDBRANCH   1  30
BRANCH   9  32
HETATM   32  N6  UNL     1       1.479  23.079  18.897  1.00  0.00    -0.233 N 
ATOM     33  H62 UNL     1       1.214  23.843  18.275  1.00  0.00     0.174 HD
ATOM     34  H61 UNL     1       1.083  22.144  18.804  1.00  0.00     0.174 HD
ENDBRANCH   9  32
TORSDOF 7
ENDMDL
MODEL 4
REMARK VINA RESULT: -6.741955550      1.927      2.573
REMARK  7 active torsions:
REMARK  status: ('A' for Active; 'I' for Inactive)
REMARK    1  A    between atoms: C2_2  and  N1_3 
REMARK    2  A    between atoms: C6_7  and  C7_8 
REMARK    3  A    between atoms: C7_8  and  C8_9 
REMARK    4  A    between atoms: C7_8  and  C13_16 
REMARK    5  A    between atoms: C8_9  and  C9_10 
REMARK    6  A    between atoms: C16_24  and  N4_25 
REMARK    7  A    between atoms: C17_30  and  N6_31 
ROOT
HETATM    1  N1  UNL     1       0.090  23.669  22.704  1.00  0.00    -0.307 N 
HETATM    2  C3  UNL     1       0.412  23.382  24.100  1.00  0.00     0.149 C 
HETATM    3  C4  UNL     1       1.789  24.056  24.285  1.00  0.00     0.082 C 
HETATM    4  C5  UNL     1       2.320  24.086  22.897  1.00  0.00     0.064 A 
HETATM    5  C6  UNL     1       3.612  24.311  22.462  1.00  0.00     0.023 A 
HETATM    6  C16 UNL     1       3.779  24.276  21.070  1.00  0.00     0.123 A 
HETATM    7  N5  UNL     1       2.773  24.045  20.214  1.00  0.00    -0.175 N 
ATOM      8  H5  UNL     1       2.937  24.029  19.208  1.00  0.00     0.186 HD
HETATM    9  C17 UNL     1       1.545  23.834  20.714  1.00  0.00     0.698 A 
HETATM   10  N7  UNL     1       1.303  23.852  22.034  1.00  0.00    -0.092 N 
ENDROOT
BRANCH   5  11
HETATM   11  C7  UNL     1       4.781  24.583  23.280  1.00  0.00     0.096 C 
BRANCH  11  12
HETATM   12  C8  UNL     1       5.320  23.470  24.118  1.00  0.00     0.043 C 
BRANCH  12  13
HETATM   13  C9  UNL     1       6.274  22.545  23.424  1.00  0.00     0.109 C 
HETATM   14  S1  UNL     1       5.329  21.004  23.062  1.00  0.00    -0.154 SA
HETATM   15  C10 UNL     1       6.569  19.834  22.383  1.00  0.00     0.076 C 
HETATM   16  C11 UNL     1       7.606  19.508  23.462  1.00  0.00     0.020 C 
HETATM   17  C12 UNL     1       8.523  20.694  23.688  1.00  0.00     0.076 C 
HETATM   18  S2  UNL     1       7.601  21.984  24.567  1.00  0.00    -0.154 SA
ENDBRANCH  12  13
ENDBRANCH  11  12
BRANCH  11  19
HETATM   19  C13 UNL     1       4.613  25.799  24.147  1.00  0.00     0.112 A 
HETATM   20  N2  UNL     1       4.097  26.978  23.782  1.00  0.00    -0.246 N 
HETATM   21  O1  UNL     1       4.138  27.752  24.817  1.00  0.00    -0.223 OA
ATOM     22  H2  UNL     1       3.738  27.222  22.859  1.00  0.00     0.196 HD
HETATM   23  C14 UNL     1       4.656  27.156  25.863  1.00  0.00     0.144 A 
HETATM   24  C15 UNL     1       4.881  27.687  27.228  1.00  0.00     0.100 C 
HETATM   25  N3  UNL     1       4.957  25.917  25.436  1.00  0.00    -0.327 N 
ATOM     26  H3  UNL     1       5.380  25.183  26.004  1.00  0.00     0.169 HD
ENDBRANCH  11  19
ENDBRANCH   5  11
BRANCH   6  27
HETATM   27  N4  UNL     1       4.966  24.495  20.590  1.00  0.00    -0.385 N 
ATOM     28  H42 UNL     1       5.772  24.120  21.090  1.00  0.00     0.157 HD
ATOM     29  H41 UNL     1       5.044  25.025  19.722  1.00  0.00     0.157 HD
ENDBRANCH   6  27
BRANCH   1  30
HETATM   30  C2  UNL     1      -1.269  23.723  22.246  1.00  0.00     0.139 C 
HETATM   31  C1  UNL     1      -1.938  22.370  22.449  1.00  0.00     0.028 C 
ENDBRANCH   1  30
BRANCH   9  32
HETATM   32  N6  UNL     1       0.531  23.600  19.917  1.00  0.00    -0.233 N 
ATOM     33  H62 UNL     1       0.479  24.138  19.052  1.00  0.00     0.174 HD
ATOM     34  H61 UNL     1      -0.173  22.905  20.164  1.00  0.00     0.174 HD
ENDBRANCH   9  32
TORSDOF 7
ENDMDL
MODEL 5
REMARK VINA RESULT: -6.572121217      1.132      1.550
REMARK  7 active torsions:
REMARK  status: ('A' for Active; 'I' for Inactive)
REMARK    1  A    between atoms: C2_2  and  N1_3 
REMARK    2  A    between atoms: C6_7  and  C7_8 
REMARK    3  A    between atoms: C7_8  and  C8_9 
REMARK    4  A    between atoms: C7_8  and  C13_16 
REMARK    5  A    between atoms: C8_9  and  C9_10 
REMARK    6  A    between atoms: C16_24  and  N4_25 
REMARK    7  A    between atoms: C17_30  and  N6_31 
ROOT
HETATM    1  N1  UNL     1       1.540  22.226  22.942  1.00  0.00    -0.307 N 
HETATM    2  C3  UNL     1       2.270  21.407  23.906  1.00  0.00     0.149 C 
HETATM    3  C4  UNL     1       3.622  22.144  24.035  1.00  0.00     0.082 C 
HETATM    4  C5  UNL     1       3.715  22.872  22.743  1.00  0.00     0.064 A 
HETATM    5  C6  UNL     1       4.812  23.473  22.158  1.00  0.00     0.023 A 
HETATM    6  C16 UNL     1       4.558  24.087  20.923  1.00  0.00     0.123 A 
HETATM    7  N5  UNL     1       3.350  24.099  20.342  1.00  0.00    -0.175 N 
ATOM      8  H5  UNL     1       3.207  24.557  19.442  1.00  0.00     0.186 HD
HETATM    9  C17 UNL     1       2.332  23.491  20.973  1.00  0.00     0.698 A 
HETATM   10  N7  UNL     1       2.493  22.882  22.158  1.00  0.00    -0.092 N 
ENDROOT
BRANCH   5  11
HETATM   11  C7  UNL     1       6.164  23.541  22.685  1.00  0.00     0.096 C 
BRANCH  11  12
HETATM   12  C8  UNL     1       6.924  22.262  22.822  1.00  0.00     0.043 C 
BRANCH  12  13
HETATM   13  C9  UNL     1       7.380  21.643  21.536  1.00  0.00     0.109 C 
HETATM   14  S1  UNL     1       6.386  20.105  21.322  1.00  0.00    -0.154 SA
HETATM   15  C10 UNL     1       7.095  19.283  19.843  1.00  0.00     0.076 C 
HETATM   16  C11 UNL     1       8.542  18.871  20.132  1.00  0.00     0.020 C 
HETATM   17  C12 UNL     1       9.441  20.092  20.159  1.00  0.00     0.076 C 
HETATM   18  S2  UNL     1       9.108  21.029  21.674  1.00  0.00    -0.154 SA
ENDBRANCH  12  13
ENDBRANCH  11  12
BRANCH  11  19
HETATM   19  C13 UNL     1       6.243  24.289  23.986  1.00  0.00     0.112 A 
HETATM   20  N2  UNL     1       6.845  23.880  25.110  1.00  0.00    -0.246 N 
HETATM   21  O1  UNL     1       6.678  24.809  25.994  1.00  0.00    -0.223 OA
ATOM     22  H2  UNL     1       7.343  23.000  25.243  1.00  0.00     0.196 HD
HETATM   23  C14 UNL     1       5.994  25.824  25.526  1.00  0.00     0.144 A 
HETATM   24  C15 UNL     1       5.590  27.076  26.208  1.00  0.00     0.100 C 
HETATM   25  N3  UNL     1       5.719  25.492  24.252  1.00  0.00    -0.327 N 
ATOM     26  H3  UNL     1       5.194  26.066  23.593  1.00  0.00     0.169 HD
ENDBRANCH  11  19
ENDBRANCH   5  11
BRANCH   6  27
HETATM   27  N4  UNL     1       5.542  24.686  20.323  1.00  0.00    -0.385 N 
ATOM     28  H42 UNL     1       6.493  24.359  20.497  1.00  0.00     0.157 HD
ATOM     29  H41 UNL     1       5.324  25.455  19.689  1.00  0.00     0.157 HD
ENDBRANCH   6  27
BRANCH   1  30
HETATM   30  C2  UNL     1       0.105  22.255  22.921  1.00  0.00     0.139 C 
HETATM   31  C1  UNL     1      -0.403  23.419  23.760  1.00  0.00     0.028 C 
ENDBRANCH   1  30
BRANCH   9  32
HETATM   32  N6  UNL     1       1.134  23.472  20.442  1.00  0.00    -0.233 N 
ATOM     33  H62 UNL     1       1.049  23.129  19.485  1.00  0.00     0.174 HD
ATOM     34  H61 UNL     1       0.325  23.792  20.974  1.00  0.00     0.174 HD
ENDBRANCH   9  32
TORSDOF 7
ENDMDL
