MODEL 1
REMARK VINA RESULT: -7.785459118      0.000      0.000
REMARK  9 active torsions:
REMARK  status: ('A' for Active; 'I' for Inactive)
REMARK    1  A    between atoms: O1_2  and  C2_3 
REMARK    2  A    between atoms: C4_5  and  C5_6 
REMARK    3  A    between atoms: C5_6  and  O2_7 
REMARK    4  A    between atoms: C5_6  and  N1_9 
REMARK    5  A    between atoms: N1_9  and  C7_11 
REMARK    6  A    between atoms: C8_14  and  N3_15 
REMARK    7  A    between atoms: N3_15  and  N4_17 
REMARK    8  A    between atoms: C17_33  and  O3_34 
REMARK    9  A    between atoms: C19_36  and  O4_37 
ROOT
HETATM    1  C7  UNL     1       8.144  21.302  22.204  1.00  0.00     0.694 A 
HETATM    2  N2  UNL     1       7.172  21.401  21.364  1.00  0.00    -0.166 N 
ATOM      3  H2  UNL     1       6.379  22.011  21.560  1.00  0.00     0.186 HD
HETATM    4  C8  UNL     1       7.218  20.695  20.237  1.00  0.00     0.195 A 
HETATM    5  S2  UNL     1       8.705  19.875  20.410  1.00  0.00     0.040 SA
HETATM    6  N6  UNL     1       9.164  20.497  21.922  1.00  0.00    -0.157 N 
ATOM      7  H6  UNL     1      10.002  20.304  22.470  1.00  0.00     0.193 HD
ENDROOT
BRANCH   1   8
HETATM    8  N1  UNL     1       8.124  22.080  23.477  1.00  0.00    -0.165 N 
HETATM    9  C6  UNL     1       9.389  22.539  23.954  1.00  0.00     0.177 C 
BRANCH   8  10
HETATM   10  C5  UNL     1       6.903  22.259  24.099  1.00  0.00     0.167 C 
BRANCH  10  11
HETATM   11  C4  UNL     1       6.172  23.448  24.414  1.00  0.00     0.021 A 
HETATM   12  C3  UNL     1       6.244  24.171  25.575  1.00  0.00     0.055 A 
HETATM   13  C2  UNL     1       5.470  25.312  25.831  1.00  0.00     0.105 A 
HETATM   14  C19 UNL     1       4.596  25.726  24.869  1.00  0.00     0.135 A 
HETATM   15  C17 UNL     1       4.486  25.034  23.681  1.00  0.00     0.105 A 
HETATM   16  C16 UNL     1       5.251  23.926  23.456  1.00  0.00     0.055 A 
BRANCH  13  17
HETATM   17  O1  UNL     1       5.589  25.996  27.024  1.00  0.00    -0.353 OA
HETATM   18  C1  UNL     1       4.927  25.497  28.168  1.00  0.00     0.210 C 
ENDBRANCH  13  17
BRANCH  14  19
HETATM   19  O4  UNL     1       3.784  26.845  25.024  1.00  0.00    -0.351 OA
HETATM   20  C20 UNL     1       2.520  26.721  25.643  1.00  0.00     0.210 C 
ENDBRANCH  14  19
BRANCH  15  21
HETATM   21  O3  UNL     1       3.579  25.483  22.705  1.00  0.00    -0.353 OA
HETATM   22  C18 UNL     1       2.404  24.729  22.493  1.00  0.00     0.210 C 
ENDBRANCH  15  21
ENDBRANCH  10  11
BRANCH  10  23
HETATM   23  O2  UNL     1       6.319  21.140  24.460  1.00  0.00    -0.345 OA
ATOM     24  H2  UNL     1       6.903  20.482  24.819  1.00  0.00     0.219 HD
ENDBRANCH  10  23
ENDBRANCH   8  10
ENDBRANCH   1   8
BRANCH   4  25
HETATM   25  N3  UNL     1       6.337  20.657  19.264  1.00  0.00    -0.277 N 
ATOM     26  H3  UNL     1       6.437  21.236  18.431  1.00  0.00     0.189 HD
BRANCH  25  27
HETATM   27  N4  UNL     1       5.261  19.790  19.423  1.00  0.00    -0.294 N 
HETATM   28  C9  UNL     1       4.207  20.023  20.074  1.00  0.00     0.091 C 
HETATM   29  S1  UNL     1       3.756  21.498  20.979  1.00  0.00    -0.082 SA
HETATM   30  C13 UNL     1       3.061  19.134  20.254  1.00  0.00     0.070 C 
HETATM   31  C10 UNL     1       2.213  20.816  21.702  1.00  0.00     0.074 C 
HETATM   32  C11 UNL     1       2.250  21.101  23.188  1.00  0.00     0.050 C 
HETATM   33  C12 UNL     1       1.002  21.456  21.060  1.00  0.00     0.050 C 
HETATM   34  N5  UNL     1       2.280  19.462  21.358  1.00  0.00    -0.390 N 
ATOM     35  H5  UNL     1       1.782  18.750  21.891  1.00  0.00     0.156 HD
HETATM   36  C14 UNL     1       3.452  17.668  20.268  1.00  0.00     0.045 C 
HETATM   37  C15 UNL     1       2.205  19.294  18.986  1.00  0.00     0.045 C 
ATOM     38  H4  UNL     1       5.332  18.879  18.970  1.00  0.00     0.187 HD
ENDBRANCH  25  27
ENDBRANCH   4  25
TORSDOF 9
ENDMDL
MODEL 2
REMARK VINA RESULT: -7.766363301      1.926      4.988
REMARK  9 active torsions:
REMARK  status: ('A' for Active; 'I' for Inactive)
REMARK    1  A    between atoms: O1_2  and  C2_3 
REMARK    2  A    between atoms: C4_5  and  C5_6 
REMARK    3  A    between atoms: C5_6  and  O2_7 
REMARK    4  A    between atoms: C5_6  and  N1_9 
REMARK    5  A    between atoms: N1_9  and  C7_11 
REMARK    6  A    between atoms: C8_14  and  N3_15 
REMARK    7  A    between atoms: N3_15  and  N4_17 
REMARK    8  A    between atoms: C17_33  and  O3_34 
REMARK    9  A    between atoms: C19_36  and  O4_37 
ROOT
HETATM    1  C7  UNL     1       2.254  21.154  20.443  1.00  0.00     0.694 A 
HETATM    2  N2  UNL     1       3.290  20.402  20.582  1.00  0.00    -0.166 N 
ATOM      3  H2  UNL     1       4.048  20.676  21.208  1.00  0.00     0.186 HD
HETATM    4  C8  UNL     1       3.358  19.262  19.898  1.00  0.00     0.195 A 
HETATM    5  S2  UNL     1       1.883  19.293  19.039  1.00  0.00     0.040 SA
HETATM    6  N6  UNL     1       1.282  20.771  19.619  1.00  0.00    -0.157 N 
ATOM      7  H6  UNL     1       0.406  21.243  19.395  1.00  0.00     0.193 HD
ENDROOT
BRANCH   1   8
HETATM    8  N1  UNL     1       2.146  22.438  21.195  1.00  0.00    -0.165 N 
HETATM    9  C6  UNL     1       0.869  22.727  21.767  1.00  0.00     0.177 C 
BRANCH   8  10
HETATM   10  C5  UNL     1       3.265  23.247  21.246  1.00  0.00     0.167 C 
BRANCH  10  11
HETATM   11  C4  UNL     1       3.926  23.872  22.350  1.00  0.00     0.021 A 
HETATM   12  C3  UNL     1       4.936  23.342  23.108  1.00  0.00     0.055 A 
HETATM   13  C2  UNL     1       5.516  24.000  24.202  1.00  0.00     0.105 A 
HETATM   14  C19 UNL     1       5.048  25.238  24.530  1.00  0.00     0.135 A 
HETATM   15  C17 UNL     1       4.033  25.818  23.799  1.00  0.00     0.105 A 
HETATM   16  C16 UNL     1       3.485  25.156  22.737  1.00  0.00     0.055 A 
BRANCH  13  17
HETATM   17  O1  UNL     1       6.532  23.409  24.927  1.00  0.00    -0.353 OA
HETATM   18  C1  UNL     1       7.870  23.627  24.531  1.00  0.00     0.210 C 
ENDBRANCH  13  17
BRANCH  14  19
HETATM   19  O4  UNL     1       5.556  25.974  25.597  1.00  0.00    -0.351 OA
HETATM   20  C20 UNL     1       5.209  25.628  26.922  1.00  0.00     0.210 C 
ENDBRANCH  14  19
BRANCH  15  21
HETATM   21  O3  UNL     1       3.570  27.095  24.157  1.00  0.00    -0.353 OA
HETATM   22  C18 UNL     1       2.440  27.181  25.000  1.00  0.00     0.210 C 
ENDBRANCH  15  21
ENDBRANCH  10  11
BRANCH  10  23
HETATM   23  O2  UNL     1       3.810  23.476  20.074  1.00  0.00    -0.345 OA
ATOM     24  H2  UNL     1       4.025  24.386  19.904  1.00  0.00     0.219 HD
ENDBRANCH  10  23
ENDBRANCH   8  10
ENDBRANCH   1   8
BRANCH   4  25
HETATM   25  N3  UNL     1       4.319  18.367  19.902  1.00  0.00    -0.277 N 
ATOM     26  H3  UNL     1       4.367  17.632  19.197  1.00  0.00     0.189 HD
BRANCH  25  27
HETATM   27  N4  UNL     1       5.269  18.469  20.913  1.00  0.00    -0.294 N 
HETATM   28  C9  UNL     1       6.379  19.061  20.835  1.00  0.00     0.091 C 
HETATM   29  S1  UNL     1       7.081  19.941  19.445  1.00  0.00    -0.082 SA
HETATM   30  C13 UNL     1       7.393  19.187  21.881  1.00  0.00     0.070 C 
HETATM   31  C10 UNL     1       8.716  20.249  20.218  1.00  0.00     0.074 C 
HETATM   32  C11 UNL     1       9.771  19.820  19.220  1.00  0.00     0.050 C 
HETATM   33  C12 UNL     1       8.868  21.713  20.567  1.00  0.00     0.050 C 
HETATM   34  N5  UNL     1       8.659  19.479  21.384  1.00  0.00    -0.390 N 
ATOM     35  H5  UNL     1       9.505  19.149  21.849  1.00  0.00     0.156 HD
HETATM   36  C14 UNL     1       7.425  17.992  22.814  1.00  0.00     0.045 C 
HETATM   37  C15 UNL     1       6.933  20.357  22.768  1.00  0.00     0.045 C 
ATOM     38  H4  UNL     1       5.046  18.022  21.802  1.00  0.00     0.187 HD
ENDBRANCH  25  27
ENDBRANCH   4  25
TORSDOF 9
ENDMDL
MODEL 3
REMARK VINA RESULT: -7.694379390      1.919      4.951
REMARK  9 active torsions:
REMARK  status: ('A' for Active; 'I' for Inactive)
REMARK    1  A    between atoms: O1_2  and  C2_3 
REMARK    2  A    between atoms: C4_5  and  C5_6 
REMARK    3  A    between atoms: C5_6  and  O2_7 
REMARK    4  A    between atoms: C5_6  and  N1_9 
REMARK    5  A    between atoms: N1_9  and  C7_11 
REMARK    6  A    between atoms: C8_14  and  N3_15 
REMARK    7  A    between atoms: N3_15  and  N4_17 
REMARK    8  A    between atoms: C17_33  and  O3_34 
REMARK    9  A    between atoms: C19_36  and  O4_37 
ROOT
HETATM    1  C7  UNL     1       2.704  22.471  20.777  1.00  0.00     0.694 A 
HETATM    2  N2  UNL     1       3.236  21.328  21.037  1.00  0.00    -0.166 N 
ATOM      3  H2  UNL     1       3.416  21.047  22.002  1.00  0.00     0.186 HD
HETATM    4  C8  UNL     1       3.549  20.517  20.030  1.00  0.00     0.195 A 
HETATM    5  S2  UNL     1       3.056  21.442  18.683  1.00  0.00     0.040 SA
HETATM    6  N6  UNL     1       2.483  22.809  19.511  1.00  0.00    -0.157 N 
ATOM      7  H6  UNL     1       2.076  23.666  19.135  1.00  0.00     0.193 HD
ENDROOT
BRANCH   1   8
HETATM    8  N1  UNL     1       2.341  23.404  21.884  1.00  0.00    -0.165 N 
HETATM    9  C6  UNL     1       1.093  23.157  22.532  1.00  0.00     0.177 C 
BRANCH   8  10
HETATM   10  C5  UNL     1       3.215  24.438  22.162  1.00  0.00     0.167 C 
BRANCH  10  11
HETATM   11  C4  UNL     1       3.876  24.812  23.375  1.00  0.00     0.021 A 
HETATM   12  C3  UNL     1       5.011  24.251  23.895  1.00  0.00     0.055 A 
HETATM   13  C2  UNL     1       5.587  24.645  25.112  1.00  0.00     0.105 A 
HETATM   14  C19 UNL     1       4.983  25.645  25.815  1.00  0.00     0.135 A 
HETATM   15  C17 UNL     1       3.838  26.244  25.335  1.00  0.00     0.105 A 
HETATM   16  C16 UNL     1       3.296  25.842  24.148  1.00  0.00     0.055 A 
BRANCH  13  17
HETATM   17  O1  UNL     1       6.733  24.038  25.583  1.00  0.00    -0.353 OA
HETATM   18  C1  UNL     1       7.757  23.704  24.668  1.00  0.00     0.210 C 
ENDBRANCH  13  17
BRANCH  14  19
HETATM   19  O4  UNL     1       5.474  26.110  27.032  1.00  0.00    -0.351 OA
HETATM   20  C20 UNL     1       5.063  25.502  28.239  1.00  0.00     0.210 C 
ENDBRANCH  14  19
BRANCH  15  21
HETATM   21  O3  UNL     1       3.236  27.273  26.079  1.00  0.00    -0.353 OA
HETATM   22  C18 UNL     1       2.018  26.993  26.738  1.00  0.00     0.210 C 
ENDBRANCH  15  21
ENDBRANCH  10  11
BRANCH  10  23
HETATM   23  O2  UNL     1       3.478  25.206  21.130  1.00  0.00    -0.345 OA
ATOM     24  H2  UNL     1       2.958  25.027  20.355  1.00  0.00     0.219 HD
ENDBRANCH  10  23
ENDBRANCH   8  10
ENDBRANCH   1   8
BRANCH   4  25
HETATM   25  N3  UNL     1       4.093  19.322  20.085  1.00  0.00    -0.277 N 
ATOM     26  H3  UNL     1       3.785  18.567  19.474  1.00  0.00     0.189 HD
BRANCH  25  27
HETATM   27  N4  UNL     1       5.110  19.138  21.016  1.00  0.00    -0.294 N 
HETATM   28  C9  UNL     1       6.314  19.489  20.884  1.00  0.00     0.091 C 
HETATM   29  S1  UNL     1       7.090  20.317  19.502  1.00  0.00    -0.082 SA
HETATM   30  C13 UNL     1       7.400  19.311  21.845  1.00  0.00     0.070 C 
HETATM   31  C10 UNL     1       8.803  20.210  20.151  1.00  0.00     0.074 C 
HETATM   32  C11 UNL     1       9.670  19.657  19.041  1.00  0.00     0.050 C 
HETATM   33  C12 UNL     1       9.290  21.575  20.586  1.00  0.00     0.050 C 
HETATM   34  N5  UNL     1       8.663  19.374  21.263  1.00  0.00    -0.390 N 
ATOM     35  H5  UNL     1       9.447  18.835  21.630  1.00  0.00     0.156 HD
HETATM   36  C14 UNL     1       7.239  18.061  22.688  1.00  0.00     0.045 C 
HETATM   37  C15 UNL     1       7.265  20.472  22.846  1.00  0.00     0.045 C 
ATOM     38  H4  UNL     1       4.858  18.673  21.888  1.00  0.00     0.187 HD
ENDBRANCH  25  27
ENDBRANCH   4  25
TORSDOF 9
ENDMDL
MODEL 4
REMARK VINA RESULT: -7.648070831      0.345      2.164
REMARK  9 active torsions:
REMARK  status: ('A' for Active; 'I' for Inactive)
REMARK    1  A    between atoms: O1_2  and  C2_3 
REMARK    2  A    between atoms: C4_5  and  C5_6 
REMARK    3  A    between atoms: C5_6  and  O2_7 
REMARK    4  A    between atoms: C5_6  and  N1_9 
REMARK    5  A    between atoms: N1_9  and  C7_11 
REMARK    6  A    between atoms: C8_14  and  N3_15 
REMARK    7  A    between atoms: N3_15  and  N4_17 
REMARK    8  A    between atoms: C17_33  and  O3_34 
REMARK    9  A    between atoms: C19_36  and  O4_37 
ROOT
HETATM    1  C7  UNL     1       8.123  21.212  22.062  1.00  0.00     0.694 A 
HETATM    2  N2  UNL     1       7.127  21.295  21.249  1.00  0.00    -0.166 N 
ATOM      3  H2  UNL     1       6.324  21.883  21.472  1.00  0.00     0.186 HD
HETATM    4  C8  UNL     1       7.161  20.602  20.113  1.00  0.00     0.195 A 
HETATM    5  S2  UNL     1       8.673  19.819  20.238  1.00  0.00     0.040 SA
HETATM    6  N6  UNL     1       9.155  20.436  21.744  1.00  0.00    -0.157 N 
ATOM      7  H6  UNL     1      10.012  20.259  22.268  1.00  0.00     0.193 HD
ENDROOT
BRANCH   1   8
HETATM    8  N1  UNL     1       8.117  21.975  23.344  1.00  0.00    -0.165 N 
HETATM    9  C6  UNL     1       9.390  22.405  23.827  1.00  0.00     0.177 C 
BRANCH   8  10
HETATM   10  C5  UNL     1       6.899  22.171  23.967  1.00  0.00     0.167 C 
BRANCH  10  11
HETATM   11  C4  UNL     1       6.044  23.316  24.025  1.00  0.00     0.021 A 
HETATM   12  C3  UNL     1       5.125  23.702  23.087  1.00  0.00     0.055 A 
HETATM   13  C2  UNL     1       4.342  24.861  23.193  1.00  0.00     0.105 A 
HETATM   14  C19 UNL     1       4.505  25.648  24.294  1.00  0.00     0.135 A 
HETATM   15  C17 UNL     1       5.417  25.305  25.270  1.00  0.00     0.105 A 
HETATM   16  C16 UNL     1       6.167  24.171  25.143  1.00  0.00     0.055 A 
BRANCH  13  17
HETATM   17  O1  UNL     1       3.433  25.194  22.210  1.00  0.00    -0.353 OA
HETATM   18  C1  UNL     1       2.145  24.615  22.243  1.00  0.00     0.210 C 
ENDBRANCH  13  17
BRANCH  14  19
HETATM   19  O4  UNL     1       3.778  26.818  24.495  1.00  0.00    -0.351 OA
HETATM   20  C20 UNL     1       2.538  26.771  25.169  1.00  0.00     0.210 C 
ENDBRANCH  14  19
BRANCH  15  21
HETATM   21  O3  UNL     1       5.565  26.133  26.395  1.00  0.00    -0.353 OA
HETATM   22  C18 UNL     1       5.143  25.635  27.648  1.00  0.00     0.210 C 
ENDBRANCH  15  21
ENDBRANCH  10  11
BRANCH  10  23
HETATM   23  O2  UNL     1       6.457  21.118  24.616  1.00  0.00    -0.345 OA
ATOM     24  H2  UNL     1       7.128  20.497  24.874  1.00  0.00     0.219 HD
ENDBRANCH  10  23
ENDBRANCH   8  10
ENDBRANCH   1   8
BRANCH   4  25
HETATM   25  N3  UNL     1       6.257  20.553  19.162  1.00  0.00    -0.277 N 
ATOM     26  H3  UNL     1       6.331  21.129  18.324  1.00  0.00     0.189 HD
BRANCH  25  27
HETATM   27  N4  UNL     1       5.191  19.679  19.353  1.00  0.00    -0.294 N 
HETATM   28  C9  UNL     1       4.137  19.920  20.001  1.00  0.00     0.091 C 
HETATM   29  S1  UNL     1       3.673  21.417  20.863  1.00  0.00    -0.082 SA
HETATM   30  C13 UNL     1       3.003  19.023  20.214  1.00  0.00     0.070 C 
HETATM   31  C10 UNL     1       2.141  20.740  21.613  1.00  0.00     0.074 C 
HETATM   32  C11 UNL     1       2.181  21.072  23.089  1.00  0.00     0.050 C 
HETATM   33  C12 UNL     1       0.920  21.345  20.957  1.00  0.00     0.050 C 
HETATM   34  N5  UNL     1       2.223  19.377  21.311  1.00  0.00    -0.390 N 
ATOM     35  H5  UNL     1       1.735  18.676  21.868  1.00  0.00     0.156 HD
HETATM   36  C14 UNL     1       3.411  17.564  20.271  1.00  0.00     0.045 C 
HETATM   37  C15 UNL     1       2.140  19.135  18.946  1.00  0.00     0.045 C 
ATOM     38  H4  UNL     1       5.271  18.755  18.928  1.00  0.00     0.187 HD
ENDBRANCH  25  27
ENDBRANCH   4  25
TORSDOF 9
ENDMDL
MODEL 5
REMARK VINA RESULT: -7.643455497      1.949      4.976
REMARK  9 active torsions:
REMARK  status: ('A' for Active; 'I' for Inactive)
REMARK    1  A    between atoms: O1_2  and  C2_3 
REMARK    2  A    between atoms: C4_5  and  C5_6 
REMARK    3  A    between atoms: C5_6  and  O2_7 
REMARK    4  A    between atoms: C5_6  and  N1_9 
REMARK    5  A    between atoms: N1_9  and  C7_11 
REMARK    6  A    between atoms: C8_14  and  N3_15 
REMARK    7  A    between atoms: N3_15  and  N4_17 
REMARK    8  A    between atoms: C17_33  and  O3_34 
REMARK    9  A    between atoms: C19_36  and  O4_37 
ROOT
HETATM    1  C7  UNL     1       2.748  21.880  20.687  1.00  0.00     0.694 A 
HETATM    2  N2  UNL     1       3.817  22.400  20.192  1.00  0.00    -0.166 N 
ATOM      3  H2  UNL     1       4.048  23.378  20.370  1.00  0.00     0.186 HD
HETATM    4  C8  UNL     1       4.618  21.643  19.445  1.00  0.00     0.195 A 
HETATM    5  S2  UNL     1       3.792  20.149  19.469  1.00  0.00     0.040 SA
HETATM    6  N6  UNL     1       2.473  20.603  20.438  1.00  0.00    -0.157 N 
ATOM      7  H6  UNL     1       1.679  20.043  20.747  1.00  0.00     0.193 HD
ENDROOT
BRANCH   1   8
HETATM    8  N1  UNL     1       1.829  22.701  21.530  1.00  0.00    -0.165 N 
HETATM    9  C6  UNL     1       0.629  22.058  21.962  1.00  0.00     0.177 C 
BRANCH   8  10
HETATM   10  C5  UNL     1       2.194  24.008  21.788  1.00  0.00     0.167 C 
BRANCH  10  11
HETATM   11  C4  UNL     1       2.753  24.616  22.956  1.00  0.00     0.021 A 
HETATM   12  C3  UNL     1       2.072  25.288  23.936  1.00  0.00     0.055 A 
HETATM   13  C2  UNL     1       2.692  25.892  25.041  1.00  0.00     0.105 A 
HETATM   14  C19 UNL     1       4.048  25.804  25.144  1.00  0.00     0.135 A 
HETATM   15  C17 UNL     1       4.781  25.137  24.185  1.00  0.00     0.105 A 
HETATM   16  C16 UNL     1       4.155  24.558  23.119  1.00  0.00     0.055 A 
BRANCH  13  17
HETATM   17  O1  UNL     1       1.948  26.556  25.994  1.00  0.00    -0.353 OA
HETATM   18  C1  UNL     1       1.143  25.805  26.880  1.00  0.00     0.210 C 
ENDBRANCH  13  17
BRANCH  14  19
HETATM   19  O4  UNL     1       4.758  26.367  26.200  1.00  0.00    -0.351 OA
HETATM   20  C20 UNL     1       4.937  25.641  27.399  1.00  0.00     0.210 C 
ENDBRANCH  14  19
BRANCH  15  21
HETATM   21  O3  UNL     1       6.178  25.060  24.317  1.00  0.00    -0.353 OA
HETATM   22  C18 UNL     1       6.744  23.821  24.692  1.00  0.00     0.210 C 
ENDBRANCH  15  21
ENDBRANCH  10  11
BRANCH  10  23
HETATM   23  O2  UNL     1       1.988  24.828  20.783  1.00  0.00    -0.345 OA
ATOM     24  H2  UNL     1       2.738  24.962  20.216  1.00  0.00     0.219 HD
ENDBRANCH  10  23
ENDBRANCH   8  10
ENDBRANCH   1   8
BRANCH   4  25
HETATM   25  N3  UNL     1       5.742  21.982  18.857  1.00  0.00    -0.277 N 
ATOM     26  H3  UNL     1       5.833  22.858  18.344  1.00  0.00     0.189 HD
BRANCH  25  27
HETATM   27  N4  UNL     1       6.803  21.089  18.968  1.00  0.00    -0.294 N 
HETATM   28  C9  UNL     1       7.428  20.803  20.025  1.00  0.00     0.091 C 
HETATM   29  S1  UNL     1       7.168  21.426  21.680  1.00  0.00    -0.082 SA
HETATM   30  C13 UNL     1       8.542  19.867  20.171  1.00  0.00     0.070 C 
HETATM   31  C10 UNL     1       8.628  20.604  22.428  1.00  0.00     0.074 C 
HETATM   32  C11 UNL     1       9.386  21.658  23.207  1.00  0.00     0.050 C 
HETATM   33  C12 UNL     1       8.192  19.473  23.334  1.00  0.00     0.050 C 
HETATM   34  N5  UNL     1       9.302  20.094  21.314  1.00  0.00    -0.390 N 
ATOM     35  H5  UNL     1      10.303  19.899  21.337  1.00  0.00     0.156 HD
HETATM   36  C14 UNL     1       9.412  19.793  18.931  1.00  0.00     0.045 C 
HETATM   37  C15 UNL     1       7.903  18.472  20.278  1.00  0.00     0.045 C 
ATOM     38  H4  UNL     1       7.104  20.622  18.113  1.00  0.00     0.187 HD
ENDBRANCH  25  27
ENDBRANCH   4  25
TORSDOF 9
ENDMDL
