MODEL 1
REMARK VINA RESULT: -8.166253130      0.000      0.000
REMARK  10 active torsions:
REMARK  status: ('A' for Active; 'I' for Inactive)
REMARK    1  A    between atoms: C2_2  and  C3_3 
REMARK    2  A    between atoms: C3_3  and  C4_4 
REMARK    3  A    between atoms: C4_4  and  C5_5 
REMARK    4  A    between atoms: C5_5  and  C6_6 
REMARK    5  A    between atoms: C6_6  and  O2_8 
REMARK    6  A    between atoms: O2_8  and  C7_9 
REMARK    7  A    between atoms: C12_15  and  O4_16 
REMARK    8  A    between atoms: C16_23  and  O7_24 
REMARK    9  A    between atoms: C23_33  and  O9_34 
REMARK   10  A    between atoms: O9_34  and  C24_35 
ROOT
HETATM    1  C7  UNL     1       4.435  19.445  19.848  1.00  0.00     0.166 C 
HETATM    2  C8  UNL     1       3.961  20.456  18.869  1.00  0.00     0.081 C 
HETATM    3  C9  UNL     1       2.603  20.976  19.075  1.00  0.00     0.038 A 
HETATM    4  C10 UNL     1       2.213  21.930  20.031  1.00  0.00     0.106 A 
HETATM    5  C11 UNL     1       0.852  22.117  19.807  1.00  0.00     0.182 A 
HETATM    6  O3  UNL     1       0.458  21.351  18.818  1.00  0.00    -0.297 OA
HETATM    7  C12 UNL     1       1.465  20.671  18.371  1.00  0.00     0.192 A 
HETATM    8  O5  UNL     1       3.163  22.429  20.898  1.00  0.00    -0.309 OA
HETATM    9  C13 UNL     1       3.510  22.296  22.213  1.00  0.00     0.200 C 
HETATM   10  C14 UNL     1       2.766  23.445  22.969  1.00  0.00     0.083 C 
HETATM   11  O6  UNL     1       3.039  21.130  22.878  1.00  0.00    -0.349 OA
HETATM   12  C15 UNL     1       4.094  21.358  23.779  1.00  0.00     0.216 C 
HETATM   13  C16 UNL     1       4.827  22.193  22.731  1.00  0.00     0.143 C 
HETATM   14  C17 UNL     1       5.955  21.485  22.135  1.00  0.00     0.008 C 
HETATM   15  C18 UNL     1       6.578  22.368  21.052  1.00  0.00     0.019 C 
HETATM   16  C19 UNL     1       7.057  21.468  23.223  1.00  0.00     0.020 C 
HETATM   17  C20 UNL     1       7.832  20.217  23.026  1.00  0.00     0.079 C 
HETATM   18  C21 UNL     1       6.902  19.278  22.403  1.00  0.00     0.134 C 
HETATM   19  O8  UNL     1       6.960  18.080  22.378  1.00  0.00    -0.297 OA
HETATM   20  C22 UNL     1       5.791  20.067  21.754  1.00  0.00     0.099 C 
HETATM   21  C23 UNL     1       5.871  19.759  20.289  1.00  0.00     0.173 C 
ENDROOT
BRANCH   1  22
HETATM   22  O2  UNL     1       4.485  18.134  19.284  1.00  0.00    -0.313 OA
BRANCH  22  23
HETATM   23  C6  UNL     1       3.423  17.277  19.237  1.00  0.00     0.259 C 
HETATM   24  O1  UNL     1       2.796  17.039  20.307  1.00  0.00    -0.265 OA
BRANCH  23  25
HETATM   25  C5  UNL     1       3.026  16.646  17.956  1.00  0.00     0.111 C 
BRANCH  25  26
HETATM   26  C4  UNL     1       2.884  15.142  18.099  1.00  0.00     0.010 C 
BRANCH  26  27
HETATM   27  C3  UNL     1       2.644  14.491  16.755  1.00  0.00     0.000 C 
BRANCH  27  28
HETATM   28  C2  UNL     1       3.937  14.161  16.046  1.00  0.00    -0.005 C 
HETATM   29  C1  UNL     1       4.656  13.034  16.769  1.00  0.00     0.005 C 
ENDBRANCH  27  28
ENDBRANCH  26  27
ENDBRANCH  25  26
ENDBRANCH  23  25
ENDBRANCH  22  23
ENDBRANCH   1  22
BRANCH  21  30
HETATM   30  O9  UNL     1       6.760  18.701  19.991  1.00  0.00    -0.313 OA
BRANCH  30  31
HETATM   31  C24 UNL     1       7.895  18.861  19.213  1.00  0.00     0.255 C 
HETATM   32  C25 UNL     1       9.073  19.680  19.593  1.00  0.00     0.126 C 
HETATM   33  O10 UNL     1       7.930  18.269  18.106  1.00  0.00    -0.266 OA
ENDBRANCH  30  31
ENDBRANCH  21  30
BRANCH   7  34
HETATM   34  O4  UNL     1       1.357  19.754  17.301  1.00  0.00    -0.340 OA
ATOM     35  H4  UNL     1       0.858  19.873  16.502  1.00  0.00     0.220 HD
ENDBRANCH   7  34
BRANCH  13  36
HETATM   36  O7  UNL     1       5.310  23.349  23.409  1.00  0.00    -0.381 OA
ATOM     37  H7  UNL     1       5.710  24.008  22.855  1.00  0.00     0.211 HD
ENDBRANCH  13  36
TORSDOF 10
ENDMDL
MODEL 2
REMARK VINA RESULT: -7.915430506      2.904      7.590
REMARK  10 active torsions:
REMARK  status: ('A' for Active; 'I' for Inactive)
REMARK    1  A    between atoms: C2_2  and  C3_3 
REMARK    2  A    between atoms: C3_3  and  C4_4 
REMARK    3  A    between atoms: C4_4  and  C5_5 
REMARK    4  A    between atoms: C5_5  and  C6_6 
REMARK    5  A    between atoms: C6_6  and  O2_8 
REMARK    6  A    between atoms: O2_8  and  C7_9 
REMARK    7  A    between atoms: C12_15  and  O4_16 
REMARK    8  A    between atoms: C16_23  and  O7_24 
REMARK    9  A    between atoms: C23_33  and  O9_34 
REMARK   10  A    between atoms: O9_34  and  C24_35 
ROOT
HETATM    1  C7  UNL     1       3.983  23.344  22.213  1.00  0.00     0.166 C 
HETATM    2  C8  UNL     1       2.918  23.143  23.227  1.00  0.00     0.081 C 
HETATM    3  C9  UNL     1       1.607  23.732  22.922  1.00  0.00     0.038 A 
HETATM    4  C10 UNL     1       0.652  23.219  22.027  1.00  0.00     0.106 A 
HETATM    5  C11 UNL     1      -0.421  24.100  22.113  1.00  0.00     0.182 A 
HETATM    6  O3  UNL     1      -0.142  25.053  22.970  1.00  0.00    -0.297 OA
HETATM    7  C12 UNL     1       1.042  24.860  23.459  1.00  0.00     0.192 A 
HETATM    8  O5  UNL     1       0.948  22.067  21.327  1.00  0.00    -0.309 OA
HETATM    9  C13 UNL     1       1.291  21.711  20.053  1.00  0.00     0.200 C 
HETATM   10  C14 UNL     1      -0.050  21.349  19.335  1.00  0.00     0.083 C 
HETATM   11  O6  UNL     1       1.817  22.743  19.226  1.00  0.00    -0.349 OA
HETATM   12  C15 UNL     1       2.382  21.696  18.477  1.00  0.00     0.216 C 
HETATM   13  C16 UNL     1       2.275  20.759  19.679  1.00  0.00     0.143 C 
HETATM   14  C17 UNL     1       3.561  20.522  20.326  1.00  0.00     0.008 C 
HETATM   15  C18 UNL     1       3.342  19.637  21.554  1.00  0.00     0.019 C 
HETATM   16  C19 UNL     1       4.338  19.580  19.372  1.00  0.00     0.020 C 
HETATM   17  C20 UNL     1       5.777  19.905  19.531  1.00  0.00     0.079 C 
HETATM   18  C21 UNL     1       5.815  21.305  19.949  1.00  0.00     0.134 C 
HETATM   19  O8  UNL     1       6.725  22.082  19.861  1.00  0.00    -0.297 OA
HETATM   20  C22 UNL     1       4.475  21.662  20.543  1.00  0.00     0.099 C 
HETATM   21  C23 UNL     1       4.746  22.034  21.970  1.00  0.00     0.173 C 
ENDROOT
BRANCH   1  22
HETATM   22  O2  UNL     1       4.966  24.285  22.646  1.00  0.00    -0.313 OA
BRANCH  22  23
HETATM   23  C6  UNL     1       4.782  25.172  23.669  1.00  0.00     0.259 C 
HETATM   24  O1  UNL     1       4.214  26.271  23.414  1.00  0.00    -0.265 OA
BRANCH  23  25
HETATM   25  C5  UNL     1       5.243  24.843  25.037  1.00  0.00     0.111 C 
BRANCH  25  26
HETATM   26  C4  UNL     1       4.900  25.947  26.019  1.00  0.00     0.010 C 
BRANCH  26  27
HETATM   27  C3  UNL     1       5.384  25.605  27.411  1.00  0.00     0.000 C 
BRANCH  27  28
HETATM   28  C2  UNL     1       4.260  25.620  28.422  1.00  0.00    -0.005 C 
HETATM   29  C1  UNL     1       4.791  25.253  29.797  1.00  0.00     0.005 C 
ENDBRANCH  27  28
ENDBRANCH  26  27
ENDBRANCH  25  26
ENDBRANCH  23  25
ENDBRANCH  22  23
ENDBRANCH   1  22
BRANCH  21  30
HETATM   30  O9  UNL     1       6.123  22.162  22.260  1.00  0.00    -0.313 OA
BRANCH  30  31
HETATM   31  C24 UNL     1       6.765  21.414  23.233  1.00  0.00     0.255 C 
HETATM   32  C25 UNL     1       7.616  20.228  22.966  1.00  0.00     0.126 C 
HETATM   33  O10 UNL     1       6.617  21.766  24.430  1.00  0.00    -0.266 OA
ENDBRANCH  30  31
ENDBRANCH  21  30
BRANCH   7  34
HETATM   34  O4  UNL     1       1.627  25.723  24.413  1.00  0.00    -0.340 OA
ATOM     35  H4  UNL     1       1.596  26.673  24.412  1.00  0.00     0.220 HD
ENDBRANCH   7  34
BRANCH  13  36
HETATM   36  O7  UNL     1       1.772  19.525  19.178  1.00  0.00    -0.381 OA
ATOM     37  H7  UNL     1       2.156  18.744  19.559  1.00  0.00     0.211 HD
ENDBRANCH  13  36
TORSDOF 10
ENDMDL
MODEL 3
REMARK VINA RESULT: -7.886190456      2.199      7.749
REMARK  10 active torsions:
REMARK  status: ('A' for Active; 'I' for Inactive)
REMARK    1  A    between atoms: C2_2  and  C3_3 
REMARK    2  A    between atoms: C3_3  and  C4_4 
REMARK    3  A    between atoms: C4_4  and  C5_5 
REMARK    4  A    between atoms: C5_5  and  C6_6 
REMARK    5  A    between atoms: C6_6  and  O2_8 
REMARK    6  A    between atoms: O2_8  and  C7_9 
REMARK    7  A    between atoms: C12_15  and  O4_16 
REMARK    8  A    between atoms: C16_23  and  O7_24 
REMARK    9  A    between atoms: C23_33  and  O9_34 
REMARK   10  A    between atoms: O9_34  and  C24_35 
ROOT
HETATM    1  C7  UNL     1       5.478  21.676  21.883  1.00  0.00     0.166 C 
HETATM    2  C8  UNL     1       6.424  21.876  20.756  1.00  0.00     0.081 C 
HETATM    3  C9  UNL     1       7.199  20.701  20.337  1.00  0.00     0.038 A 
HETATM    4  C10 UNL     1       6.728  19.627  19.561  1.00  0.00     0.106 A 
HETATM    5  C11 UNL     1       7.832  18.796  19.404  1.00  0.00     0.182 A 
HETATM    6  O3  UNL     1       8.866  19.311  20.026  1.00  0.00    -0.297 OA
HETATM    7  C12 UNL     1       8.521  20.430  20.581  1.00  0.00     0.192 A 
HETATM    8  O5  UNL     1       5.408  19.627  19.159  1.00  0.00    -0.309 OA
HETATM    9  C13 UNL     1       4.248  18.979  19.477  1.00  0.00     0.200 C 
HETATM   10  C14 UNL     1       4.154  17.766  18.495  1.00  0.00     0.083 C 
HETATM   11  O6  UNL     1       4.204  18.349  20.753  1.00  0.00    -0.349 OA
HETATM   12  C15 UNL     1       2.806  18.436  20.618  1.00  0.00     0.216 C 
HETATM   13  C16 UNL     1       2.961  19.564  19.599  1.00  0.00     0.143 C 
HETATM   14  C17 UNL     1       2.639  20.873  20.153  1.00  0.00     0.008 C 
HETATM   15  C18 UNL     1       2.892  21.940  19.086  1.00  0.00     0.019 C 
HETATM   16  C19 UNL     1       1.096  20.899  20.288  1.00  0.00     0.020 C 
HETATM   17  C20 UNL     1       0.783  21.760  21.456  1.00  0.00     0.079 C 
HETATM   18  C21 UNL     1       1.951  21.668  22.329  1.00  0.00     0.134 C 
HETATM   19  O8  UNL     1       2.020  21.896  23.505  1.00  0.00    -0.297 OA
HETATM   20  C22 UNL     1       3.132  21.223  21.501  1.00  0.00     0.099 C 
HETATM   21  C23 UNL     1       4.129  22.340  21.575  1.00  0.00     0.173 C 
ENDROOT
BRANCH   1  22
HETATM   22  O2  UNL     1       5.941  22.288  23.087  1.00  0.00    -0.313 OA
BRANCH  22  23
HETATM   23  C6  UNL     1       7.091  21.936  23.736  1.00  0.00     0.259 C 
HETATM   24  O1  UNL     1       7.442  20.723  23.719  1.00  0.00    -0.265 OA
BRANCH  23  25
HETATM   25  C5  UNL     1       7.897  22.960  24.440  1.00  0.00     0.111 C 
BRANCH  25  26
HETATM   26  C4  UNL     1       7.117  24.249  24.625  1.00  0.00     0.010 C 
BRANCH  26  27
HETATM   27  C3  UNL     1       6.350  24.235  25.929  1.00  0.00     0.000 C 
BRANCH  27  28
HETATM   28  C2  UNL     1       5.606  25.529  26.162  1.00  0.00    -0.005 C 
HETATM   29  C1  UNL     1       5.144  25.612  27.607  1.00  0.00     0.005 C 
ENDBRANCH  27  28
ENDBRANCH  26  27
ENDBRANCH  25  26
ENDBRANCH  23  25
ENDBRANCH  22  23
ENDBRANCH   1  22
BRANCH  21  30
HETATM   30  O9  UNL     1       3.792  23.323  22.533  1.00  0.00    -0.313 OA
BRANCH  30  31
HETATM   31  C24 UNL     1       3.568  24.651  22.208  1.00  0.00     0.255 C 
HETATM   32  C25 UNL     1       3.512  25.765  23.187  1.00  0.00     0.126 C 
HETATM   33  O10 UNL     1       3.400  24.933  20.995  1.00  0.00    -0.266 OA
ENDBRANCH  30  31
ENDBRANCH  21  30
BRANCH   7  34
HETATM   34  O4  UNL     1       9.421  21.225  21.326  1.00  0.00    -0.340 OA
ATOM     35  H4  UNL     1       9.794  21.014  22.174  1.00  0.00     0.220 HD
ENDBRANCH   7  34
BRANCH  13  36
HETATM   36  O7  UNL     1       2.054  19.271  18.541  1.00  0.00    -0.381 OA
ATOM     37  H7  UNL     1       1.203  19.685  18.607  1.00  0.00     0.211 HD
ENDBRANCH  13  36
TORSDOF 10
ENDMDL
MODEL 4
REMARK VINA RESULT: -7.652017673      3.117      6.951
REMARK  10 active torsions:
REMARK  status: ('A' for Active; 'I' for Inactive)
REMARK    1  A    between atoms: C2_2  and  C3_3 
REMARK    2  A    between atoms: C3_3  and  C4_4 
REMARK    3  A    between atoms: C4_4  and  C5_5 
REMARK    4  A    between atoms: C5_5  and  C6_6 
REMARK    5  A    between atoms: C6_6  and  O2_8 
REMARK    6  A    between atoms: O2_8  and  C7_9 
REMARK    7  A    between atoms: C12_15  and  O4_16 
REMARK    8  A    between atoms: C16_23  and  O7_24 
REMARK    9  A    between atoms: C23_33  and  O9_34 
REMARK   10  A    between atoms: O9_34  and  C24_35 
ROOT
HETATM    1  C7  UNL     1       2.979  23.047  22.136  1.00  0.00     0.166 C 
HETATM    2  C8  UNL     1       3.435  24.450  21.965  1.00  0.00     0.081 C 
HETATM    3  C9  UNL     1       3.889  25.141  23.178  1.00  0.00     0.038 A 
HETATM    4  C10 UNL     1       5.128  24.969  23.819  1.00  0.00     0.106 A 
HETATM    5  C11 UNL     1       5.099  25.861  24.887  1.00  0.00     0.182 A 
HETATM    6  O3  UNL     1       3.956  26.505  24.894  1.00  0.00    -0.297 OA
HETATM    7  C12 UNL     1       3.228  26.102  23.901  1.00  0.00     0.192 A 
HETATM    8  O5  UNL     1       6.020  24.050  23.307  1.00  0.00    -0.309 OA
HETATM    9  C13 UNL     1       6.489  22.805  23.618  1.00  0.00     0.200 C 
HETATM   10  C14 UNL     1       7.791  23.035  24.452  1.00  0.00     0.083 C 
HETATM   11  O6  UNL     1       5.688  22.028  24.502  1.00  0.00    -0.349 OA
HETATM   12  C15 UNL     1       6.358  20.922  23.951  1.00  0.00     0.216 C 
HETATM   13  C16 UNL     1       6.717  21.738  22.710  1.00  0.00     0.143 C 
HETATM   14  C17 UNL     1       5.908  21.383  21.549  1.00  0.00     0.008 C 
HETATM   15  C18 UNL     1       6.288  22.298  20.383  1.00  0.00     0.019 C 
HETATM   16  C19 UNL     1       6.442  20.007  21.077  1.00  0.00     0.020 C 
HETATM   17  C20 UNL     1       5.289  19.283  20.484  1.00  0.00     0.079 C 
HETATM   18  C21 UNL     1       4.107  19.823  21.153  1.00  0.00     0.134 C 
HETATM   19  O8  UNL     1       3.022  19.323  21.261  1.00  0.00    -0.297 OA
HETATM   20  C22 UNL     1       4.456  21.175  21.722  1.00  0.00     0.099 C 
HETATM   21  C23 UNL     1       3.558  22.156  21.029  1.00  0.00     0.173 C 
ENDROOT
BRANCH   1  22
HETATM   22  O2  UNL     1       1.560  22.927  22.023  1.00  0.00    -0.313 OA
BRANCH  22  23
HETATM   23  C6  UNL     1       0.666  23.632  22.777  1.00  0.00     0.259 C 
HETATM   24  O1  UNL     1       0.796  23.615  24.033  1.00  0.00    -0.265 OA
BRANCH  23  25
HETATM   25  C5  UNL     1      -0.426  24.394  22.127  1.00  0.00     0.111 C 
BRANCH  25  26
HETATM   26  C4  UNL     1      -0.177  24.560  20.640  1.00  0.00     0.010 C 
BRANCH  26  27
HETATM   27  C3  UNL     1      -1.311  25.315  19.981  1.00  0.00     0.000 C 
BRANCH  27  28
HETATM   28  C2  UNL     1      -1.908  26.355  20.901  1.00  0.00    -0.005 C 
HETATM   29  C1  UNL     1      -1.788  27.735  20.276  1.00  0.00     0.005 C 
ENDBRANCH  27  28
ENDBRANCH  26  27
ENDBRANCH  25  26
ENDBRANCH  23  25
ENDBRANCH  22  23
ENDBRANCH   1  22
BRANCH  21  30
HETATM   30  O9  UNL     1       2.544  21.536  20.263  1.00  0.00    -0.313 OA
BRANCH  30  31
HETATM   31  C24 UNL     1       2.394  21.737  18.901  1.00  0.00     0.255 C 
HETATM   32  C25 UNL     1       1.121  22.106  18.234  1.00  0.00     0.126 C 
HETATM   33  O10 UNL     1       3.412  21.599  18.177  1.00  0.00    -0.266 OA
ENDBRANCH  30  31
ENDBRANCH  21  30
BRANCH   7  34
HETATM   34  O4  UNL     1       1.936  26.611  23.640  1.00  0.00    -0.340 OA
ATOM     35  H4  UNL     1       1.682  27.527  23.623  1.00  0.00     0.220 HD
ENDBRANCH   7  34
BRANCH  13  36
HETATM   36  O7  UNL     1       8.084  21.456  22.429  1.00  0.00    -0.381 OA
ATOM     37  H7  UNL     1       8.693  21.657  23.129  1.00  0.00     0.211 HD
ENDBRANCH  13  36
TORSDOF 10
ENDMDL
MODEL 5
REMARK VINA RESULT: -7.618306533      2.887      6.044
REMARK  10 active torsions:
REMARK  status: ('A' for Active; 'I' for Inactive)
REMARK    1  A    between atoms: C2_2  and  C3_3 
REMARK    2  A    between atoms: C3_3  and  C4_4 
REMARK    3  A    between atoms: C4_4  and  C5_5 
REMARK    4  A    between atoms: C5_5  and  C6_6 
REMARK    5  A    between atoms: C6_6  and  O2_8 
REMARK    6  A    between atoms: O2_8  and  C7_9 
REMARK    7  A    between atoms: C12_15  and  O4_16 
REMARK    8  A    between atoms: C16_23  and  O7_24 
REMARK    9  A    between atoms: C23_33  and  O9_34 
REMARK   10  A    between atoms: O9_34  and  C24_35 
ROOT
HETATM    1  C7  UNL     1       5.821  22.334  22.286  1.00  0.00     0.166 C 
HETATM    2  C8  UNL     1       5.620  22.485  23.749  1.00  0.00     0.081 C 
HETATM    3  C9  UNL     1       5.309  23.838  24.229  1.00  0.00     0.038 A 
HETATM    4  C10 UNL     1       4.066  24.489  24.136  1.00  0.00     0.106 A 
HETATM    5  C11 UNL     1       4.266  25.718  24.757  1.00  0.00     0.182 A 
HETATM    6  O3  UNL     1       5.505  25.805  25.180  1.00  0.00    -0.297 OA
HETATM    7  C12 UNL     1       6.138  24.714  24.883  1.00  0.00     0.192 A 
HETATM    8  O5  UNL     1       3.019  23.839  23.516  1.00  0.00    -0.309 OA
HETATM    9  C13 UNL     1       2.341  23.903  22.332  1.00  0.00     0.200 C 
HETATM   10  C14 UNL     1       1.110  24.831  22.596  1.00  0.00     0.083 C 
HETATM   11  O6  UNL     1       3.002  24.562  21.257  1.00  0.00    -0.349 OA
HETATM   12  C15 UNL     1       2.139  23.824  20.428  1.00  0.00     0.216 C 
HETATM   13  C16 UNL     1       1.917  22.803  21.542  1.00  0.00     0.143 C 
HETATM   14  C17 UNL     1       2.636  21.554  21.314  1.00  0.00     0.008 C 
HETATM   15  C18 UNL     1       2.412  20.628  22.511  1.00  0.00     0.019 C 
HETATM   16  C19 UNL     1       1.861  20.830  20.185  1.00  0.00     0.020 C 
HETATM   17  C20 UNL     1       2.860  20.041  19.421  1.00  0.00     0.079 C 
HETATM   18  C21 UNL     1       4.128  20.749  19.592  1.00  0.00     0.134 C 
HETATM   19  O8  UNL     1       5.108  20.695  18.903  1.00  0.00    -0.297 OA
HETATM   20  C22 UNL     1       4.030  21.608  20.829  1.00  0.00     0.099 C 
HETATM   21  C23 UNL     1       5.080  21.094  21.769  1.00  0.00     0.173 C 
ENDROOT
BRANCH   1  22
HETATM   22  O2  UNL     1       7.194  22.128  21.953  1.00  0.00    -0.313 OA
BRANCH  22  23
HETATM   23  C6  UNL     1       8.140  21.680  22.831  1.00  0.00     0.259 C 
HETATM   24  O1  UNL     1       7.973  21.912  24.061  1.00  0.00    -0.265 OA
BRANCH  23  25
HETATM   25  C5  UNL     1       9.328  20.944  22.342  1.00  0.00     0.111 C 
BRANCH  25  26
HETATM   26  C4  UNL     1       9.722  21.391  20.946  1.00  0.00     0.010 C 
BRANCH  26  27
HETATM   27  C3  UNL     1       9.864  20.205  20.017  1.00  0.00     0.000 C 
BRANCH  27  28
HETATM   28  C2  UNL     1       8.620  19.982  19.189  1.00  0.00    -0.005 C 
HETATM   29  C1  UNL     1       8.395  18.494  18.976  1.00  0.00     0.005 C 
ENDBRANCH  27  28
ENDBRANCH  26  27
ENDBRANCH  25  26
ENDBRANCH  23  25
ENDBRANCH  22  23
ENDBRANCH   1  22
BRANCH  21  30
HETATM   30  O9  UNL     1       5.959  20.165  21.165  1.00  0.00    -0.313 OA
BRANCH  30  31
HETATM   31  C24 UNL     1       6.061  18.845  21.572  1.00  0.00     0.255 C 
HETATM   32  C25 UNL     1       7.136  18.309  22.444  1.00  0.00     0.126 C 
HETATM   33  O10 UNL     1       5.179  18.044  21.175  1.00  0.00    -0.266 OA
ENDBRANCH  30  31
ENDBRANCH  21  30
BRANCH   7  34
HETATM   34  O4  UNL     1       7.497  24.504  25.208  1.00  0.00    -0.340 OA
ATOM     35  H4  UNL     1       8.192  24.262  24.607  1.00  0.00     0.220 HD
ENDBRANCH   7  34
BRANCH  13  36
HETATM   36  O7  UNL     1       0.518  22.537  21.565  1.00  0.00    -0.381 OA
ATOM     37  H7  UNL     1       0.063  22.682  20.745  1.00  0.00     0.211 HD
ENDBRANCH  13  36
TORSDOF 10
ENDMDL
