MODEL 1
REMARK VINA RESULT: -7.953541734      0.000      0.000
REMARK  8 active torsions:
REMARK  status: ('A' for Active; 'I' for Inactive)
REMARK    1  A    between atoms: C2_2  and  O1_3 
REMARK    2  A    between atoms: O1_3  and  C3_4 
REMARK    3  A    between atoms: C5_7  and  O2_8 
REMARK    4  A    between atoms: O2_8  and  C6_9 
REMARK    5  A    between atoms: C10_15  and  C11_16 
REMARK    6  A    between atoms: C15_22  and  C16_23 
REMARK    7  A    between atoms: C18_25  and  O7_26 
REMARK    8  A    between atoms: C19_28  and  O8_29 
ROOT
HETATM    1  C3  UNL     1       1.075  19.834  18.089  1.00  0.00     0.079 C 
HETATM    2  C4  UNL     1       1.550  20.171  19.275  1.00  0.00     0.102 C 
HETATM    3  S1  UNL     1       2.728  18.971  19.893  1.00  0.00    -0.075 SA
HETATM    4  C5  UNL     1       3.391  19.788  21.388  1.00  0.00     0.225 C 
HETATM    5  C18 UNL     1       2.181  20.216  22.177  1.00  0.00     0.206 C 
HETATM    6  C19 UNL     1       1.375  21.284  21.554  1.00  0.00     0.253 C 
HETATM    7  N1  UNL     1       1.294  21.287  20.117  1.00  0.00    -0.345 N 
HETATM    8  C20 UNL     1       0.902  22.628  19.668  1.00  0.00     0.126 C 
HETATM    9  C21 UNL     1      -0.160  22.567  18.612  1.00  0.00     0.020 C 
HETATM   10  C22 UNL     1       0.420  22.027  17.320  1.00  0.00     0.008 C 
HETATM   11  C23 UNL     1       0.097  20.556  17.263  1.00  0.00     0.067 C 
ENDROOT
BRANCH   4  12
HETATM   12  O2  UNL     1       4.172  20.830  20.968  1.00  0.00    -0.340 OA
BRANCH  12  13
HETATM   13  C6  UNL     1       5.421  20.898  21.578  1.00  0.00     0.296 C 
HETATM   14  O3  UNL     1       5.206  21.169  22.907  1.00  0.00    -0.323 OA
HETATM   15  C7  UNL     1       5.573  22.492  23.126  1.00  0.00     0.160 C 
HETATM   16  C8  UNL     1       6.132  22.579  24.531  1.00  0.00     0.078 C 
HETATM   17  C9  UNL     1       4.331  23.350  22.995  1.00  0.00     0.078 C 
HETATM   18  O4  UNL     1       6.523  22.791  22.153  1.00  0.00    -0.343 OA
HETATM   19  C10 UNL     1       6.274  21.996  21.049  1.00  0.00     0.212 C 
BRANCH  19  20
HETATM   20  C11 UNL     1       7.632  21.499  20.535  1.00  0.00     0.188 C 
HETATM   21  O5  UNL     1       7.487  20.705  19.421  1.00  0.00    -0.345 OA
HETATM   22  C12 UNL     1       8.239  19.566  19.558  1.00  0.00     0.158 C 
HETATM   23  C13 UNL     1       7.515  18.331  19.033  1.00  0.00     0.078 C 
HETATM   24  C14 UNL     1       9.585  19.676  18.859  1.00  0.00     0.078 C 
HETATM   25  O6  UNL     1       8.454  19.396  20.896  1.00  0.00    -0.348 OA
HETATM   26  C15 UNL     1       8.288  20.620  21.541  1.00  0.00     0.156 C 
BRANCH  26  27
HETATM   27  C16 UNL     1       9.668  21.097  21.935  1.00  0.00     0.030 C 
HETATM   28  C17 UNL     1       9.689  21.784  23.283  1.00  0.00     0.007 C 
ENDBRANCH  26  27
ENDBRANCH  19  20
ENDBRANCH  12  13
ENDBRANCH   4  12
BRANCH   5  29
HETATM   29  O7  UNL     1       2.538  20.632  23.475  1.00  0.00    -0.388 OA
ATOM     30  H7  UNL     1       3.057  21.429  23.452  1.00  0.00     0.210 HD
ENDBRANCH   5  29
BRANCH   6  31
HETATM   31  O8  UNL     1       0.036  21.184  22.008  1.00  0.00    -0.374 OA
ATOM     32  H8  UNL     1      -0.104  20.324  22.386  1.00  0.00     0.212 HD
ENDBRANCH   6  31
BRANCH   1  33
HETATM   33  O1  UNL     1       1.557  18.648  17.549  1.00  0.00    -0.353 OA
BRANCH  33  34
HETATM   34  C2  UNL     1       0.809  17.840  16.677  1.00  0.00     0.171 C 
HETATM   35  C1  UNL     1       1.561  16.603  16.244  1.00  0.00     0.034 C 
ENDBRANCH  33  34
ENDBRANCH   1  33
TORSDOF 8
ENDMDL
MODEL 2
REMARK VINA RESULT: -7.938352954      2.485      5.508
REMARK  8 active torsions:
REMARK  status: ('A' for Active; 'I' for Inactive)
REMARK    1  A    between atoms: C2_2  and  O1_3 
REMARK    2  A    between atoms: O1_3  and  C3_4 
REMARK    3  A    between atoms: C5_7  and  O2_8 
REMARK    4  A    between atoms: O2_8  and  C6_9 
REMARK    5  A    between atoms: C10_15  and  C11_16 
REMARK    6  A    between atoms: C15_22  and  C16_23 
REMARK    7  A    between atoms: C18_25  and  O7_26 
REMARK    8  A    between atoms: C19_28  and  O8_29 
ROOT
HETATM    1  C3  UNL     1       1.338  24.305  22.684  1.00  0.00     0.079 C 
HETATM    2  C4  UNL     1       1.812  23.487  21.761  1.00  0.00     0.102 C 
HETATM    3  S1  UNL     1       3.441  23.978  21.200  1.00  0.00    -0.075 SA
HETATM    4  C5  UNL     1       3.944  22.575  20.142  1.00  0.00     0.225 C 
HETATM    5  C18 UNL     1       2.793  22.357  19.195  1.00  0.00     0.206 C 
HETATM    6  C19 UNL     1       1.554  21.862  19.823  1.00  0.00     0.253 C 
HETATM    7  N1  UNL     1       1.268  22.321  21.157  1.00  0.00    -0.345 N 
HETATM    8  C20 UNL     1       0.324  21.391  21.787  1.00  0.00     0.126 C 
HETATM    9  C21 UNL     1      -0.773  22.118  22.503  1.00  0.00     0.020 C 
HETATM   10  C22 UNL     1      -0.224  22.798  23.742  1.00  0.00     0.008 C 
HETATM   11  C23 UNL     1       0.046  24.236  23.382  1.00  0.00     0.067 C 
ENDROOT
BRANCH   4  12
HETATM   12  O2  UNL     1       4.188  21.512  20.968  1.00  0.00    -0.340 OA
BRANCH  12  13
HETATM   13  C6  UNL     1       5.536  21.264  21.209  1.00  0.00     0.296 C 
HETATM   14  O3  UNL     1       6.024  20.587  20.120  1.00  0.00    -0.323 OA
HETATM   15  C7  UNL     1       6.219  19.265  20.505  1.00  0.00     0.160 C 
HETATM   16  C8  UNL     1       7.418  18.744  19.741  1.00  0.00     0.078 C 
HETATM   17  C9  UNL     1       4.974  18.483  20.138  1.00  0.00     0.078 C 
HETATM   18  O4  UNL     1       6.432  19.296  21.881  1.00  0.00    -0.343 OA
HETATM   19  C10 UNL     1       5.771  20.397  22.395  1.00  0.00     0.212 C 
BRANCH  19  20
HETATM   20  C11 UNL     1       6.704  21.042  23.428  1.00  0.00     0.188 C 
HETATM   21  O5  UNL     1       6.013  21.877  24.276  1.00  0.00    -0.345 OA
HETATM   22  C12 UNL     1       6.677  23.071  24.399  1.00  0.00     0.158 C 
HETATM   23  C13 UNL     1       5.724  24.260  24.420  1.00  0.00     0.078 C 
HETATM   24  C14 UNL     1       7.548  23.121  25.644  1.00  0.00     0.078 C 
HETATM   25  O6  UNL     1       7.480  23.189  23.300  1.00  0.00    -0.348 OA
HETATM   26  C15 UNL     1       7.702  21.922  22.763  1.00  0.00     0.156 C 
BRANCH  26  27
HETATM   27  C16 UNL     1       9.131  21.553  23.091  1.00  0.00     0.030 C 
HETATM   28  C17 UNL     1       9.922  21.125  21.873  1.00  0.00     0.007 C 
ENDBRANCH  26  27
ENDBRANCH  19  20
ENDBRANCH  12  13
ENDBRANCH   4  12
BRANCH   5  29
HETATM   29  O7  UNL     1       3.146  21.474  18.155  1.00  0.00    -0.388 OA
ATOM     30  H7  UNL     1       3.482  21.945  17.401  1.00  0.00     0.210 HD
ENDBRANCH   5  29
BRANCH   6  31
HETATM   31  O8  UNL     1       0.440  22.260  19.041  1.00  0.00    -0.374 OA
ATOM     32  H8  UNL     1      -0.331  21.788  19.330  1.00  0.00     0.212 HD
ENDBRANCH   6  31
BRANCH   1  33
HETATM   33  O1  UNL     1       2.159  25.366  23.043  1.00  0.00    -0.353 OA
BRANCH  33  34
HETATM   34  C2  UNL     1       2.314  25.803  24.369  1.00  0.00     0.171 C 
HETATM   35  C1  UNL     1       2.687  27.265  24.459  1.00  0.00     0.034 C 
ENDBRANCH  33  34
ENDBRANCH   1  33
TORSDOF 8
ENDMDL
MODEL 3
REMARK VINA RESULT: -7.721168943      4.118      7.287
REMARK  8 active torsions:
REMARK  status: ('A' for Active; 'I' for Inactive)
REMARK    1  A    between atoms: C2_2  and  O1_3 
REMARK    2  A    between atoms: O1_3  and  C3_4 
REMARK    3  A    between atoms: C5_7  and  O2_8 
REMARK    4  A    between atoms: O2_8  and  C6_9 
REMARK    5  A    between atoms: C10_15  and  C11_16 
REMARK    6  A    between atoms: C15_22  and  C16_23 
REMARK    7  A    between atoms: C18_25  and  O7_26 
REMARK    8  A    between atoms: C19_28  and  O8_29 
ROOT
HETATM    1  C3  UNL     1       3.570  25.987  27.531  1.00  0.00     0.079 C 
HETATM    2  C4  UNL     1       3.599  25.743  26.232  1.00  0.00     0.102 C 
HETATM    3  S1  UNL     1       5.275  25.622  25.608  1.00  0.00    -0.075 SA
HETATM    4  C5  UNL     1       5.026  25.050  23.890  1.00  0.00     0.225 C 
HETATM    5  C18 UNL     1       4.008  25.991  23.301  1.00  0.00     0.206 C 
HETATM    6  C19 UNL     1       2.654  25.887  23.876  1.00  0.00     0.253 C 
HETATM    7  N1  UNL     1       2.562  25.566  25.276  1.00  0.00    -0.345 N 
HETATM    8  C20 UNL     1       1.224  25.030  25.553  1.00  0.00     0.126 C 
HETATM    9  C21 UNL     1       0.637  25.626  26.796  1.00  0.00     0.020 C 
HETATM   10  C22 UNL     1       1.372  25.112  28.017  1.00  0.00     0.008 C 
HETATM   11  C23 UNL     1       2.395  26.153  28.398  1.00  0.00     0.067 C 
ENDROOT
BRANCH   4  12
HETATM   12  O2  UNL     1       4.603  23.750  23.953  1.00  0.00    -0.340 OA
BRANCH  12  13
HETATM   13  C6  UNL     1       4.937  22.980  22.843  1.00  0.00     0.296 C 
HETATM   14  O3  UNL     1       3.761  22.567  22.269  1.00  0.00    -0.323 OA
HETATM   15  C7  UNL     1       3.613  21.213  22.549  1.00  0.00     0.160 C 
HETATM   16  C8  UNL     1       2.906  20.582  21.368  1.00  0.00     0.078 C 
HETATM   17  C9  UNL     1       2.772  21.084  23.803  1.00  0.00     0.078 C 
HETATM   18  O4  UNL     1       4.903  20.718  22.728  1.00  0.00    -0.343 OA
HETATM   19  C10 UNL     1       5.700  21.750  23.188  1.00  0.00     0.212 C 
BRANCH  19  20
HETATM   20  C11 UNL     1       7.039  21.652  22.445  1.00  0.00     0.188 C 
HETATM   21  O5  UNL     1       6.952  20.805  21.364  1.00  0.00    -0.345 OA
HETATM   22  C12 UNL     1       8.019  19.942  21.360  1.00  0.00     0.158 C 
HETATM   23  C13 UNL     1       7.615  18.529  20.955  1.00  0.00     0.078 C 
HETATM   24  C14 UNL     1       9.137  20.411  20.443  1.00  0.00     0.078 C 
HETATM   25  O6  UNL     1       8.494  19.898  22.640  1.00  0.00    -0.348 OA
HETATM   26  C15 UNL     1       8.082  21.046  23.316  1.00  0.00     0.156 C 
BRANCH  26  27
HETATM   27  C16 UNL     1       9.305  21.921  23.473  1.00  0.00     0.030 C 
HETATM   28  C17 UNL     1       9.108  23.030  24.484  1.00  0.00     0.007 C 
ENDBRANCH  26  27
ENDBRANCH  19  20
ENDBRANCH  12  13
ENDBRANCH   4  12
BRANCH   5  29
HETATM   29  O7  UNL     1       3.909  25.828  21.904  1.00  0.00    -0.388 OA
ATOM     30  H7  UNL     1       3.337  25.103  21.681  1.00  0.00     0.210 HD
ENDBRANCH   5  29
BRANCH   6  31
HETATM   31  O8  UNL     1       1.986  27.129  23.729  1.00  0.00    -0.374 OA
ATOM     32  H8  UNL     1       1.762  27.258  22.815  1.00  0.00     0.212 HD
ENDBRANCH   6  31
BRANCH   1  33
HETATM   33  O1  UNL     1       4.802  26.102  28.161  1.00  0.00    -0.353 OA
BRANCH  33  34
HETATM   34  C2  UNL     1       4.942  26.343  29.538  1.00  0.00     0.171 C 
HETATM   35  C1  UNL     1       4.979  25.068  30.348  1.00  0.00     0.034 C 
ENDBRANCH  33  34
ENDBRANCH   1  33
TORSDOF 8
ENDMDL
MODEL 4
REMARK VINA RESULT: -7.664726194      2.334      4.671
REMARK  8 active torsions:
REMARK  status: ('A' for Active; 'I' for Inactive)
REMARK    1  A    between atoms: C2_2  and  O1_3 
REMARK    2  A    between atoms: O1_3  and  C3_4 
REMARK    3  A    between atoms: C5_7  and  O2_8 
REMARK    4  A    between atoms: O2_8  and  C6_9 
REMARK    5  A    between atoms: C10_15  and  C11_16 
REMARK    6  A    between atoms: C15_22  and  C16_23 
REMARK    7  A    between atoms: C18_25  and  O7_26 
REMARK    8  A    between atoms: C19_28  and  O8_29 
ROOT
HETATM    1  C3  UNL     1      -1.178  21.631  21.393  1.00  0.00     0.079 C 
HETATM    2  C4  UNL     1       0.039  22.104  21.180  1.00  0.00     0.102 C 
HETATM    3  S1  UNL     1       1.063  22.010  22.647  1.00  0.00    -0.075 SA
HETATM    4  C5  UNL     1       2.712  22.483  22.018  1.00  0.00     0.225 C 
HETATM    5  C18 UNL     1       2.497  23.767  21.261  1.00  0.00     0.206 C 
HETATM    6  C19 UNL     1       1.704  23.637  20.024  1.00  0.00     0.253 C 
HETATM    7  N1  UNL     1       0.652  22.654  20.023  1.00  0.00    -0.345 N 
HETATM    8  C20 UNL     1       0.318  22.320  18.633  1.00  0.00     0.126 C 
HETATM    9  C21 UNL     1      -1.164  22.276  18.417  1.00  0.00     0.020 C 
HETATM   10  C22 UNL     1      -1.756  21.069  19.117  1.00  0.00     0.008 C 
HETATM   11  C23 UNL     1      -2.296  21.538  20.444  1.00  0.00     0.067 C 
ENDROOT
BRANCH   4  12
HETATM   12  O2  UNL     1       3.160  21.452  21.239  1.00  0.00    -0.340 OA
BRANCH  12  13
HETATM   13  C6  UNL     1       4.544  21.301  21.218  1.00  0.00     0.296 C 
HETATM   14  O3  UNL     1       4.880  20.823  19.976  1.00  0.00    -0.323 OA
HETATM   15  C7  UNL     1       5.230  19.485  20.126  1.00  0.00     0.160 C 
HETATM   16  C8  UNL     1       6.310  19.185  19.109  1.00  0.00     0.078 C 
HETATM   17  C9  UNL     1       3.997  18.647  19.855  1.00  0.00     0.078 C 
HETATM   18  O4  UNL     1       5.677  19.353  21.438  1.00  0.00    -0.343 OA
HETATM   19  C10 UNL     1       5.042  20.309  22.209  1.00  0.00     0.212 C 
BRANCH  19  20
HETATM   20  C11 UNL     1       6.094  20.894  23.160  1.00  0.00     0.188 C 
HETATM   21  O5  UNL     1       5.543  21.837  23.998  1.00  0.00    -0.345 OA
HETATM   22  C12 UNL     1       6.337  22.956  24.027  1.00  0.00     0.158 C 
HETATM   23  C13 UNL     1       5.518  24.242  24.035  1.00  0.00     0.078 C 
HETATM   24  C14 UNL     1       7.275  22.967  25.222  1.00  0.00     0.078 C 
HETATM   25  O6  UNL     1       7.086  22.936  22.884  1.00  0.00    -0.348 OA
HETATM   26  C15 UNL     1       7.141  21.630  22.401  1.00  0.00     0.156 C 
BRANCH  26  27
HETATM   27  C16 UNL     1       8.539  21.123  22.675  1.00  0.00     0.030 C 
HETATM   28  C17 UNL     1       9.267  20.698  21.418  1.00  0.00     0.007 C 
ENDBRANCH  26  27
ENDBRANCH  19  20
ENDBRANCH  12  13
ENDBRANCH   4  12
BRANCH   5  29
HETATM   29  O7  UNL     1       3.723  24.382  20.938  1.00  0.00    -0.388 OA
ATOM     30  H7  UNL     1       3.810  24.508  19.999  1.00  0.00     0.210 HD
ENDBRANCH   5  29
BRANCH   6  31
HETATM   31  O8  UNL     1       1.067  24.873  19.744  1.00  0.00    -0.374 OA
ATOM     32  H8  UNL     1       0.342  24.723  19.148  1.00  0.00     0.212 HD
ENDBRANCH   6  31
BRANCH   1  33
HETATM   33  O1  UNL     1      -1.437  21.162  22.675  1.00  0.00    -0.353 OA
BRANCH  33  34
HETATM   34  C2  UNL     1      -2.596  21.497  23.396  1.00  0.00     0.171 C 
HETATM   35  C1  UNL     1      -2.424  22.752  24.219  1.00  0.00     0.034 C 
ENDBRANCH  33  34
ENDBRANCH   1  33
TORSDOF 8
ENDMDL
MODEL 5
REMARK VINA RESULT: -7.637000454      1.790      2.369
REMARK  8 active torsions:
REMARK  status: ('A' for Active; 'I' for Inactive)
REMARK    1  A    between atoms: C2_2  and  O1_3 
REMARK    2  A    between atoms: O1_3  and  C3_4 
REMARK    3  A    between atoms: C5_7  and  O2_8 
REMARK    4  A    between atoms: O2_8  and  C6_9 
REMARK    5  A    between atoms: C10_15  and  C11_16 
REMARK    6  A    between atoms: C15_22  and  C16_23 
REMARK    7  A    between atoms: C18_25  and  O7_26 
REMARK    8  A    between atoms: C19_28  and  O8_29 
ROOT
HETATM    1  C3  UNL     1       0.284  23.133  19.008  1.00  0.00     0.079 C 
HETATM    2  C4  UNL     1       0.804  22.539  20.068  1.00  0.00     0.102 C 
HETATM    3  S1  UNL     1       2.140  21.429  19.627  1.00  0.00    -0.075 SA
HETATM    4  C5  UNL     1       2.819  20.948  21.254  1.00  0.00     0.225 C 
HETATM    5  C18 UNL     1       1.630  20.503  22.066  1.00  0.00     0.206 C 
HETATM    6  C19 UNL     1       0.678  21.573  22.416  1.00  0.00     0.253 C 
HETATM    7  N1  UNL     1       0.495  22.627  21.452  1.00  0.00    -0.345 N 
HETATM    8  C20 UNL     1      -0.063  23.801  22.133  1.00  0.00     0.126 C 
HETATM    9  C21 UNL     1      -1.185  24.411  21.349  1.00  0.00     0.020 C 
HETATM   10  C22 UNL     1      -0.646  25.077  20.099  1.00  0.00     0.008 C 
HETATM   11  C23 UNL     1      -0.819  24.104  18.961  1.00  0.00     0.067 C 
ENDROOT
BRANCH   4  12
HETATM   12  O2  UNL     1       3.458  22.044  21.767  1.00  0.00    -0.340 OA
BRANCH  12  13
HETATM   13  C6  UNL     1       4.693  21.773  22.348  1.00  0.00     0.296 C 
HETATM   14  O3  UNL     1       4.682  22.337  23.600  1.00  0.00    -0.323 OA
HETATM   15  C7  UNL     1       5.501  23.460  23.558  1.00  0.00     0.160 C 
HETATM   16  C8  UNL     1       6.154  23.594  24.918  1.00  0.00     0.078 C 
HETATM   17  C9  UNL     1       4.627  24.664  23.267  1.00  0.00     0.078 C 
HETATM   18  O4  UNL     1       6.423  23.223  22.542  1.00  0.00    -0.343 OA
HETATM   19  C10 UNL     1       5.834  22.382  21.614  1.00  0.00     0.212 C 
BRANCH  19  20
HETATM   20  C11 UNL     1       6.894  21.353  21.201  1.00  0.00     0.188 C 
HETATM   21  O5  UNL     1       6.636  20.841  19.950  1.00  0.00    -0.345 OA
HETATM   22  C12 UNL     1       6.748  19.474  19.972  1.00  0.00     0.158 C 
HETATM   23  C13 UNL     1       5.667  18.795  19.138  1.00  0.00     0.078 C 
HETATM   24  C14 UNL     1       8.108  18.998  19.490  1.00  0.00     0.078 C 
HETATM   25  O6  UNL     1       6.586  19.088  21.273  1.00  0.00    -0.348 OA
HETATM   26  C15 UNL     1       6.863  20.171  22.105  1.00  0.00     0.156 C 
BRANCH  26  27
HETATM   27  C16 UNL     1       8.197  19.889  22.759  1.00  0.00     0.030 C 
HETATM   28  C17 UNL     1       9.229  20.958  22.473  1.00  0.00     0.007 C 
ENDBRANCH  26  27
ENDBRANCH  19  20
ENDBRANCH  12  13
ENDBRANCH   4  12
BRANCH   5  29
HETATM   29  O7  UNL     1       2.034  19.864  23.256  1.00  0.00    -0.388 OA
ATOM     30  H7  UNL     1       1.572  19.042  23.380  1.00  0.00     0.210 HD
ENDBRANCH   5  29
BRANCH   6  31
HETATM   31  O8  UNL     1      -0.609  21.010  22.608  1.00  0.00    -0.374 OA
ATOM     32  H8  UNL     1      -0.677  20.677  23.495  1.00  0.00     0.212 HD
ENDBRANCH   6  31
BRANCH   1  33
HETATM   33  O1  UNL     1       0.846  22.803  17.782  1.00  0.00    -0.353 OA
BRANCH  33  34
HETATM   34  C2  UNL     1       0.084  22.425  16.664  1.00  0.00     0.171 C 
HETATM   35  C1  UNL     1       0.456  21.057  16.143  1.00  0.00     0.034 C 
ENDBRANCH  33  34
ENDBRANCH   1  33
TORSDOF 8
ENDMDL
