MODEL 1
REMARK VINA RESULT: -7.789343349      0.000      0.000
REMARK  7 active torsions:
REMARK  status: ('A' for Active; 'I' for Inactive)
REMARK    1  A    between atoms: N1_5  and  O1_7 
REMARK    2  A    between atoms: C6_10  and  N2_11 
REMARK    3  A    between atoms: C6_10  and  C8_18 
REMARK    4  A    between atoms: N3_13  and  C7_15 
REMARK    5  A    between atoms: C10_20  and  C11_21 
REMARK    6  A    between atoms: C11_21  and  O2_22 
REMARK    7  A    between atoms: C12_24  and  N5_25 
ROOT
HETATM    1  C1  UNL     1      33.286 -15.959  34.487  1.00  0.00     0.013 C 
HETATM    2  C2  UNL     1      34.595 -15.198  34.412  1.00  0.00     0.023 C 
HETATM    3  C3  UNL     1      35.673 -15.921  35.171  1.00  0.00     0.061 C 
HETATM    4  C4  UNL     1      36.923 -15.577  34.515  1.00  0.00     0.013 C 
HETATM    5  N1  UNL     1      38.126 -15.704  34.959  1.00  0.00    -0.277 N 
ATOM      6  H1  UNL     1      38.930 -15.425  34.398  1.00  0.00     0.193 HD
HETATM    7  C5  UNL     1      36.641 -15.039  33.170  1.00  0.00     0.094 C 
HETATM    8  C6  UNL     1      35.136 -15.002  33.055  1.00  0.00     0.103 C 
ENDROOT
BRANCH   8   9
HETATM    9  N2  UNL     1      34.839 -13.607  32.656  1.00  0.00    -0.317 N 
HETATM   10  N3  UNL     1      35.700 -12.701  32.687  1.00  0.00    -0.282 N 
ATOM     11  H3  UNL     1      36.641 -12.939  33.000  1.00  0.00     0.188 HD
ATOM     12  H2  UNL     1      33.895 -13.376  32.345  1.00  0.00     0.181 HD
BRANCH  10  13
HETATM   13  C7  UNL     1      35.439 -11.375  32.314  1.00  0.00     0.199 C 
HETATM   14  N4  UNL     1      35.108 -10.322  33.199  1.00  0.00    -0.068 NA
HETATM   15  S1  UNL     1      35.521 -11.001  30.725  1.00  0.00    -0.043 SA
ENDBRANCH  10  13
ENDBRANCH   8   9
BRANCH   8  16
HETATM   16  C8  UNL     1      34.625 -15.848  31.984  1.00  0.00     0.086 A 
HETATM   17  C9  UNL     1      33.868 -15.381  30.907  1.00  0.00     0.049 A 
HETATM   18  C10 UNL     1      33.582 -16.479  30.125  1.00  0.00     0.025 A 
HETATM   19  C12 UNL     1      34.163 -17.571  30.736  1.00  0.00     0.223 A 
HETATM   20  O5  UNL     1      34.750 -17.125  31.810  1.00  0.00    -0.290 OA
BRANCH  18  21
HETATM   21  C11 UNL     1      32.797 -16.454  28.845  1.00  0.00     0.207 C 
BRANCH  21  22
HETATM   22  O2  UNL     1      33.714 -16.393  27.775  1.00  0.00    -0.396 OA
ATOM     23  H2  UNL     1      33.220 -16.432  26.964  1.00  0.00     0.209 HD
ENDBRANCH  21  22
ENDBRANCH  18  21
BRANCH  19  24
HETATM   24  N5  UNL     1      34.077 -18.887  30.213  1.00  0.00    -0.090 N 
HETATM   25  O3  UNL     1      35.062 -19.417  29.685  1.00  0.00    -0.530 OA
HETATM   26  O4  UNL     1      32.912 -19.609  30.282  1.00  0.00    -0.530 OA
ENDBRANCH  19  24
ENDBRANCH   8  16
BRANCH   5  27
HETATM   27  O1  UNL     1      38.284 -16.236  36.227  1.00  0.00    -0.290 OA
ATOM     28  H1  UNL     1      39.060 -16.759  36.388  1.00  0.00     0.244 HD
ENDBRANCH   5  27
TORSDOF 7
ENDMDL
MODEL 2
REMARK VINA RESULT: -7.608382342      2.855      3.986
REMARK  7 active torsions:
REMARK  status: ('A' for Active; 'I' for Inactive)
REMARK    1  A    between atoms: N1_5  and  O1_7 
REMARK    2  A    between atoms: C6_10  and  N2_11 
REMARK    3  A    between atoms: C6_10  and  C8_18 
REMARK    4  A    between atoms: N3_13  and  C7_15 
REMARK    5  A    between atoms: C10_20  and  C11_21 
REMARK    6  A    between atoms: C11_21  and  O2_22 
REMARK    7  A    between atoms: C12_24  and  N5_25 
ROOT
HETATM    1  C1  UNL     1      36.974 -15.097  32.380  1.00  0.00     0.013 C 
HETATM    2  C2  UNL     1      35.988 -14.105  32.964  1.00  0.00     0.023 C 
HETATM    3  C3  UNL     1      36.202 -12.737  32.377  1.00  0.00     0.061 C 
HETATM    4  C4  UNL     1      34.906 -12.081  32.409  1.00  0.00     0.013 C 
HETATM    5  N1  UNL     1      34.636 -10.826  32.295  1.00  0.00    -0.277 N 
ATOM      6  H1  UNL     1      33.676 -10.485  32.333  1.00  0.00     0.193 HD
HETATM    7  C5  UNL     1      33.846 -13.093  32.585  1.00  0.00     0.094 C 
HETATM    8  C6  UNL     1      34.566 -14.413  32.731  1.00  0.00     0.103 C 
ENDROOT
BRANCH   8   9
HETATM    9  N2  UNL     1      34.024 -14.981  33.986  1.00  0.00    -0.317 N 
HETATM   10  N3  UNL     1      34.691 -15.736  34.727  1.00  0.00    -0.282 N 
ATOM     11  H3  UNL     1      35.645 -15.964  34.450  1.00  0.00     0.188 HD
ATOM     12  H2  UNL     1      33.068 -14.748  34.257  1.00  0.00     0.181 HD
BRANCH  10  13
HETATM   13  C7  UNL     1      34.195 -16.283  35.918  1.00  0.00     0.199 C 
HETATM   14  N4  UNL     1      33.458 -15.581  36.901  1.00  0.00    -0.068 NA
HETATM   15  S1  UNL     1      34.486 -17.864  36.209  1.00  0.00    -0.043 SA
ENDBRANCH  10  13
ENDBRANCH   8   9
BRANCH   8  16
HETATM   16  C8  UNL     1      34.233 -15.363  31.678  1.00  0.00     0.086 A 
HETATM   17  C9  UNL     1      33.687 -15.007  30.443  1.00  0.00     0.049 A 
HETATM   18  C10 UNL     1      33.519 -16.178  29.737  1.00  0.00     0.025 A 
HETATM   19  C12 UNL     1      33.959 -17.204  30.548  1.00  0.00     0.223 A 
HETATM   20  O5  UNL     1      34.358 -16.651  31.658  1.00  0.00    -0.290 OA
BRANCH  18  21
HETATM   21  C11 UNL     1      32.973 -16.283  28.342  1.00  0.00     0.207 C 
BRANCH  21  22
HETATM   22  O2  UNL     1      33.479 -15.199  27.595  1.00  0.00    -0.396 OA
ATOM     23  H2  UNL     1      33.647 -15.506  26.712  1.00  0.00     0.209 HD
ENDBRANCH  21  22
ENDBRANCH  18  21
BRANCH  19  24
HETATM   24  N5  UNL     1      33.937 -18.567  30.154  1.00  0.00    -0.090 N 
HETATM   25  O3  UNL     1      34.994 -19.184  29.975  1.00  0.00    -0.530 OA
HETATM   26  O4  UNL     1      32.755 -19.238  29.968  1.00  0.00    -0.530 OA
ENDBRANCH  19  24
ENDBRANCH   8  16
BRANCH   5  27
HETATM   27  O1  UNL     1      35.701  -9.960  32.116  1.00  0.00    -0.290 OA
ATOM     28  H1  UNL     1      35.603  -9.074  32.444  1.00  0.00     0.244 HD
ENDBRANCH   5  27
TORSDOF 7
ENDMDL
MODEL 3
REMARK VINA RESULT: -7.519358693      3.021      4.413
REMARK  7 active torsions:
REMARK  status: ('A' for Active; 'I' for Inactive)
REMARK    1  A    between atoms: N1_5  and  O1_7 
REMARK    2  A    between atoms: C6_10  and  N2_11 
REMARK    3  A    between atoms: C6_10  and  C8_18 
REMARK    4  A    between atoms: N3_13  and  C7_15 
REMARK    5  A    between atoms: C10_20  and  C11_21 
REMARK    6  A    between atoms: C11_21  and  O2_22 
REMARK    7  A    between atoms: C12_24  and  N5_25 
ROOT
HETATM    1  C1  UNL     1      37.130 -14.670  32.299  1.00  0.00     0.013 C 
HETATM    2  C2  UNL     1      36.081 -13.886  33.062  1.00  0.00     0.023 C 
HETATM    3  C3  UNL     1      36.102 -12.438  32.656  1.00  0.00     0.061 C 
HETATM    4  C4  UNL     1      34.746 -11.951  32.843  1.00  0.00     0.013 C 
HETATM    5  N1  UNL     1      34.332 -10.733  32.915  1.00  0.00    -0.277 N 
ATOM      6  H1  UNL     1      33.344 -10.516  33.048  1.00  0.00     0.193 HD
HETATM    7  C5  UNL     1      33.820 -13.096  32.933  1.00  0.00     0.094 C 
HETATM    8  C6  UNL     1      34.689 -14.329  32.862  1.00  0.00     0.103 C 
ENDROOT
BRANCH   8   9
HETATM    9  N2  UNL     1      34.298 -15.115  34.054  1.00  0.00    -0.317 N 
HETATM   10  N3  UNL     1      34.927 -15.061  35.132  1.00  0.00    -0.282 N 
ATOM     11  H3  UNL     1      35.741 -14.449  35.186  1.00  0.00     0.188 HD
ATOM     12  H2  UNL     1      33.483 -15.725  33.992  1.00  0.00     0.181 HD
BRANCH  10  13
HETATM   13  C7  UNL     1      34.573 -15.797  36.271  1.00  0.00     0.199 C 
HETATM   14  N4  UNL     1      33.412 -15.590  37.054  1.00  0.00    -0.068 NA
HETATM   15  S1  UNL     1      35.574 -16.998  36.745  1.00  0.00    -0.043 SA
ENDBRANCH  10  13
ENDBRANCH   8   9
BRANCH   8  16
HETATM   16  C8  UNL     1      34.395 -15.167  31.707  1.00  0.00     0.086 A 
HETATM   17  C9  UNL     1      34.543 -16.556  31.686  1.00  0.00     0.049 A 
HETATM   18  C10 UNL     1      34.169 -16.971  30.427  1.00  0.00     0.025 A 
HETATM   19  C12 UNL     1      33.809 -15.841  29.721  1.00  0.00     0.223 A 
HETATM   20  O5  UNL     1      33.968 -14.833  30.531  1.00  0.00    -0.290 OA
BRANCH  18  21
HETATM   21  C11 UNL     1      34.151 -18.394  29.949  1.00  0.00     0.207 C 
BRANCH  21  22
HETATM   22  O2  UNL     1      32.815 -18.736  29.653  1.00  0.00    -0.396 OA
ATOM     23  H2  UNL     1      32.263 -18.368  30.333  1.00  0.00     0.209 HD
ENDBRANCH  21  22
ENDBRANCH  18  21
BRANCH  19  24
HETATM   24  N5  UNL     1      33.365 -15.878  28.374  1.00  0.00    -0.090 N 
HETATM   25  O3  UNL     1      32.288 -16.413  28.084  1.00  0.00    -0.530 OA
HETATM   26  O4  UNL     1      34.105 -15.321  27.362  1.00  0.00    -0.530 OA
ENDBRANCH  19  24
ENDBRANCH   8  16
BRANCH   5  27
HETATM   27  O1  UNL     1      35.279  -9.731  32.802  1.00  0.00    -0.290 OA
ATOM     28  H1  UNL     1      35.903  -9.797  32.088  1.00  0.00     0.244 HD
ENDBRANCH   5  27
TORSDOF 7
ENDMDL
MODEL 4
REMARK VINA RESULT: -7.465672029      3.386      5.467
REMARK  7 active torsions:
REMARK  status: ('A' for Active; 'I' for Inactive)
REMARK    1  A    between atoms: N1_5  and  O1_7 
REMARK    2  A    between atoms: C6_10  and  N2_11 
REMARK    3  A    between atoms: C6_10  and  C8_18 
REMARK    4  A    between atoms: N3_13  and  C7_15 
REMARK    5  A    between atoms: C10_20  and  C11_21 
REMARK    6  A    between atoms: C11_21  and  O2_22 
REMARK    7  A    between atoms: C12_24  and  N5_25 
ROOT
HETATM    1  C1  UNL     1      37.426 -14.990  33.892  1.00  0.00     0.013 C 
HETATM    2  C2  UNL     1      36.187 -15.834  34.111  1.00  0.00     0.023 C 
HETATM    3  C3  UNL     1      35.771 -15.800  35.556  1.00  0.00     0.061 C 
HETATM    4  C4  UNL     1      34.330 -15.991  35.561  1.00  0.00     0.013 C 
HETATM    5  N1  UNL     1      33.567 -16.326  36.544  1.00  0.00    -0.277 N 
ATOM      6  H1  UNL     1      32.560 -16.427  36.422  1.00  0.00     0.193 HD
HETATM    7  C5  UNL     1      33.793 -15.720  34.215  1.00  0.00     0.094 C 
HETATM    8  C6  UNL     1      34.994 -15.419  33.350  1.00  0.00     0.103 C 
ENDROOT
BRANCH   8   9
HETATM    9  N2  UNL     1      34.855 -16.345  32.204  1.00  0.00    -0.317 N 
HETATM   10  N3  UNL     1      33.976 -16.202  31.326  1.00  0.00    -0.282 N 
ATOM     11  H3  UNL     1      33.334 -15.414  31.409  1.00  0.00     0.188 HD
ATOM     12  H2  UNL     1      35.501 -17.131  32.127  1.00  0.00     0.181 HD
BRANCH  10  13
HETATM   13  C7  UNL     1      33.828 -17.067  30.233  1.00  0.00     0.199 C 
HETATM   14  N4  UNL     1      34.216 -18.427  30.204  1.00  0.00    -0.068 NA
HETATM   15  S1  UNL     1      33.152 -16.466  28.872  1.00  0.00    -0.043 SA
ENDBRANCH  10  13
ENDBRANCH   8   9
BRANCH   8  16
HETATM   16  C8  UNL     1      34.971 -14.073  32.792  1.00  0.00     0.086 A 
HETATM   17  C9  UNL     1      34.501 -12.948  33.473  1.00  0.00     0.049 A 
HETATM   18  C10 UNL     1      34.645 -11.882  32.612  1.00  0.00     0.025 A 
HETATM   19  C12 UNL     1      35.189 -12.377  31.445  1.00  0.00     0.223 A 
HETATM   20  O5  UNL     1      35.350 -13.657  31.626  1.00  0.00    -0.290 OA
BRANCH  18  21
HETATM   21  C11 UNL     1      34.282 -10.458  32.923  1.00  0.00     0.207 C 
BRANCH  21  22
HETATM   22  O2  UNL     1      35.470  -9.767  33.237  1.00  0.00    -0.396 OA
ATOM     23  H2  UNL     1      36.194 -10.377  33.155  1.00  0.00     0.209 HD
ENDBRANCH  21  22
ENDBRANCH  18  21
BRANCH  19  24
HETATM   24  N5  UNL     1      35.480 -11.562  30.320  1.00  0.00    -0.090 N 
HETATM   25  O3  UNL     1      35.009 -11.836  29.210  1.00  0.00    -0.530 OA
HETATM   26  O4  UNL     1      36.279 -10.452  30.430  1.00  0.00    -0.530 OA
ENDBRANCH  19  24
ENDBRANCH   8  16
BRANCH   5  27
HETATM   27  O1  UNL     1      34.168 -16.541  37.772  1.00  0.00    -0.290 OA
ATOM     28  H1  UNL     1      33.949 -17.343  38.232  1.00  0.00     0.244 HD
ENDBRANCH   5  27
TORSDOF 7
ENDMDL
MODEL 5
REMARK VINA RESULT: -7.426153830      2.945      4.233
REMARK  7 active torsions:
REMARK  status: ('A' for Active; 'I' for Inactive)
REMARK    1  A    between atoms: N1_5  and  O1_7 
REMARK    2  A    between atoms: C6_10  and  N2_11 
REMARK    3  A    between atoms: C6_10  and  C8_18 
REMARK    4  A    between atoms: N3_13  and  C7_15 
REMARK    5  A    between atoms: C10_20  and  C11_21 
REMARK    6  A    between atoms: C11_21  and  O2_22 
REMARK    7  A    between atoms: C12_24  and  N5_25 
ROOT
HETATM    1  C1  UNL     1      37.512 -15.205  32.363  1.00  0.00     0.013 C 
HETATM    2  C2  UNL     1      36.650 -14.875  33.565  1.00  0.00     0.023 C 
HETATM    3  C3  UNL     1      36.349 -13.402  33.612  1.00  0.00     0.061 C 
HETATM    4  C4  UNL     1      35.061 -13.280  34.275  1.00  0.00     0.013 C 
HETATM    5  N1  UNL     1      34.526 -12.234  34.806  1.00  0.00    -0.277 N 
ATOM      6  H1  UNL     1      33.607 -12.274  35.245  1.00  0.00     0.193 HD
HETATM    7  C5  UNL     1      34.371 -14.583  34.257  1.00  0.00     0.094 C 
HETATM    8  C6  UNL     1      35.337 -15.545  33.606  1.00  0.00     0.103 C 
ENDROOT
BRANCH   8   9
HETATM    9  N2  UNL     1      35.440 -16.662  34.571  1.00  0.00    -0.317 N 
HETATM   10  N3  UNL     1      36.196 -17.641  34.391  1.00  0.00    -0.282 N 
ATOM     11  H3  UNL     1      36.762 -17.664  33.543  1.00  0.00     0.188 HD
ATOM     12  H2  UNL     1      34.870 -16.633  35.417  1.00  0.00     0.181 HD
BRANCH  10  13
HETATM   13  C7  UNL     1      36.307 -18.708  35.293  1.00  0.00     0.199 C 
HETATM   14  N4  UNL     1      35.381 -19.770  35.427  1.00  0.00    -0.068 NA
HETATM   15  S1  UNL     1      37.610 -18.741  36.277  1.00  0.00    -0.043 SA
ENDBRANCH  10  13
ENDBRANCH   8   9
BRANCH   8  16
HETATM   16  C8  UNL     1      34.822 -16.120  32.370  1.00  0.00     0.086 A 
HETATM   17  C9  UNL     1      34.243 -15.378  31.339  1.00  0.00     0.049 A 
HETATM   18  C10 UNL     1      33.886 -16.279  30.360  1.00  0.00     0.025 A 
HETATM   19  C12 UNL     1      34.250 -17.531  30.813  1.00  0.00     0.223 A 
HETATM   20  O5  UNL     1      34.787 -17.357  31.987  1.00  0.00    -0.290 OA
BRANCH  18  21
HETATM   21  C11 UNL     1      33.239 -15.931  29.050  1.00  0.00     0.207 C 
BRANCH  21  22
HETATM   22  O2  UNL     1      33.834 -16.726  28.049  1.00  0.00    -0.396 OA
ATOM     23  H2  UNL     1      33.299 -16.657  27.266  1.00  0.00     0.209 HD
ENDBRANCH  21  22
ENDBRANCH  18  21
BRANCH  19  24
HETATM   24  N5  UNL     1      34.036 -18.717  30.065  1.00  0.00    -0.090 N 
HETATM   25  O3  UNL     1      34.992 -19.321  29.562  1.00  0.00    -0.530 OA
HETATM   26  O4  UNL     1      32.777 -19.231  29.885  1.00  0.00    -0.530 OA
ENDBRANCH  19  24
ENDBRANCH   8  16
BRANCH   5  27
HETATM   27  O1  UNL     1      35.248 -11.054  34.755  1.00  0.00    -0.290 OA
ATOM     28  H1  UNL     1      34.857 -10.284  35.151  1.00  0.00     0.244 HD
ENDBRANCH   5  27
TORSDOF 7
ENDMDL
