MODEL 1
REMARK VINA RESULT: -8.214822064      0.000      0.000
REMARK  8 active torsions:
REMARK  status: ('A' for Active; 'I' for Inactive)
REMARK    1  A    between atoms: O1_2  and  C2_3 
REMARK    2  A    between atoms: C2_3  and  C3_5 
REMARK    3  A    between atoms: C6_8  and  O3_9 
REMARK    4  A    between atoms: C8_12  and  O4_13 
REMARK    5  A    between atoms: C9_16  and  O6_17 
REMARK    6  A    between atoms: O6_17  and  C10_18 
REMARK    7  A    between atoms: C10_18  and  C11_20 
REMARK    8  A    between atoms: C16_25  and  O8_26 
ROOT
HETATM    1  C3  UNL     1      35.043 -18.288  32.595  1.00  0.00     0.082 A 
HETATM    2  C4  UNL     1      34.876 -19.095  31.503  1.00  0.00    -0.009 A 
HETATM    3  C5  UNL     1      35.253 -20.527  31.500  1.00  0.00     0.052 C 
HETATM    4  C6  UNL     1      34.319 -18.495  30.365  1.00  0.00     0.088 A 
HETATM    5  C7  UNL     1      33.952 -17.177  30.310  1.00  0.00     0.074 A 
HETATM    6  C8  UNL     1      33.401 -16.338  29.374  1.00  0.00     0.200 A 
HETATM    7  O5  UNL     1      33.262 -15.144  29.875  1.00  0.00    -0.262 OA
HETATM    8  C9  UNL     1      33.693 -15.109  31.130  1.00  0.00     0.209 A 
HETATM    9  C15 UNL     1      34.137 -16.372  31.447  1.00  0.00     0.075 A 
HETATM   10  C16 UNL     1      34.680 -16.932  32.581  1.00  0.00     0.098 A 
ENDROOT
BRANCH   8  11
HETATM   11  O6  UNL     1      33.692 -13.994  31.969  1.00  0.00    -0.253 OA
BRANCH  11  12
HETATM   12  C10 UNL     1      33.755 -12.695  31.417  1.00  0.00     0.273 C 
HETATM   13  O7  UNL     1      32.653 -12.239  31.019  1.00  0.00    -0.264 OA
BRANCH  12  14
HETATM   14  C11 UNL     1      35.013 -11.943  31.322  1.00  0.00     0.037 C 
HETATM   15  C12 UNL     1      36.184 -12.756  31.889  1.00  0.00     0.025 C 
HETATM   16  C13 UNL     1      34.905 -10.706  32.172  1.00  0.00     0.025 C 
HETATM   17  C14 UNL     1      35.377 -11.557  29.911  1.00  0.00     0.025 C 
ENDBRANCH  12  14
ENDBRANCH  11  12
ENDBRANCH   8  11
BRANCH   6  18
HETATM   18  O4  UNL     1      33.038 -16.674  28.084  1.00  0.00    -0.340 OA
ATOM     19  H4  UNL     1      32.601 -17.473  27.810  1.00  0.00     0.220 HD
ENDBRANCH   6  18
BRANCH  10  20
HETATM   20  O8  UNL     1      34.869 -16.170  33.702  1.00  0.00    -0.359 OA
ATOM     21  H8  UNL     1      34.672 -15.241  33.676  1.00  0.00     0.217 HD
ENDBRANCH  10  20
BRANCH   4  22
HETATM   22  O3  UNL     1      34.141 -19.294  29.250  1.00  0.00    -0.359 OA
ATOM     23  H3  UNL     1      34.867 -19.359  28.640  1.00  0.00     0.217 HD
ENDBRANCH   4  22
BRANCH   1  24
HETATM   24  C2  UNL     1      35.622 -18.831  33.841  1.00  0.00     0.296 C 
HETATM   25  O2  UNL     1      35.016 -19.674  34.546  1.00  0.00    -0.259 OA
BRANCH  24  26
HETATM   26  O1  UNL     1      36.874 -18.421  34.276  1.00  0.00    -0.322 OA
HETATM   27  C1  UNL     1      37.232 -18.562  35.647  1.00  0.00     0.213 C 
ENDBRANCH  24  26
ENDBRANCH   1  24
TORSDOF 8
ENDMDL
MODEL 2
REMARK VINA RESULT: -7.948467982      1.493      4.276
REMARK  8 active torsions:
REMARK  status: ('A' for Active; 'I' for Inactive)
REMARK    1  A    between atoms: O1_2  and  C2_3 
REMARK    2  A    between atoms: C2_3  and  C3_5 
REMARK    3  A    between atoms: C6_8  and  O3_9 
REMARK    4  A    between atoms: C8_12  and  O4_13 
REMARK    5  A    between atoms: C9_16  and  O6_17 
REMARK    6  A    between atoms: O6_17  and  C10_18 
REMARK    7  A    between atoms: C10_18  and  C11_20 
REMARK    8  A    between atoms: C16_25  and  O8_26 
ROOT
HETATM    1  C3  UNL     1      34.012 -16.863  30.478  1.00  0.00     0.082 A 
HETATM    2  C4  UNL     1      34.543 -18.072  30.837  1.00  0.00    -0.009 A 
HETATM    3  C5  UNL     1      34.411 -19.285  29.998  1.00  0.00     0.052 C 
HETATM    4  C6  UNL     1      35.231 -18.112  32.057  1.00  0.00     0.088 A 
HETATM    5  C7  UNL     1      35.384 -17.023  32.873  1.00  0.00     0.074 A 
HETATM    6  C8  UNL     1      35.985 -16.764  34.080  1.00  0.00     0.200 A 
HETATM    7  O5  UNL     1      35.817 -15.512  34.399  1.00  0.00    -0.262 OA
HETATM    8  C9  UNL     1      35.121 -14.879  33.463  1.00  0.00     0.209 A 
HETATM    9  C15 UNL     1      34.827 -15.794  32.479  1.00  0.00     0.075 A 
HETATM   10  C16 UNL     1      34.146 -15.723  31.286  1.00  0.00     0.098 A 
ENDROOT
BRANCH   8  11
HETATM   11  O6  UNL     1      34.758 -13.532  33.479  1.00  0.00    -0.253 OA
BRANCH  11  12
HETATM   12  C10 UNL     1      35.502 -12.591  32.733  1.00  0.00     0.273 C 
HETATM   13  O7  UNL     1      36.739 -12.813  32.689  1.00  0.00    -0.264 OA
BRANCH  12  14
HETATM   14  C11 UNL     1      34.872 -11.444  32.066  1.00  0.00     0.037 C 
HETATM   15  C12 UNL     1      35.399 -10.119  32.633  1.00  0.00     0.025 C 
HETATM   16  C13 UNL     1      33.395 -11.468  32.352  1.00  0.00     0.025 C 
HETATM   17  C14 UNL     1      35.098 -11.417  30.576  1.00  0.00     0.025 C 
ENDBRANCH  12  14
ENDBRANCH  11  12
ENDBRANCH   8  11
BRANCH   6  18
HETATM   18  O4  UNL     1      36.672 -17.669  34.866  1.00  0.00    -0.340 OA
ATOM     19  H4  UNL     1      37.429 -17.484  35.410  1.00  0.00     0.220 HD
ENDBRANCH   6  18
BRANCH  10  20
HETATM   20  O8  UNL     1      33.596 -14.537  30.878  1.00  0.00    -0.359 OA
ATOM     21  H8  UNL     1      33.173 -14.484  30.029  1.00  0.00     0.217 HD
ENDBRANCH  10  20
BRANCH   4  22
HETATM   22  O3  UNL     1      35.776 -19.325  32.439  1.00  0.00    -0.359 OA
ATOM     23  H3  UNL     1      36.562 -19.301  32.973  1.00  0.00     0.217 HD
ENDBRANCH   4  22
BRANCH   1  24
HETATM   24  C2  UNL     1      33.270 -16.723  29.209  1.00  0.00     0.296 C 
HETATM   25  O2  UNL     1      32.032 -16.918  29.134  1.00  0.00    -0.259 OA
BRANCH  24  26
HETATM   26  O1  UNL     1      33.929 -16.365  28.042  1.00  0.00    -0.322 OA
HETATM   27  C1  UNL     1      33.888 -15.016  27.587  1.00  0.00     0.213 C 
ENDBRANCH  24  26
ENDBRANCH   1  24
TORSDOF 8
ENDMDL
MODEL 3
REMARK VINA RESULT: -7.822739857      1.722      2.347
REMARK  8 active torsions:
REMARK  status: ('A' for Active; 'I' for Inactive)
REMARK    1  A    between atoms: O1_2  and  C2_3 
REMARK    2  A    between atoms: C2_3  and  C3_5 
REMARK    3  A    between atoms: C6_8  and  O3_9 
REMARK    4  A    between atoms: C8_12  and  O4_13 
REMARK    5  A    between atoms: C9_16  and  O6_17 
REMARK    6  A    between atoms: O6_17  and  C10_18 
REMARK    7  A    between atoms: C10_18  and  C11_20 
REMARK    8  A    between atoms: C16_25  and  O8_26 
ROOT
HETATM    1  C3  UNL     1      34.988 -16.773  34.151  1.00  0.00     0.082 A 
HETATM    2  C4  UNL     1      35.355 -18.028  33.745  1.00  0.00    -0.009 A 
HETATM    3  C5  UNL     1      35.943 -19.027  34.667  1.00  0.00     0.052 C 
HETATM    4  C6  UNL     1      35.144 -18.331  32.393  1.00  0.00     0.088 A 
HETATM    5  C7  UNL     1      34.604 -17.448  31.497  1.00  0.00     0.074 A 
HETATM    6  C8  UNL     1      34.287 -17.458  30.162  1.00  0.00     0.200 A 
HETATM    7  O5  UNL     1      33.782 -16.308  29.817  1.00  0.00    -0.262 OA
HETATM    8  C9  UNL     1      33.730 -15.487  30.860  1.00  0.00     0.209 A 
HETATM    9  C15 UNL     1      34.238 -16.166  31.942  1.00  0.00     0.075 A 
HETATM   10  C16 UNL     1      34.432 -15.838  33.265  1.00  0.00     0.098 A 
ENDROOT
BRANCH   8  11
HETATM   11  O6  UNL     1      33.246 -14.179  30.852  1.00  0.00    -0.253 OA
BRANCH  11  12
HETATM   12  C10 UNL     1      33.990 -13.154  30.225  1.00  0.00     0.273 C 
HETATM   13  O7  UNL     1      33.851 -13.090  28.978  1.00  0.00    -0.264 OA
BRANCH  12  14
HETATM   14  C11 UNL     1      34.856 -12.239  30.982  1.00  0.00     0.037 C 
HETATM   15  C12 UNL     1      34.056 -11.480  32.049  1.00  0.00     0.025 C 
HETATM   16  C13 UNL     1      35.401 -11.198  30.041  1.00  0.00     0.025 C 
HETATM   17  C14 UNL     1      35.996 -12.933  31.683  1.00  0.00     0.025 C 
ENDBRANCH  12  14
ENDBRANCH  11  12
ENDBRANCH   8  11
BRANCH   6  18
HETATM   18  O4  UNL     1      34.464 -18.510  29.284  1.00  0.00    -0.340 OA
ATOM     19  H4  UNL     1      34.963 -19.303  29.447  1.00  0.00     0.220 HD
ENDBRANCH   6  18
BRANCH  10  20
HETATM   20  O8  UNL     1      34.082 -14.597  33.724  1.00  0.00    -0.359 OA
ATOM     21  H8  UNL     1      33.672 -13.977  33.132  1.00  0.00     0.217 HD
ENDBRANCH  10  20
BRANCH   4  22
HETATM   22  O3  UNL     1      35.507 -19.595  31.963  1.00  0.00    -0.359 OA
ATOM     23  H3  UNL     1      36.378 -19.696  31.596  1.00  0.00     0.217 HD
ENDBRANCH   4  22
BRANCH   1  24
HETATM   24  C2  UNL     1      35.172 -16.363  35.558  1.00  0.00     0.296 C 
HETATM   25  O2  UNL     1      34.221 -16.337  36.376  1.00  0.00    -0.259 OA
BRANCH  24  26
HETATM   26  O1  UNL     1      36.423 -15.987  36.026  1.00  0.00    -0.322 OA
HETATM   27  C1  UNL     1      36.811 -14.617  35.999  1.00  0.00     0.213 C 
ENDBRANCH  24  26
ENDBRANCH   1  24
TORSDOF 8
ENDMDL
MODEL 4
REMARK VINA RESULT: -7.788811281      1.682      2.388
REMARK  8 active torsions:
REMARK  status: ('A' for Active; 'I' for Inactive)
REMARK    1  A    between atoms: O1_2  and  C2_3 
REMARK    2  A    between atoms: C2_3  and  C3_5 
REMARK    3  A    between atoms: C6_8  and  O3_9 
REMARK    4  A    between atoms: C8_12  and  O4_13 
REMARK    5  A    between atoms: C9_16  and  O6_17 
REMARK    6  A    between atoms: O6_17  and  C10_18 
REMARK    7  A    between atoms: C10_18  and  C11_20 
REMARK    8  A    between atoms: C16_25  and  O8_26 
ROOT
HETATM    1  C3  UNL     1      34.953 -16.802  34.134  1.00  0.00     0.082 A 
HETATM    2  C4  UNL     1      35.326 -18.053  33.722  1.00  0.00    -0.009 A 
HETATM    3  C5  UNL     1      35.905 -19.059  34.642  1.00  0.00     0.052 C 
HETATM    4  C6  UNL     1      35.132 -18.345  32.365  1.00  0.00     0.088 A 
HETATM    5  C7  UNL     1      34.602 -17.454  31.471  1.00  0.00     0.074 A 
HETATM    6  C8  UNL     1      34.301 -17.453  30.131  1.00  0.00     0.200 A 
HETATM    7  O5  UNL     1      33.798 -16.301  29.790  1.00  0.00    -0.262 OA
HETATM    8  C9  UNL     1      33.732 -15.490  30.839  1.00  0.00     0.209 A 
HETATM    9  C15 UNL     1      34.229 -16.177  31.922  1.00  0.00     0.075 A 
HETATM   10  C16 UNL     1      34.406 -15.860  33.250  1.00  0.00     0.098 A 
ENDROOT
BRANCH   8  11
HETATM   11  O6  UNL     1      33.247 -14.182  30.837  1.00  0.00    -0.253 OA
BRANCH  11  12
HETATM   12  C10 UNL     1      33.989 -13.153  30.215  1.00  0.00     0.273 C 
HETATM   13  O7  UNL     1      33.847 -13.081  28.968  1.00  0.00    -0.264 OA
BRANCH  12  14
HETATM   14  C11 UNL     1      34.857 -12.243  30.975  1.00  0.00     0.037 C 
HETATM   15  C12 UNL     1      34.059 -11.486  32.044  1.00  0.00     0.025 C 
HETATM   16  C13 UNL     1      35.406 -11.201  30.039  1.00  0.00     0.025 C 
HETATM   17  C14 UNL     1      35.995 -12.943  31.675  1.00  0.00     0.025 C 
ENDBRANCH  12  14
ENDBRANCH  11  12
ENDBRANCH   8  11
BRANCH   6  18
HETATM   18  O4  UNL     1      34.490 -18.498  29.247  1.00  0.00    -0.340 OA
ATOM     19  H4  UNL     1      34.059 -19.344  29.272  1.00  0.00     0.220 HD
ENDBRANCH   6  18
BRANCH  10  20
HETATM   20  O8  UNL     1      34.048 -14.624  33.715  1.00  0.00    -0.359 OA
ATOM     21  H8  UNL     1      33.484 -14.555  34.476  1.00  0.00     0.217 HD
ENDBRANCH  10  20
BRANCH   4  22
HETATM   22  O3  UNL     1      35.502 -19.604  31.928  1.00  0.00    -0.359 OA
ATOM     23  H3  UNL     1      36.426 -19.754  31.764  1.00  0.00     0.217 HD
ENDBRANCH   4  22
BRANCH   1  24
HETATM   24  C2  UNL     1      35.119 -16.404  35.547  1.00  0.00     0.296 C 
HETATM   25  O2  UNL     1      36.107 -15.738  35.941  1.00  0.00    -0.259 OA
BRANCH  24  26
HETATM   26  O1  UNL     1      34.172 -16.757  36.497  1.00  0.00    -0.322 OA
HETATM   27  C1  UNL     1      34.577 -17.406  37.698  1.00  0.00     0.213 C 
ENDBRANCH  24  26
ENDBRANCH   1  24
TORSDOF 8
ENDMDL
MODEL 5
REMARK VINA RESULT: -7.734146472      1.630      4.276
REMARK  8 active torsions:
REMARK  status: ('A' for Active; 'I' for Inactive)
REMARK    1  A    between atoms: O1_2  and  C2_3 
REMARK    2  A    between atoms: C2_3  and  C3_5 
REMARK    3  A    between atoms: C6_8  and  O3_9 
REMARK    4  A    between atoms: C8_12  and  O4_13 
REMARK    5  A    between atoms: C9_16  and  O6_17 
REMARK    6  A    between atoms: O6_17  and  C10_18 
REMARK    7  A    between atoms: C10_18  and  C11_20 
REMARK    8  A    between atoms: C16_25  and  O8_26 
ROOT
HETATM    1  C3  UNL     1      34.537 -17.235  31.432  1.00  0.00     0.082 A 
HETATM    2  C4  UNL     1      35.156 -18.281  32.061  1.00  0.00    -0.009 A 
HETATM    3  C5  UNL     1      35.169 -19.654  31.505  1.00  0.00     0.052 C 
HETATM    4  C6  UNL     1      35.791 -17.990  33.276  1.00  0.00     0.088 A 
HETATM    5  C7  UNL     1      35.811 -16.741  33.836  1.00  0.00     0.074 A 
HETATM    6  C8  UNL     1      36.332 -16.171  34.971  1.00  0.00     0.200 A 
HETATM    7  O5  UNL     1      36.040 -14.902  35.004  1.00  0.00    -0.262 OA
HETATM    8  C9  UNL     1      35.333 -14.556  33.934  1.00  0.00     0.209 A 
HETATM    9  C15 UNL     1      35.165 -15.686  33.169  1.00  0.00     0.075 A 
HETATM   10  C16 UNL     1      34.535 -15.940  31.973  1.00  0.00     0.098 A 
ENDROOT
BRANCH   8  11
HETATM   11  O6  UNL     1      34.853 -13.278  33.645  1.00  0.00    -0.253 OA
BRANCH  11  12
HETATM   12  C10 UNL     1      35.555 -12.446  32.745  1.00  0.00     0.273 C 
HETATM   13  O7  UNL     1      36.788 -12.677  32.666  1.00  0.00    -0.264 OA
BRANCH  12  14
HETATM   14  C11 UNL     1      34.887 -11.394  31.967  1.00  0.00     0.037 C 
HETATM   15  C12 UNL     1      35.338 -10.000  32.424  1.00  0.00     0.025 C 
HETATM   16  C13 UNL     1      33.406 -11.465  32.226  1.00  0.00     0.025 C 
HETATM   17  C14 UNL     1      35.146 -11.487  30.485  1.00  0.00     0.025 C 
ENDBRANCH  12  14
ENDBRANCH  11  12
ENDBRANCH   8  11
BRANCH   6  18
HETATM   18  O4  UNL     1      37.060 -16.814  35.953  1.00  0.00    -0.340 OA
ATOM     19  H4  UNL     1      37.183 -16.521  36.849  1.00  0.00     0.220 HD
ENDBRANCH   6  18
BRANCH  10  20
HETATM   20  O8  UNL     1      33.901 -14.929  31.302  1.00  0.00    -0.359 OA
ATOM     21  H8  UNL     1      33.687 -14.124  31.760  1.00  0.00     0.217 HD
ENDBRANCH  10  20
BRANCH   4  22
HETATM   22  O3  UNL     1      36.423 -19.034  33.927  1.00  0.00    -0.359 OA
ATOM     23  H3  UNL     1      36.065 -19.906  33.804  1.00  0.00     0.217 HD
ENDBRANCH   4  22
BRANCH   1  24
HETATM   24  C2  UNL     1      33.843 -17.445  30.146  1.00  0.00     0.296 C 
HETATM   25  O2  UNL     1      32.922 -18.288  30.014  1.00  0.00    -0.259 OA
BRANCH  24  26
HETATM   26  O1  UNL     1      34.191 -16.703  29.026  1.00  0.00    -0.322 OA
HETATM   27  C1  UNL     1      33.179 -16.076  28.245  1.00  0.00     0.213 C 
ENDBRANCH  24  26
ENDBRANCH   1  24
TORSDOF 8
ENDMDL
