MODEL 1
REMARK VINA RESULT: -7.760516109      0.000      0.000
REMARK  3 active torsions:
REMARK  status: ('A' for Active; 'I' for Inactive)
REMARK    1  A    between atoms: C4_4  and  N1_5 
REMARK    2  A    between atoms: N2_7  and  C5_9 
REMARK    3  A    between atoms: C13_24  and  N6_25 
ROOT
HETATM    1  N1  UNL     1      35.057 -14.654  33.506  1.00  0.00    -0.300 N 
ATOM      2  H1  UNL     1      35.204 -13.679  33.766  1.00  0.00     0.187 HD
HETATM    3  N2  UNL     1      35.306 -15.529  34.387  1.00  0.00    -0.294 N 
ATOM      4  H2  UNL     1      35.168 -16.513  34.160  1.00  0.00     0.187 HD
ENDROOT
BRANCH   1   5
HETATM    5  C4  UNL     1      34.596 -14.908  32.199  1.00  0.00     0.056 A 
HETATM    6  C3  UNL     1      34.456 -16.222  31.747  1.00  0.00     0.040 A 
HETATM    7  C2  UNL     1      34.004 -16.516  30.474  1.00  0.00    -0.025 A 
HETATM    8  C1  UNL     1      33.860 -17.922  30.019  1.00  0.00     0.051 C 
HETATM    9  C13 UNL     1      33.673 -15.486  29.601  1.00  0.00     0.133 A 
HETATM   10  C12 UNL     1      33.812 -14.179  30.050  1.00  0.00     0.088 A 
HETATM   11  C10 UNL     1      34.266 -13.895  31.326  1.00  0.00    -0.007 A 
HETATM   12  N5  UNL     1      33.466 -13.139  29.148  1.00  0.00    -0.099 NA
HETATM   13  C11 UNL     1      34.385 -12.470  31.726  1.00  0.00     0.052 C 
BRANCH   9  14
HETATM   14  N6  UNL     1      33.201 -15.723  28.280  1.00  0.00    -0.113 N 
HETATM   15  O2  UNL     1      34.021 -15.577  27.346  1.00  0.00    -0.532 OA
HETATM   16  O3  UNL     1      31.931 -16.096  27.954  1.00  0.00    -0.532 OA
ENDBRANCH   9  14
ENDBRANCH   1   5
BRANCH   3  17
HETATM   17  C5  UNL     1      35.777 -15.174  35.694  1.00  0.00     0.138 A 
HETATM   18  C6  UNL     1      35.077 -15.508  36.834  1.00  0.00     0.041 A 
HETATM   19  C7  UNL     1      33.810 -16.251  36.721  1.00  0.00     0.071 C 
HETATM   20  N3  UNL     1      35.565 -15.151  38.047  1.00  0.00    -0.335 N 
HETATM   21  C8  UNL     1      36.722 -14.475  38.179  1.00  0.00     0.179 A 
ATOM     22  H3  UNL     1      35.040 -15.403  38.884  1.00  0.00     0.168 HD
HETATM   23  S1  UNL     1      37.226 -14.091  39.687  1.00  0.00    -0.040 SA
HETATM   24  N4  UNL     1      37.418 -14.140  37.073  1.00  0.00    -0.298 N 
HETATM   25  C9  UNL     1      36.967 -14.476  35.856  1.00  0.00     0.277 A 
ATOM     26  H4  UNL     1      38.296 -13.627  37.163  1.00  0.00     0.171 HD
HETATM   27  O1  UNL     1      37.618 -14.161  34.823  1.00  0.00    -0.265 OA
ENDBRANCH   3  17
TORSDOF 3
ENDMDL
MODEL 2
REMARK VINA RESULT: -7.707823018      1.770      1.843
REMARK  3 active torsions:
REMARK  status: ('A' for Active; 'I' for Inactive)
REMARK    1  A    between atoms: C4_4  and  N1_5 
REMARK    2  A    between atoms: N2_7  and  C5_9 
REMARK    3  A    between atoms: C13_24  and  N6_25 
ROOT
HETATM    1  N1  UNL     1      34.943 -13.666  33.388  1.00  0.00    -0.300 N 
ATOM      2  H1  UNL     1      35.484 -12.802  33.339  1.00  0.00     0.187 HD
HETATM    3  N2  UNL     1      34.664 -14.106  34.542  1.00  0.00    -0.294 N 
ATOM      4  H2  UNL     1      34.124 -14.966  34.626  1.00  0.00     0.187 HD
ENDROOT
BRANCH   1   5
HETATM    5  C4  UNL     1      34.574 -14.262  32.166  1.00  0.00     0.056 A 
HETATM    6  C3  UNL     1      34.523 -15.653  32.051  1.00  0.00     0.040 A 
HETATM    7  C2  UNL     1      34.162 -16.279  30.872  1.00  0.00    -0.025 A 
HETATM    8  C1  UNL     1      34.113 -17.760  30.778  1.00  0.00     0.051 C 
HETATM    9  C13 UNL     1      33.836 -15.519  29.755  1.00  0.00     0.133 A 
HETATM   10  C12 UNL     1      33.886 -14.135  29.870  1.00  0.00     0.088 A 
HETATM   11  C10 UNL     1      34.248 -13.518  31.053  1.00  0.00    -0.007 A 
HETATM   12  N5  UNL     1      33.545 -13.374  28.721  1.00  0.00    -0.099 NA
HETATM   13  C11 UNL     1      34.276 -12.034  31.090  1.00  0.00     0.052 C 
BRANCH   9  14
HETATM   14  N6  UNL     1      33.455 -16.104  28.515  1.00  0.00    -0.113 N 
HETATM   15  O2  UNL     1      34.371 -16.364  27.703  1.00  0.00    -0.532 OA
HETATM   16  O3  UNL     1      32.178 -16.400  28.145  1.00  0.00    -0.532 OA
ENDBRANCH   9  14
ENDBRANCH   1   5
BRANCH   3  17
HETATM   17  C5  UNL     1      35.088 -13.429  35.733  1.00  0.00     0.138 A 
HETATM   18  C6  UNL     1      35.736 -14.091  36.754  1.00  0.00     0.041 A 
HETATM   19  C7  UNL     1      36.009 -15.534  36.631  1.00  0.00     0.071 C 
HETATM   20  N3  UNL     1      36.118 -13.406  37.859  1.00  0.00    -0.335 N 
HETATM   21  C8  UNL     1      35.884 -12.087  37.997  1.00  0.00     0.179 A 
ATOM     22  H3  UNL     1      36.597 -13.905  38.609  1.00  0.00     0.168 HD
HETATM   23  S1  UNL     1      36.385 -11.351  39.368  1.00  0.00    -0.040 SA
HETATM   24  N4  UNL     1      35.250 -11.425  37.006  1.00  0.00    -0.298 N 
HETATM   25  C9  UNL     1      34.858 -12.070  35.898  1.00  0.00     0.277 A 
ATOM     26  H4  UNL     1      35.068 -10.425  37.102  1.00  0.00     0.171 HD
HETATM   27  O1  UNL     1      34.264 -11.450  34.974  1.00  0.00    -0.265 OA
ENDBRANCH   3  17
TORSDOF 3
ENDMDL
MODEL 3
REMARK VINA RESULT: -7.688012269      3.516      4.091
REMARK  3 active torsions:
REMARK  status: ('A' for Active; 'I' for Inactive)
REMARK    1  A    between atoms: C4_4  and  N1_5 
REMARK    2  A    between atoms: N2_7  and  C5_9 
REMARK    3  A    between atoms: C13_24  and  N6_25 
ROOT
HETATM    1  N1  UNL     1      36.309 -16.850  33.791  1.00  0.00    -0.300 N 
ATOM      2  H1  UNL     1      37.065 -17.425  33.416  1.00  0.00     0.187 HD
HETATM    3  N2  UNL     1      35.932 -17.094  34.974  1.00  0.00    -0.294 N 
ATOM      4  H2  UNL     1      35.181 -16.536  35.379  1.00  0.00     0.187 HD
ENDROOT
BRANCH   1   5
HETATM    5  C4  UNL     1      35.779 -15.856  32.944  1.00  0.00     0.056 A 
HETATM    6  C3  UNL     1      34.719 -16.158  32.086  1.00  0.00     0.040 A 
HETATM    7  C2  UNL     1      34.166 -15.212  31.242  1.00  0.00    -0.025 A 
HETATM    8  C1  UNL     1      33.036 -15.559  30.343  1.00  0.00     0.051 C 
HETATM    9  C13 UNL     1      34.667 -13.915  31.231  1.00  0.00     0.133 A 
HETATM   10  C12 UNL     1      35.722 -13.616  32.084  1.00  0.00     0.088 A 
HETATM   11  C10 UNL     1      36.268 -14.568  32.925  1.00  0.00    -0.007 A 
HETATM   12  N5  UNL     1      36.218 -12.286  32.063  1.00  0.00    -0.099 NA
HETATM   13  C11 UNL     1      37.393 -14.163  33.805  1.00  0.00     0.052 C 
BRANCH   9  14
HETATM   14  N6  UNL     1      34.140 -12.898  30.387  1.00  0.00    -0.113 N 
HETATM   15  O2  UNL     1      33.177 -12.233  30.829  1.00  0.00    -0.532 OA
HETATM   16  O3  UNL     1      34.600 -12.595  29.141  1.00  0.00    -0.532 OA
ENDBRANCH   9  14
ENDBRANCH   1   5
BRANCH   3  17
HETATM   17  C5  UNL     1      36.532 -18.132  35.762  1.00  0.00     0.138 A 
HETATM   18  C6  UNL     1      37.518 -17.864  36.687  1.00  0.00     0.041 A 
HETATM   19  C7  UNL     1      37.977 -16.478  36.885  1.00  0.00     0.071 C 
HETATM   20  N3  UNL     1      38.052 -18.880  37.408  1.00  0.00    -0.335 N 
HETATM   21  C8  UNL     1      37.649 -20.155  37.250  1.00  0.00     0.179 A 
ATOM     22  H3  UNL     1      38.781 -18.672  38.090  1.00  0.00     0.168 HD
HETATM   23  S1  UNL     1      38.356 -21.309  38.168  1.00  0.00    -0.040 SA
HETATM   24  N4  UNL     1      36.686 -20.433  36.347  1.00  0.00    -0.298 N 
HETATM   25  C9  UNL     1      36.134 -19.454  35.616  1.00  0.00     0.277 A 
ATOM     26  H4  UNL     1      36.374 -21.397  36.220  1.00  0.00     0.171 HD
HETATM   27  O1  UNL     1      35.234 -19.716  34.772  1.00  0.00    -0.265 OA
ENDBRANCH   3  17
TORSDOF 3
ENDMDL
MODEL 4
REMARK VINA RESULT: -7.685267693      1.785      2.045
REMARK  3 active torsions:
REMARK  status: ('A' for Active; 'I' for Inactive)
REMARK    1  A    between atoms: C4_4  and  N1_5 
REMARK    2  A    between atoms: N2_7  and  C5_9 
REMARK    3  A    between atoms: C13_24  and  N6_25 
ROOT
HETATM    1  N1  UNL     1      35.641 -16.094  34.016  1.00  0.00    -0.300 N 
ATOM      2  H1  UNL     1      35.090 -15.649  34.751  1.00  0.00     0.187 HD
HETATM    3  N2  UNL     1      36.778 -16.545  34.342  1.00  0.00    -0.294 N 
ATOM      4  H2  UNL     1      37.353 -16.997  33.631  1.00  0.00     0.187 HD
ENDROOT
BRANCH   1   5
HETATM    5  C4  UNL     1      35.068 -16.150  32.730  1.00  0.00     0.056 A 
HETATM    6  C3  UNL     1      34.928 -17.376  32.077  1.00  0.00     0.040 A 
HETATM    7  C2  UNL     1      34.369 -17.476  30.816  1.00  0.00    -0.025 A 
HETATM    8  C1  UNL     1      34.227 -18.794  30.146  1.00  0.00     0.051 C 
HETATM    9  C13 UNL     1      33.926 -16.333  30.161  1.00  0.00     0.133 A 
HETATM   10  C12 UNL     1      34.066 -15.113  30.810  1.00  0.00     0.088 A 
HETATM   11  C10 UNL     1      34.627 -15.023  32.071  1.00  0.00    -0.007 A 
HETATM   12  N5  UNL     1      33.605 -13.956  30.129  1.00  0.00    -0.099 NA
HETATM   13  C11 UNL     1      34.739 -13.679  32.694  1.00  0.00     0.052 C 
BRANCH   9  14
HETATM   14  N6  UNL     1      33.341 -16.371  28.865  1.00  0.00    -0.113 N 
HETATM   15  O2  UNL     1      32.118 -16.628  28.798  1.00  0.00    -0.532 OA
HETATM   16  O3  UNL     1      34.006 -16.151  27.696  1.00  0.00    -0.532 OA
ENDBRANCH   9  14
ENDBRANCH   1   5
BRANCH   3  17
HETATM   17  C5  UNL     1      37.280 -16.439  35.681  1.00  0.00     0.138 A 
HETATM   18  C6  UNL     1      37.667 -17.548  36.401  1.00  0.00     0.041 A 
HETATM   19  C7  UNL     1      37.571 -18.886  35.791  1.00  0.00     0.071 C 
HETATM   20  N3  UNL     1      38.137 -17.395  37.664  1.00  0.00    -0.335 N 
HETATM   21  C8  UNL     1      38.239 -16.185  38.245  1.00  0.00     0.179 A 
ATOM     22  H3  UNL     1      38.422 -18.222  38.189  1.00  0.00     0.168 HD
HETATM   23  S1  UNL     1      38.818 -16.106  39.772  1.00  0.00    -0.040 SA
HETATM   24  N4  UNL     1      37.862 -15.089  37.552  1.00  0.00    -0.298 N 
HETATM   25  C9  UNL     1      37.393 -15.202  36.301  1.00  0.00     0.277 A 
ATOM     26  H4  UNL     1      37.935 -14.167  37.984  1.00  0.00     0.171 HD
HETATM   27  O1  UNL     1      37.040 -14.177  35.656  1.00  0.00    -0.265 OA
ENDBRANCH   3  17
TORSDOF 3
ENDMDL
MODEL 5
REMARK VINA RESULT: -7.673445554      1.281      1.603
REMARK  3 active torsions:
REMARK  status: ('A' for Active; 'I' for Inactive)
REMARK    1  A    between atoms: C4_4  and  N1_5 
REMARK    2  A    between atoms: N2_7  and  C5_9 
REMARK    3  A    between atoms: C13_24  and  N6_25 
ROOT
HETATM    1  N1  UNL     1      35.393 -14.752  33.726  1.00  0.00    -0.300 N 
ATOM      2  H1  UNL     1      36.406 -14.657  33.794  1.00  0.00     0.187 HD
HETATM    3  N2  UNL     1      34.729 -14.625  34.797  1.00  0.00    -0.294 N 
ATOM      4  H2  UNL     1      33.714 -14.712  34.763  1.00  0.00     0.187 HD
ENDROOT
BRANCH   1   5
HETATM    5  C4  UNL     1      34.857 -15.013  32.450  1.00  0.00     0.056 A 
HETATM    6  C3  UNL     1      34.718 -16.329  32.003  1.00  0.00     0.040 A 
HETATM    7  C2  UNL     1      34.193 -16.631  30.759  1.00  0.00    -0.025 A 
HETATM    8  C1  UNL     1      34.053 -18.039  30.310  1.00  0.00     0.051 C 
HETATM    9  C13 UNL     1      33.786 -15.607  29.912  1.00  0.00     0.133 A 
HETATM   10  C12 UNL     1      33.924 -14.298  30.356  1.00  0.00     0.088 A 
HETATM   11  C10 UNL     1      34.450 -14.006  31.602  1.00  0.00    -0.007 A 
HETATM   12  N5  UNL     1      33.499 -13.264  29.481  1.00  0.00    -0.099 NA
HETATM   13  C11 UNL     1      34.563 -12.580  31.999  1.00  0.00     0.052 C 
BRANCH   9  14
HETATM   14  N6  UNL     1      33.237 -15.852  28.622  1.00  0.00    -0.113 N 
HETATM   15  O2  UNL     1      32.065 -16.288  28.575  1.00  0.00    -0.532 OA
HETATM   16  O3  UNL     1      33.886 -15.652  27.441  1.00  0.00    -0.532 OA
ENDBRANCH   9  14
ENDBRANCH   1   5
BRANCH   3  17
HETATM   17  C5  UNL     1      35.365 -14.361  36.055  1.00  0.00     0.138 A 
HETATM   18  C6  UNL     1      35.322 -13.116  36.644  1.00  0.00     0.041 A 
HETATM   19  C7  UNL     1      34.605 -12.016  35.975  1.00  0.00     0.071 C 
HETATM   20  N3  UNL     1      35.938 -12.918  37.835  1.00  0.00    -0.335 N 
HETATM   21  C8  UNL     1      36.597 -13.906  38.470  1.00  0.00     0.179 A 
ATOM     22  H3  UNL     1      35.901 -11.993  38.263  1.00  0.00     0.168 HD
HETATM   23  S1  UNL     1      37.307 -13.566  39.903  1.00  0.00    -0.040 SA
HETATM   24  N4  UNL     1      36.649 -15.131  37.905  1.00  0.00    -0.298 N 
HETATM   25  C9  UNL     1      36.052 -15.364  36.728  1.00  0.00     0.277 A 
ATOM     26  H4  UNL     1      37.147 -15.885  38.378  1.00  0.00     0.171 HD
HETATM   27  O1  UNL     1      36.102 -16.508  36.201  1.00  0.00    -0.265 OA
ENDBRANCH   3  17
TORSDOF 3
ENDMDL
