MODEL 1
REMARK VINA RESULT: -8.611050806      0.000      0.000
REMARK  4 active torsions:
REMARK  status: ('A' for Active; 'I' for Inactive)
REMARK    1  A    between atoms: C2_2  and  O1_3 
REMARK    2  A    between atoms: O1_3  and  C3_4 
REMARK       I    between atoms: C3_4  and  N1_6 
REMARK    3  A    between atoms: C4_7  and  C5_8 
REMARK    4  A    between atoms: C9_12  and  N2_13 
ROOT
HETATM    1  C5  UNL     1      34.900 -16.025  32.144  1.00  0.00     0.015 A 
HETATM    2  C6  UNL     1      35.149 -17.364  32.492  1.00  0.00     0.047 A 
HETATM    3  C7  UNL     1      34.853 -18.413  31.651  1.00  0.00     0.058 A 
HETATM    4  C8  UNL     1      34.286 -18.193  30.399  1.00  0.00     0.088 A 
HETATM    5  C9  UNL     1      34.034 -16.914  30.034  1.00  0.00     0.132 A 
HETATM    6  C10 UNL     1      34.350 -15.855  30.924  1.00  0.00     0.053 A 
HETATM    7  N3  UNL     1      33.990 -19.337  29.616  1.00  0.00    -0.385 N 
ATOM      8  H3  UNL     1      33.817 -19.190  28.621  1.00  0.00     0.159 HD
HETATM    9  C11 UNL     1      33.912 -20.690  30.106  1.00  0.00     0.139 C 
HETATM   10  C12 UNL     1      34.762 -20.931  31.308  1.00  0.00     0.139 C 
HETATM   11  N4  UNL     1      35.121 -19.761  32.025  1.00  0.00    -0.386 N 
ATOM     12  H4  UNL     1      35.625 -19.899  32.901  1.00  0.00     0.159 HD
ENDROOT
BRANCH   1  13
HETATM   13  C4  UNL     1      35.173 -15.033  33.170  1.00  0.00     0.144 A 
HETATM   14  N1  UNL     1      34.658 -13.842  33.407  1.00  0.00    -0.215 N 
HETATM   15  C3  UNL     1      33.726 -13.062  32.684  1.00  0.00     0.375 C 
HETATM   16  C13 UNL     1      35.308 -13.289  34.495  1.00  0.00     0.203 A 
HETATM   17  O2  UNL     1      33.312 -11.992  33.189  1.00  0.00    -0.237 OA
HETATM   18  N6  UNL     1      36.219 -14.169  34.896  1.00  0.00    -0.274 N 
HETATM   19  S1  UNL     1      35.060 -11.861  35.194  1.00  0.00    -0.038 SA
HETATM   20  N5  UNL     1      36.158 -15.207  34.126  1.00  0.00    -0.282 N 
ATOM     21  H6  UNL     1      36.859 -14.046  35.679  1.00  0.00     0.189 HD
ATOM     22  H5  UNL     1      36.750 -16.033  34.211  1.00  0.00     0.188 HD
BRANCH  15  23
HETATM   23  O1  UNL     1      33.252 -13.392  31.466  1.00  0.00    -0.304 OA
BRANCH  23  24
HETATM   24  C2  UNL     1      33.384 -12.664  30.270  1.00  0.00     0.176 C 
HETATM   25  C1  UNL     1      34.784 -12.172  30.138  1.00  0.00     0.034 C 
ENDBRANCH  23  24
ENDBRANCH  15  23
ENDBRANCH   1  13
BRANCH   5  26
HETATM   26  N2  UNL     1      33.448 -16.592  28.795  1.00  0.00    -0.113 N 
HETATM   27  O3  UNL     1      32.198 -16.798  28.627  1.00  0.00    -0.532 OA
HETATM   28  O4  UNL     1      34.096 -16.076  27.742  1.00  0.00    -0.532 OA
ENDBRANCH   5  26
TORSDOF 4
ENDMDL
MODEL 2
REMARK VINA RESULT: -8.496492455      1.268      1.373
REMARK  4 active torsions:
REMARK  status: ('A' for Active; 'I' for Inactive)
REMARK    1  A    between atoms: C2_2  and  O1_3 
REMARK    2  A    between atoms: O1_3  and  C3_4 
REMARK       I    between atoms: C3_4  and  N1_6 
REMARK    3  A    between atoms: C4_7  and  C5_8 
REMARK    4  A    between atoms: C9_12  and  N2_13 
ROOT
HETATM    1  C5  UNL     1      34.508 -15.561  32.853  1.00  0.00     0.015 A 
HETATM    2  C6  UNL     1      34.939 -16.894  32.955  1.00  0.00     0.047 A 
HETATM    3  C7  UNL     1      34.857 -17.780  31.904  1.00  0.00     0.058 A 
HETATM    4  C8  UNL     1      34.338 -17.388  30.673  1.00  0.00     0.088 A 
HETATM    5  C9  UNL     1      33.915 -16.110  30.543  1.00  0.00     0.132 A 
HETATM    6  C10 UNL     1      34.010 -15.222  31.645  1.00  0.00     0.053 A 
HETATM    7  N3  UNL     1      34.268 -18.377  29.660  1.00  0.00    -0.385 N 
ATOM      8  H3  UNL     1      34.133 -18.055  28.701  1.00  0.00     0.159 HD
HETATM    9  C11 UNL     1      34.370 -19.799  29.870  1.00  0.00     0.139 C 
HETATM   10  C12 UNL     1      35.175 -20.161  31.072  1.00  0.00     0.139 C 
HETATM   11  N4  UNL     1      35.307 -19.125  32.032  1.00  0.00    -0.386 N 
ATOM     12  H4  UNL     1      35.774 -19.369  32.905  1.00  0.00     0.159 HD
ENDROOT
BRANCH   1  13
HETATM   13  C4  UNL     1      34.565 -14.772  34.073  1.00  0.00     0.144 A 
HETATM   14  N1  UNL     1      34.623 -13.470  34.280  1.00  0.00    -0.215 N 
HETATM   15  C3  UNL     1      34.756 -12.381  33.388  1.00  0.00     0.375 C 
HETATM   16  C13 UNL     1      34.701 -13.246  35.643  1.00  0.00     0.203 A 
HETATM   17  O2  UNL     1      34.676 -11.215  33.840  1.00  0.00    -0.237 OA
HETATM   18  N6  UNL     1      34.692 -14.433  36.237  1.00  0.00    -0.274 N 
HETATM   19  S1  UNL     1      34.788 -11.843  36.426  1.00  0.00    -0.038 SA
HETATM   20  N5  UNL     1      34.613 -15.350  35.328  1.00  0.00    -0.282 N 
ATOM     21  H6  UNL     1      34.739 -14.595  37.243  1.00  0.00     0.189 HD
ATOM     22  H5  UNL     1      34.591 -16.354  35.510  1.00  0.00     0.188 HD
BRANCH  15  23
HETATM   23  O1  UNL     1      34.974 -12.516  32.064  1.00  0.00    -0.304 OA
BRANCH  23  24
HETATM   24  C2  UNL     1      34.429 -11.743  31.024  1.00  0.00     0.176 C 
HETATM   25  C1  UNL     1      35.482 -11.454  30.011  1.00  0.00     0.034 C 
ENDBRANCH  23  24
ENDBRANCH  15  23
ENDBRANCH   1  13
BRANCH   5  26
HETATM   26  N2  UNL     1      33.359 -15.624  29.343  1.00  0.00    -0.113 N 
HETATM   27  O3  UNL     1      33.466 -14.381  29.067  1.00  0.00    -0.532 OA
HETATM   28  O4  UNL     1      32.706 -16.364  28.437  1.00  0.00    -0.532 OA
ENDBRANCH   5  26
TORSDOF 4
ENDMDL
MODEL 3
REMARK VINA RESULT: -8.325418710      3.856      5.387
REMARK  4 active torsions:
REMARK  status: ('A' for Active; 'I' for Inactive)
REMARK    1  A    between atoms: C2_2  and  O1_3 
REMARK    2  A    between atoms: O1_3  and  C3_4 
REMARK       I    between atoms: C3_4  and  N1_6 
REMARK    3  A    between atoms: C4_7  and  C5_8 
REMARK    4  A    between atoms: C9_12  and  N2_13 
ROOT
HETATM    1  C5  UNL     1      36.283 -14.132  33.567  1.00  0.00     0.015 A 
HETATM    2  C6  UNL     1      35.603 -14.925  32.627  1.00  0.00     0.047 A 
HETATM    3  C7  UNL     1      34.973 -14.389  31.526  1.00  0.00     0.058 A 
HETATM    4  C8  UNL     1      34.983 -13.017  31.290  1.00  0.00     0.088 A 
HETATM    5  C9  UNL     1      35.631 -12.227  32.177  1.00  0.00     0.132 A 
HETATM    6  C10 UNL     1      36.269 -12.810  33.302  1.00  0.00     0.053 A 
HETATM    7  N3  UNL     1      34.283 -12.555  30.146  1.00  0.00    -0.385 N 
ATOM      8  H3  UNL     1      34.489 -11.610  29.823  1.00  0.00     0.159 HD
HETATM    9  C11 UNL     1      33.306 -13.309  29.402  1.00  0.00     0.139 C 
HETATM   10  C12 UNL     1      33.515 -14.784  29.482  1.00  0.00     0.139 C 
HETATM   11  N4  UNL     1      34.294 -15.215  30.585  1.00  0.00    -0.386 N 
ATOM     12  H4  UNL     1      34.379 -16.223  30.718  1.00  0.00     0.159 HD
ENDROOT
BRANCH   1  13
HETATM   13  C4  UNL     1      36.815 -14.827  34.728  1.00  0.00     0.144 A 
HETATM   14  N1  UNL     1      36.395 -14.910  35.976  1.00  0.00    -0.215 N 
HETATM   15  C3  UNL     1      35.333 -14.268  36.655  1.00  0.00     0.375 C 
HETATM   16  C13 UNL     1      37.298 -15.672  36.694  1.00  0.00     0.203 A 
HETATM   17  O2  UNL     1      35.074 -14.609  37.833  1.00  0.00    -0.237 OA
HETATM   18  N6  UNL     1      38.260 -16.035  35.854  1.00  0.00    -0.274 N 
HETATM   19  S1  UNL     1      37.254 -16.081  38.250  1.00  0.00    -0.038 SA
HETATM   20  N5  UNL     1      37.996 -15.545  34.686  1.00  0.00    -0.282 N 
ATOM     21  H6  UNL     1      39.073 -16.604  36.090  1.00  0.00     0.189 HD
ATOM     22  H5  UNL     1      38.575 -15.670  33.854  1.00  0.00     0.188 HD
BRANCH  15  23
HETATM   23  O1  UNL     1      34.574 -13.293  36.114  1.00  0.00    -0.304 OA
BRANCH  23  24
HETATM   24  C2  UNL     1      34.634 -11.915  36.382  1.00  0.00     0.176 C 
HETATM   25  C1  UNL     1      33.795 -11.600  37.572  1.00  0.00     0.034 C 
ENDBRANCH  23  24
ENDBRANCH  15  23
ENDBRANCH   1  13
BRANCH   5  26
HETATM   26  N2  UNL     1      35.683 -10.827  32.032  1.00  0.00    -0.113 N 
HETATM   27  O3  UNL     1      36.110 -10.331  30.935  1.00  0.00    -0.532 OA
HETATM   28  O4  UNL     1      35.319  -9.938  32.966  1.00  0.00    -0.532 OA
ENDBRANCH   5  26
TORSDOF 4
ENDMDL
MODEL 4
REMARK VINA RESULT: -8.325402211      2.358      3.346
REMARK  4 active torsions:
REMARK  status: ('A' for Active; 'I' for Inactive)
REMARK    1  A    between atoms: C2_2  and  O1_3 
REMARK    2  A    between atoms: O1_3  and  C3_4 
REMARK       I    between atoms: C3_4  and  N1_6 
REMARK    3  A    between atoms: C4_7  and  C5_8 
REMARK    4  A    between atoms: C9_12  and  N2_13 
ROOT
HETATM    1  C5  UNL     1      35.737 -15.263  32.924  1.00  0.00     0.015 A 
HETATM    2  C6  UNL     1      35.237 -16.471  32.407  1.00  0.00     0.047 A 
HETATM    3  C7  UNL     1      34.516 -16.530  31.235  1.00  0.00     0.058 A 
HETATM    4  C8  UNL     1      34.246 -15.380  30.499  1.00  0.00     0.088 A 
HETATM    5  C9  UNL     1      34.714 -14.201  30.971  1.00  0.00     0.132 A 
HETATM    6  C10 UNL     1      35.453 -14.173  32.182  1.00  0.00     0.053 A 
HETATM    7  N3  UNL     1      33.472 -15.537  29.322  1.00  0.00    -0.385 N 
ATOM      8  H3  UNL     1      33.480 -14.767  28.651  1.00  0.00     0.159 HD
HETATM    9  C11 UNL     1      32.673 -16.690  28.992  1.00  0.00     0.139 C 
HETATM   10  C12 UNL     1      33.179 -17.952  29.606  1.00  0.00     0.139 C 
HETATM   11  N4  UNL     1      34.026 -17.768  30.729  1.00  0.00    -0.386 N 
ATOM     12  H4  UNL     1      34.315 -18.610  31.226  1.00  0.00     0.159 HD
ENDROOT
BRANCH   1  13
HETATM   13  C4  UNL     1      36.394 -15.342  34.219  1.00  0.00     0.144 A 
HETATM   14  N1  UNL     1      36.148 -14.751  35.372  1.00  0.00    -0.215 N 
HETATM   15  C3  UNL     1      35.218 -13.748  35.733  1.00  0.00     0.375 C 
HETATM   16  C13 UNL     1      37.109 -15.147  36.284  1.00  0.00     0.203 A 
HETATM   17  O2  UNL     1      35.110 -13.430  36.941  1.00  0.00    -0.237 OA
HETATM   18  N6  UNL     1      37.929 -15.979  35.652  1.00  0.00    -0.274 N 
HETATM   19  S1  UNL     1      37.263 -14.724  37.829  1.00  0.00    -0.038 SA
HETATM   20  N5  UNL     1      37.527 -16.108  34.429  1.00  0.00    -0.282 N 
ATOM     21  H6  UNL     1      38.741 -16.439  36.062  1.00  0.00     0.189 HD
ATOM     22  H5  UNL     1      37.979 -16.689  33.723  1.00  0.00     0.188 HD
BRANCH  15  23
HETATM   23  O1  UNL     1      34.433 -13.096  34.852  1.00  0.00    -0.304 OA
BRANCH  23  24
HETATM   24  C2  UNL     1      34.410 -11.716  34.586  1.00  0.00     0.176 C 
HETATM   25  C1  UNL     1      33.599 -11.457  33.363  1.00  0.00     0.034 C 
ENDBRANCH  23  24
ENDBRANCH  15  23
ENDBRANCH   1  13
BRANCH   5  26
HETATM   26  N2  UNL     1      34.478 -12.983  30.306  1.00  0.00    -0.113 N 
HETATM   27  O3  UNL     1      33.276 -12.646  30.034  1.00  0.00    -0.532 OA
HETATM   28  O4  UNL     1      35.424 -12.117  29.916  1.00  0.00    -0.532 OA
ENDBRANCH   5  26
TORSDOF 4
ENDMDL
MODEL 5
REMARK VINA RESULT: -8.312945247      2.927      6.072
REMARK  4 active torsions:
REMARK  status: ('A' for Active; 'I' for Inactive)
REMARK    1  A    between atoms: C2_2  and  O1_3 
REMARK    2  A    between atoms: O1_3  and  C3_4 
REMARK       I    between atoms: C3_4  and  N1_6 
REMARK    3  A    between atoms: C4_7  and  C5_8 
REMARK    4  A    between atoms: C9_12  and  N2_13 
ROOT
HETATM    1  C5  UNL     1      35.314 -16.582  32.995  1.00  0.00     0.015 A 
HETATM    2  C6  UNL     1      34.660 -16.410  34.227  1.00  0.00     0.047 A 
HETATM    3  C7  UNL     1      34.823 -15.280  34.998  1.00  0.00     0.058 A 
HETATM    4  C8  UNL     1      35.654 -14.242  34.586  1.00  0.00     0.088 A 
HETATM    5  C9  UNL     1      36.297 -14.379  33.403  1.00  0.00     0.132 A 
HETATM    6  C10 UNL     1      36.110 -15.556  32.632  1.00  0.00     0.053 A 
HETATM    7  N3  UNL     1      35.780 -13.134  35.459  1.00  0.00    -0.385 N 
ATOM      8  H3  UNL     1      36.170 -12.274  35.071  1.00  0.00     0.159 HD
HETATM    9  C11 UNL     1      35.405 -13.117  36.850  1.00  0.00     0.139 C 
HETATM   10  C12 UNL     1      34.310 -14.076  37.177  1.00  0.00     0.139 C 
HETATM   11  N4  UNL     1      34.143 -15.127  36.240  1.00  0.00    -0.386 N 
ATOM     12  H4  UNL     1      33.464 -15.850  36.481  1.00  0.00     0.159 HD
ENDROOT
BRANCH   1  13
HETATM   13  C4  UNL     1      35.123 -17.867  32.340  1.00  0.00     0.144 A 
HETATM   14  N1  UNL     1      34.433 -18.219  31.273  1.00  0.00    -0.215 N 
HETATM   15  C3  UNL     1      33.548 -17.491  30.443  1.00  0.00     0.375 C 
HETATM   16  C13 UNL     1      34.555 -19.586  31.103  1.00  0.00     0.203 A 
HETATM   17  O2  UNL     1      33.098 -18.041  29.411  1.00  0.00    -0.237 OA
HETATM   18  N6  UNL     1      35.323 -20.037  32.087  1.00  0.00    -0.274 N 
HETATM   19  S1  UNL     1      33.917 -20.516  29.955  1.00  0.00    -0.038 SA
HETATM   20  N5  UNL     1      35.670 -19.038  32.832  1.00  0.00    -0.282 N 
ATOM     21  H6  UNL     1      35.595 -21.009  32.232  1.00  0.00     0.189 HD
ATOM     22  H5  UNL     1      36.260 -19.104  33.662  1.00  0.00     0.188 HD
BRANCH  15  23
HETATM   23  O1  UNL     1      33.145 -16.230  30.697  1.00  0.00    -0.304 OA
BRANCH  23  24
HETATM   24  C2  UNL     1      33.534 -15.057  30.029  1.00  0.00     0.176 C 
HETATM   25  C1  UNL     1      33.358 -13.886  30.933  1.00  0.00     0.034 C 
ENDBRANCH  23  24
ENDBRANCH  15  23
ENDBRANCH   1  13
BRANCH   5  26
HETATM   26  N2  UNL     1      37.171 -13.391  32.909  1.00  0.00    -0.113 N 
HETATM   27  O3  UNL     1      36.684 -12.296  32.468  1.00  0.00    -0.532 OA
HETATM   28  O4  UNL     1      38.506 -13.495  32.854  1.00  0.00    -0.532 OA
ENDBRANCH   5  26
TORSDOF 4
ENDMDL
