MODEL 1
REMARK VINA RESULT: -7.292824169      0.000      0.000
REMARK  6 active torsions:
REMARK  status: ('A' for Active; 'I' for Inactive)
REMARK    1  A    between atoms: N1_2  and  C2_4 
REMARK    2  A    between atoms: C4_8  and  C5_9 
REMARK    3  A    between atoms: C5_9  and  C6_13 
REMARK       I    between atoms: N4_17  and  C8_18 
REMARK    4  A    between atoms: C8_18  and  O2_20 
REMARK    5  A    between atoms: O2_20  and  C9_21 
REMARK    6  A    between atoms: C12_24  and  O3_25 
ROOT
HETATM    1  C6  UNL     1      35.882 -15.617  34.235  1.00  0.00     0.088 A 
HETATM    2  S1  UNL     1      35.349 -15.159  35.792  1.00  0.00    -0.053 SA
HETATM    3  C7  UNL     1      35.233 -13.486  35.549  1.00  0.00     0.156 A 
HETATM    4  S2  UNL     1      34.761 -12.344  36.650  1.00  0.00    -0.051 SA
HETATM    5  N4  UNL     1      35.608 -13.339  34.279  1.00  0.00    -0.220 N 
HETATM    6  C8  UNL     1      35.629 -11.995  33.714  1.00  0.00     0.375 C 
HETATM    7  O1  UNL     1      35.313 -11.004  34.370  1.00  0.00    -0.237 OA
HETATM    8  C12 UNL     1      35.941 -14.395  33.595  1.00  0.00     0.172 A 
ENDROOT
BRANCH   1   9
HETATM    9  C5  UNL     1      36.205 -16.914  33.671  1.00  0.00     0.083 C 
HETATM   10  N3  UNL     1      37.162 -17.598  34.188  1.00  0.00    -0.396 N 
ATOM     11  H32 UNL     1      37.389 -18.510  33.792  1.00  0.00     0.156 HD
ATOM     12  H31 UNL     1      37.672 -17.214  34.984  1.00  0.00     0.156 HD
BRANCH   9  13
HETATM   13  C4  UNL     1      35.486 -17.457  32.549  1.00  0.00     0.122 A 
HETATM   14  C3  UNL     1      35.354 -18.752  32.183  1.00  0.00     0.131 A 
HETATM   15  N2  UNL     1      34.579 -18.747  31.050  1.00  0.00    -0.329 N 
HETATM   16  C2  UNL     1      34.261 -17.487  30.752  1.00  0.00     0.224 A 
ATOM     17  H2  UNL     1      34.293 -19.572  30.523  1.00  0.00     0.168 HD
HETATM   18  O4  UNL     1      34.810 -16.736  31.656  1.00  0.00    -0.276 OA
BRANCH  16  19
HETATM   19  N1  UNL     1      33.533 -17.109  29.736  1.00  0.00    -0.360 N 
HETATM   20  C1  UNL     1      33.252 -15.714  29.558  1.00  0.00     0.150 C 
ATOM     21  H1  UNL     1      33.168 -17.798  29.078  1.00  0.00     0.162 HD
ENDBRANCH  16  19
ENDBRANCH   9  13
ENDBRANCH   1   9
BRANCH   8  22
HETATM   22  O3  UNL     1      36.357 -14.349  32.232  1.00  0.00    -0.344 OA
ATOM     23  H3  UNL     1      37.163 -13.898  32.012  1.00  0.00     0.219 HD
ENDBRANCH   8  22
BRANCH   6  24
HETATM   24  O2  UNL     1      36.007 -11.749  32.404  1.00  0.00    -0.299 OA
BRANCH  24  25
HETATM   25  C9  UNL     1      35.150 -11.168  31.460  1.00  0.00     0.125 C 
HETATM   26  C10 UNL     1      33.821 -11.890  31.546  1.00  0.00     0.040 C 
HETATM   27  C11 UNL     1      35.630 -11.200  30.061  1.00  0.00     0.040 C 
ENDBRANCH  24  25
ENDBRANCH   6  24
TORSDOF 6
ENDMDL
MODEL 2
REMARK VINA RESULT: -7.219363886      3.601      7.261
REMARK  6 active torsions:
REMARK  status: ('A' for Active; 'I' for Inactive)
REMARK    1  A    between atoms: N1_2  and  C2_4 
REMARK    2  A    between atoms: C4_8  and  C5_9 
REMARK    3  A    between atoms: C5_9  and  C6_13 
REMARK       I    between atoms: N4_17  and  C8_18 
REMARK    4  A    between atoms: C8_18  and  O2_20 
REMARK    5  A    between atoms: O2_20  and  C9_21 
REMARK    6  A    between atoms: C12_24  and  O3_25 
ROOT
HETATM    1  C6  UNL     1      35.097 -12.584  36.666  1.00  0.00     0.088 A 
HETATM    2  S1  UNL     1      35.431 -14.250  36.836  1.00  0.00    -0.053 SA
HETATM    3  C7  UNL     1      35.945 -14.579  35.255  1.00  0.00     0.156 A 
HETATM    4  S2  UNL     1      36.447 -16.034  34.648  1.00  0.00    -0.051 SA
HETATM    5  N4  UNL     1      35.843 -13.395  34.653  1.00  0.00    -0.220 N 
HETATM    6  C8  UNL     1      36.212 -13.300  33.246  1.00  0.00     0.375 C 
HETATM    7  O1  UNL     1      36.612 -14.271  32.606  1.00  0.00    -0.237 OA
HETATM    8  C12 UNL     1      35.418 -12.374  35.340  1.00  0.00     0.172 A 
ENDROOT
BRANCH   1   9
HETATM    9  C5  UNL     1      34.609 -11.598  37.612  1.00  0.00     0.083 C 
HETATM   10  N3  UNL     1      33.345 -11.516  37.830  1.00  0.00    -0.396 N 
ATOM     11  H32 UNL     1      33.003 -10.823  38.495  1.00  0.00     0.156 HD
ATOM     12  H31 UNL     1      32.715 -12.146  37.334  1.00  0.00     0.156 HD
BRANCH   9  13
HETATM   13  C4  UNL     1      35.498 -10.709  38.312  1.00  0.00     0.122 A 
HETATM   14  C3  UNL     1      36.431 -11.014  39.242  1.00  0.00     0.131 A 
HETATM   15  N2  UNL     1      37.009  -9.822  39.603  1.00  0.00    -0.329 N 
HETATM   16  C2  UNL     1      36.436  -8.839  38.908  1.00  0.00     0.224 A 
ATOM     17  H2  UNL     1      37.755  -9.708  40.289  1.00  0.00     0.168 HD
HETATM   18  O4  UNL     1      35.540  -9.388  38.147  1.00  0.00    -0.276 OA
BRANCH  16  19
HETATM   19  N1  UNL     1      36.739  -7.572  38.998  1.00  0.00    -0.360 N 
HETATM   20  C1  UNL     1      35.718  -6.591  38.764  1.00  0.00     0.150 C 
ATOM     21  H1  UNL     1      37.689  -7.284  39.232  1.00  0.00     0.162 HD
ENDBRANCH  16  19
ENDBRANCH   9  13
ENDBRANCH   1   9
BRANCH   8  22
HETATM   22  O3  UNL     1      35.271 -11.065  34.792  1.00  0.00    -0.344 OA
ATOM     23  H3  UNL     1      36.007 -10.671  34.340  1.00  0.00     0.219 HD
ENDBRANCH   8  22
BRANCH   6  24
HETATM   24  O2  UNL     1      36.136 -12.110  32.539  1.00  0.00    -0.299 OA
BRANCH  24  25
HETATM   25  C9  UNL     1      35.345 -11.954  31.394  1.00  0.00     0.125 C 
HETATM   26  C10 UNL     1      35.785 -10.676  30.707  1.00  0.00     0.040 C 
HETATM   27  C11 UNL     1      33.885 -11.898  31.631  1.00  0.00     0.040 C 
ENDBRANCH  24  25
ENDBRANCH   6  24
TORSDOF 6
ENDMDL
MODEL 3
REMARK VINA RESULT: -6.966360727      2.752      3.793
REMARK  6 active torsions:
REMARK  status: ('A' for Active; 'I' for Inactive)
REMARK    1  A    between atoms: N1_2  and  C2_4 
REMARK    2  A    between atoms: C4_8  and  C5_9 
REMARK    3  A    between atoms: C5_9  and  C6_13 
REMARK       I    between atoms: N4_17  and  C8_18 
REMARK    4  A    between atoms: C8_18  and  O2_20 
REMARK    5  A    between atoms: O2_20  and  C9_21 
REMARK    6  A    between atoms: C12_24  and  O3_25 
ROOT
HETATM    1  C6  UNL     1      34.570 -17.248  31.119  1.00  0.00     0.088 A 
HETATM    2  S1  UNL     1      35.364 -17.832  32.514  1.00  0.00    -0.053 SA
HETATM    3  C7  UNL     1      35.582 -16.362  33.329  1.00  0.00     0.156 A 
HETATM    4  S2  UNL     1      36.304 -16.130  34.799  1.00  0.00    -0.051 SA
HETATM    5  N4  UNL     1      35.036 -15.474  32.500  1.00  0.00    -0.220 N 
HETATM    6  C8  UNL     1      35.044 -14.069  32.886  1.00  0.00     0.375 C 
HETATM    7  O1  UNL     1      35.535 -13.684  33.946  1.00  0.00    -0.237 OA
HETATM    8  C12 UNL     1      34.520 -15.894  31.380  1.00  0.00     0.172 A 
ENDROOT
BRANCH   1   9
HETATM    9  C5  UNL     1      34.061 -17.930  29.945  1.00  0.00     0.083 C 
HETATM   10  N3  UNL     1      34.046 -17.309  28.820  1.00  0.00    -0.396 N 
ATOM     11  H32 UNL     1      33.688 -17.789  27.994  1.00  0.00     0.156 HD
ATOM     12  H31 UNL     1      34.394 -16.350  28.779  1.00  0.00     0.156 HD
BRANCH   9  13
HETATM   13  C4  UNL     1      33.570 -19.282  30.001  1.00  0.00     0.122 A 
HETATM   14  C3  UNL     1      34.278 -20.429  30.104  1.00  0.00     0.131 A 
HETATM   15  N2  UNL     1      33.354 -21.444  30.119  1.00  0.00    -0.329 N 
HETATM   16  C2  UNL     1      32.133 -20.915  30.027  1.00  0.00     0.224 A 
ATOM     17  H2  UNL     1      33.565 -22.439  30.189  1.00  0.00     0.168 HD
HETATM   18  O4  UNL     1      32.284 -19.628  29.959  1.00  0.00    -0.276 OA
BRANCH  16  19
HETATM   19  N1  UNL     1      31.015 -21.589  30.012  1.00  0.00    -0.360 N 
HETATM   20  C1  UNL     1      30.578 -22.244  31.210  1.00  0.00     0.150 C 
ATOM     21  H1  UNL     1      30.459 -21.648  29.159  1.00  0.00     0.162 HD
ENDBRANCH  16  19
ENDBRANCH   9  13
ENDBRANCH   1   9
BRANCH   8  22
HETATM   22  O3  UNL     1      33.912 -15.028  30.423  1.00  0.00    -0.344 OA
ATOM     23  H3  UNL     1      32.965 -15.008  30.357  1.00  0.00     0.219 HD
ENDBRANCH   8  22
BRANCH   6  24
HETATM   24  O2  UNL     1      34.500 -13.078  32.085  1.00  0.00    -0.299 OA
BRANCH  24  25
HETATM   25  C9  UNL     1      35.244 -11.992  31.606  1.00  0.00     0.125 C 
HETATM   26  C10 UNL     1      34.807 -10.763  32.378  1.00  0.00     0.040 C 
HETATM   27  C11 UNL     1      35.115 -11.724  30.156  1.00  0.00     0.040 C 
ENDBRANCH  24  25
ENDBRANCH   6  24
TORSDOF 6
ENDMDL
MODEL 4
REMARK VINA RESULT: -6.955205142      2.051      3.524
REMARK  6 active torsions:
REMARK  status: ('A' for Active; 'I' for Inactive)
REMARK    1  A    between atoms: N1_2  and  C2_4 
REMARK    2  A    between atoms: C4_8  and  C5_9 
REMARK    3  A    between atoms: C5_9  and  C6_13 
REMARK       I    between atoms: N4_17  and  C8_18 
REMARK    4  A    between atoms: C8_18  and  O2_20 
REMARK    5  A    between atoms: O2_20  and  C9_21 
REMARK    6  A    between atoms: C12_24  and  O3_25 
ROOT
HETATM    1  C6  UNL     1      35.302 -15.508  34.270  1.00  0.00     0.088 A 
HETATM    2  S1  UNL     1      34.872 -14.976  35.835  1.00  0.00    -0.053 SA
HETATM    3  C7  UNL     1      35.000 -13.304  35.590  1.00  0.00     0.156 A 
HETATM    4  S2  UNL     1      34.724 -12.106  36.697  1.00  0.00    -0.051 SA
HETATM    5  N4  UNL     1      35.368 -13.215  34.313  1.00  0.00    -0.220 N 
HETATM    6  C8  UNL     1      35.576 -11.889  33.744  1.00  0.00     0.375 C 
HETATM    7  O1  UNL     1      35.423 -10.862  34.403  1.00  0.00    -0.237 OA
HETATM    8  C12 UNL     1      35.528 -14.309  33.626  1.00  0.00     0.172 A 
ENDROOT
BRANCH   1   9
HETATM    9  C5  UNL     1      35.419 -16.839  33.704  1.00  0.00     0.083 C 
HETATM   10  N3  UNL     1      35.113 -17.020  32.469  1.00  0.00    -0.396 N 
ATOM     11  H32 UNL     1      35.195 -17.956  32.071  1.00  0.00     0.156 HD
ATOM     12  H31 UNL     1      34.797 -16.223  31.915  1.00  0.00     0.156 HD
BRANCH   9  13
HETATM   13  C4  UNL     1      35.865 -17.963  34.484  1.00  0.00     0.122 A 
HETATM   14  C3  UNL     1      35.130 -18.980  34.988  1.00  0.00     0.131 A 
HETATM   15  N2  UNL     1      36.016 -19.792  35.653  1.00  0.00    -0.329 N 
HETATM   16  C2  UNL     1      37.239 -19.271  35.548  1.00  0.00     0.224 A 
ATOM     17  H2  UNL     1      35.777 -20.652  36.147  1.00  0.00     0.168 HD
HETATM   18  O4  UNL     1      37.127 -18.184  34.849  1.00  0.00    -0.276 OA
BRANCH  16  19
HETATM   19  N1  UNL     1      38.326 -19.781  36.061  1.00  0.00    -0.360 N 
HETATM   20  C1  UNL     1      38.267 -21.077  36.675  1.00  0.00     0.150 C 
ATOM     21  H1  UNL     1      39.204 -19.265  36.027  1.00  0.00     0.162 HD
ENDBRANCH  16  19
ENDBRANCH   9  13
ENDBRANCH   1   9
BRANCH   8  22
HETATM   22  O3  UNL     1      35.920 -14.324  32.254  1.00  0.00    -0.344 OA
ATOM     23  H3  UNL     1      35.863 -15.139  31.768  1.00  0.00     0.219 HD
ENDBRANCH   8  22
BRANCH   6  24
HETATM   24  O2  UNL     1      35.961 -11.702  32.426  1.00  0.00    -0.299 OA
BRANCH  24  25
HETATM   25  C9  UNL     1      35.127 -11.118  31.464  1.00  0.00     0.125 C 
HETATM   26  C10 UNL     1      33.750 -11.731  31.623  1.00  0.00     0.040 C 
HETATM   27  C11 UNL     1      35.567 -11.275  30.060  1.00  0.00     0.040 C 
ENDBRANCH  24  25
ENDBRANCH   6  24
TORSDOF 6
ENDMDL
MODEL 5
REMARK VINA RESULT: -6.935787012      2.736      5.089
REMARK  6 active torsions:
REMARK  status: ('A' for Active; 'I' for Inactive)
REMARK    1  A    between atoms: N1_2  and  C2_4 
REMARK    2  A    between atoms: C4_8  and  C5_9 
REMARK    3  A    between atoms: C5_9  and  C6_13 
REMARK       I    between atoms: N4_17  and  C8_18 
REMARK    4  A    between atoms: C8_18  and  O2_20 
REMARK    5  A    between atoms: O2_20  and  C9_21 
REMARK    6  A    between atoms: C12_24  and  O3_25 
ROOT
HETATM    1  C6  UNL     1      35.231 -13.822  34.039  1.00  0.00     0.088 A 
HETATM    2  S1  UNL     1      35.706 -12.312  33.399  1.00  0.00    -0.053 SA
HETATM    3  C7  UNL     1      35.091 -12.485  31.829  1.00  0.00     0.156 A 
HETATM    4  S2  UNL     1      35.173 -11.386  30.595  1.00  0.00    -0.051 SA
HETATM    5  N4  UNL     1      34.541 -13.698  31.853  1.00  0.00    -0.220 N 
HETATM    6  C8  UNL     1      33.900 -14.191  30.641  1.00  0.00     0.375 C 
HETATM    7  O1  UNL     1      33.853 -13.526  29.608  1.00  0.00    -0.237 OA
HETATM    8  C12 UNL     1      34.598 -14.393  32.953  1.00  0.00     0.172 A 
ENDROOT
BRANCH   1   9
HETATM    9  C5  UNL     1      35.410 -14.411  35.353  1.00  0.00     0.083 C 
HETATM   10  N3  UNL     1      34.691 -13.985  36.330  1.00  0.00    -0.396 N 
ATOM     11  H32 UNL     1      34.817 -14.399  37.253  1.00  0.00     0.156 HD
ATOM     12  H31 UNL     1      34.011 -13.244  36.158  1.00  0.00     0.156 HD
BRANCH   9  13
HETATM   13  C4  UNL     1      36.369 -15.456  35.595  1.00  0.00     0.122 A 
HETATM   14  C3  UNL     1      37.484 -15.412  36.359  1.00  0.00     0.131 A 
HETATM   15  N2  UNL     1      38.055 -16.657  36.265  1.00  0.00    -0.329 N 
HETATM   16  C2  UNL     1      37.302 -17.417  35.468  1.00  0.00     0.224 A 
ATOM     17  H2  UNL     1      38.915 -16.952  36.728  1.00  0.00     0.168 HD
HETATM   18  O4  UNL     1      36.305 -16.683  35.082  1.00  0.00    -0.276 OA
BRANCH  16  19
HETATM   19  N1  UNL     1      37.547 -18.660  35.155  1.00  0.00    -0.360 N 
HETATM   20  C1  UNL     1      38.000 -19.561  36.175  1.00  0.00     0.150 C 
ATOM     21  H1  UNL     1      37.418 -18.987  34.198  1.00  0.00     0.162 HD
ENDBRANCH  16  19
ENDBRANCH   9  13
ENDBRANCH   1   9
BRANCH   8  22
HETATM   22  O3  UNL     1      34.042 -15.700  33.085  1.00  0.00    -0.344 OA
ATOM     23  H3  UNL     1      34.527 -16.443  32.744  1.00  0.00     0.219 HD
ENDBRANCH   8  22
BRANCH   6  24
HETATM   24  O2  UNL     1      33.304 -15.441  30.575  1.00  0.00    -0.299 OA
BRANCH  24  25
HETATM   25  C9  UNL     1      33.724 -16.439  29.686  1.00  0.00     0.125 C 
HETATM   26  C10 UNL     1      32.649 -16.588  28.628  1.00  0.00     0.040 C 
HETATM   27  C11 UNL     1      33.992 -17.761  30.295  1.00  0.00     0.040 C 
ENDBRANCH  24  25
ENDBRANCH   6  24
TORSDOF 6
ENDMDL
