MODEL 1
REMARK VINA RESULT: -8.367876119      0.000      0.000
REMARK  7 active torsions:
REMARK  status: ('A' for Active; 'I' for Inactive)
REMARK    1  A    between atoms: C2_2  and  C5_5 
REMARK    2  A    between atoms: C5_5  and  C6_7 
REMARK    3  A    between atoms: C6_7  and  C7_8 
REMARK    4  A    between atoms: C8_10  and  O3_11 
REMARK    5  A    between atoms: C10_14  and  O4_15 
REMARK    6  A    between atoms: C13_19  and  O5_20 
REMARK    7  A    between atoms: C15_23  and  C16_24 
ROOT
HETATM    1  C7  UNL     1      33.485 -14.591  30.699  1.00  0.00     0.077 A 
HETATM    2  O2  UNL     1      33.373 -15.139  29.509  1.00  0.00    -0.290 OA
HETATM    3  C8  UNL     1      33.762 -16.376  29.495  1.00  0.00     0.197 A 
HETATM    4  C9  UNL     1      34.177 -16.723  30.765  1.00  0.00     0.074 A 
HETATM    5  C10 UNL     1      34.678 -17.869  31.347  1.00  0.00     0.116 A 
HETATM    6  C11 UNL     1      34.990 -17.842  32.691  1.00  0.00     0.117 A 
HETATM    7  C12 UNL     1      34.806 -16.693  33.451  1.00  0.00     0.048 A 
HETATM    8  C13 UNL     1      34.314 -15.570  32.871  1.00  0.00     0.091 A 
HETATM    9  C14 UNL     1      33.994 -15.570  31.526  1.00  0.00     0.046 A 
HETATM   10  C15 UNL     1      35.166 -16.776  34.864  1.00  0.00     0.224 C 
HETATM   11  O7  UNL     1      34.840 -17.997  35.443  1.00  0.00    -0.350 OA
HETATM   12  C17 UNL     1      35.113 -19.110  34.724  1.00  0.00     0.346 C 
HETATM   13  O8  UNL     1      35.499 -18.929  33.382  1.00  0.00    -0.323 OA
ENDROOT
BRANCH   1  14
HETATM   14  C6  UNL     1      33.121 -13.198  31.010  1.00  0.00     0.145 C 
BRANCH  14  15
HETATM   15  C5  UNL     1      34.240 -12.309  30.526  1.00  0.00     0.140 C 
HETATM   16  O1  UNL     1      34.443 -12.197  29.334  1.00  0.00    -0.297 OA
BRANCH  15  17
HETATM   17  C2  UNL     1      35.104 -11.564  31.461  1.00  0.00     0.010 C 
HETATM   18  C1  UNL     1      34.354 -10.952  32.615  1.00  0.00     0.022 C 
HETATM   19  C3  UNL     1      36.156 -12.484  32.095  1.00  0.00     0.022 C 
HETATM   20  C4  UNL     1      35.851 -10.501  30.705  1.00  0.00     0.022 C 
ENDBRANCH  15  17
ENDBRANCH  14  15
ENDBRANCH   1  14
BRANCH   3  21
HETATM   21  O3  UNL     1      33.795 -17.281  28.435  1.00  0.00    -0.340 OA
ATOM     22  H3  UNL     1      33.851 -18.229  28.454  1.00  0.00     0.220 HD
ENDBRANCH   3  21
BRANCH   8  23
HETATM   23  O5  UNL     1      34.113 -14.415  33.568  1.00  0.00    -0.359 OA
ATOM     24  H5  UNL     1      34.603 -14.201  34.353  1.00  0.00     0.217 HD
ENDBRANCH   8  23
BRANCH   5  25
HETATM   25  O4  UNL     1      34.870 -19.025  30.617  1.00  0.00    -0.357 OA
ATOM     26  H4  UNL     1      34.299 -19.777  30.718  1.00  0.00     0.217 HD
ENDBRANCH   5  25
BRANCH  10  27
HETATM   27  C16 UNL     1      36.648 -16.646  34.961  1.00  0.00     0.268 C 
HETATM   28  O6  UNL     1      37.261 -15.663  34.584  1.00  0.00    -0.304 OA
ENDBRANCH  10  27
TORSDOF 7
ENDMDL
MODEL 2
REMARK VINA RESULT: -8.043210008      2.466      4.833
REMARK  7 active torsions:
REMARK  status: ('A' for Active; 'I' for Inactive)
REMARK    1  A    between atoms: C2_2  and  C5_5 
REMARK    2  A    between atoms: C5_5  and  C6_7 
REMARK    3  A    between atoms: C6_7  and  C7_8 
REMARK    4  A    between atoms: C8_10  and  O3_11 
REMARK    5  A    between atoms: C10_14  and  O4_15 
REMARK    6  A    between atoms: C13_19  and  O5_20 
REMARK    7  A    between atoms: C15_23  and  C16_24 
ROOT
HETATM    1  C7  UNL     1      36.076 -13.076  33.692  1.00  0.00     0.077 A 
HETATM    2  O2  UNL     1      35.525 -12.044  34.293  1.00  0.00    -0.290 OA
HETATM    3  C8  UNL     1      35.284 -12.272  35.547  1.00  0.00     0.197 A 
HETATM    4  C9  UNL     1      35.695 -13.554  35.849  1.00  0.00     0.074 A 
HETATM    5  C10 UNL     1      35.697 -14.333  36.988  1.00  0.00     0.116 A 
HETATM    6  C11 UNL     1      36.209 -15.613  36.909  1.00  0.00     0.117 A 
HETATM    7  C12 UNL     1      36.714 -16.115  35.716  1.00  0.00     0.048 A 
HETATM    8  C13 UNL     1      36.708 -15.343  34.601  1.00  0.00     0.091 A 
HETATM    9  C14 UNL     1      36.200 -14.058  34.653  1.00  0.00     0.046 A 
HETATM   10  C15 UNL     1      37.233 -17.480  35.745  1.00  0.00     0.224 C 
HETATM   11  O7  UNL     1      37.915 -17.782  36.918  1.00  0.00    -0.350 OA
HETATM   12  C17 UNL     1      37.358 -17.364  38.078  1.00  0.00     0.346 C 
HETATM   13  O8  UNL     1      36.263 -16.484  37.984  1.00  0.00    -0.323 OA
ENDROOT
BRANCH   1  14
HETATM   14  C6  UNL     1      36.456 -13.103  32.269  1.00  0.00     0.145 C 
BRANCH  14  15
HETATM   15  C5  UNL     1      35.242 -13.523  31.475  1.00  0.00     0.140 C 
HETATM   16  O1  UNL     1      34.939 -14.698  31.422  1.00  0.00    -0.297 OA
BRANCH  15  17
HETATM   17  C2  UNL     1      34.405 -12.545  30.756  1.00  0.00     0.010 C 
HETATM   18  C1  UNL     1      33.915 -13.042  29.421  1.00  0.00     0.022 C 
HETATM   19  C3  UNL     1      33.142 -12.202  31.557  1.00  0.00     0.022 C 
HETATM   20  C4  UNL     1      35.175 -11.266  30.584  1.00  0.00     0.022 C 
ENDBRANCH  15  17
ENDBRANCH  14  15
ENDBRANCH   1  14
BRANCH   3  21
HETATM   21  O3  UNL     1      34.714 -11.434  36.504  1.00  0.00    -0.340 OA
ATOM     22  H3  UNL     1      35.133 -10.948  37.205  1.00  0.00     0.220 HD
ENDBRANCH   3  21
BRANCH   8  23
HETATM   23  O5  UNL     1      37.191 -15.783  33.403  1.00  0.00    -0.359 OA
ATOM     24  H5  UNL     1      37.846 -16.468  33.338  1.00  0.00     0.217 HD
ENDBRANCH   8  23
BRANCH   5  25
HETATM   25  O4  UNL     1      35.202 -13.861  38.187  1.00  0.00    -0.357 OA
ATOM     26  H4  UNL     1      34.383 -14.181  38.547  1.00  0.00     0.217 HD
ENDBRANCH   5  25
BRANCH  10  27
HETATM   27  C16 UNL     1      36.068 -18.407  35.683  1.00  0.00     0.268 C 
HETATM   28  O6  UNL     1      35.503 -18.705  34.647  1.00  0.00    -0.304 OA
ENDBRANCH  10  27
TORSDOF 7
ENDMDL
MODEL 3
REMARK VINA RESULT: -7.964375328      0.897      1.248
REMARK  7 active torsions:
REMARK  status: ('A' for Active; 'I' for Inactive)
REMARK    1  A    between atoms: C2_2  and  C5_5 
REMARK    2  A    between atoms: C5_5  and  C6_7 
REMARK    3  A    between atoms: C6_7  and  C7_8 
REMARK    4  A    between atoms: C8_10  and  O3_11 
REMARK    5  A    between atoms: C10_14  and  O4_15 
REMARK    6  A    between atoms: C13_19  and  O5_20 
REMARK    7  A    between atoms: C15_23  and  C16_24 
ROOT
HETATM    1  C7  UNL     1      33.484 -15.013  31.293  1.00  0.00     0.077 A 
HETATM    2  O2  UNL     1      33.395 -15.716  30.184  1.00  0.00    -0.290 OA
HETATM    3  C8  UNL     1      33.908 -16.902  30.309  1.00  0.00     0.197 A 
HETATM    4  C9  UNL     1      34.392 -17.041  31.593  1.00  0.00     0.074 A 
HETATM    5  C10 UNL     1      35.022 -18.049  32.292  1.00  0.00     0.116 A 
HETATM    6  C11 UNL     1      35.368 -17.822  33.609  1.00  0.00     0.117 A 
HETATM    7  C12 UNL     1      35.090 -16.608  34.227  1.00  0.00     0.048 A 
HETATM    8  C13 UNL     1      34.470 -15.622  33.533  1.00  0.00     0.091 A 
HETATM    9  C14 UNL     1      34.114 -15.825  32.213  1.00  0.00     0.046 A 
HETATM   10  C15 UNL     1      35.496 -16.475  35.624  1.00  0.00     0.224 C 
HETATM   11  O7  UNL     1      35.313 -17.638  36.362  1.00  0.00    -0.350 OA
HETATM   12  C17 UNL     1      35.677 -18.802  35.776  1.00  0.00     0.346 C 
HETATM   13  O8  UNL     1      36.004 -18.757  34.408  1.00  0.00    -0.323 OA
ENDROOT
BRANCH   1  14
HETATM   14  C6  UNL     1      32.989 -13.634  31.443  1.00  0.00     0.145 C 
BRANCH  14  15
HETATM   15  C5  UNL     1      33.922 -12.723  30.683  1.00  0.00     0.140 C 
HETATM   16  O1  UNL     1      33.881 -12.700  29.470  1.00  0.00    -0.297 OA
BRANCH  15  17
HETATM   17  C2  UNL     1      34.892 -11.850  31.372  1.00  0.00     0.010 C 
HETATM   18  C1  UNL     1      36.016 -12.605  32.031  1.00  0.00     0.022 C 
HETATM   19  C3  UNL     1      35.565 -10.885  30.386  1.00  0.00     0.022 C 
HETATM   20  C4  UNL     1      34.168 -11.007  32.384  1.00  0.00     0.022 C 
ENDBRANCH  15  17
ENDBRANCH  14  15
ENDBRANCH   1  14
BRANCH   3  21
HETATM   21  O3  UNL     1      34.002 -17.927  29.368  1.00  0.00    -0.340 OA
ATOM     22  H3  UNL     1      34.621 -18.645  29.321  1.00  0.00     0.220 HD
ENDBRANCH   3  21
BRANCH   8  23
HETATM   23  O5  UNL     1      34.172 -14.412  34.089  1.00  0.00    -0.359 OA
ATOM     24  H5  UNL     1      34.842 -13.821  34.412  1.00  0.00     0.217 HD
ENDBRANCH   8  23
BRANCH   5  25
HETATM   25  O4  UNL     1      35.311 -19.265  31.704  1.00  0.00    -0.357 OA
ATOM     26  H4  UNL     1      34.691 -19.985  31.721  1.00  0.00     0.217 HD
ENDBRANCH   5  25
BRANCH  10  27
HETATM   27  C16 UNL     1      36.959 -16.190  35.643  1.00  0.00     0.268 C 
HETATM   28  O6  UNL     1      37.580 -15.936  36.659  1.00  0.00    -0.304 OA
ENDBRANCH  10  27
TORSDOF 7
ENDMDL
MODEL 4
REMARK VINA RESULT: -7.871448161      1.546      5.654
REMARK  7 active torsions:
REMARK  status: ('A' for Active; 'I' for Inactive)
REMARK    1  A    between atoms: C2_2  and  C5_5 
REMARK    2  A    between atoms: C5_5  and  C6_7 
REMARK    3  A    between atoms: C6_7  and  C7_8 
REMARK    4  A    between atoms: C8_10  and  O3_11 
REMARK    5  A    between atoms: C10_14  and  O4_15 
REMARK    6  A    between atoms: C13_19  and  O5_20 
REMARK    7  A    between atoms: C15_23  and  C16_24 
ROOT
HETATM    1  C7  UNL     1      35.403 -18.187  32.355  1.00  0.00     0.077 A 
HETATM    2  O2  UNL     1      35.064 -19.258  31.670  1.00  0.00    -0.290 OA
HETATM    3  C8  UNL     1      34.399 -18.966  30.594  1.00  0.00     0.197 A 
HETATM    4  C9  UNL     1      34.263 -17.595  30.518  1.00  0.00     0.074 A 
HETATM    5  C10 UNL     1      33.674 -16.723  29.626  1.00  0.00     0.116 A 
HETATM    6  C11 UNL     1      33.742 -15.369  29.885  1.00  0.00     0.117 A 
HETATM    7  C12 UNL     1      34.389 -14.884  31.015  1.00  0.00     0.048 A 
HETATM    8  C13 UNL     1      34.966 -15.747  31.888  1.00  0.00     0.091 A 
HETATM    9  C14 UNL     1      34.910 -17.109  31.652  1.00  0.00     0.046 A 
HETATM   10  C15 UNL     1      34.405 -13.434  31.191  1.00  0.00     0.224 C 
HETATM   11  O7  UNL     1      34.569 -12.739  29.999  1.00  0.00    -0.350 OA
HETATM   12  C17 UNL     1      33.858 -13.171  28.932  1.00  0.00     0.346 C 
HETATM   13  O8  UNL     1      33.188 -14.402  29.063  1.00  0.00    -0.323 OA
ENDROOT
BRANCH   1  14
HETATM   14  C6  UNL     1      36.160 -18.216  33.619  1.00  0.00     0.145 C 
BRANCH  14  15
HETATM   15  C5  UNL     1      35.201 -18.589  34.723  1.00  0.00     0.140 C 
HETATM   16  O1  UNL     1      34.669 -19.681  34.711  1.00  0.00    -0.297 OA
BRANCH  15  17
HETATM   17  C2  UNL     1      34.884 -17.664  35.827  1.00  0.00     0.010 C 
HETATM   18  C1  UNL     1      33.685 -16.794  35.557  1.00  0.00     0.022 C 
HETATM   19  C3  UNL     1      34.555 -18.432  37.115  1.00  0.00     0.022 C 
HETATM   20  C4  UNL     1      36.088 -16.813  36.121  1.00  0.00     0.022 C 
ENDBRANCH  15  17
ENDBRANCH  14  15
ENDBRANCH   1  14
BRANCH   3  21
HETATM   21  O3  UNL     1      33.873 -19.816  29.623  1.00  0.00    -0.340 OA
ATOM     22  H3  UNL     1      33.433 -20.651  29.729  1.00  0.00     0.220 HD
ENDBRANCH   3  21
BRANCH   8  23
HETATM   23  O5  UNL     1      35.614 -15.327  33.012  1.00  0.00    -0.359 OA
ATOM     24  H5  UNL     1      35.154 -14.966  33.761  1.00  0.00     0.217 HD
ENDBRANCH   8  23
BRANCH   5  25
HETATM   25  O4  UNL     1      33.024 -17.177  28.495  1.00  0.00    -0.357 OA
ATOM     26  H4  UNL     1      32.479 -16.602  27.971  1.00  0.00     0.217 HD
ENDBRANCH   5  25
BRANCH  10  27
HETATM   27  C16 UNL     1      33.077 -13.031  31.735  1.00  0.00     0.268 C 
HETATM   28  O6  UNL     1      32.850 -11.929  32.202  1.00  0.00    -0.304 OA
ENDBRANCH  10  27
TORSDOF 7
ENDMDL
MODEL 5
REMARK VINA RESULT: -7.625140107      1.611      5.683
REMARK  7 active torsions:
REMARK  status: ('A' for Active; 'I' for Inactive)
REMARK    1  A    between atoms: C2_2  and  C5_5 
REMARK    2  A    between atoms: C5_5  and  C6_7 
REMARK    3  A    between atoms: C6_7  and  C7_8 
REMARK    4  A    between atoms: C8_10  and  O3_11 
REMARK    5  A    between atoms: C10_14  and  O4_15 
REMARK    6  A    between atoms: C13_19  and  O5_20 
REMARK    7  A    between atoms: C15_23  and  C16_24 
ROOT
HETATM    1  C7  UNL     1      35.551 -17.407  32.614  1.00  0.00     0.077 A 
HETATM    2  O2  UNL     1      34.828 -18.089  31.753  1.00  0.00    -0.290 OA
HETATM    3  C8  UNL     1      34.190 -17.321  30.924  1.00  0.00     0.197 A 
HETATM    4  C9  UNL     1      34.485 -16.007  31.224  1.00  0.00     0.074 A 
HETATM    5  C10 UNL     1      34.118 -14.783  30.704  1.00  0.00     0.116 A 
HETATM    6  C11 UNL     1      34.634 -13.640  31.282  1.00  0.00     0.117 A 
HETATM    7  C12 UNL     1      35.506 -13.710  32.362  1.00  0.00     0.048 A 
HETATM    8  C13 UNL     1      35.862 -14.916  32.867  1.00  0.00     0.091 A 
HETATM    9  C14 UNL     1      35.358 -16.076  32.308  1.00  0.00     0.046 A 
HETATM   10  C15 UNL     1      35.994 -12.440  32.893  1.00  0.00     0.224 C 
HETATM   11  O7  UNL     1      36.255 -11.496  31.907  1.00  0.00    -0.350 OA
HETATM   12  C17 UNL     1      35.345 -11.379  30.913  1.00  0.00     0.346 C 
HETATM   13  O8  UNL     1      34.337 -12.360  30.846  1.00  0.00    -0.323 OA
ENDROOT
BRANCH   1  14
HETATM   14  C6  UNL     1      36.377 -18.015  33.670  1.00  0.00     0.145 C 
BRANCH  14  15
HETATM   15  C5  UNL     1      35.446 -18.608  34.701  1.00  0.00     0.140 C 
HETATM   16  O1  UNL     1      34.947 -19.696  34.501  1.00  0.00    -0.297 OA
BRANCH  15  17
HETATM   17  C2  UNL     1      35.120 -17.902  35.954  1.00  0.00     0.010 C 
HETATM   18  C1  UNL     1      33.978 -16.931  35.817  1.00  0.00     0.022 C 
HETATM   19  C3  UNL     1      34.693 -18.889  37.050  1.00  0.00     0.022 C 
HETATM   20  C4  UNL     1      36.347 -17.194  36.457  1.00  0.00     0.022 C 
ENDBRANCH  15  17
ENDBRANCH  14  15
ENDBRANCH   1  14
BRANCH   3  21
HETATM   21  O3  UNL     1      33.332 -17.666  29.881  1.00  0.00    -0.340 OA
ATOM     22  H3  UNL     1      32.384 -17.632  29.845  1.00  0.00     0.220 HD
ENDBRANCH   3  21
BRANCH   8  23
HETATM   23  O5  UNL     1      36.714 -15.044  33.926  1.00  0.00    -0.359 OA
ATOM     24  H5  UNL     1      37.656 -14.972  33.833  1.00  0.00     0.217 HD
ENDBRANCH   8  23
BRANCH   5  25
HETATM   25  O4  UNL     1      33.254 -14.684  29.632  1.00  0.00    -0.357 OA
ATOM     26  H4  UNL     1      32.377 -15.048  29.665  1.00  0.00     0.217 HD
ENDBRANCH   5  25
BRANCH  10  27
HETATM   27  C16 UNL     1      34.919 -11.867  33.752  1.00  0.00     0.268 C 
HETATM   28  O6  UNL     1      35.131 -11.074  34.652  1.00  0.00    -0.304 OA
ENDBRANCH  10  27
TORSDOF 7
ENDMDL
