MODEL 1
REMARK VINA RESULT: -7.362831721      0.000      0.000
REMARK  6 active torsions:
REMARK  status: ('A' for Active; 'I' for Inactive)
REMARK    1  A    between atoms: O1_1  and  C1_3 
REMARK    2  A    between atoms: C2_4  and  N1_5 
REMARK    3  A    between atoms: C9_15  and  O3_16 
REMARK    4  A    between atoms: N2_18  and  C10_19 
REMARK    5  A    between atoms: C10_19  and  C11_20 
REMARK    6  A    between atoms: C15_25  and  O5_26 
ROOT
HETATM    1  C1  UNL     1      35.206 -14.786  36.903  1.00  0.00     0.148 A 
HETATM    2  C2  UNL     1      36.033 -14.261  35.934  1.00  0.00     0.124 A 
HETATM    3  C9  UNL     1      36.971 -15.236  35.672  1.00  0.00     0.174 A 
HETATM    4  N2  UNL     1      36.750 -16.332  36.438  1.00  0.00    -0.302 N 
HETATM    5  C15 UNL     1      35.673 -16.066  37.194  1.00  0.00     0.181 A 
ENDROOT
BRANCH   2   6
HETATM    6  N1  UNL     1      35.940 -12.957  35.320  1.00  0.00    -0.325 N 
HETATM    7  C3  UNL     1      35.799 -12.890  34.043  1.00  0.00     0.187 C 
HETATM    8  O2  UNL     1      35.705 -13.791  32.995  1.00  0.00    -0.307 OA
HETATM    9  S1  UNL     1      35.643 -11.565  32.858  1.00  0.00    -0.048 SA
HETATM   10  C4  UNL     1      34.819 -13.036  32.229  1.00  0.00     0.125 C 
HETATM   11  C5  UNL     1      33.357 -13.161  32.578  1.00  0.00     0.051 C 
HETATM   12  C8  UNL     1      34.844 -13.226  30.750  1.00  0.00     0.051 C 
HETATM   13  C6  UNL     1      32.720 -12.306  31.481  1.00  0.00     0.004 C 
HETATM   14  C7  UNL     1      33.506 -12.690  30.272  1.00  0.00     0.004 C 
ATOM     15  H1  UNL     1      35.984 -12.109  35.885  1.00  0.00     0.169 HD
ENDBRANCH   2   6
BRANCH   1  16
HETATM   16  O1  UNL     1      34.107 -14.151  37.481  1.00  0.00    -0.355 OA
ATOM     17  H1  UNL     1      34.124 -13.581  38.241  1.00  0.00     0.218 HD
ENDBRANCH   1  16
BRANCH   3  18
HETATM   18  O3  UNL     1      38.008 -15.155  34.765  1.00  0.00    -0.344 OA
ATOM     19  H3  UNL     1      38.922 -15.353  34.932  1.00  0.00     0.219 HD
ENDBRANCH   3  18
BRANCH   5  20
HETATM   20  O5  UNL     1      35.038 -16.863  38.149  1.00  0.00    -0.344 OA
ATOM     21  H5  UNL     1      35.245 -17.786  38.231  1.00  0.00     0.219 HD
ENDBRANCH   5  20
BRANCH   4  22
HETATM   22  C10 UNL     1      37.513 -17.550  36.473  1.00  0.00     0.165 C 
BRANCH  22  23
HETATM   23  C11 UNL     1      37.240 -18.538  35.406  1.00  0.00     0.140 C 
HETATM   24  C12 UNL     1      35.979 -18.418  34.642  1.00  0.00     0.035 C 
HETATM   25  C13 UNL     1      34.998 -19.291  35.371  1.00  0.00     0.029 C 
HETATM   26  C14 UNL     1      35.810 -19.878  36.487  1.00  0.00     0.168 C 
HETATM   27  O4  UNL     1      37.105 -19.790  36.060  1.00  0.00    -0.384 OA
ENDBRANCH  22  23
ENDBRANCH   4  22
TORSDOF 6
ENDMDL
MODEL 2
REMARK VINA RESULT: -7.346194222      2.454      6.792
REMARK  6 active torsions:
REMARK  status: ('A' for Active; 'I' for Inactive)
REMARK    1  A    between atoms: O1_1  and  C1_3 
REMARK    2  A    between atoms: C2_4  and  N1_5 
REMARK    3  A    between atoms: C9_15  and  O3_16 
REMARK    4  A    between atoms: N2_18  and  C10_19 
REMARK    5  A    between atoms: C10_19  and  C11_20 
REMARK    6  A    between atoms: C15_25  and  O5_26 
ROOT
HETATM    1  C1  UNL     1      34.639 -13.780  36.136  1.00  0.00     0.148 A 
HETATM    2  C2  UNL     1      34.560 -14.778  35.188  1.00  0.00     0.124 A 
HETATM    3  C9  UNL     1      34.957 -14.200  34.002  1.00  0.00     0.174 A 
HETATM    4  N2  UNL     1      35.276 -12.896  34.186  1.00  0.00    -0.302 N 
HETATM    5  C15 UNL     1      35.084 -12.630  35.488  1.00  0.00     0.181 A 
ENDROOT
BRANCH   2   6
HETATM    6  N1  UNL     1      34.145 -16.146  35.393  1.00  0.00    -0.325 N 
HETATM    7  C3  UNL     1      35.046 -17.064  35.407  1.00  0.00     0.187 C 
HETATM    8  O2  UNL     1      36.423 -17.120  35.268  1.00  0.00    -0.307 OA
HETATM    9  S1  UNL     1      35.039 -18.835  35.617  1.00  0.00    -0.048 SA
HETATM   10  C4  UNL     1      36.620 -18.170  36.163  1.00  0.00     0.125 C 
HETATM   11  C5  UNL     1      36.698 -17.799  37.623  1.00  0.00     0.051 C 
HETATM   12  C8  UNL     1      37.811 -19.044  35.958  1.00  0.00     0.051 C 
HETATM   13  C6  UNL     1      37.025 -19.156  38.252  1.00  0.00     0.004 C 
HETATM   14  C7  UNL     1      38.022 -19.724  37.299  1.00  0.00     0.004 C 
ATOM     15  H1  UNL     1      33.160 -16.379  35.524  1.00  0.00     0.169 HD
ENDBRANCH   2   6
BRANCH   1  16
HETATM   16  O1  UNL     1      34.330 -13.905  37.490  1.00  0.00    -0.355 OA
ATOM     17  H1  UNL     1      34.688 -13.381  38.197  1.00  0.00     0.218 HD
ENDBRANCH   1  16
BRANCH   3  18
HETATM   18  O3  UNL     1      35.038 -14.822  32.772  1.00  0.00    -0.344 OA
ATOM     19  H3  UNL     1      35.430 -14.467  31.984  1.00  0.00     0.219 HD
ENDBRANCH   3  18
BRANCH   5  20
HETATM   20  O5  UNL     1      35.265 -11.436  36.189  1.00  0.00    -0.344 OA
ATOM     21  H5  UNL     1      34.725 -11.224  36.940  1.00  0.00     0.219 HD
ENDBRANCH   5  20
BRANCH   4  22
HETATM   22  C10 UNL     1      35.717 -11.949  33.198  1.00  0.00     0.165 C 
BRANCH  22  23
HETATM   23  C11 UNL     1      34.671 -11.132  32.544  1.00  0.00     0.140 C 
HETATM   24  C12 UNL     1      33.374 -11.771  32.230  1.00  0.00     0.035 C 
HETATM   25  C13 UNL     1      33.521 -12.278  30.823  1.00  0.00     0.029 C 
HETATM   26  C14 UNL     1      34.902 -11.841  30.433  1.00  0.00     0.168 C 
HETATM   27  O4  UNL     1      35.184 -10.794  31.265  1.00  0.00    -0.384 OA
ENDBRANCH  22  23
ENDBRANCH   4  22
TORSDOF 6
ENDMDL
MODEL 3
REMARK VINA RESULT: -7.283454102      2.191      3.645
REMARK  6 active torsions:
REMARK  status: ('A' for Active; 'I' for Inactive)
REMARK    1  A    between atoms: O1_1  and  C1_3 
REMARK    2  A    between atoms: C2_4  and  N1_5 
REMARK    3  A    between atoms: C9_15  and  O3_16 
REMARK    4  A    between atoms: N2_18  and  C10_19 
REMARK    5  A    between atoms: C10_19  and  C11_20 
REMARK    6  A    between atoms: C15_25  and  O5_26 
ROOT
HETATM    1  C1  UNL     1      35.501 -16.902  33.686  1.00  0.00     0.148 A 
HETATM    2  C2  UNL     1      34.769 -15.880  34.250  1.00  0.00     0.124 A 
HETATM    3  C9  UNL     1      35.182 -15.803  35.562  1.00  0.00     0.174 A 
HETATM    4  N2  UNL     1      36.134 -16.733  35.821  1.00  0.00    -0.302 N 
HETATM    5  C15 UNL     1      36.335 -17.410  34.680  1.00  0.00     0.181 A 
ENDROOT
BRANCH   2   6
HETATM    6  N1  UNL     1      33.774 -15.058  33.602  1.00  0.00    -0.325 N 
HETATM    7  C3  UNL     1      34.089 -13.854  33.279  1.00  0.00     0.187 C 
HETATM    8  O2  UNL     1      35.210 -13.047  33.386  1.00  0.00    -0.307 OA
HETATM    9  S1  UNL     1      33.242 -12.496  32.490  1.00  0.00    -0.048 SA
HETATM   10  C4  UNL     1      35.011 -12.358  32.192  1.00  0.00     0.125 C 
HETATM   11  C5  UNL     1      35.512 -13.031  30.938  1.00  0.00     0.051 C 
HETATM   12  C8  UNL     1      35.558 -10.973  32.088  1.00  0.00     0.051 C 
HETATM   13  C6  UNL     1      35.227 -11.952  29.892  1.00  0.00     0.004 C 
HETATM   14  C7  UNL     1      35.632 -10.701  30.597  1.00  0.00     0.004 C 
ATOM     15  H1  UNL     1      32.842 -15.425  33.405  1.00  0.00     0.169 HD
ENDBRANCH   2   6
BRANCH   1  16
HETATM   16  O1  UNL     1      35.419 -17.342  32.365  1.00  0.00    -0.355 OA
ATOM     17  H1  UNL     1      34.825 -17.014  31.700  1.00  0.00     0.218 HD
ENDBRANCH   1  16
BRANCH   3  18
HETATM   18  O3  UNL     1      34.722 -14.919  36.517  1.00  0.00    -0.344 OA
ATOM     19  H3  UNL     1      35.253 -14.387  37.098  1.00  0.00     0.219 HD
ENDBRANCH   3  18
BRANCH   5  20
HETATM   20  O5  UNL     1      37.208 -18.467  34.414  1.00  0.00    -0.344 OA
ATOM     21  H5  UNL     1      37.463 -19.073  35.099  1.00  0.00     0.219 HD
ENDBRANCH   5  20
BRANCH   4  22
HETATM   22  C10 UNL     1      36.803 -16.985  37.069  1.00  0.00     0.165 C 
BRANCH  22  23
HETATM   23  C11 UNL     1      38.050 -16.231  37.320  1.00  0.00     0.140 C 
HETATM   24  C12 UNL     1      38.839 -16.556  38.528  1.00  0.00     0.035 C 
HETATM   25  C13 UNL     1      38.339 -15.613  39.585  1.00  0.00     0.029 C 
HETATM   26  C14 UNL     1      37.316 -14.786  38.864  1.00  0.00     0.168 C 
HETATM   27  O4  UNL     1      37.654 -14.886  37.544  1.00  0.00    -0.384 OA
ENDBRANCH  22  23
ENDBRANCH   4  22
TORSDOF 6
ENDMDL
MODEL 4
REMARK VINA RESULT: -7.283104919      4.513      7.467
REMARK  6 active torsions:
REMARK  status: ('A' for Active; 'I' for Inactive)
REMARK    1  A    between atoms: O1_1  and  C1_3 
REMARK    2  A    between atoms: C2_4  and  N1_5 
REMARK    3  A    between atoms: C9_15  and  O3_16 
REMARK    4  A    between atoms: N2_18  and  C10_19 
REMARK    5  A    between atoms: C10_19  and  C11_20 
REMARK    6  A    between atoms: C15_25  and  O5_26 
ROOT
HETATM    1  C1  UNL     1      36.036 -17.885  33.333  1.00  0.00     0.148 A 
HETATM    2  C2  UNL     1      35.414 -18.314  32.181  1.00  0.00     0.124 A 
HETATM    3  C9  UNL     1      34.559 -17.297  31.815  1.00  0.00     0.174 A 
HETATM    4  N2  UNL     1      34.633 -16.268  32.695  1.00  0.00    -0.302 N 
HETATM    5  C15 UNL     1      35.533 -16.619  33.627  1.00  0.00     0.181 A 
ENDROOT
BRANCH   2   6
HETATM    6  N1  UNL     1      35.614 -19.569  31.496  1.00  0.00    -0.325 N 
HETATM    7  C3  UNL     1      34.774 -20.521  31.701  1.00  0.00     0.187 C 
HETATM    8  O2  UNL     1      33.629 -20.702  32.461  1.00  0.00    -0.307 OA
HETATM    9  S1  UNL     1      34.594 -22.195  31.113  1.00  0.00    -0.048 SA
HETATM   10  C4  UNL     1      32.979 -21.535  31.553  1.00  0.00     0.125 C 
HETATM   11  C5  UNL     1      32.230 -20.854  30.435  1.00  0.00     0.051 C 
HETATM   12  C8  UNL     1      31.990 -22.514  32.093  1.00  0.00     0.051 C 
HETATM   13  C6  UNL     1      31.578 -22.054  29.745  1.00  0.00     0.004 C 
HETATM   14  C7  UNL     1      31.131 -22.888  30.898  1.00  0.00     0.004 C 
ATOM     15  H1  UNL     1      36.404 -19.699  30.864  1.00  0.00     0.169 HD
ENDBRANCH   2   6
BRANCH   1  16
HETATM   16  O1  UNL     1      36.989 -18.591  34.066  1.00  0.00    -0.355 OA
ATOM     17  H1  UNL     1      37.896 -18.339  34.198  1.00  0.00     0.218 HD
ENDBRANCH   1  16
BRANCH   3  18
HETATM   18  O3  UNL     1      33.724 -17.281  30.716  1.00  0.00    -0.344 OA
ATOM     19  H3  UNL     1      33.647 -16.585  30.075  1.00  0.00     0.219 HD
ENDBRANCH   3  18
BRANCH   5  20
HETATM   20  O5  UNL     1      35.973 -15.915  34.749  1.00  0.00    -0.344 OA
ATOM     21  H5  UNL     1      36.016 -14.966  34.744  1.00  0.00     0.219 HD
ENDBRANCH   5  20
BRANCH   4  22
HETATM   22  C10 UNL     1      33.892 -15.036  32.674  1.00  0.00     0.165 C 
BRANCH  22  23
HETATM   23  C11 UNL     1      34.644 -13.813  32.321  1.00  0.00     0.140 C 
HETATM   24  C12 UNL     1      34.331 -12.561  33.045  1.00  0.00     0.035 C 
HETATM   25  C13 UNL     1      33.291 -11.876  32.205  1.00  0.00     0.029 C 
HETATM   26  C14 UNL     1      33.125 -12.793  31.031  1.00  0.00     0.168 C 
HETATM   27  O4  UNL     1      34.288 -13.509  30.981  1.00  0.00    -0.384 OA
ENDBRANCH  22  23
ENDBRANCH   4  22
TORSDOF 6
ENDMDL
MODEL 5
REMARK VINA RESULT: -7.222847771      1.715      1.987
REMARK  6 active torsions:
REMARK  status: ('A' for Active; 'I' for Inactive)
REMARK    1  A    between atoms: O1_1  and  C1_3 
REMARK    2  A    between atoms: C2_4  and  N1_5 
REMARK    3  A    between atoms: C9_15  and  O3_16 
REMARK    4  A    between atoms: N2_18  and  C10_19 
REMARK    5  A    between atoms: C10_19  and  C11_20 
REMARK    6  A    between atoms: C15_25  and  O5_26 
ROOT
HETATM    1  C1  UNL     1      35.564 -13.248  37.249  1.00  0.00     0.148 A 
HETATM    2  C2  UNL     1      34.984 -13.241  35.999  1.00  0.00     0.124 A 
HETATM    3  C9  UNL     1      35.002 -14.550  35.570  1.00  0.00     0.174 A 
HETATM    4  N2  UNL     1      35.567 -15.354  36.504  1.00  0.00    -0.302 N 
HETATM    5  C15 UNL     1      35.914 -14.566  37.534  1.00  0.00     0.181 A 
ENDROOT
BRANCH   2   6
HETATM    6  N1  UNL     1      34.465 -12.099  35.284  1.00  0.00    -0.325 N 
HETATM    7  C3  UNL     1      34.884 -11.883  34.086  1.00  0.00     0.187 C 
HETATM    8  O2  UNL     1      35.771 -12.487  33.210  1.00  0.00    -0.307 OA
HETATM    9  S1  UNL     1      34.557 -10.653  32.837  1.00  0.00    -0.048 SA
HETATM   10  C4  UNL     1      35.057 -12.192  32.050  1.00  0.00     0.125 C 
HETATM   11  C5  UNL     1      33.934 -13.134  31.696  1.00  0.00     0.051 C 
HETATM   12  C8  UNL     1      35.823 -12.064  30.776  1.00  0.00     0.051 C 
HETATM   13  C6  UNL     1      33.487 -12.563  30.348  1.00  0.00     0.004 C 
HETATM   14  C7  UNL     1      34.783 -12.243  29.684  1.00  0.00     0.004 C 
ATOM     15  H1  UNL     1      33.783 -11.477  35.717  1.00  0.00     0.169 HD
ENDBRANCH   2   6
BRANCH   1  16
HETATM   16  O1  UNL     1      35.762 -12.139  38.071  1.00  0.00    -0.355 OA
ATOM     17  H1  UNL     1      36.554 -11.932  38.554  1.00  0.00     0.218 HD
ENDBRANCH   1  16
BRANCH   3  18
HETATM   18  O3  UNL     1      34.523 -15.027  34.366  1.00  0.00    -0.344 OA
ATOM     19  H3  UNL     1      34.904 -15.721  33.842  1.00  0.00     0.219 HD
ENDBRANCH   3  18
BRANCH   5  20
HETATM   20  O5  UNL     1      36.530 -14.900  38.742  1.00  0.00    -0.344 OA
ATOM     21  H5  UNL     1      36.527 -15.794  39.061  1.00  0.00     0.219 HD
ENDBRANCH   5  20
BRANCH   4  22
HETATM   22  C10 UNL     1      35.785 -16.773  36.430  1.00  0.00     0.165 C 
BRANCH  22  23
HETATM   23  C11 UNL     1      37.102 -17.219  35.925  1.00  0.00     0.140 C 
HETATM   24  C12 UNL     1      37.246 -18.621  35.478  1.00  0.00     0.035 C 
HETATM   25  C13 UNL     1      37.725 -19.369  36.689  1.00  0.00     0.029 C 
HETATM   26  C14 UNL     1      37.854 -18.302  37.734  1.00  0.00     0.168 C 
HETATM   27  O4  UNL     1      37.990 -17.139  37.030  1.00  0.00    -0.384 OA
ENDBRANCH  22  23
ENDBRANCH   4  22
TORSDOF 6
ENDMDL
