MODEL 1
REMARK VINA RESULT: -7.972883425      0.000      0.000
REMARK  7 active torsions:
REMARK  status: ('A' for Active; 'I' for Inactive)
REMARK    1  A    between atoms: C2_2  and  C3_3 
REMARK    2  A    between atoms: C3_3  and  C4_4 
REMARK    3  A    between atoms: C4_4  and  C5_5 
REMARK    4  A    between atoms: C5_5  and  C6_6 
REMARK    5  A    between atoms: C6_6  and  O1_7 
REMARK    6  A    between atoms: C10_13  and  O3_14 
REMARK    7  A    between atoms: C12_17  and  O4_18 
ROOT
HETATM    1  C5  UNL     1      -3.146  22.584 -21.777  1.00  0.00     0.105 C 
HETATM    2  C16 UNL     1      -4.136  23.159 -20.804  1.00  0.00     0.194 C 
HETATM    3  O6  UNL     1      -4.221  24.413 -20.572  1.00  0.00    -0.290 OA
HETATM    4  C17 UNL     1      -5.083  22.356 -20.040  1.00  0.00     0.118 A 
HETATM    5  N1  UNL     1      -5.999  22.637 -19.073  1.00  0.00    -0.257 N 
ATOM      6  H1  UNL     1      -6.182  23.566 -18.694  1.00  0.00     0.195 HD
HETATM    7  O7  UNL     1      -6.608  21.549 -18.705  1.00  0.00    -0.241 OA
HETATM    8  C18 UNL     1      -6.167  20.508 -19.364  1.00  0.00     0.088 A 
HETATM    9  C19 UNL     1      -6.563  19.105 -19.272  1.00  0.00     0.080 C 
HETATM   10  C20 UNL     1      -5.194  20.994 -20.223  1.00  0.00     0.074 A 
HETATM   11  C21 UNL     1      -4.311  20.424 -21.217  1.00  0.00     0.173 C 
HETATM   12  O8  UNL     1      -4.029  19.184 -21.114  1.00  0.00    -0.291 OA
HETATM   13  C22 UNL     1      -3.784  21.292 -22.287  1.00  0.00     0.039 C 
HETATM   14  C23 UNL     1      -5.004  21.651 -23.149  1.00  0.00     0.025 C 
HETATM   15  C24 UNL     1      -2.920  20.452 -23.156  1.00  0.00     0.025 C 
ENDROOT
BRANCH   1  16
HETATM   16  C4  UNL     1      -2.999  23.456 -22.981  1.00  0.00     0.025 C 
BRANCH  16  17
HETATM   17  C3  UNL     1      -3.607  24.791 -23.001  1.00  0.00     0.001 C 
BRANCH  17  18
HETATM   18  C2  UNL     1      -4.540  24.943 -24.210  1.00  0.00    -0.005 C 
HETATM   19  C1  UNL     1      -5.927  25.300 -23.821  1.00  0.00     0.005 C 
ENDBRANCH  17  18
ENDBRANCH  16  17
ENDBRANCH   1  16
BRANCH   1  20
HETATM   20  C6  UNL     1      -1.854  22.324 -21.124  1.00  0.00     0.251 C 
HETATM   21  O2  UNL     1      -2.219  21.962 -19.730  1.00  0.00    -0.304 OA
HETATM   22  C7  UNL     1      -1.093  22.051 -18.939  1.00  0.00     0.098 A 
HETATM   23  C8  UNL     1      -0.740  21.437 -17.756  1.00  0.00     0.006 A 
HETATM   24  C14 UNL     1      -0.259  22.957 -19.576  1.00  0.00     0.083 A 
HETATM   25  C9  UNL     1      -1.681  20.461 -17.106  1.00  0.00     0.054 C 
HETATM   26  C10 UNL     1       0.475  21.725 -17.181  1.00  0.00     0.077 A 
HETATM   27  C11 UNL     1       1.318  22.617 -17.790  1.00  0.00     0.075 A 
HETATM   28  C12 UNL     1       0.952  23.231 -18.983  1.00  0.00     0.087 A 
HETATM   29  C15 UNL     1      -0.952  23.413 -20.808  1.00  0.00     0.228 C 
HETATM   30  O5  UNL     1      -0.705  24.499 -21.321  1.00  0.00    -0.286 OA
BRANCH  20  31
HETATM   31  O1  UNL     1      -1.132  21.241 -21.619  1.00  0.00    -0.358 OA
ATOM     32  H1  UNL     1      -0.521  20.839 -21.011  1.00  0.00     0.213 HD
ENDBRANCH  20  31
BRANCH  26  33
HETATM   33  O3  UNL     1       0.787  21.083 -15.992  1.00  0.00    -0.360 OA
ATOM     34  H3  UNL     1       1.704  20.911 -15.814  1.00  0.00     0.217 HD
ENDBRANCH  26  33
BRANCH  28  35
HETATM   35  O4  UNL     1       1.823  24.132 -19.580  1.00  0.00    -0.355 OA
HETATM   36  C13 UNL     1       2.802  23.689 -20.472  1.00  0.00     0.210 C 
ENDBRANCH  28  35
ENDBRANCH   1  20
TORSDOF 7
ENDMDL
MODEL 2
REMARK VINA RESULT: -7.166880886      3.119      7.063
REMARK  7 active torsions:
REMARK  status: ('A' for Active; 'I' for Inactive)
REMARK    1  A    between atoms: C2_2  and  C3_3 
REMARK    2  A    between atoms: C3_3  and  C4_4 
REMARK    3  A    between atoms: C4_4  and  C5_5 
REMARK    4  A    between atoms: C5_5  and  C6_6 
REMARK    5  A    between atoms: C6_6  and  O1_7 
REMARK    6  A    between atoms: C10_13  and  O3_14 
REMARK    7  A    between atoms: C12_17  and  O4_18 
ROOT
HETATM    1  C5  UNL     1       0.943  23.231 -21.139  1.00  0.00     0.105 C 
HETATM    2  C16 UNL     1       1.399  23.751 -22.473  1.00  0.00     0.194 C 
HETATM    3  O6  UNL     1       1.176  24.951 -22.855  1.00  0.00    -0.290 OA
HETATM    4  C17 UNL     1       2.131  22.953 -23.449  1.00  0.00     0.118 A 
HETATM    5  N1  UNL     1       2.574  23.177 -24.716  1.00  0.00    -0.257 N 
ATOM      6  H1  UNL     1       2.443  24.045 -25.235  1.00  0.00     0.195 HD
HETATM    7  O7  UNL     1       3.188  22.124 -25.168  1.00  0.00    -0.241 OA
HETATM    8  C18 UNL     1       3.202  21.162 -24.282  1.00  0.00     0.088 A 
HETATM    9  C19 UNL     1       3.776  19.821 -24.364  1.00  0.00     0.080 C 
HETATM   10  C20 UNL     1       2.535  21.663 -23.175  1.00  0.00     0.074 A 
HETATM   11  C21 UNL     1       2.184  21.164 -21.863  1.00  0.00     0.173 C 
HETATM   12  O8  UNL     1       2.104  19.899 -21.715  1.00  0.00    -0.291 OA
HETATM   13  C22 UNL     1       1.936  22.129 -20.774  1.00  0.00     0.039 C 
HETATM   14  C23 UNL     1       3.302  22.770 -20.488  1.00  0.00     0.025 C 
HETATM   15  C24 UNL     1       1.604  21.347 -19.555  1.00  0.00     0.025 C 
ENDROOT
BRANCH   1  16
HETATM   16  C4  UNL     1       1.091  24.268 -20.073  1.00  0.00     0.025 C 
BRANCH  16  17
HETATM   17  C3  UNL     1       1.076  25.692 -20.425  1.00  0.00     0.001 C 
BRANCH  17  18
HETATM   18  C2  UNL     1       2.297  26.409 -19.834  1.00  0.00    -0.005 C 
HETATM   19  C1  UNL     1       2.374  27.834 -20.237  1.00  0.00     0.005 C 
ENDBRANCH  17  18
ENDBRANCH  16  17
ENDBRANCH   1  16
BRANCH   1  20
HETATM   20  C6  UNL     1      -0.431  22.714 -21.217  1.00  0.00     0.251 C 
HETATM   21  O2  UNL     1      -1.159  23.736 -22.012  1.00  0.00    -0.304 OA
HETATM   22  C7  UNL     1      -2.515  23.545 -21.844  1.00  0.00     0.098 A 
HETATM   23  C8  UNL     1      -3.600  23.864 -22.633  1.00  0.00     0.006 A 
HETATM   24  C14 UNL     1      -2.655  22.909 -20.620  1.00  0.00     0.083 A 
HETATM   25  C9  UNL     1      -3.394  24.553 -23.953  1.00  0.00     0.054 C 
HETATM   26  C10 UNL     1      -4.867  23.546 -22.202  1.00  0.00     0.077 A 
HETATM   27  C11 UNL     1      -5.032  22.917 -20.995  1.00  0.00     0.075 A 
HETATM   28  C12 UNL     1      -3.931  22.600 -20.208  1.00  0.00     0.087 A 
HETATM   29  C15 UNL     1      -1.294  22.725 -20.054  1.00  0.00     0.228 C 
HETATM   30  O5  UNL     1      -1.109  22.624 -18.847  1.00  0.00    -0.286 OA
BRANCH  20  31
HETATM   31  O1  UNL     1      -0.588  21.515 -21.911  1.00  0.00    -0.358 OA
ATOM     32  H1  UNL     1       0.200  20.998 -22.027  1.00  0.00     0.213 HD
ENDBRANCH  20  31
BRANCH  26  33
HETATM   33  O3  UNL     1      -5.927  23.886 -23.028  1.00  0.00    -0.360 OA
ATOM     34  H3  UNL     1      -6.060  24.808 -23.213  1.00  0.00     0.217 HD
ENDBRANCH  26  33
BRANCH  28  35
HETATM   35  O4  UNL     1      -4.126  21.965 -18.989  1.00  0.00    -0.355 OA
HETATM   36  C13 UNL     1      -5.264  21.187 -18.769  1.00  0.00     0.210 C 
ENDBRANCH  28  35
ENDBRANCH   1  20
TORSDOF 7
ENDMDL
MODEL 3
REMARK VINA RESULT: -6.978501475      1.274      1.363
REMARK  7 active torsions:
REMARK  status: ('A' for Active; 'I' for Inactive)
REMARK    1  A    between atoms: C2_2  and  C3_3 
REMARK    2  A    between atoms: C3_3  and  C4_4 
REMARK    3  A    between atoms: C4_4  and  C5_5 
REMARK    4  A    between atoms: C5_5  and  C6_6 
REMARK    5  A    between atoms: C6_6  and  O1_7 
REMARK    6  A    between atoms: C10_13  and  O3_14 
REMARK    7  A    between atoms: C12_17  and  O4_18 
ROOT
HETATM    1  C5  UNL     1      -3.686  22.735 -21.889  1.00  0.00     0.105 C 
HETATM    2  C16 UNL     1      -4.356  23.298 -20.668  1.00  0.00     0.194 C 
HETATM    3  O6  UNL     1      -4.163  24.498 -20.271  1.00  0.00    -0.290 OA
HETATM    4  C17 UNL     1      -5.279  22.544 -19.828  1.00  0.00     0.118 A 
HETATM    5  N1  UNL     1      -5.934  22.810 -18.665  1.00  0.00    -0.257 N 
ATOM      6  H1  UNL     1      -5.868  23.685 -18.144  1.00  0.00     0.195 HD
HETATM    7  O7  UNL     1      -6.655  21.787 -18.314  1.00  0.00    -0.241 OA
HETATM    8  C18 UNL     1      -6.544  20.807 -19.173  1.00  0.00     0.088 A 
HETATM    9  C19 UNL     1      -7.169  19.487 -19.174  1.00  0.00     0.080 C 
HETATM   10  C20 UNL     1      -5.672  21.262 -20.150  1.00  0.00     0.074 A 
HETATM   11  C21 UNL     1      -5.107  20.724 -21.368  1.00  0.00     0.173 C 
HETATM   12  O8  UNL     1      -5.047  19.454 -21.479  1.00  0.00    -0.291 OA
HETATM   13  C22 UNL     1      -4.635  21.656 -22.410  1.00  0.00     0.039 C 
HETATM   14  C23 UNL     1      -5.904  22.333 -22.948  1.00  0.00     0.025 C 
HETATM   15  C24 UNL     1      -4.116  20.837 -23.537  1.00  0.00     0.025 C 
ENDROOT
BRANCH   1  16
HETATM   16  C4  UNL     1      -3.603  23.751 -22.981  1.00  0.00     0.025 C 
BRANCH  16  17
HETATM   17  C3  UNL     1      -4.402  24.979 -22.904  1.00  0.00     0.001 C 
BRANCH  17  18
HETATM   18  C2  UNL     1      -4.376  25.727 -24.244  1.00  0.00    -0.005 C 
HETATM   19  C1  UNL     1      -5.646  25.589 -24.999  1.00  0.00     0.005 C 
ENDBRANCH  17  18
ENDBRANCH  16  17
ENDBRANCH   1  16
BRANCH   1  20
HETATM   20  C6  UNL     1      -2.367  22.176 -21.556  1.00  0.00     0.251 C 
HETATM   21  O2  UNL     1      -2.184  22.509 -20.120  1.00  0.00    -0.304 OA
HETATM   22  C7  UNL     1      -0.852  22.360 -19.796  1.00  0.00     0.098 A 
HETATM   23  C8  UNL     1      -0.212  22.098 -18.603  1.00  0.00     0.006 A 
HETATM   24  C14 UNL     1      -0.156  22.531 -20.983  1.00  0.00     0.083 A 
HETATM   25  C9  UNL     1      -1.013  21.919 -17.343  1.00  0.00     0.054 C 
HETATM   26  C10 UNL     1       1.160  22.001 -18.578  1.00  0.00     0.077 A 
HETATM   27  C11 UNL     1       1.870  22.166 -19.738  1.00  0.00     0.075 A 
HETATM   28  C12 UNL     1       1.215  22.430 -20.936  1.00  0.00     0.087 A 
HETATM   29  C15 UNL     1      -1.154  22.794 -22.052  1.00  0.00     0.228 C 
HETATM   30  O5  UNL     1      -0.860  23.414 -23.067  1.00  0.00    -0.286 OA
BRANCH  20  31
HETATM   31  O1  UNL     1      -2.258  20.789 -21.638  1.00  0.00    -0.358 OA
ATOM     32  H1  UNL     1      -1.820  20.454 -22.412  1.00  0.00     0.213 HD
ENDBRANCH  20  31
BRANCH  26  33
HETATM   33  O3  UNL     1       1.759  21.736 -17.356  1.00  0.00    -0.360 OA
ATOM     34  H3  UNL     1       2.111  20.864 -17.221  1.00  0.00     0.217 HD
ENDBRANCH  26  33
BRANCH  28  35
HETATM   35  O4  UNL     1       1.959  22.595 -22.096  1.00  0.00    -0.355 OA
HETATM   36  C13 UNL     1       2.289  21.494 -22.890  1.00  0.00     0.210 C 
ENDBRANCH  28  35
ENDBRANCH   1  20
TORSDOF 7
ENDMDL
MODEL 4
REMARK VINA RESULT: -6.907404185      2.640      6.356
REMARK  7 active torsions:
REMARK  status: ('A' for Active; 'I' for Inactive)
REMARK    1  A    between atoms: C2_2  and  C3_3 
REMARK    2  A    between atoms: C3_3  and  C4_4 
REMARK    3  A    between atoms: C4_4  and  C5_5 
REMARK    4  A    between atoms: C5_5  and  C6_6 
REMARK    5  A    between atoms: C6_6  and  O1_7 
REMARK    6  A    between atoms: C10_13  and  O3_14 
REMARK    7  A    between atoms: C12_17  and  O4_18 
ROOT
HETATM    1  C5  UNL     1       0.948  23.355 -21.407  1.00  0.00     0.105 C 
HETATM    2  C16 UNL     1       1.263  21.889 -21.495  1.00  0.00     0.194 C 
HETATM    3  O6  UNL     1       0.997  21.191 -22.532  1.00  0.00    -0.290 OA
HETATM    4  C17 UNL     1       1.895  21.128 -20.424  1.00  0.00     0.118 A 
HETATM    5  N1  UNL     1       2.204  19.814 -20.250  1.00  0.00    -0.257 N 
ATOM      6  H1  UNL     1       2.017  19.075 -20.928  1.00  0.00     0.195 HD
HETATM    7  O7  UNL     1       2.774  19.638 -19.094  1.00  0.00    -0.241 OA
HETATM    8  C18 UNL     1       2.883  20.765 -18.439  1.00  0.00     0.088 A 
HETATM    9  C19 UNL     1       3.452  21.030 -17.120  1.00  0.00     0.080 C 
HETATM   10  C20 UNL     1       2.331  21.733 -19.263  1.00  0.00     0.074 A 
HETATM   11  C21 UNL     1       2.118  23.161 -19.186  1.00  0.00     0.173 C 
HETATM   12  O8  UNL     1       2.060  23.687 -18.025  1.00  0.00    -0.291 OA
HETATM   13  C22 UNL     1       1.978  23.933 -20.437  1.00  0.00     0.039 C 
HETATM   14  C23 UNL     1       3.364  23.878 -21.098  1.00  0.00     0.025 C 
HETATM   15  C24 UNL     1       1.776  25.356 -20.061  1.00  0.00     0.025 C 
ENDROOT
BRANCH   1  16
HETATM   16  C4  UNL     1       1.199  24.044 -22.709  1.00  0.00     0.025 C 
BRANCH  16  17
HETATM   17  C3  UNL     1       1.637  23.271 -23.877  1.00  0.00     0.001 C 
BRANCH  17  18
HETATM   18  C2  UNL     1       2.510  24.132 -24.799  1.00  0.00    -0.005 C 
HETATM   19  C1  UNL     1       2.530  25.561 -24.399  1.00  0.00     0.005 C 
ENDBRANCH  17  18
ENDBRANCH  16  17
ENDBRANCH   1  16
BRANCH   1  20
HETATM   20  C6  UNL     1      -0.424  23.571 -20.926  1.00  0.00     0.251 C 
HETATM   21  O2  UNL     1      -0.747  22.328 -20.179  1.00  0.00    -0.304 OA
HETATM   22  C7  UNL     1      -2.112  22.263 -19.996  1.00  0.00     0.098 A 
HETATM   23  C8  UNL     1      -2.891  21.631 -19.049  1.00  0.00     0.006 A 
HETATM   24  C14 UNL     1      -2.665  23.013 -21.022  1.00  0.00     0.083 A 
HETATM   25  C9  UNL     1      -2.242  20.830 -17.955  1.00  0.00     0.054 C 
HETATM   26  C10 UNL     1      -4.260  21.742 -19.115  1.00  0.00     0.077 A 
HETATM   27  C11 UNL     1      -4.831  22.478 -20.120  1.00  0.00     0.075 A 
HETATM   28  C12 UNL     1      -4.036  23.111 -21.070  1.00  0.00     0.087 A 
HETATM   29  C15 UNL     1      -1.545  23.540 -21.844  1.00  0.00     0.228 C 
HETATM   30  O5  UNL     1      -1.696  23.835 -23.023  1.00  0.00    -0.286 OA
BRANCH  20  31
HETATM   31  O1  UNL     1      -0.590  24.612 -20.013  1.00  0.00    -0.358 OA
ATOM     32  H1  UNL     1      -1.060  25.372 -20.335  1.00  0.00     0.213 HD
ENDBRANCH  20  31
BRANCH  26  33
HETATM   33  O3  UNL     1      -5.002  21.090 -18.142  1.00  0.00    -0.360 OA
ATOM     34  H3  UNL     1      -5.564  20.379 -18.423  1.00  0.00     0.217 HD
ENDBRANCH  26  33
BRANCH  28  35
HETATM   35  O4  UNL     1      -4.640  23.849 -22.079  1.00  0.00    -0.355 OA
HETATM   36  C13 UNL     1      -5.565  23.254 -22.939  1.00  0.00     0.210 C 
ENDBRANCH  28  35
ENDBRANCH   1  20
TORSDOF 7
ENDMDL
MODEL 5
REMARK VINA RESULT: -6.640960207      1.241      2.495
REMARK  7 active torsions:
REMARK  status: ('A' for Active; 'I' for Inactive)
REMARK    1  A    between atoms: C2_2  and  C3_3 
REMARK    2  A    between atoms: C3_3  and  C4_4 
REMARK    3  A    between atoms: C4_4  and  C5_5 
REMARK    4  A    between atoms: C5_5  and  C6_6 
REMARK    5  A    between atoms: C6_6  and  O1_7 
REMARK    6  A    between atoms: C10_13  and  O3_14 
REMARK    7  A    between atoms: C12_17  and  O4_18 
ROOT
HETATM    1  C5  UNL     1      -3.714  22.813 -21.525  1.00  0.00     0.105 C 
HETATM    2  C16 UNL     1      -5.026  22.997 -20.816  1.00  0.00     0.194 C 
HETATM    3  O6  UNL     1      -5.564  24.145 -20.655  1.00  0.00    -0.290 OA
HETATM    4  C17 UNL     1      -5.804  21.901 -20.252  1.00  0.00     0.118 A 
HETATM    5  N1  UNL     1      -6.951  21.831 -19.522  1.00  0.00    -0.257 N 
ATOM      6  H1  UNL     1      -7.505  22.635 -19.227  1.00  0.00     0.195 HD
HETATM    7  O7  UNL     1      -7.238  20.591 -19.258  1.00  0.00    -0.241 OA
HETATM    8  C18 UNL     1      -6.349  19.776 -19.765  1.00  0.00     0.088 A 
HETATM    9  C19 UNL     1      -6.277  18.318 -19.712  1.00  0.00     0.080 C 
HETATM   10  C20 UNL     1      -5.422  20.585 -20.405  1.00  0.00     0.074 A 
HETATM   11  C21 UNL     1      -4.206  20.372 -21.157  1.00  0.00     0.173 C 
HETATM   12  O8  UNL     1      -3.566  19.287 -20.950  1.00  0.00    -0.291 OA
HETATM   13  C22 UNL     1      -3.768  21.405 -22.116  1.00  0.00     0.039 C 
HETATM   14  C23 UNL     1      -4.816  21.380 -23.239  1.00  0.00     0.025 C 
HETATM   15  C24 UNL     1      -2.508  20.925 -22.742  1.00  0.00     0.025 C 
ENDROOT
BRANCH   1  16
HETATM   16  C4  UNL     1      -3.597  23.731 -22.698  1.00  0.00     0.025 C 
BRANCH  16  17
HETATM   17  C3  UNL     1      -4.442  24.927 -22.782  1.00  0.00     0.001 C 
BRANCH  17  18
HETATM   18  C2  UNL     1      -5.223  24.946 -24.103  1.00  0.00    -0.005 C 
HETATM   19  C1  UNL     1      -6.646  25.322 -23.921  1.00  0.00     0.005 C 
ENDBRANCH  17  18
ENDBRANCH  16  17
ENDBRANCH   1  16
BRANCH   1  20
HETATM   20  C6  UNL     1      -2.586  22.963 -20.594  1.00  0.00     0.251 C 
HETATM   21  O2  UNL     1      -1.434  22.367 -21.319  1.00  0.00    -0.304 OA
HETATM   22  C7  UNL     1      -0.420  22.124 -20.417  1.00  0.00     0.098 A 
HETATM   23  C8  UNL     1       0.947  22.022 -20.566  1.00  0.00     0.006 A 
HETATM   24  C14 UNL     1      -1.040  21.979 -19.186  1.00  0.00     0.083 A 
HETATM   25  C9  UNL     1       1.571  22.189 -21.923  1.00  0.00     0.054 C 
HETATM   26  C10 UNL     1       1.730  21.767 -19.464  1.00  0.00     0.077 A 
HETATM   27  C11 UNL     1       1.141  21.619 -18.236  1.00  0.00     0.075 A 
HETATM   28  C12 UNL     1      -0.238  21.724 -18.097  1.00  0.00     0.087 A 
HETATM   29  C15 UNL     1      -2.501  22.149 -19.398  1.00  0.00     0.228 C 
HETATM   30  O5  UNL     1      -3.323  21.648 -18.640  1.00  0.00    -0.286 OA
BRANCH  20  31
HETATM   31  O1  UNL     1      -2.211  24.273 -20.302  1.00  0.00    -0.358 OA
ATOM     32  H1  UNL     1      -1.555  24.372 -19.622  1.00  0.00     0.213 HD
ENDBRANCH  20  31
BRANCH  26  33
HETATM   33  O3  UNL     1       3.100  21.673 -19.662  1.00  0.00    -0.360 OA
ATOM     34  H3  UNL     1       3.665  21.953 -18.952  1.00  0.00     0.217 HD
ENDBRANCH  26  33
BRANCH  28  35
HETATM   35  O4  UNL     1      -0.810  21.568 -16.842  1.00  0.00    -0.355 OA
HETATM   36  C13 UNL     1      -0.993  20.295 -16.298  1.00  0.00     0.210 C 
ENDBRANCH  28  35
ENDBRANCH   1  20
TORSDOF 7
ENDMDL
