MODEL 1
REMARK VINA RESULT: -8.165209303      0.000      0.000
REMARK  5 active torsions:
REMARK  status: ('A' for Active; 'I' for Inactive)
REMARK    1  A    between atoms: C2_2  and  C7_10 
REMARK    2  A    between atoms: N1_3  and  C3_5 
REMARK    3  A    between atoms: C3_5  and  C4_6 
REMARK    4  A    between atoms: C4_6  and  N2_7 
REMARK    5  A    between atoms: C13_22  and  N4_23 
ROOT
HETATM    1  C7  UNL     1       0.115  21.504 -17.532  1.00  0.00     0.054 A 
HETATM    2  S1  UNL     1      -1.226  20.570 -17.049  1.00  0.00    -0.068 SA
HETATM    3  C8  UNL     1      -2.396  21.184 -18.118  1.00  0.00     0.093 A 
HETATM    4  N3  UNL     1      -3.690  20.782 -18.170  1.00  0.00    -0.316 N 
ATOM      5  H3  UNL     1      -3.981  20.128 -17.444  1.00  0.00     0.169 HD
HETATM    6  C9  UNL     1      -4.635  21.133 -19.053  1.00  0.00     0.260 C 
HETATM    7  O1  UNL     1      -5.794  20.832 -18.710  1.00  0.00    -0.267 OA
HETATM    8  C10 UNL     1      -4.525  21.787 -20.310  1.00  0.00     0.082 A 
HETATM    9  C11 UNL     1      -3.456  22.564 -20.608  1.00  0.00     0.075 A 
HETATM   10  S2  UNL     1      -3.726  23.147 -22.181  1.00  0.00    -0.075 SA
HETATM   11  C12 UNL     1      -5.234  22.376 -22.451  1.00  0.00     0.077 A 
HETATM   12  S3  UNL     1      -6.601  22.040 -23.468  1.00  0.00    -0.044 SA
HETATM   13  C13 UNL     1      -7.425  21.032 -22.372  1.00  0.00     0.147 A 
HETATM   14  N5  UNL     1      -6.670  20.999 -21.347  1.00  0.00    -0.334 N 
ATOM     15  H5  UNL     1      -6.952  20.448 -20.535  1.00  0.00     0.168 HD
HETATM   16  C16 UNL     1      -5.502  21.680 -21.313  1.00  0.00     0.075 A 
HETATM   17  C17 UNL     1      -2.313  22.881 -19.862  1.00  0.00     0.205 C 
HETATM   18  O2  UNL     1      -1.807  23.975 -20.174  1.00  0.00    -0.286 OA
HETATM   19  C18 UNL     1      -1.705  22.119 -18.840  1.00  0.00     0.075 A 
HETATM   20  C19 UNL     1      -0.399  22.284 -18.533  1.00  0.00     0.082 A 
HETATM   21  N6  UNL     1       0.464  23.246 -19.217  1.00  0.00    -0.100 NA
ENDROOT
BRANCH   1  22
HETATM   22  C2  UNL     1       1.501  21.491 -17.012  1.00  0.00     0.020 C 
HETATM   23  C1  UNL     1       2.448  20.421 -17.299  1.00  0.00     0.069 C 
HETATM   24  N1  UNL     1       1.828  22.485 -16.285  1.00  0.00    -0.391 N 
ATOM     25  H1  UNL     1       1.099  23.184 -16.139  1.00  0.00     0.159 HD
BRANCH  24  26
HETATM   26  C3  UNL     1       3.069  22.749 -15.651  1.00  0.00     0.150 C 
BRANCH  26  27
HETATM   27  C4  UNL     1       2.997  24.171 -15.079  1.00  0.00     0.290 C 
BRANCH  27  28
HETATM   28  N2  UNL     1       2.800  24.148 -13.651  1.00  0.00     0.081 N 
HETATM   29  C5  UNL     1       3.645  23.140 -13.036  1.00  0.00     0.309 C 
HETATM   30  C6  UNL     1       2.945  25.433 -13.042  1.00  0.00     0.309 C 
ENDBRANCH  27  28
ENDBRANCH  26  27
ENDBRANCH  24  26
ENDBRANCH   1  22
BRANCH  13  31
HETATM   31  N4  UNL     1      -8.697  20.351 -22.541  1.00  0.00    -0.370 N 
HETATM   32  C14 UNL     1      -9.869  21.121 -22.825  1.00  0.00     0.151 C 
HETATM   33  C15 UNL     1      -8.660  18.926 -22.402  1.00  0.00     0.151 C 
ENDBRANCH  13  31
TORSDOF 5
ENDMDL
MODEL 2
REMARK VINA RESULT: -7.814528614      1.633      2.737
REMARK  5 active torsions:
REMARK  status: ('A' for Active; 'I' for Inactive)
REMARK    1  A    between atoms: C2_2  and  C7_10 
REMARK    2  A    between atoms: N1_3  and  C3_5 
REMARK    3  A    between atoms: C3_5  and  C4_6 
REMARK    4  A    between atoms: C4_6  and  N2_7 
REMARK    5  A    between atoms: C13_22  and  N4_23 
ROOT
HETATM    1  C7  UNL     1      -0.033  21.448 -17.671  1.00  0.00     0.054 A 
HETATM    2  S1  UNL     1      -1.381  20.541 -17.159  1.00  0.00    -0.068 SA
HETATM    3  C8  UNL     1      -2.557  21.162 -18.217  1.00  0.00     0.093 A 
HETATM    4  N3  UNL     1      -3.858  20.779 -18.246  1.00  0.00    -0.316 N 
ATOM      5  H3  UNL     1      -4.148  20.138 -17.509  1.00  0.00     0.169 HD
HETATM    6  C9  UNL     1      -4.811  21.135 -19.119  1.00  0.00     0.260 C 
HETATM    7  O1  UNL     1      -5.969  20.856 -18.756  1.00  0.00    -0.267 OA
HETATM    8  C10 UNL     1      -4.709  21.774 -20.385  1.00  0.00     0.082 A 
HETATM    9  C11 UNL     1      -3.633  22.530 -20.707  1.00  0.00     0.075 A 
HETATM   10  S2  UNL     1      -3.917  23.100 -22.283  1.00  0.00    -0.075 SA
HETATM   11  C12 UNL     1      -5.440  22.350 -22.522  1.00  0.00     0.077 A 
HETATM   12  S3  UNL     1      -6.828  22.024 -23.515  1.00  0.00    -0.044 SA
HETATM   13  C13 UNL     1      -7.650  21.041 -22.395  1.00  0.00     0.147 A 
HETATM   14  N5  UNL     1      -6.881  21.007 -21.381  1.00  0.00    -0.334 N 
ATOM     15  H5  UNL     1      -7.159  20.470 -20.560  1.00  0.00     0.168 HD
HETATM   16  C16 UNL     1      -5.702  21.670 -21.373  1.00  0.00     0.075 A 
HETATM   17  C17 UNL     1      -2.474  22.837 -19.981  1.00  0.00     0.205 C 
HETATM   18  O2  UNL     1      -1.955  23.920 -20.313  1.00  0.00    -0.286 OA
HETATM   19  C18 UNL     1      -1.863  22.077 -18.960  1.00  0.00     0.075 A 
HETATM   20  C19 UNL     1      -0.550  22.225 -18.674  1.00  0.00     0.082 A 
HETATM   21  N6  UNL     1       0.317  23.166 -19.381  1.00  0.00    -0.100 NA
ENDROOT
BRANCH   1  22
HETATM   22  C2  UNL     1       1.360  21.419 -17.172  1.00  0.00     0.020 C 
HETATM   23  C1  UNL     1       1.934  22.479 -16.354  1.00  0.00     0.069 C 
HETATM   24  N1  UNL     1       2.044  20.396 -17.504  1.00  0.00    -0.391 N 
ATOM     25  H1  UNL     1       1.558  19.706 -18.078  1.00  0.00     0.159 HD
BRANCH  24  26
HETATM   26  C3  UNL     1       3.391  20.089 -17.183  1.00  0.00     0.150 C 
BRANCH  26  27
HETATM   27  C4  UNL     1       3.368  18.949 -16.157  1.00  0.00     0.290 C 
BRANCH  27  28
HETATM   28  N2  UNL     1       2.381  17.958 -16.503  1.00  0.00     0.081 N 
HETATM   29  C5  UNL     1       2.990  16.869 -17.245  1.00  0.00     0.309 C 
HETATM   30  C6  UNL     1       1.623  17.501 -15.381  1.00  0.00     0.309 C 
ENDBRANCH  27  28
ENDBRANCH  26  27
ENDBRANCH  24  26
ENDBRANCH   1  22
BRANCH  13  31
HETATM   31  N4  UNL     1      -8.936  20.378 -22.538  1.00  0.00    -0.370 N 
HETATM   32  C14 UNL     1     -10.087  21.154 -22.880  1.00  0.00     0.151 C 
HETATM   33  C15 UNL     1      -8.930  18.964 -22.315  1.00  0.00     0.151 C 
ENDBRANCH  13  31
TORSDOF 5
ENDMDL
MODEL 3
REMARK VINA RESULT: -7.811088556      0.652      1.025
REMARK  5 active torsions:
REMARK  status: ('A' for Active; 'I' for Inactive)
REMARK    1  A    between atoms: C2_2  and  C7_10 
REMARK    2  A    between atoms: N1_3  and  C3_5 
REMARK    3  A    between atoms: C3_5  and  C4_6 
REMARK    4  A    between atoms: C4_6  and  N2_7 
REMARK    5  A    between atoms: C13_22  and  N4_23 
ROOT
HETATM    1  C7  UNL     1      -0.038  21.203 -17.787  1.00  0.00     0.054 A 
HETATM    2  S1  UNL     1      -1.455  20.412 -17.266  1.00  0.00    -0.068 SA
HETATM    3  C8  UNL     1      -2.579  21.123 -18.326  1.00  0.00     0.093 A 
HETATM    4  N3  UNL     1      -3.907  20.848 -18.350  1.00  0.00    -0.316 N 
ATOM      5  H3  UNL     1      -4.247  20.237 -17.608  1.00  0.00     0.169 HD
HETATM    6  C9  UNL     1      -4.829  21.277 -19.222  1.00  0.00     0.260 C 
HETATM    7  O1  UNL     1      -6.005  21.095 -18.854  1.00  0.00    -0.267 OA
HETATM    8  C10 UNL     1      -4.679  21.899 -20.491  1.00  0.00     0.082 A 
HETATM    9  C11 UNL     1      -3.545  22.563 -20.820  1.00  0.00     0.075 A 
HETATM   10  S2  UNL     1      -3.786  23.147 -22.398  1.00  0.00    -0.075 SA
HETATM   11  C12 UNL     1      -5.366  22.523 -22.629  1.00  0.00     0.077 A 
HETATM   12  S3  UNL     1      -6.778  22.307 -23.618  1.00  0.00    -0.044 SA
HETATM   13  C13 UNL     1      -7.676  21.401 -22.491  1.00  0.00     0.147 A 
HETATM   14  N5  UNL     1      -6.909  21.309 -21.479  1.00  0.00    -0.334 N 
ATOM     15  H5  UNL     1      -7.228  20.800 -20.654  1.00  0.00     0.168 HD
HETATM   16  C16 UNL     1      -5.680  21.873 -21.476  1.00  0.00     0.075 A 
HETATM   17  C17 UNL     1      -2.363  22.777 -20.098  1.00  0.00     0.205 C 
HETATM   18  O2  UNL     1      -1.758  23.813 -20.437  1.00  0.00    -0.286 OA
HETATM   19  C18 UNL     1      -1.813  21.975 -19.074  1.00  0.00     0.075 A 
HETATM   20  C19 UNL     1      -0.492  22.015 -18.792  1.00  0.00     0.082 A 
HETATM   21  N6  UNL     1       0.447  22.879 -19.506  1.00  0.00    -0.100 NA
ENDROOT
BRANCH   1  22
HETATM   22  C2  UNL     1       1.349  21.062 -17.291  1.00  0.00     0.020 C 
HETATM   23  C1  UNL     1       2.027  19.777 -17.180  1.00  0.00     0.069 C 
HETATM   24  N1  UNL     1       1.930  22.148 -16.959  1.00  0.00    -0.391 N 
ATOM     25  H1  UNL     1       1.377  22.997 -17.071  1.00  0.00     0.159 HD
BRANCH  24  26
HETATM   26  C3  UNL     1       3.242  22.331 -16.453  1.00  0.00     0.150 C 
BRANCH  26  27
HETATM   27  C4  UNL     1       3.113  22.721 -14.975  1.00  0.00     0.290 C 
BRANCH  27  28
HETATM   28  N2  UNL     1       2.846  24.131 -14.831  1.00  0.00     0.081 N 
HETATM   29  C5  UNL     1       2.719  24.484 -13.429  1.00  0.00     0.309 C 
HETATM   30  C6  UNL     1       3.787  24.955 -15.522  1.00  0.00     0.309 C 
ENDBRANCH  27  28
ENDBRANCH  26  27
ENDBRANCH  24  26
ENDBRANCH   1  22
BRANCH  13  31
HETATM   31  N4  UNL     1      -9.012  20.845 -22.628  1.00  0.00    -0.370 N 
HETATM   32  C14 UNL     1      -9.305  19.578 -22.031  1.00  0.00     0.151 C 
HETATM   33  C15 UNL     1      -9.940  21.641 -23.373  1.00  0.00     0.151 C 
ENDBRANCH  13  31
TORSDOF 5
ENDMDL
MODEL 4
REMARK VINA RESULT: -7.767186741      1.979      9.847
REMARK  5 active torsions:
REMARK  status: ('A' for Active; 'I' for Inactive)
REMARK    1  A    between atoms: C2_2  and  C7_10 
REMARK    2  A    between atoms: N1_3  and  C3_5 
REMARK    3  A    between atoms: C3_5  and  C4_6 
REMARK    4  A    between atoms: C4_6  and  N2_7 
REMARK    5  A    between atoms: C13_22  and  N4_23 
ROOT
HETATM    1  C7  UNL     1      -5.686  23.004 -22.613  1.00  0.00     0.054 A 
HETATM    2  S1  UNL     1      -4.289  23.944 -22.873  1.00  0.00    -0.068 SA
HETATM    3  C8  UNL     1      -3.438  23.584 -21.447  1.00  0.00     0.093 A 
HETATM    4  N3  UNL     1      -2.219  24.080 -21.121  1.00  0.00    -0.316 N 
ATOM      5  H3  UNL     1      -1.847  24.791 -21.751  1.00  0.00     0.169 HD
HETATM    6  C9  UNL     1      -1.440  23.757 -20.080  1.00  0.00     0.260 C 
HETATM    7  O1  UNL     1      -0.505  24.554 -19.873  1.00  0.00    -0.267 OA
HETATM    8  C10 UNL     1      -1.511  22.657 -19.183  1.00  0.00     0.082 A 
HETATM    9  C11 UNL     1      -2.670  21.988 -18.978  1.00  0.00     0.075 A 
HETATM   10  S2  UNL     1      -2.315  20.771 -17.846  1.00  0.00    -0.075 SA
HETATM   11  C12 UNL     1      -0.652  21.135 -17.640  1.00  0.00     0.077 A 
HETATM   12  S3  UNL     1       0.887  20.815 -16.900  1.00  0.00    -0.044 SA
HETATM   13  C13 UNL     1       1.748  22.059 -17.680  1.00  0.00     0.147 A 
HETATM   14  N5  UNL     1       0.881  22.625 -18.421  1.00  0.00    -0.334 N 
ATOM     15  H5  UNL     1       1.158  23.417 -19.001  1.00  0.00     0.168 HD
HETATM   16  C16 UNL     1      -0.401  22.196 -18.454  1.00  0.00     0.075 A 
HETATM   17  C17 UNL     1      -3.944  22.167 -19.533  1.00  0.00     0.205 C 
HETATM   18  O2  UNL     1      -4.865  21.770 -18.794  1.00  0.00    -0.286 OA
HETATM   19  C18 UNL     1      -4.275  22.724 -20.788  1.00  0.00     0.075 A 
HETATM   20  C19 UNL     1      -5.444  22.425 -21.397  1.00  0.00     0.082 A 
HETATM   21  N6  UNL     1      -6.437  21.525 -20.812  1.00  0.00    -0.100 NA
ENDROOT
BRANCH   1  22
HETATM   22  C2  UNL     1      -6.878  22.840 -23.475  1.00  0.00     0.020 C 
HETATM   23  C1  UNL     1      -7.126  23.658 -24.656  1.00  0.00     0.069 C 
HETATM   24  N1  UNL     1      -7.693  21.925 -23.122  1.00  0.00    -0.391 N 
ATOM     25  H1  UNL     1      -7.437  21.404 -22.284  1.00  0.00     0.159 HD
BRANCH  24  26
HETATM   26  C3  UNL     1      -8.910  21.536 -23.739  1.00  0.00     0.150 C 
BRANCH  26  27
HETATM   27  C4  UNL     1      -9.870  21.100 -22.625  1.00  0.00     0.290 C 
BRANCH  27  28
HETATM   28  N2  UNL     1      -9.234  20.169 -21.726  1.00  0.00     0.081 N 
HETATM   29  C5  UNL     1     -10.015  20.017 -20.513  1.00  0.00     0.309 C 
HETATM   30  C6  UNL     1      -8.923  18.917 -22.340  1.00  0.00     0.309 C 
ENDBRANCH  27  28
ENDBRANCH  26  27
ENDBRANCH  24  26
ENDBRANCH   1  22
BRANCH  13  31
HETATM   31  N4  UNL     1       3.151  22.414 -17.550  1.00  0.00    -0.370 N 
HETATM   32  C14 UNL     1       3.787  23.141 -18.605  1.00  0.00     0.151 C 
HETATM   33  C15 UNL     1       3.787  21.989 -16.340  1.00  0.00     0.151 C 
ENDBRANCH  13  31
TORSDOF 5
ENDMDL
MODEL 5
REMARK VINA RESULT: -7.727516925      3.075      3.663
REMARK  5 active torsions:
REMARK  status: ('A' for Active; 'I' for Inactive)
REMARK    1  A    between atoms: C2_2  and  C7_10 
REMARK    2  A    between atoms: N1_3  and  C3_5 
REMARK    3  A    between atoms: C3_5  and  C4_6 
REMARK    4  A    between atoms: C4_6  and  N2_7 
REMARK    5  A    between atoms: C13_22  and  N4_23 
ROOT
HETATM    1  C7  UNL     1       0.320  23.330 -19.765  1.00  0.00     0.054 A 
HETATM    2  S1  UNL     1      -0.556  22.629 -18.482  1.00  0.00    -0.068 SA
HETATM    3  C8  UNL     1      -2.112  22.638 -19.166  1.00  0.00     0.093 A 
HETATM    4  N3  UNL     1      -3.233  22.180 -18.556  1.00  0.00    -0.316 N 
ATOM      5  H3  UNL     1      -3.124  21.898 -17.582  1.00  0.00     0.169 HD
HETATM    6  C9  UNL     1      -4.464  22.048 -19.067  1.00  0.00     0.260 C 
HETATM    7  O1  UNL     1      -5.355  21.863 -18.217  1.00  0.00    -0.267 OA
HETATM    8  C10 UNL     1      -4.910  22.085 -20.417  1.00  0.00     0.082 A 
HETATM    9  C11 UNL     1      -4.192  22.711 -21.379  1.00  0.00     0.075 A 
HETATM   10  S2  UNL     1      -5.074  22.522 -22.819  1.00  0.00    -0.075 SA
HETATM   11  C12 UNL     1      -6.381  21.625 -22.165  1.00  0.00     0.077 A 
HETATM   12  S3  UNL     1      -7.895  20.794 -22.360  1.00  0.00    -0.044 SA
HETATM   13  C13 UNL     1      -8.080  20.328 -20.734  1.00  0.00     0.147 A 
HETATM   14  N5  UNL     1      -7.047  20.796 -20.153  1.00  0.00    -0.334 N 
ATOM     15  H5  UNL     1      -6.925  20.645 -19.152  1.00  0.00     0.168 HD
HETATM   16  C16 UNL     1      -6.110  21.488 -20.839  1.00  0.00     0.075 A 
HETATM   17  C17 UNL     1      -2.968  23.391 -21.316  1.00  0.00     0.205 C 
HETATM   18  O2  UNL     1      -2.842  24.263 -22.198  1.00  0.00    -0.286 OA
HETATM   19  C18 UNL     1      -1.912  23.196 -20.399  1.00  0.00     0.075 A 
HETATM   20  C19 UNL     1      -0.646  23.556 -20.708  1.00  0.00     0.082 A 
HETATM   21  N6  UNL     1      -0.283  24.165 -21.986  1.00  0.00    -0.100 NA
ENDROOT
BRANCH   1  22
HETATM   22  C2  UNL     1       1.767  23.628 -19.858  1.00  0.00     0.020 C 
HETATM   23  C1  UNL     1       2.793  22.594 -19.880  1.00  0.00     0.069 C 
HETATM   24  N1  UNL     1       2.072  24.864 -19.918  1.00  0.00    -0.391 N 
ATOM     25  H1  UNL     1       1.287  25.515 -19.897  1.00  0.00     0.159 HD
BRANCH  24  26
HETATM   26  C3  UNL     1       3.359  25.455 -20.011  1.00  0.00     0.150 C 
BRANCH  26  27
HETATM   27  C4  UNL     1       3.240  26.665 -20.947  1.00  0.00     0.290 C 
BRANCH  27  28
HETATM   28  N2  UNL     1       3.043  27.882 -20.200  1.00  0.00     0.081 N 
HETATM   29  C5  UNL     1       3.773  27.835 -18.946  1.00  0.00     0.309 C 
HETATM   30  C6  UNL     1       3.330  29.060 -20.958  1.00  0.00     0.309 C 
ENDBRANCH  27  28
ENDBRANCH  26  27
ENDBRANCH  24  26
ENDBRANCH   1  22
BRANCH  13  31
HETATM   31  N4  UNL     1      -9.157  19.569 -20.122  1.00  0.00    -0.370 N 
HETATM   32  C14 UNL     1      -8.838  18.446 -19.295  1.00  0.00     0.151 C 
HETATM   33  C15 UNL     1     -10.482  20.030 -20.414  1.00  0.00     0.151 C 
ENDBRANCH  13  31
TORSDOF 5
ENDMDL
