MODEL 1
REMARK VINA RESULT: -10.299169989      0.000      0.000
REMARK  6 active torsions:
REMARK  status: ('A' for Active; 'I' for Inactive)
REMARK    1  A    between atoms: C2_2  and  C3_3 
REMARK    2  A    between atoms: C3_3  and  C4_4 
REMARK    3  A    between atoms: C4_4  and  C5_5 
REMARK    4  A    between atoms: C6_6  and  C7_7 
REMARK    5  A    between atoms: C9_9  and  O1_10 
REMARK    6  A    between atoms: C19_24  and  O5_25 
ROOT
HETATM    1  C7  UNL     1      -5.584  24.031 -23.744  1.00  0.00    -0.033 A 
HETATM    2  C8  UNL     1      -6.798  23.486 -24.097  1.00  0.00     0.051 A 
HETATM    3  C9  UNL     1      -7.364  22.446 -23.394  1.00  0.00     0.100 A 
HETATM    4  C10 UNL     1      -6.751  21.863 -22.267  1.00  0.00     0.110 A 
HETATM    5  C11 UNL     1      -5.544  22.419 -21.934  1.00  0.00    -0.012 A 
HETATM    6  C12 UNL     1      -4.978  23.471 -22.653  1.00  0.00     0.022 A 
HETATM    7  C13 UNL     1      -4.607  22.045 -20.779  1.00  0.00     0.082 C 
HETATM    8  C14 UNL     1      -3.951  23.301 -20.202  1.00  0.00     0.021 C 
HETATM    9  C15 UNL     1      -5.491  21.357 -19.878  1.00  0.00     0.203 C 
HETATM   10  C16 UNL     1      -6.278  22.488 -19.422  1.00  0.00     0.083 C 
HETATM   11  O2  UNL     1      -5.362  20.706 -18.692  1.00  0.00    -0.199 OA
HETATM   12  O3  UNL     1      -6.692  20.380 -18.561  1.00  0.00    -0.212 OA
HETATM   13  C17 UNL     1      -7.186  19.634 -19.520  1.00  0.00     0.236 C 
HETATM   14  C18 UNL     1      -8.176  18.570 -19.160  1.00  0.00     0.313 C 
HETATM   15  O4  UNL     1      -9.348  19.366 -19.136  1.00  0.00    -0.324 OA
HETATM   16  C19 UNL     1      -9.271  20.161 -20.273  1.00  0.00     0.306 C 
HETATM   17  C21 UNL     1      -7.820  20.037 -20.794  1.00  0.00     0.216 C 
HETATM   18  O6  UNL     1      -7.458  20.863 -21.717  1.00  0.00    -0.322 OA
HETATM   19  C22 UNL     1      -7.759  18.594 -21.361  1.00  0.00     0.206 C 
HETATM   20  C23 UNL     1      -8.332  18.394 -22.670  1.00  0.00     0.083 C 
HETATM   21  O7  UNL     1      -8.312  17.814 -20.324  1.00  0.00    -0.318 OA
HETATM   22  O8  UNL     1      -6.372  18.317 -21.268  1.00  0.00    -0.318 OA
HETATM   23  C24 UNL     1      -5.911  19.053 -20.188  1.00  0.00     0.313 C 
HETATM   24  O9  UNL     1      -5.560  20.287 -20.647  1.00  0.00    -0.319 OA
ENDROOT
BRANCH   1  25
HETATM   25  C6  UNL     1      -5.023  25.084 -24.540  1.00  0.00     0.007 C 
HETATM   26  C5  UNL     1      -5.100  25.398 -25.779  1.00  0.00    -0.026 C 
BRANCH  26  27
HETATM   27  C4  UNL     1      -5.758  24.871 -26.952  1.00  0.00     0.027 C 
BRANCH  27  28
HETATM   28  C3  UNL     1      -5.233  25.519 -28.235  1.00  0.00     0.003 C 
BRANCH  28  29
HETATM   29  C2  UNL     1      -4.286  24.564 -28.932  1.00  0.00    -0.004 C 
HETATM   30  C1  UNL     1      -4.893  24.189 -30.267  1.00  0.00     0.005 C 
ENDBRANCH  28  29
ENDBRANCH  27  28
ENDBRANCH  26  27
ENDBRANCH   1  25
BRANCH   3  31
HETATM   31  O1  UNL     1      -8.589  22.025 -23.893  1.00  0.00    -0.358 OA
ATOM     32  H1  UNL     1      -9.275  21.966 -23.238  1.00  0.00     0.217 HD
ENDBRANCH   3  31
BRANCH  16  33
HETATM   33  O5  UNL     1     -10.218  19.900 -21.207  1.00  0.00    -0.362 OA
HETATM   34  C20 UNL     1     -10.805  21.087 -21.634  1.00  0.00     0.204 C 
ENDBRANCH  16  33
TORSDOF 6
ENDMDL
MODEL 2
REMARK VINA RESULT: -9.602210803      0.904      1.088
REMARK  6 active torsions:
REMARK  status: ('A' for Active; 'I' for Inactive)
REMARK    1  A    between atoms: C2_2  and  C3_3 
REMARK    2  A    between atoms: C3_3  and  C4_4 
REMARK    3  A    between atoms: C4_4  and  C5_5 
REMARK    4  A    between atoms: C6_6  and  C7_7 
REMARK    5  A    between atoms: C9_9  and  O1_10 
REMARK    6  A    between atoms: C19_24  and  O5_25 
ROOT
HETATM    1  C7  UNL     1      -6.434  23.946 -24.357  1.00  0.00    -0.033 A 
HETATM    2  C8  UNL     1      -7.627  23.261 -24.425  1.00  0.00     0.051 A 
HETATM    3  C9  UNL     1      -7.927  22.231 -23.562  1.00  0.00     0.100 A 
HETATM    4  C10 UNL     1      -7.046  21.801 -22.549  1.00  0.00     0.110 A 
HETATM    5  C11 UNL     1      -5.865  22.496 -22.501  1.00  0.00    -0.012 A 
HETATM    6  C12 UNL     1      -5.570  23.537 -23.380  1.00  0.00     0.022 A 
HETATM    7  C13 UNL     1      -4.686  22.307 -21.539  1.00  0.00     0.082 C 
HETATM    8  C14 UNL     1      -4.073  23.662 -21.182  1.00  0.00     0.021 C 
HETATM    9  C15 UNL     1      -5.296  21.611 -20.439  1.00  0.00     0.203 C 
HETATM   10  C16 UNL     1      -6.099  22.695 -19.901  1.00  0.00     0.083 C 
HETATM   11  O2  UNL     1      -4.868  21.073 -19.267  1.00  0.00    -0.199 OA
HETATM   12  O3  UNL     1      -6.103  20.632 -18.850  1.00  0.00    -0.212 OA
HETATM   13  C17 UNL     1      -6.690  19.768 -19.644  1.00  0.00     0.236 C 
HETATM   14  C18 UNL     1      -7.467  18.646 -19.029  1.00  0.00     0.313 C 
HETATM   15  O4  UNL     1      -8.692  19.326 -18.816  1.00  0.00    -0.324 OA
HETATM   16  C19 UNL     1      -8.926  20.030 -19.990  1.00  0.00     0.306 C 
HETATM   17  C21 UNL     1      -7.600  20.006 -20.785  1.00  0.00     0.216 C 
HETATM   18  O6  UNL     1      -7.518  20.786 -21.809  1.00  0.00    -0.322 OA
HETATM   19  C22 UNL     1      -7.492  18.534 -21.266  1.00  0.00     0.206 C 
HETATM   20  C23 UNL     1      -8.284  18.176 -22.418  1.00  0.00     0.083 C 
HETATM   21  O7  UNL     1      -7.743  17.790 -20.094  1.00  0.00    -0.318 OA
HETATM   22  O8  UNL     1      -6.092  18.400 -21.439  1.00  0.00    -0.318 OA
HETATM   23  C24 UNL     1      -5.513  19.261 -20.520  1.00  0.00     0.313 C 
HETATM   24  O9  UNL     1      -5.396  20.482 -21.113  1.00  0.00    -0.319 OA
ENDROOT
BRANCH   1  25
HETATM   25  C6  UNL     1      -6.159  24.982 -25.312  1.00  0.00     0.007 C 
HETATM   26  C5  UNL     1      -5.094  25.585 -25.685  1.00  0.00    -0.026 C 
BRANCH  26  27
HETATM   27  C4  UNL     1      -3.691  25.534 -25.346  1.00  0.00     0.027 C 
BRANCH  27  28
HETATM   28  C3  UNL     1      -2.804  25.657 -26.587  1.00  0.00     0.003 C 
BRANCH  28  29
HETATM   29  C2  UNL     1      -3.603  25.282 -27.819  1.00  0.00    -0.004 C 
HETATM   30  C1  UNL     1      -2.693  24.515 -28.755  1.00  0.00     0.005 C 
ENDBRANCH  28  29
ENDBRANCH  27  28
ENDBRANCH  26  27
ENDBRANCH   1  25
BRANCH   3  31
HETATM   31  O1  UNL     1      -9.172  21.656 -23.777  1.00  0.00    -0.358 OA
ATOM     32  H1  UNL     1      -9.136  20.751 -24.067  1.00  0.00     0.217 HD
ENDBRANCH   3  31
BRANCH  16  33
HETATM   33  O5  UNL     1     -10.002  19.606 -20.696  1.00  0.00    -0.362 OA
HETATM   34  C20 UNL     1     -10.758  20.697 -21.113  1.00  0.00     0.204 C 
ENDBRANCH  16  33
TORSDOF 6
ENDMDL
MODEL 3
REMARK VINA RESULT: -9.476734673      1.511      3.753
REMARK  6 active torsions:
REMARK  status: ('A' for Active; 'I' for Inactive)
REMARK    1  A    between atoms: C2_2  and  C3_3 
REMARK    2  A    between atoms: C3_3  and  C4_4 
REMARK    3  A    between atoms: C4_4  and  C5_5 
REMARK    4  A    between atoms: C6_6  and  C7_7 
REMARK    5  A    between atoms: C9_9  and  O1_10 
REMARK    6  A    between atoms: C19_24  and  O5_25 
ROOT
HETATM    1  C7  UNL     1      -5.069  25.160 -23.956  1.00  0.00    -0.033 A 
HETATM    2  C8  UNL     1      -4.293  24.944 -22.839  1.00  0.00     0.051 A 
HETATM    3  C9  UNL     1      -4.551  23.916 -21.959  1.00  0.00     0.100 A 
HETATM    4  C10 UNL     1      -5.618  23.012 -22.131  1.00  0.00     0.110 A 
HETATM    5  C11 UNL     1      -6.377  23.246 -23.248  1.00  0.00    -0.012 A 
HETATM    6  C12 UNL     1      -6.109  24.290 -24.133  1.00  0.00     0.022 A 
HETATM    7  C13 UNL     1      -7.602  22.471 -23.749  1.00  0.00     0.082 C 
HETATM    8  C14 UNL     1      -7.593  22.398 -25.277  1.00  0.00     0.021 C 
HETATM    9  C15 UNL     1      -7.457  21.206 -23.083  1.00  0.00     0.203 C 
HETATM   10  C16 UNL     1      -6.314  20.692 -23.815  1.00  0.00     0.083 C 
HETATM   11  O2  UNL     1      -8.180  20.058 -23.001  1.00  0.00    -0.199 OA
HETATM   12  O3  UNL     1      -7.304  19.394 -22.174  1.00  0.00    -0.212 OA
HETATM   13  C17 UNL     1      -7.084  19.962 -21.013  1.00  0.00     0.236 C 
HETATM   14  C18 UNL     1      -6.932  19.089 -19.806  1.00  0.00     0.313 C 
HETATM   15  O4  UNL     1      -5.558  18.771 -19.944  1.00  0.00    -0.324 OA
HETATM   16  C19 UNL     1      -4.936  19.974 -20.254  1.00  0.00     0.306 C 
HETATM   17  C21 UNL     1      -6.063  20.962 -20.633  1.00  0.00     0.216 C 
HETATM   18  O6  UNL     1      -5.704  22.080 -21.170  1.00  0.00    -0.322 OA
HETATM   19  C22 UNL     1      -6.758  21.258 -19.277  1.00  0.00     0.206 C 
HETATM   20  C23 UNL     1      -6.101  22.210 -18.414  1.00  0.00     0.083 C 
HETATM   21  O7  UNL     1      -6.962  19.974 -18.730  1.00  0.00    -0.318 OA
HETATM   22  O8  UNL     1      -8.055  21.636 -19.706  1.00  0.00    -0.318 OA
HETATM   23  C24 UNL     1      -8.281  20.943 -20.885  1.00  0.00     0.313 C 
HETATM   24  O9  UNL     1      -7.800  21.702 -21.910  1.00  0.00    -0.319 OA
ENDROOT
BRANCH   1  25
HETATM   25  C6  UNL     1      -4.778  26.273 -24.813  1.00  0.00     0.007 C 
HETATM   26  C5  UNL     1      -4.381  26.380 -26.025  1.00  0.00    -0.026 C 
BRANCH  26  27
HETATM   27  C4  UNL     1      -4.035  25.474 -27.096  1.00  0.00     0.027 C 
BRANCH  27  28
HETATM   28  C3  UNL     1      -5.279  24.910 -27.785  1.00  0.00     0.003 C 
BRANCH  28  29
HETATM   29  C2  UNL     1      -4.955  24.589 -29.230  1.00  0.00    -0.004 C 
HETATM   30  C1  UNL     1      -3.458  24.389 -29.344  1.00  0.00     0.005 C 
ENDBRANCH  28  29
ENDBRANCH  27  28
ENDBRANCH  26  27
ENDBRANCH   1  25
BRANCH   3  31
HETATM   31  O1  UNL     1      -3.667  23.851 -20.890  1.00  0.00    -0.358 OA
ATOM     32  H1  UNL     1      -3.768  23.074 -20.352  1.00  0.00     0.217 HD
ENDBRANCH   3  31
BRANCH  16  33
HETATM   33  O5  UNL     1      -4.094  20.435 -19.298  1.00  0.00    -0.362 OA
HETATM   34  C20 UNL     1      -2.902  20.859 -19.878  1.00  0.00     0.204 C 
ENDBRANCH  16  33
TORSDOF 6
ENDMDL
MODEL 4
REMARK VINA RESULT: -9.255071617      2.691      7.099
REMARK  6 active torsions:
REMARK  status: ('A' for Active; 'I' for Inactive)
REMARK    1  A    between atoms: C2_2  and  C3_3 
REMARK    2  A    between atoms: C3_3  and  C4_4 
REMARK    3  A    between atoms: C4_4  and  C5_5 
REMARK    4  A    between atoms: C6_6  and  C7_7 
REMARK    5  A    between atoms: C9_9  and  O1_10 
REMARK    6  A    between atoms: C19_24  and  O5_25 
ROOT
HETATM    1  C7  UNL     1      -7.140  19.501 -21.964  1.00  0.00    -0.033 A 
HETATM    2  C8  UNL     1      -7.765  20.151 -23.005  1.00  0.00     0.051 A 
HETATM    3  C9  UNL     1      -7.298  21.348 -23.503  1.00  0.00     0.100 A 
HETATM    4  C10 UNL     1      -6.156  21.996 -22.991  1.00  0.00     0.110 A 
HETATM    5  C11 UNL     1      -5.552  21.332 -21.955  1.00  0.00    -0.012 A 
HETATM    6  C12 UNL     1      -6.032  20.121 -21.457  1.00  0.00     0.022 A 
HETATM    7  C13 UNL     1      -4.301  21.735 -21.165  1.00  0.00     0.082 C 
HETATM    8  C14 UNL     1      -3.474  20.495 -20.816  1.00  0.00     0.021 C 
HETATM    9  C15 UNL     1      -3.657  22.657 -22.059  1.00  0.00     0.203 C 
HETATM   10  C16 UNL     1      -3.220  21.720 -23.078  1.00  0.00     0.083 C 
HETATM   11  O2  UNL     1      -2.551  23.445 -22.018  1.00  0.00    -0.199 OA
HETATM   12  O3  UNL     1      -2.696  23.966 -23.283  1.00  0.00    -0.212 OA
HETATM   13  C17 UNL     1      -3.808  24.629 -23.495  1.00  0.00     0.236 C 
HETATM   14  C18 UNL     1      -3.756  25.859 -24.347  1.00  0.00     0.313 C 
HETATM   15  O4  UNL     1      -3.848  25.241 -25.619  1.00  0.00    -0.324 OA
HETATM   16  C19 UNL     1      -4.852  24.291 -25.491  1.00  0.00     0.306 C 
HETATM   17  C21 UNL     1      -5.118  24.140 -23.975  1.00  0.00     0.216 C 
HETATM   18  O6  UNL     1      -5.860  23.150 -23.608  1.00  0.00    -0.322 OA
HETATM   19  C22 UNL     1      -5.830  25.467 -23.597  1.00  0.00     0.206 C 
HETATM   20  C23 UNL     1      -7.234  25.555 -23.918  1.00  0.00     0.083 C 
HETATM   21  O7  UNL     1      -5.005  26.453 -24.176  1.00  0.00    -0.318 OA
HETATM   22  O8  UNL     1      -5.525  25.562 -22.216  1.00  0.00    -0.318 OA
HETATM   23  C24 UNL     1      -4.302  24.930 -22.054  1.00  0.00     0.313 C 
HETATM   24  O9  UNL     1      -4.546  23.607 -21.835  1.00  0.00    -0.319 OA
ENDROOT
BRANCH   1  25
HETATM   25  C6  UNL     1      -7.697  18.279 -21.459  1.00  0.00     0.007 C 
HETATM   26  C5  UNL     1      -8.318  17.963 -20.386  1.00  0.00    -0.026 C 
BRANCH  26  27
HETATM   27  C4  UNL     1      -8.752  18.646 -19.189  1.00  0.00     0.027 C 
BRANCH  27  28
HETATM   28  C3  UNL     1     -10.116  19.312 -19.380  1.00  0.00     0.003 C 
BRANCH  28  29
HETATM   29  C2  UNL     1      -9.932  20.654 -20.060  1.00  0.00    -0.004 C 
HETATM   30  C1  UNL     1     -10.699  20.630 -21.366  1.00  0.00     0.005 C 
ENDBRANCH  28  29
ENDBRANCH  27  28
ENDBRANCH  26  27
ENDBRANCH   1  25
BRANCH   3  31
HETATM   31  O1  UNL     1      -8.052  21.857 -24.551  1.00  0.00    -0.358 OA
ATOM     32  H1  UNL     1      -7.942  22.791 -24.689  1.00  0.00     0.217 HD
ENDBRANCH   3  31
BRANCH  16  33
HETATM   33  O5  UNL     1      -5.963  24.544 -26.225  1.00  0.00    -0.362 OA
HETATM   34  C20 UNL     1      -5.612  25.170 -27.418  1.00  0.00     0.204 C 
ENDBRANCH  16  33
TORSDOF 6
ENDMDL
MODEL 5
REMARK VINA RESULT: -8.839482337      3.787      6.915
REMARK  6 active torsions:
REMARK  status: ('A' for Active; 'I' for Inactive)
REMARK    1  A    between atoms: C2_2  and  C3_3 
REMARK    2  A    between atoms: C3_3  and  C4_4 
REMARK    3  A    between atoms: C4_4  and  C5_5 
REMARK    4  A    between atoms: C6_6  and  C7_7 
REMARK    5  A    between atoms: C9_9  and  O1_10 
REMARK    6  A    between atoms: C19_24  and  O5_25 
ROOT
HETATM    1  C7  UNL     1       0.235  22.292 -18.075  1.00  0.00    -0.033 A 
HETATM    2  C8  UNL     1      -0.691  21.476 -17.466  1.00  0.00     0.051 A 
HETATM    3  C9  UNL     1      -1.937  21.253 -18.010  1.00  0.00     0.100 A 
HETATM    4  C10 UNL     1      -2.358  21.837 -19.222  1.00  0.00     0.110 A 
HETATM    5  C11 UNL     1      -1.420  22.647 -19.809  1.00  0.00    -0.012 A 
HETATM    6  C12 UNL     1      -0.162  22.867 -19.251  1.00  0.00     0.022 A 
HETATM    7  C13 UNL     1      -1.528  23.435 -21.121  1.00  0.00     0.082 C 
HETATM    8  C14 UNL     1      -0.185  23.427 -21.854  1.00  0.00     0.021 C 
HETATM    9  C15 UNL     1      -2.592  22.751 -21.803  1.00  0.00     0.203 C 
HETATM   10  C16 UNL     1      -1.903  21.514 -22.119  1.00  0.00     0.083 C 
HETATM   11  O2  UNL     1      -3.265  22.915 -22.972  1.00  0.00    -0.199 OA
HETATM   12  O3  UNL     1      -4.087  21.823 -22.820  1.00  0.00    -0.212 OA
HETATM   13  C17 UNL     1      -4.860  21.841 -21.760  1.00  0.00     0.236 C 
HETATM   14  C18 UNL     1      -6.253  21.308 -21.880  1.00  0.00     0.313 C 
HETATM   15  O4  UNL     1      -5.972  19.932 -21.687  1.00  0.00    -0.324 OA
HETATM   16  C19 UNL     1      -5.094  19.888 -20.612  1.00  0.00     0.306 C 
HETATM   17  C21 UNL     1      -4.597  21.336 -20.395  1.00  0.00     0.216 C 
HETATM   18  O6  UNL     1      -3.603  21.498 -19.588  1.00  0.00    -0.322 OA
HETATM   19  C22 UNL     1      -5.839  22.062 -19.812  1.00  0.00     0.206 C 
HETATM   20  C23 UNL     1      -6.103  21.856 -18.409  1.00  0.00     0.083 C 
HETATM   21  O7  UNL     1      -6.876  21.689 -20.693  1.00  0.00    -0.318 OA
HETATM   22  O8  UNL     1      -5.573  23.405 -20.179  1.00  0.00    -0.318 OA
HETATM   23  C24 UNL     1      -4.835  23.339 -21.350  1.00  0.00     0.313 C 
HETATM   24  O9  UNL     1      -3.519  23.248 -21.006  1.00  0.00    -0.319 OA
ENDROOT
BRANCH   1  25
HETATM   25  C6  UNL     1       1.501  22.521 -17.439  1.00  0.00     0.007 C 
HETATM   26  C5  UNL     1       2.602  23.051 -17.819  1.00  0.00    -0.026 C 
BRANCH  26  27
HETATM   27  C4  UNL     1       3.108  23.657 -19.028  1.00  0.00     0.027 C 
BRANCH  27  28
HETATM   28  C3  UNL     1       2.900  25.174 -19.032  1.00  0.00     0.003 C 
BRANCH  28  29
HETATM   29  C2  UNL     1       2.456  25.619 -20.410  1.00  0.00    -0.004 C 
HETATM   30  C1  UNL     1       1.203  26.455 -20.254  1.00  0.00     0.005 C 
ENDBRANCH  28  29
ENDBRANCH  27  28
ENDBRANCH  26  27
ENDBRANCH   1  25
BRANCH   3  31
HETATM   31  O1  UNL     1      -2.739  20.404 -17.260  1.00  0.00    -0.358 OA
ATOM     32  H1  UNL     1      -3.549  20.156 -17.690  1.00  0.00     0.217 HD
ENDBRANCH   3  31
BRANCH  16  33
HETATM   33  O5  UNL     1      -5.597  19.303 -19.498  1.00  0.00    -0.362 OA
HETATM   34  C20 UNL     1      -6.347  18.183 -19.846  1.00  0.00     0.204 C 
ENDBRANCH  16  33
TORSDOF 6
ENDMDL
