MODEL 1
REMARK VINA RESULT: -8.014832326      0.000      0.000
REMARK  9 active torsions:
REMARK  status: ('A' for Active; 'I' for Inactive)
REMARK    1  A    between atoms: C2_2  and  O1_3 
REMARK    2  A    between atoms: O1_3  and  C3_4 
REMARK    3  A    between atoms: C3_4  and  C4_5 
REMARK    4  A    between atoms: C6_7  and  C7_8 
REMARK    5  A    between atoms: C7_8  and  C8_9 
REMARK    6  A    between atoms: C8_9  and  O3_11 
REMARK    7  A    between atoms: C10_13  and  O4_14 
REMARK    8  A    between atoms: C14_19  and  O5_20 
REMARK    9  A    between atoms: C17_24  and  O6_25 
ROOT
HETATM    1  C4  UNL     1       2.690  22.034  19.703  1.00  0.00     0.211 C 
HETATM    2  C5  UNL     1       2.317  23.265  20.497  1.00  0.00     0.050 C 
HETATM    3  C6  UNL     1       2.773  23.106  21.997  1.00  0.00     0.074 C 
HETATM    4  C10 UNL     1       3.881  24.060  22.130  1.00  0.00     0.065 C 
HETATM    5  C11 UNL     1       5.104  23.701  22.889  1.00  0.00     0.038 A 
HETATM    6  C12 UNL     1       5.356  24.253  24.119  1.00  0.00    -0.013 A 
HETATM    7  C13 UNL     1       4.477  25.303  24.703  1.00  0.00     0.052 C 
HETATM    8  C14 UNL     1       6.493  23.974  24.894  1.00  0.00     0.081 A 
HETATM    9  C15 UNL     1       7.427  23.106  24.417  1.00  0.00     0.008 A 
HETATM   10  C16 UNL     1       8.662  22.765  25.197  1.00  0.00     0.054 C 
HETATM   11  C17 UNL     1       7.203  22.538  23.182  1.00  0.00     0.111 A 
HETATM   12  C19 UNL     1       6.075  22.795  22.382  1.00  0.00     0.116 A 
HETATM   13  O7  UNL     1       5.935  22.201  21.168  1.00  0.00    -0.345 OA
HETATM   14  C20 UNL     1       5.340  21.165  20.502  1.00  0.00     0.208 C 
HETATM   15  C21 UNL     1       4.886  21.457  19.098  1.00  0.00     0.206 C 
HETATM   16  C22 UNL     1       6.055  21.892  18.227  1.00  0.00     0.042 C 
HETATM   17  N1  UNL     1       3.828  22.344  18.912  1.00  0.00    -0.063 N 
ATOM     18  H11 UNL     1       4.129  23.305  19.071  1.00  0.00     0.278 HD
ATOM     19  H12 UNL     1       3.576  22.406  17.925  1.00  0.00     0.278 HD
ENDROOT
BRANCH   3  20
HETATM   20  C7  UNL     1       1.501  23.240  22.723  1.00  0.00     0.067 C 
BRANCH  20  21
HETATM   21  C8  UNL     1       0.256  22.718  22.276  1.00  0.00     0.279 C 
HETATM   22  O2  UNL     1      -0.019  21.509  22.141  1.00  0.00    -0.261 OA
BRANCH  21  23
HETATM   23  O3  UNL     1      -0.811  23.586  21.940  1.00  0.00    -0.323 OA
HETATM   24  C9  UNL     1      -0.697  24.970  22.047  1.00  0.00     0.213 C 
ENDBRANCH  21  23
ENDBRANCH  20  21
ENDBRANCH   3  20
BRANCH   4  25
HETATM   25  O4  UNL     1       3.487  25.379  22.401  1.00  0.00    -0.363 OA
ATOM     26  H4  UNL     1       2.618  25.604  22.091  1.00  0.00     0.217 HD
ENDBRANCH   4  25
BRANCH   1  27
HETATM   27  C3  UNL     1       1.505  21.593  18.822  1.00  0.00     0.200 C 
BRANCH  27  28
HETATM   28  O1  UNL     1       1.903  20.539  18.040  1.00  0.00    -0.389 OA
BRANCH  28  29
HETATM   29  C2  UNL     1       1.216  20.407  16.864  1.00  0.00     0.163 C 
HETATM   30  C1  UNL     1       0.459  21.716  16.631  1.00  0.00     0.033 C 
ENDBRANCH  28  29
ENDBRANCH  27  28
ENDBRANCH   1  27
BRANCH   8  31
HETATM   31  O5  UNL     1       6.693  24.564  26.141  1.00  0.00    -0.359 OA
ATOM     32  H5  UNL     1       6.101  25.224  26.480  1.00  0.00     0.217 HD
ENDBRANCH   8  31
BRANCH  11  33
HETATM   33  O6  UNL     1       8.218  21.646  22.739  1.00  0.00    -0.352 OA
HETATM   34  C18 UNL     1       8.091  20.263  22.824  1.00  0.00     0.210 C 
ENDBRANCH  11  33
TORSDOF 9
ENDMDL
MODEL 2
REMARK VINA RESULT: -7.701819998      2.373      6.117
REMARK  9 active torsions:
REMARK  status: ('A' for Active; 'I' for Inactive)
REMARK    1  A    between atoms: C2_2  and  O1_3 
REMARK    2  A    between atoms: O1_3  and  C3_4 
REMARK    3  A    between atoms: C3_4  and  C4_5 
REMARK    4  A    between atoms: C6_7  and  C7_8 
REMARK    5  A    between atoms: C7_8  and  C8_9 
REMARK    6  A    between atoms: C8_9  and  O3_11 
REMARK    7  A    between atoms: C10_13  and  O4_14 
REMARK    8  A    between atoms: C14_19  and  O5_20 
REMARK    9  A    between atoms: C17_24  and  O6_25 
ROOT
HETATM    1  C4  UNL     1       5.995  24.491  23.933  1.00  0.00     0.211 C 
HETATM    2  C5  UNL     1       4.702  23.836  23.507  1.00  0.00     0.050 C 
HETATM    3  C6  UNL     1       4.867  23.174  22.086  1.00  0.00     0.074 C 
HETATM    4  C10 UNL     1       4.835  21.733  22.364  1.00  0.00     0.065 C 
HETATM    5  C11 UNL     1       5.763  20.806  21.669  1.00  0.00     0.038 A 
HETATM    6  C12 UNL     1       5.307  19.955  20.695  1.00  0.00    -0.013 A 
HETATM    7  C13 UNL     1       3.861  19.850  20.359  1.00  0.00     0.052 C 
HETATM    8  C14 UNL     1       6.116  19.042  20.000  1.00  0.00     0.081 A 
HETATM    9  C15 UNL     1       7.443  18.971  20.294  1.00  0.00     0.008 A 
HETATM   10  C16 UNL     1       8.360  18.018  19.587  1.00  0.00     0.054 C 
HETATM   11  C17 UNL     1       7.929  19.811  21.272  1.00  0.00     0.111 A 
HETATM   12  C19 UNL     1       7.147  20.736  21.985  1.00  0.00     0.116 A 
HETATM   13  O7  UNL     1       7.703  21.523  22.945  1.00  0.00    -0.345 OA
HETATM   14  C20 UNL     1       8.211  22.766  23.203  1.00  0.00     0.208 C 
HETATM   15  C21 UNL     1       7.931  23.321  24.573  1.00  0.00     0.206 C 
HETATM   16  C22 UNL     1       8.493  22.412  25.655  1.00  0.00     0.042 C 
HETATM   17  N1  UNL     1       6.618  23.657  24.899  1.00  0.00    -0.063 N 
ATOM     18  H11 UNL     1       6.062  22.819  25.068  1.00  0.00     0.278 HD
ATOM     19  H12 UNL     1       6.572  24.080  25.826  1.00  0.00     0.278 HD
ENDROOT
BRANCH   3  20
HETATM   20  C7  UNL     1       3.835  23.868  21.301  1.00  0.00     0.067 C 
BRANCH  20  21
HETATM   21  C8  UNL     1       2.435  23.679  21.459  1.00  0.00     0.279 C 
HETATM   22  O2  UNL     1       1.702  24.304  22.249  1.00  0.00    -0.261 OA
BRANCH  21  23
HETATM   23  O3  UNL     1       1.746  22.715  20.683  1.00  0.00    -0.323 OA
HETATM   24  C9  UNL     1       1.754  22.746  19.291  1.00  0.00     0.213 C 
ENDBRANCH  21  23
ENDBRANCH  20  21
ENDBRANCH   3  20
BRANCH   4  25
HETATM   25  O4  UNL     1       3.548  21.184  22.458  1.00  0.00    -0.363 OA
ATOM     26  H4  UNL     1       3.527  20.238  22.550  1.00  0.00     0.217 HD
ENDBRANCH   4  25
BRANCH   1  27
HETATM   27  C3  UNL     1       5.715  25.892  24.509  1.00  0.00     0.200 C 
BRANCH  27  28
HETATM   28  O1  UNL     1       5.758  25.826  25.878  1.00  0.00    -0.389 OA
BRANCH  28  29
HETATM   29  C2  UNL     1       4.569  26.090  26.503  1.00  0.00     0.163 C 
HETATM   30  C1  UNL     1       4.624  25.430  27.882  1.00  0.00     0.033 C 
ENDBRANCH  28  29
ENDBRANCH  27  28
ENDBRANCH   1  27
BRANCH   8  31
HETATM   31  O5  UNL     1       5.596  18.205  19.015  1.00  0.00    -0.359 OA
ATOM     32  H5  UNL     1       6.079  18.010  18.220  1.00  0.00     0.217 HD
ENDBRANCH   8  31
BRANCH  11  33
HETATM   33  O6  UNL     1       9.320  19.682  21.536  1.00  0.00    -0.352 OA
HETATM   34  C18 UNL     1      10.274  20.517  20.961  1.00  0.00     0.210 C 
ENDBRANCH  11  33
TORSDOF 9
ENDMDL
MODEL 3
REMARK VINA RESULT: -7.636558496      1.825      4.991
REMARK  9 active torsions:
REMARK  status: ('A' for Active; 'I' for Inactive)
REMARK    1  A    between atoms: C2_2  and  O1_3 
REMARK    2  A    between atoms: O1_3  and  C3_4 
REMARK    3  A    between atoms: C3_4  and  C4_5 
REMARK    4  A    between atoms: C6_7  and  C7_8 
REMARK    5  A    between atoms: C7_8  and  C8_9 
REMARK    6  A    between atoms: C8_9  and  O3_11 
REMARK    7  A    between atoms: C10_13  and  O4_14 
REMARK    8  A    between atoms: C14_19  and  O5_20 
REMARK    9  A    between atoms: C17_24  and  O6_25 
ROOT
HETATM    1  C4  UNL     1       2.975  21.289  19.526  1.00  0.00     0.211 C 
HETATM    2  C5  UNL     1       4.193  20.447  19.826  1.00  0.00     0.050 C 
HETATM    3  C6  UNL     1       5.396  21.365  20.267  1.00  0.00     0.074 C 
HETATM    4  C10 UNL     1       5.554  21.072  21.697  1.00  0.00     0.065 C 
HETATM    5  C11 UNL     1       5.825  22.160  22.669  1.00  0.00     0.038 A 
HETATM    6  C12 UNL     1       7.064  22.302  23.239  1.00  0.00    -0.013 A 
HETATM    7  C13 UNL     1       8.158  21.322  22.992  1.00  0.00     0.052 C 
HETATM    8  C14 UNL     1       7.397  23.296  24.173  1.00  0.00     0.081 A 
HETATM    9  C15 UNL     1       6.447  24.190  24.560  1.00  0.00     0.008 A 
HETATM   10  C16 UNL     1       6.739  25.276  25.552  1.00  0.00     0.054 C 
HETATM   11  C17 UNL     1       5.190  24.071  24.006  1.00  0.00     0.111 A 
HETATM   12  C19 UNL     1       4.825  23.089  23.069  1.00  0.00     0.116 A 
HETATM   13  O7  UNL     1       3.558  23.032  22.580  1.00  0.00    -0.345 OA
HETATM   14  C20 UNL     1       2.761  23.381  21.525  1.00  0.00     0.208 C 
HETATM   15  C21 UNL     1       1.688  22.394  21.154  1.00  0.00     0.206 C 
HETATM   16  C22 UNL     1       0.746  22.148  22.322  1.00  0.00     0.042 C 
HETATM   17  N1  UNL     1       2.072  21.167  20.615  1.00  0.00    -0.063 N 
ATOM     18  H11 UNL     1       2.456  20.558  21.338  1.00  0.00     0.278 HD
ATOM     19  H12 UNL     1       1.255  20.617  20.348  1.00  0.00     0.278 HD
ENDROOT
BRANCH   3  20
HETATM   20  C7  UNL     1       6.418  21.041  19.260  1.00  0.00     0.067 C 
BRANCH  20  21
HETATM   21  C8  UNL     1       7.235  19.878  19.281  1.00  0.00     0.279 C 
HETATM   22  O2  UNL     1       6.825  18.701  19.263  1.00  0.00    -0.261 OA
BRANCH  21  23
HETATM   23  O3  UNL     1       8.646  19.990  19.325  1.00  0.00    -0.323 OA
HETATM   24  C9  UNL     1       9.425  19.185  20.153  1.00  0.00     0.213 C 
ENDBRANCH  21  23
ENDBRANCH  20  21
ENDBRANCH   3  20
BRANCH   4  25
HETATM   25  O4  UNL     1       6.329  19.937  21.980  1.00  0.00    -0.363 OA
ATOM     26  H4  UNL     1       7.085  19.823  21.416  1.00  0.00     0.217 HD
ENDBRANCH   4  25
BRANCH   1  27
HETATM   27  C3  UNL     1       2.322  20.827  18.209  1.00  0.00     0.200 C 
BRANCH  27  28
HETATM   28  O1  UNL     1       1.489  21.817  17.755  1.00  0.00    -0.389 OA
BRANCH  28  29
HETATM   29  C2  UNL     1       0.658  21.445  16.734  1.00  0.00     0.163 C 
HETATM   30  C1  UNL     1       1.135  20.078  16.237  1.00  0.00     0.033 C 
ENDBRANCH  28  29
ENDBRANCH  27  28
ENDBRANCH   1  27
BRANCH   8  31
HETATM   31  O5  UNL     1       8.677  23.392  24.715  1.00  0.00    -0.359 OA
ATOM     32  H5  UNL     1       9.411  23.717  24.207  1.00  0.00     0.217 HD
ENDBRANCH   8  31
BRANCH  11  33
HETATM   33  O6  UNL     1       4.243  25.030  24.458  1.00  0.00    -0.352 OA
HETATM   34  C18 UNL     1       4.021  26.235  23.796  1.00  0.00     0.210 C 
ENDBRANCH  11  33
TORSDOF 9
ENDMDL
MODEL 4
REMARK VINA RESULT: -7.589490287      2.227      4.188
REMARK  9 active torsions:
REMARK  status: ('A' for Active; 'I' for Inactive)
REMARK    1  A    between atoms: C2_2  and  O1_3 
REMARK    2  A    between atoms: O1_3  and  C3_4 
REMARK    3  A    between atoms: C3_4  and  C4_5 
REMARK    4  A    between atoms: C6_7  and  C7_8 
REMARK    5  A    between atoms: C7_8  and  C8_9 
REMARK    6  A    between atoms: C8_9  and  O3_11 
REMARK    7  A    between atoms: C10_13  and  O4_14 
REMARK    8  A    between atoms: C14_19  and  O5_20 
REMARK    9  A    between atoms: C17_24  and  O6_25 
ROOT
HETATM    1  C4  UNL     1       6.542  19.548  20.749  1.00  0.00     0.211 C 
HETATM    2  C5  UNL     1       5.579  20.534  20.128  1.00  0.00     0.050 C 
HETATM    3  C6  UNL     1       4.694  21.208  21.244  1.00  0.00     0.074 C 
HETATM    4  C10 UNL     1       5.181  22.592  21.289  1.00  0.00     0.065 C 
HETATM    5  C11 UNL     1       5.366  23.289  22.586  1.00  0.00     0.038 A 
HETATM    6  C12 UNL     1       4.504  24.280  22.981  1.00  0.00    -0.013 A 
HETATM    7  C13 UNL     1       3.413  24.770  22.095  1.00  0.00     0.052 C 
HETATM    8  C14 UNL     1       4.617  24.994  24.185  1.00  0.00     0.081 A 
HETATM    9  C15 UNL     1       5.641  24.708  25.035  1.00  0.00     0.008 A 
HETATM   10  C16 UNL     1       5.815  25.433  26.336  1.00  0.00     0.054 C 
HETATM   11  C17 UNL     1       6.526  23.719  24.663  1.00  0.00     0.111 A 
HETATM   12  C19 UNL     1       6.441  22.986  23.467  1.00  0.00     0.116 A 
HETATM   13  O7  UNL     1       7.363  22.033  23.169  1.00  0.00    -0.345 OA
HETATM   14  C20 UNL     1       7.615  20.689  23.191  1.00  0.00     0.208 C 
HETATM   15  C21 UNL     1       8.414  20.149  22.037  1.00  0.00     0.206 C 
HETATM   16  C22 UNL     1       9.775  20.824  21.952  1.00  0.00     0.042 C 
HETATM   17  N1  UNL     1       7.832  20.141  20.770  1.00  0.00    -0.063 N 
ATOM     18  H11 UNL     1       7.805  21.083  20.379  1.00  0.00     0.278 HD
ATOM     19  H12 UNL     1       8.448  19.694  20.091  1.00  0.00     0.278 HD
ENDROOT
BRANCH   3  20
HETATM   20  C7  UNL     1       3.333  20.845  20.820  1.00  0.00     0.067 C 
BRANCH  20  21
HETATM   21  C8  UNL     1       2.143  21.432  21.331  1.00  0.00     0.279 C 
HETATM   22  O2  UNL     1       1.572  21.112  22.391  1.00  0.00    -0.261 OA
BRANCH  21  23
HETATM   23  O3  UNL     1       1.497  22.478  20.628  1.00  0.00    -0.323 OA
HETATM   24  C9  UNL     1       1.418  22.494  19.238  1.00  0.00     0.213 C 
ENDBRANCH  21  23
ENDBRANCH  20  21
ENDBRANCH   3  20
BRANCH   4  25
HETATM   25  O4  UNL     1       4.609  23.446  20.334  1.00  0.00    -0.363 OA
ATOM     26  H4  UNL     1       5.216  24.057  19.935  1.00  0.00     0.217 HD
ENDBRANCH   4  25
BRANCH   1  27
HETATM   27  C3  UNL     1       6.549  18.235  19.942  1.00  0.00     0.200 C 
BRANCH  27  28
HETATM   28  O1  UNL     1       7.383  18.381  18.863  1.00  0.00    -0.389 OA
BRANCH  28  29
HETATM   29  C2  UNL     1       8.583  17.733  18.974  1.00  0.00     0.163 C 
HETATM   30  C1  UNL     1       9.683  18.782  18.800  1.00  0.00     0.033 C 
ENDBRANCH  28  29
ENDBRANCH  27  28
ENDBRANCH   1  27
BRANCH   8  31
HETATM   31  O5  UNL     1       3.706  25.989  24.535  1.00  0.00    -0.359 OA
ATOM     32  H5  UNL     1       3.991  26.854  24.805  1.00  0.00     0.217 HD
ENDBRANCH   8  31
BRANCH  11  33
HETATM   33  O6  UNL     1       7.576  23.474  25.590  1.00  0.00    -0.352 OA
HETATM   34  C18 UNL     1       8.862  23.120  25.192  1.00  0.00     0.210 C 
ENDBRANCH  11  33
TORSDOF 9
ENDMDL
MODEL 5
REMARK VINA RESULT: -7.525126280      2.106      7.309
REMARK  9 active torsions:
REMARK  status: ('A' for Active; 'I' for Inactive)
REMARK    1  A    between atoms: C2_2  and  O1_3 
REMARK    2  A    between atoms: O1_3  and  C3_4 
REMARK    3  A    between atoms: C3_4  and  C4_5 
REMARK    4  A    between atoms: C6_7  and  C7_8 
REMARK    5  A    between atoms: C7_8  and  C8_9 
REMARK    6  A    between atoms: C8_9  and  O3_11 
REMARK    7  A    between atoms: C10_13  and  O4_14 
REMARK    8  A    between atoms: C14_19  and  O5_20 
REMARK    9  A    between atoms: C17_24  and  O6_25 
ROOT
HETATM    1  C4  UNL     1       6.268  22.177  22.667  1.00  0.00     0.211 C 
HETATM    2  C5  UNL     1       6.253  21.791  21.206  1.00  0.00     0.050 C 
HETATM    3  C6  UNL     1       4.833  21.238  20.801  1.00  0.00     0.074 C 
HETATM    4  C10 UNL     1       4.281  22.288  19.937  1.00  0.00     0.065 C 
HETATM    5  C11 UNL     1       2.857  22.691  20.047  1.00  0.00     0.038 A 
HETATM    6  C12 UNL     1       1.950  22.340  19.080  1.00  0.00    -0.013 A 
HETATM    7  C13 UNL     1       2.363  21.634  17.836  1.00  0.00     0.052 C 
HETATM    8  C14 UNL     1       0.591  22.691  19.105  1.00  0.00     0.081 A 
HETATM    9  C15 UNL     1       0.114  23.431  20.144  1.00  0.00     0.008 A 
HETATM   10  C16 UNL     1      -1.327  23.836  20.230  1.00  0.00     0.054 C 
HETATM   11  C17 UNL     1       1.003  23.801  21.129  1.00  0.00     0.111 A 
HETATM   12  C19 UNL     1       2.368  23.466  21.134  1.00  0.00     0.116 A 
HETATM   13  O7  UNL     1       3.182  23.881  22.141  1.00  0.00    -0.345 OA
HETATM   14  C20 UNL     1       3.772  23.506  23.316  1.00  0.00     0.208 C 
HETATM   15  C21 UNL     1       5.155  24.044  23.561  1.00  0.00     0.206 C 
HETATM   16  C22 UNL     1       5.156  25.565  23.565  1.00  0.00     0.042 C 
HETATM   17  N1  UNL     1       6.197  23.592  22.753  1.00  0.00    -0.063 N 
ATOM     18  H11 UNL     1       6.142  24.010  21.824  1.00  0.00     0.278 HD
ATOM     19  H12 UNL     1       7.089  23.981  23.060  1.00  0.00     0.278 HD
ENDROOT
BRANCH   3  20
HETATM   20  C7  UNL     1       5.154  19.885  20.323  1.00  0.00     0.067 C 
BRANCH  20  21
HETATM   21  C8  UNL     1       6.349  19.530  19.640  1.00  0.00     0.279 C 
HETATM   22  O2  UNL     1       6.978  20.260  18.849  1.00  0.00    -0.261 OA
BRANCH  21  23
HETATM   23  O3  UNL     1       6.934  18.254  19.827  1.00  0.00    -0.323 OA
HETATM   24  C9  UNL     1       7.436  17.846  21.060  1.00  0.00     0.213 C 
ENDBRANCH  21  23
ENDBRANCH  20  21
ENDBRANCH   3  20
BRANCH   4  25
HETATM   25  O4  UNL     1       4.682  22.211  18.594  1.00  0.00    -0.363 OA
ATOM     26  H4  UNL     1       4.756  23.050  18.154  1.00  0.00     0.217 HD
ENDBRANCH   4  25
BRANCH   1  27
HETATM   27  C3  UNL     1       7.545  21.643  23.343  1.00  0.00     0.200 C 
BRANCH  27  28
HETATM   28  O1  UNL     1       8.168  20.771  22.487  1.00  0.00    -0.389 OA
BRANCH  28  29
HETATM   29  C2  UNL     1       9.535  20.835  22.498  1.00  0.00     0.163 C 
HETATM   30  C1  UNL     1      10.019  20.455  21.096  1.00  0.00     0.033 C 
ENDBRANCH  28  29
ENDBRANCH  27  28
ENDBRANCH   1  27
BRANCH   8  31
HETATM   31  O5  UNL     1      -0.285  22.302  18.094  1.00  0.00    -0.359 OA
ATOM     32  H5  UNL     1      -0.060  21.617  17.475  1.00  0.00     0.217 HD
ENDBRANCH   8  31
BRANCH  11  33
HETATM   33  O6  UNL     1       0.443  24.577  22.181  1.00  0.00    -0.352 OA
HETATM   34  C18 UNL     1       0.065  24.026  23.402  1.00  0.00     0.210 C 
ENDBRANCH  11  33
TORSDOF 9
ENDMDL
