MODEL 1
REMARK VINA RESULT: -9.742505960      0.000      0.000
REMARK  9 active torsions:
REMARK  status: ('A' for Active; 'I' for Inactive)
REMARK    1  A    between atoms: O1_1  and  N1_3 
REMARK    2  A    between atoms: N1_3  and  N2_5 
REMARK    3  A    between atoms: N2_5  and  C1_6 
REMARK       I    between atoms: N2_5  and  C8_25 
REMARK    4  A    between atoms: C1_6  and  C2_7 
REMARK    5  A    between atoms: C3_9  and  C4_10 
REMARK       I    between atoms: C4_10  and  N3_12 
REMARK    6  A    between atoms: N3_12  and  N4_14 
REMARK    7  A    between atoms: N4_14  and  C5_16 
REMARK    8  A    between atoms: C7_22  and  O4_23 
REMARK       I    between atoms: C8_25  and  N7_27 
REMARK    9  A    between atoms: N7_27  and  C9_29 
ROOT
HETATM    1  N2  UNL     1       7.161  23.615  24.210  1.00  0.00    -0.221 N 
HETATM    2  C8  UNL     1       7.083  22.690  23.139  1.00  0.00     0.339 C 
HETATM    3  O5  UNL     1       6.330  22.980  22.178  1.00  0.00    -0.245 OA
HETATM    4  N7  UNL     1       7.807  21.483  23.117  1.00  0.00    -0.332 N 
ATOM      5  H7  UNL     1       8.417  21.257  23.902  1.00  0.00     0.165 HD
ENDROOT
BRANCH   1   6
HETATM    6  N1  UNL     1       7.986  23.315  25.283  1.00  0.00    -0.204 N 
ATOM      7  H1  UNL     1       7.574  23.123  26.197  1.00  0.00     0.216 HD
BRANCH   6   8
HETATM    8  O1  UNL     1       9.228  23.277  25.148  1.00  0.00    -0.274 OA
ATOM      9  H1  UNL     1       9.711  22.473  25.299  1.00  0.00     0.246 HD
ENDBRANCH   6   8
ENDBRANCH   1   6
BRANCH   1  10
HETATM   10  C1  UNL     1       6.409  24.819  24.185  1.00  0.00     0.191 C 
BRANCH  10  11
HETATM   11  C2  UNL     1       4.941  24.653  24.338  1.00  0.00     0.181 A 
HETATM   12  O2  UNL     1       4.115  25.702  24.654  1.00  0.00    -0.364 OA
HETATM   13  C3  UNL     1       4.084  25.362  23.313  1.00  0.00     0.246 A 
BRANCH  13  14
HETATM   14  C4  UNL     1       2.979  24.570  22.768  1.00  0.00     0.267 C 
HETATM   15  O3  UNL     1       1.857  24.623  23.318  1.00  0.00    -0.269 OA
HETATM   16  N3  UNL     1       3.145  23.744  21.635  1.00  0.00    -0.266 N 
ATOM     17  H3  UNL     1       3.801  24.056  20.918  1.00  0.00     0.190 HD
BRANCH  16  18
HETATM   18  N4  UNL     1       2.545  22.649  21.435  1.00  0.00    -0.279 N 
ATOM     19  H4  UNL     1       1.972  22.236  22.170  1.00  0.00     0.189 HD
BRANCH  18  20
HETATM   20  C5  UNL     1       2.676  21.997  20.180  1.00  0.00     0.173 A 
HETATM   21  N5  UNL     1       1.816  21.174  19.549  1.00  0.00    -0.334 N 
HETATM   22  C6  UNL     1       2.318  20.766  18.376  1.00  0.00     0.184 A 
ATOM     23  H5  UNL     1       0.904  20.898  19.914  1.00  0.00     0.168 HD
HETATM   24  N6  UNL     1       3.527  21.322  18.219  1.00  0.00    -0.330 N 
HETATM   25  C7  UNL     1       3.769  22.083  19.313  1.00  0.00     0.187 A 
ATOM     26  H6  UNL     1       4.150  21.197  17.422  1.00  0.00     0.168 HD
BRANCH  25  27
HETATM   27  O4  UNL     1       4.881  22.851  19.612  1.00  0.00    -0.343 OA
ATOM     28  H4  UNL     1       5.755  22.478  19.646  1.00  0.00     0.219 HD
ENDBRANCH  25  27
ENDBRANCH  18  20
ENDBRANCH  16  18
ENDBRANCH  13  14
ENDBRANCH  10  11
ENDBRANCH   1  10
BRANCH   4  29
HETATM   29  C9  UNL     1       7.709  20.564  22.024  1.00  0.00     0.035 C 
HETATM   30  C10 UNL     1       8.279  19.185  22.461  1.00  0.00     0.035 C 
HETATM   31  C11 UNL     1       8.078  18.216  21.345  1.00  0.00    -0.012 C 
HETATM   32  C12 UNL     1       6.619  18.011  21.004  1.00  0.00     0.009 C 
HETATM   33  C16 UNL     1       8.795  18.613  20.091  1.00  0.00     0.009 C 
HETATM   34  C13 UNL     1       6.029  19.335  20.605  1.00  0.00    -0.012 C 
HETATM   35  C14 UNL     1       6.757  19.888  19.412  1.00  0.00     0.009 C 
HETATM   36  C18 UNL     1       6.245  20.293  21.757  1.00  0.00     0.035 C 
HETATM   37  C15 UNL     1       8.220  19.975  19.694  1.00  0.00    -0.012 C 
HETATM   38  C17 UNL     1       8.498  20.943  20.815  1.00  0.00     0.035 C 
ENDBRANCH   4  29
TORSDOF 9
ENDMDL
MODEL 2
REMARK VINA RESULT: -9.722238880      0.144      1.390
REMARK  9 active torsions:
REMARK  status: ('A' for Active; 'I' for Inactive)
REMARK    1  A    between atoms: O1_1  and  N1_3 
REMARK    2  A    between atoms: N1_3  and  N2_5 
REMARK    3  A    between atoms: N2_5  and  C1_6 
REMARK       I    between atoms: N2_5  and  C8_25 
REMARK    4  A    between atoms: C1_6  and  C2_7 
REMARK    5  A    between atoms: C3_9  and  C4_10 
REMARK       I    between atoms: C4_10  and  N3_12 
REMARK    6  A    between atoms: N3_12  and  N4_14 
REMARK    7  A    between atoms: N4_14  and  C5_16 
REMARK    8  A    between atoms: C7_22  and  O4_23 
REMARK       I    between atoms: C8_25  and  N7_27 
REMARK    9  A    between atoms: N7_27  and  C9_29 
ROOT
HETATM    1  N2  UNL     1       7.107  23.674  24.234  1.00  0.00    -0.221 N 
HETATM    2  C8  UNL     1       6.978  22.730  23.184  1.00  0.00     0.339 C 
HETATM    3  O5  UNL     1       6.198  23.015  22.244  1.00  0.00    -0.245 OA
HETATM    4  N7  UNL     1       7.683  21.512  23.160  1.00  0.00    -0.332 N 
ATOM      5  H7  UNL     1       8.316  21.291  23.928  1.00  0.00     0.165 HD
ENDROOT
BRANCH   1   6
HETATM    6  N1  UNL     1       7.964  23.381  25.284  1.00  0.00    -0.204 N 
ATOM      7  H1  UNL     1       7.581  23.226  26.217  1.00  0.00     0.216 HD
BRANCH   6   8
HETATM    8  O1  UNL     1       9.198  23.303  25.104  1.00  0.00    -0.274 OA
ATOM      9  H1  UNL     1       9.593  22.506  24.770  1.00  0.00     0.246 HD
ENDBRANCH   6   8
ENDBRANCH   1   6
BRANCH   1  10
HETATM   10  C1  UNL     1       6.373  24.889  24.212  1.00  0.00     0.191 C 
BRANCH  10  11
HETATM   11  C2  UNL     1       4.900  24.742  24.333  1.00  0.00     0.181 A 
HETATM   12  O2  UNL     1       4.075  25.810  24.579  1.00  0.00    -0.364 OA
HETATM   13  C3  UNL     1       4.076  25.410  23.255  1.00  0.00     0.246 A 
BRANCH  13  14
HETATM   14  C4  UNL     1       2.979  24.603  22.717  1.00  0.00     0.267 C 
HETATM   15  O3  UNL     1       1.852  24.663  23.257  1.00  0.00    -0.269 OA
HETATM   16  N3  UNL     1       3.157  23.754  21.602  1.00  0.00    -0.266 N 
ATOM     17  H3  UNL     1       3.818  24.055  20.885  1.00  0.00     0.190 HD
BRANCH  16  18
HETATM   18  N4  UNL     1       2.563  22.653  21.420  1.00  0.00    -0.279 N 
ATOM     19  H4  UNL     1       2.004  22.242  22.167  1.00  0.00     0.189 HD
BRANCH  18  20
HETATM   20  C5  UNL     1       2.680  21.993  20.168  1.00  0.00     0.173 A 
HETATM   21  N5  UNL     1       1.809  21.171  19.549  1.00  0.00    -0.334 N 
HETATM   22  C6  UNL     1       2.300  20.753  18.375  1.00  0.00     0.184 A 
ATOM     23  H5  UNL     1       0.898  20.905  19.923  1.00  0.00     0.168 HD
HETATM   24  N6  UNL     1       3.511  21.299  18.206  1.00  0.00    -0.330 N 
HETATM   25  C7  UNL     1       3.768  22.065  19.293  1.00  0.00     0.187 A 
ATOM     26  H6  UNL     1       4.128  21.164  17.405  1.00  0.00     0.168 HD
BRANCH  25  27
HETATM   27  O4  UNL     1       4.887  22.826  19.579  1.00  0.00    -0.343 OA
ATOM     28  H4  UNL     1       5.728  22.430  19.773  1.00  0.00     0.219 HD
ENDBRANCH  25  27
ENDBRANCH  18  20
ENDBRANCH  16  18
ENDBRANCH  13  14
ENDBRANCH  10  11
ENDBRANCH   1  10
BRANCH   4  29
HETATM   29  C9  UNL     1       7.534  20.574  22.089  1.00  0.00     0.035 C 
HETATM   30  C10 UNL     1       8.182  21.158  20.802  1.00  0.00     0.035 C 
HETATM   31  C11 UNL     1       8.106  20.128  19.727  1.00  0.00    -0.012 C 
HETATM   32  C12 UNL     1       8.857  18.862  20.073  1.00  0.00     0.009 C 
HETATM   33  C16 UNL     1       6.698  19.751  19.379  1.00  0.00     0.009 C 
HETATM   34  C13 UNL     1       8.272  18.287  21.333  1.00  0.00    -0.012 C 
HETATM   35  C14 UNL     1       6.816  17.975  21.133  1.00  0.00     0.009 C 
HETATM   36  C18 UNL     1       8.368  19.352  22.405  1.00  0.00     0.035 C 
HETATM   37  C15 UNL     1       6.085  19.191  20.665  1.00  0.00    -0.012 C 
HETATM   38  C17 UNL     1       6.122  20.277  21.710  1.00  0.00     0.035 C 
ENDBRANCH   4  29
TORSDOF 9
ENDMDL
MODEL 3
REMARK VINA RESULT: -9.565869231      0.087      1.342
REMARK  9 active torsions:
REMARK  status: ('A' for Active; 'I' for Inactive)
REMARK    1  A    between atoms: O1_1  and  N1_3 
REMARK    2  A    between atoms: N1_3  and  N2_5 
REMARK    3  A    between atoms: N2_5  and  C1_6 
REMARK       I    between atoms: N2_5  and  C8_25 
REMARK    4  A    between atoms: C1_6  and  C2_7 
REMARK    5  A    between atoms: C3_9  and  C4_10 
REMARK       I    between atoms: C4_10  and  N3_12 
REMARK    6  A    between atoms: N3_12  and  N4_14 
REMARK    7  A    between atoms: N4_14  and  C5_16 
REMARK    8  A    between atoms: C7_22  and  O4_23 
REMARK       I    between atoms: C8_25  and  N7_27 
REMARK    9  A    between atoms: N7_27  and  C9_29 
ROOT
HETATM    1  N2  UNL     1       7.172  23.620  24.217  1.00  0.00    -0.221 N 
HETATM    2  C8  UNL     1       7.075  22.652  23.187  1.00  0.00     0.339 C 
HETATM    3  O5  UNL     1       6.303  22.900  22.230  1.00  0.00    -0.245 OA
HETATM    4  N7  UNL     1       7.801  21.445  23.201  1.00  0.00    -0.332 N 
ATOM      5  H7  UNL     1       8.427  21.253  23.983  1.00  0.00     0.165 HD
ENDROOT
BRANCH   1   6
HETATM    6  N1  UNL     1       8.019  23.366  25.285  1.00  0.00    -0.204 N 
ATOM      7  H1  UNL     1       7.626  23.237  26.219  1.00  0.00     0.216 HD
BRANCH   6   8
HETATM    8  O1  UNL     1       9.255  23.294  25.122  1.00  0.00    -0.274 OA
ATOM      9  H1  UNL     1       9.835  23.953  25.485  1.00  0.00     0.246 HD
ENDBRANCH   6   8
ENDBRANCH   1   6
BRANCH   1  10
HETATM   10  C1  UNL     1       6.417  24.822  24.157  1.00  0.00     0.191 C 
BRANCH  10  11
HETATM   11  C2  UNL     1       4.950  24.657  24.320  1.00  0.00     0.181 A 
HETATM   12  O2  UNL     1       4.126  25.708  24.634  1.00  0.00    -0.364 OA
HETATM   13  C3  UNL     1       4.087  25.361  23.296  1.00  0.00     0.246 A 
BRANCH  13  14
HETATM   14  C4  UNL     1       2.979  24.566  22.761  1.00  0.00     0.267 C 
HETATM   15  O3  UNL     1       1.865  24.606  23.331  1.00  0.00    -0.269 OA
HETATM   16  N3  UNL     1       3.131  23.751  21.618  1.00  0.00    -0.266 N 
ATOM     17  H3  UNL     1       3.772  24.075  20.894  1.00  0.00     0.190 HD
BRANCH  16  18
HETATM   18  N4  UNL     1       2.536  22.654  21.418  1.00  0.00    -0.279 N 
ATOM     19  H4  UNL     1       1.954  22.245  22.149  1.00  0.00     0.189 HD
BRANCH  18  20
HETATM   20  C5  UNL     1       2.683  21.995  20.169  1.00  0.00     0.173 A 
HETATM   21  N5  UNL     1       1.834  21.162  19.535  1.00  0.00    -0.334 N 
HETATM   22  C6  UNL     1       2.350  20.749  18.369  1.00  0.00     0.184 A 
ATOM     23  H5  UNL     1       0.920  20.884  19.893  1.00  0.00     0.168 HD
HETATM   24  N6  UNL     1       3.557  21.312  18.221  1.00  0.00    -0.330 N 
HETATM   25  C7  UNL     1       3.784  22.081  19.313  1.00  0.00     0.187 A 
ATOM     26  H6  UNL     1       4.189  21.184  17.431  1.00  0.00     0.168 HD
BRANCH  25  27
HETATM   27  O4  UNL     1       4.888  22.858  19.617  1.00  0.00    -0.343 OA
ATOM     28  H4  UNL     1       4.837  23.805  19.669  1.00  0.00     0.219 HD
ENDBRANCH  25  27
ENDBRANCH  18  20
ENDBRANCH  16  18
ENDBRANCH  13  14
ENDBRANCH  10  11
ENDBRANCH   1  10
BRANCH   4  29
HETATM   29  C9  UNL     1       7.683  20.482  22.150  1.00  0.00     0.035 C 
HETATM   30  C10 UNL     1       6.184  20.308  21.777  1.00  0.00     0.035 C 
HETATM   31  C11 UNL     1       6.091  19.377  20.616  1.00  0.00    -0.012 C 
HETATM   32  C12 UNL     1       6.802  19.901  19.387  1.00  0.00     0.009 C 
HETATM   33  C16 UNL     1       6.631  18.012  20.917  1.00  0.00     0.009 C 
HETATM   34  C13 UNL     1       8.253  20.107  19.725  1.00  0.00    -0.012 C 
HETATM   35  C14 UNL     1       8.874  18.809  20.157  1.00  0.00     0.009 C 
HETATM   36  C18 UNL     1       8.313  21.057  20.901  1.00  0.00     0.035 C 
HETATM   37  C15 UNL     1       8.102  18.218  21.290  1.00  0.00    -0.012 C 
HETATM   38  C17 UNL     1       8.155  19.110  22.503  1.00  0.00     0.035 C 
ENDBRANCH   4  29
TORSDOF 9
ENDMDL
MODEL 4
REMARK VINA RESULT: -9.346857910      2.388      3.361
REMARK  9 active torsions:
REMARK  status: ('A' for Active; 'I' for Inactive)
REMARK    1  A    between atoms: O1_1  and  N1_3 
REMARK    2  A    between atoms: N1_3  and  N2_5 
REMARK    3  A    between atoms: N2_5  and  C1_6 
REMARK       I    between atoms: N2_5  and  C8_25 
REMARK    4  A    between atoms: C1_6  and  C2_7 
REMARK    5  A    between atoms: C3_9  and  C4_10 
REMARK       I    between atoms: C4_10  and  N3_12 
REMARK    6  A    between atoms: N3_12  and  N4_14 
REMARK    7  A    between atoms: N4_14  and  C5_16 
REMARK    8  A    between atoms: C7_22  and  O4_23 
REMARK       I    between atoms: C8_25  and  N7_27 
REMARK    9  A    between atoms: N7_27  and  C9_29 
ROOT
HETATM    1  N2  UNL     1       4.663  23.604  22.172  1.00  0.00    -0.221 N 
HETATM    2  C8  UNL     1       5.360  22.544  21.540  1.00  0.00     0.339 C 
HETATM    3  O5  UNL     1       5.035  22.259  20.362  1.00  0.00    -0.245 OA
HETATM    4  N7  UNL     1       6.384  21.816  22.176  1.00  0.00    -0.332 N 
ATOM      5  H7  UNL     1       6.642  22.057  23.133  1.00  0.00     0.165 HD
ENDROOT
BRANCH   1   6
HETATM    6  N1  UNL     1       5.004  23.937  23.474  1.00  0.00    -0.204 N 
ATOM      7  H1  UNL     1       4.277  23.988  24.187  1.00  0.00     0.216 HD
BRANCH   6   8
HETATM    8  O1  UNL     1       6.191  24.174  23.786  1.00  0.00    -0.274 OA
ATOM      9  H1  UNL     1       6.555  23.853  24.602  1.00  0.00     0.246 HD
ENDBRANCH   6   8
ENDBRANCH   1   6
BRANCH   1  10
HETATM   10  C1  UNL     1       3.636  24.307  21.487  1.00  0.00     0.191 C 
BRANCH  10  11
HETATM   11  C2  UNL     1       2.411  23.518  21.199  1.00  0.00     0.181 A 
HETATM   12  O2  UNL     1       1.181  24.105  21.047  1.00  0.00    -0.364 OA
HETATM   13  C3  UNL     1       1.774  23.754  19.847  1.00  0.00     0.246 A 
BRANCH  13  14
HETATM   14  C4  UNL     1       1.359  22.545  19.133  1.00  0.00     0.267 C 
HETATM   15  O3  UNL     1       0.298  21.971  19.466  1.00  0.00    -0.269 OA
HETATM   16  N3  UNL     1       2.123  22.005  18.076  1.00  0.00    -0.266 N 
ATOM     17  H3  UNL     1       2.632  22.661  17.483  1.00  0.00     0.190 HD
BRANCH  16  18
HETATM   18  N4  UNL     1       2.228  20.775  17.804  1.00  0.00    -0.279 N 
ATOM     19  H4  UNL     1       3.038  20.246  18.125  1.00  0.00     0.189 HD
BRANCH  18  20
HETATM   20  C5  UNL     1       1.210  20.135  17.047  1.00  0.00     0.173 A 
HETATM   21  N5  UNL     1       0.038  19.612  17.458  1.00  0.00    -0.334 N 
HETATM   22  C6  UNL     1      -0.642  19.095  16.426  1.00  0.00     0.184 A 
ATOM     23  H5  UNL     1      -0.288  19.611  18.425  1.00  0.00     0.168 HD
HETATM   24  N6  UNL     1       0.081  19.275  15.313  1.00  0.00    -0.330 N 
HETATM   25  C7  UNL     1       1.223  19.911  15.668  1.00  0.00     0.187 A 
ATOM     26  H6  UNL     1      -0.181  18.985  14.371  1.00  0.00     0.168 HD
BRANCH  25  27
HETATM   27  O4  UNL     1       2.280  20.313  14.870  1.00  0.00    -0.343 OA
ATOM     28  H4  UNL     1       2.990  19.724  14.642  1.00  0.00     0.219 HD
ENDBRANCH  25  27
ENDBRANCH  18  20
ENDBRANCH  16  18
ENDBRANCH  13  14
ENDBRANCH  10  11
ENDBRANCH   1  10
BRANCH   4  29
HETATM   29  C9  UNL     1       7.072  20.748  21.518  1.00  0.00     0.035 C 
HETATM   30  C10 UNL     1       8.150  20.165  22.474  1.00  0.00     0.035 C 
HETATM   31  C11 UNL     1       8.786  18.992  21.808  1.00  0.00    -0.012 C 
HETATM   32  C12 UNL     1       7.802  17.883  21.512  1.00  0.00     0.009 C 
HETATM   33  C16 UNL     1       9.479  19.352  20.529  1.00  0.00     0.009 C 
HETATM   34  C13 UNL     1       6.728  18.423  20.610  1.00  0.00    -0.012 C 
HETATM   35  C14 UNL     1       7.330  18.924  19.328  1.00  0.00     0.009 C 
HETATM   36  C18 UNL     1       6.100  19.607  21.314  1.00  0.00     0.035 C 
HETATM   37  C15 UNL     1       8.396  19.930  19.615  1.00  0.00    -0.012 C 
HETATM   38  C17 UNL     1       7.820  21.149  20.290  1.00  0.00     0.035 C 
ENDBRANCH   4  29
TORSDOF 9
ENDMDL
MODEL 5
REMARK VINA RESULT: -9.297586202      2.743      3.927
REMARK  9 active torsions:
REMARK  status: ('A' for Active; 'I' for Inactive)
REMARK    1  A    between atoms: O1_1  and  N1_3 
REMARK    2  A    between atoms: N1_3  and  N2_5 
REMARK    3  A    between atoms: N2_5  and  C1_6 
REMARK       I    between atoms: N2_5  and  C8_25 
REMARK    4  A    between atoms: C1_6  and  C2_7 
REMARK    5  A    between atoms: C3_9  and  C4_10 
REMARK       I    between atoms: C4_10  and  N3_12 
REMARK    6  A    between atoms: N3_12  and  N4_14 
REMARK    7  A    between atoms: N4_14  and  C5_16 
REMARK    8  A    between atoms: C7_22  and  O4_23 
REMARK       I    between atoms: C8_25  and  N7_27 
REMARK    9  A    between atoms: N7_27  and  C9_29 
ROOT
HETATM    1  N2  UNL     1       3.735  22.598  21.508  1.00  0.00    -0.221 N 
HETATM    2  C8  UNL     1       4.710  21.570  21.556  1.00  0.00     0.339 C 
HETATM    3  O5  UNL     1       4.505  20.614  22.341  1.00  0.00    -0.245 OA
HETATM    4  N7  UNL     1       5.876  21.586  20.767  1.00  0.00    -0.332 N 
ATOM      5  H7  UNL     1       6.032  22.367  20.130  1.00  0.00     0.165 HD
ENDROOT
BRANCH   1   6
HETATM    6  N1  UNL     1       3.940  23.665  20.647  1.00  0.00    -0.204 N 
ATOM      7  H1  UNL     1       4.809  23.721  20.114  1.00  0.00     0.216 HD
BRANCH   6   8
HETATM    8  O1  UNL     1       3.078  24.559  20.515  1.00  0.00    -0.274 OA
ATOM      9  H1  UNL     1       3.330  25.463  20.362  1.00  0.00     0.246 HD
ENDBRANCH   6   8
ENDBRANCH   1   6
BRANCH   1  10
HETATM   10  C1  UNL     1       2.575  22.536  22.326  1.00  0.00     0.191 C 
BRANCH  10  11
HETATM   11  C2  UNL     1       1.406  21.854  21.716  1.00  0.00     0.181 A 
HETATM   12  O2  UNL     1       0.326  21.447  22.459  1.00  0.00    -0.364 OA
HETATM   13  C3  UNL     1       0.099  22.616  21.754  1.00  0.00     0.246 A 
BRANCH  13  14
HETATM   14  C4  UNL     1      -0.669  22.600  20.507  1.00  0.00     0.267 C 
HETATM   15  O3  UNL     1      -1.718  21.922  20.443  1.00  0.00    -0.269 OA
HETATM   16  N3  UNL     1      -0.258  23.331  19.371  1.00  0.00    -0.266 N 
ATOM     17  H3  UNL     1       0.220  24.218  19.532  1.00  0.00     0.190 HD
BRANCH  16  18
HETATM   18  N4  UNL     1      -0.436  22.976  18.171  1.00  0.00    -0.279 N 
ATOM     19  H4  UNL     1      -1.095  23.480  17.579  1.00  0.00     0.189 HD
BRANCH  18  20
HETATM   20  C5  UNL     1       0.290  21.871  17.652  1.00  0.00     0.173 A 
HETATM   21  N5  UNL     1      -0.160  20.782  16.998  1.00  0.00    -0.334 N 
HETATM   22  C6  UNL     1       0.852  19.966  16.676  1.00  0.00     0.184 A 
ATOM     23  H5  UNL     1      -1.140  20.603  16.778  1.00  0.00     0.168 HD
HETATM   24  N6  UNL     1       1.992  20.515  17.117  1.00  0.00    -0.330 N 
HETATM   25  C7  UNL     1       1.674  21.685  17.720  1.00  0.00     0.187 A 
ATOM     26  H6  UNL     1       2.928  20.123  17.017  1.00  0.00     0.168 HD
BRANCH  25  27
HETATM   27  O4  UNL     1       2.507  22.607  18.328  1.00  0.00    -0.343 OA
ATOM     28  H4  UNL     1       2.669  22.597  19.265  1.00  0.00     0.219 HD
ENDBRANCH  25  27
ENDBRANCH  18  20
ENDBRANCH  16  18
ENDBRANCH  13  14
ENDBRANCH  10  11
ENDBRANCH   1  10
BRANCH   4  29
HETATM   29  C9  UNL     1       6.847  20.538  20.834  1.00  0.00     0.035 C 
HETATM   30  C10 UNL     1       7.888  20.727  19.695  1.00  0.00     0.035 C 
HETATM   31  C11 UNL     1       8.944  19.686  19.842  1.00  0.00    -0.012 C 
HETATM   32  C12 UNL     1       9.691  19.791  21.153  1.00  0.00     0.009 C 
HETATM   33  C16 UNL     1       8.410  18.291  19.724  1.00  0.00     0.009 C 
HETATM   34  C13 UNL     1       8.706  19.640  22.279  1.00  0.00    -0.012 C 
HETATM   35  C14 UNL     1       8.018  18.307  22.192  1.00  0.00     0.009 C 
HETATM   36  C18 UNL     1       7.651  20.711  22.104  1.00  0.00     0.035 C 
HETATM   37  C15 UNL     1       7.384  18.139  20.850  1.00  0.00    -0.012 C 
HETATM   38  C17 UNL     1       6.300  19.164  20.634  1.00  0.00     0.035 C 
ENDBRANCH   4  29
TORSDOF 9
ENDMDL
