MODEL 1
REMARK VINA RESULT: -8.112763466      0.000      0.000
REMARK  6 active torsions:
REMARK  status: ('A' for Active; 'I' for Inactive)
REMARK    1  A    between atoms: C4_6  and  C5_7 
REMARK    2  A    between atoms: C5_7  and  N3_11 
REMARK    3  A    between atoms: N3_11  and  C6_13 
REMARK    4  A    between atoms: C6_13  and  C7_14 
REMARK    5  A    between atoms: C7_14  and  O1_15 
REMARK    6  A    between atoms: O1_15  and  C8_16 
ROOT
HETATM    1  C5  UNL     1      69.583  -8.465  32.372  1.00  0.00     0.140 C 
HETATM    2  N2  UNL     1      69.760  -8.011  31.177  1.00  0.00    -0.383 N 
ATOM      3  H21 UNL     1      70.039  -7.045  30.999  1.00  0.00     0.157 HD
ATOM      4  H22 UNL     1      69.616  -8.648  30.393  1.00  0.00     0.157 HD
ENDROOT
BRANCH   1   5
HETATM    5  C4  UNL     1      69.184  -9.843  32.626  1.00  0.00     0.149 A 
HETATM    6  N1  UNL     1      69.906 -10.952  32.395  1.00  0.00    -0.347 N 
HETATM    7  C3  UNL     1      69.205 -12.062  32.755  1.00  0.00     0.114 A 
ATOM      8  H1  UNL     1      70.848 -10.960  32.005  1.00  0.00     0.167 HD
HETATM    9  C2  UNL     1      67.988 -11.614  33.232  1.00  0.00     0.022 A 
HETATM   10  C1  UNL     1      66.922 -12.520  33.733  1.00  0.00     0.069 C 
HETATM   11  N4  UNL     1      68.014 -10.289  33.139  1.00  0.00    -0.342 N 
ATOM     12  H4  UNL     1      67.244  -9.681  33.420  1.00  0.00     0.167 HD
ENDBRANCH   1   5
BRANCH   1  13
HETATM   13  N3  UNL     1      69.782  -7.584  33.457  1.00  0.00    -0.372 N 
ATOM     14  H3  UNL     1      70.716  -7.422  33.830  1.00  0.00     0.161 HD
BRANCH  13  15
HETATM   15  C6  UNL     1      68.628  -6.914  34.030  1.00  0.00     0.148 C 
BRANCH  15  16
HETATM   16  C7  UNL     1      68.608  -5.516  33.503  1.00  0.00     0.195 C 
BRANCH  16  17
HETATM   17  O1  UNL     1      69.629  -5.111  32.701  1.00  0.00    -0.350 OA
BRANCH  17  18
HETATM   18  C8  UNL     1      69.777  -3.954  32.015  1.00  0.00     0.068 A 
HETATM   19  C9  UNL     1      70.964  -3.422  31.601  1.00  0.00     0.037 A 
HETATM   20  C10 UNL     1      71.038  -2.231  30.906  1.00  0.00     0.003 A 
HETATM   21  C11 UNL     1      69.869  -1.568  30.627  1.00  0.00     0.000 A 
HETATM   22  C12 UNL     1      68.645  -2.078  31.032  1.00  0.00     0.003 A 
HETATM   23  C13 UNL     1      68.606  -3.252  31.714  1.00  0.00     0.037 A 
ENDBRANCH  17  18
ENDBRANCH  16  17
ENDBRANCH  15  16
ENDBRANCH  13  15
ENDBRANCH   1  13
TORSDOF 6
ENDMDL
MODEL 2
REMARK VINA RESULT: -8.042380900      0.920      1.659
REMARK  6 active torsions:
REMARK  status: ('A' for Active; 'I' for Inactive)
REMARK    1  A    between atoms: C4_6  and  C5_7 
REMARK    2  A    between atoms: C5_7  and  N3_11 
REMARK    3  A    between atoms: N3_11  and  C6_13 
REMARK    4  A    between atoms: C6_13  and  C7_14 
REMARK    5  A    between atoms: C7_14  and  O1_15 
REMARK    6  A    between atoms: O1_15  and  C8_16 
ROOT
HETATM    1  C5  UNL     1      70.075  -9.295  32.649  1.00  0.00     0.140 C 
HETATM    2  N2  UNL     1      70.812  -9.154  31.598  1.00  0.00    -0.383 N 
ATOM      3  H21 UNL     1      71.461  -8.373  31.491  1.00  0.00     0.157 HD
ATOM      4  H22 UNL     1      70.738  -9.855  30.860  1.00  0.00     0.157 HD
ENDROOT
BRANCH   1   5
HETATM    5  C4  UNL     1      69.149 -10.409  32.803  1.00  0.00     0.149 A 
HETATM    6  N1  UNL     1      67.894 -10.360  33.276  1.00  0.00    -0.347 N 
HETATM    7  C3  UNL     1      67.334 -11.602  33.276  1.00  0.00     0.114 A 
ATOM      8  H1  UNL     1      67.425  -9.511  33.591  1.00  0.00     0.167 HD
HETATM    9  C2  UNL     1      68.296 -12.459  32.776  1.00  0.00     0.022 A 
HETATM   10  C1  UNL     1      68.082 -13.920  32.610  1.00  0.00     0.069 C 
HETATM   11  N4  UNL     1      69.361 -11.713  32.507  1.00  0.00    -0.342 N 
ATOM     12  H4  UNL     1      70.233 -12.078  32.125  1.00  0.00     0.167 HD
ENDBRANCH   1   5
BRANCH   1  13
HETATM   13  N3  UNL     1      70.178  -8.325  33.670  1.00  0.00    -0.372 N 
ATOM     14  H3  UNL     1      70.901  -8.397  34.385  1.00  0.00     0.161 HD
BRANCH  13  15
HETATM   15  C6  UNL     1      69.232  -7.223  33.681  1.00  0.00     0.148 C 
BRANCH  15  16
HETATM   16  C7  UNL     1      69.846  -6.091  32.924  1.00  0.00     0.195 C 
BRANCH  16  17
HETATM   17  O1  UNL     1      69.210  -4.889  32.927  1.00  0.00    -0.350 OA
BRANCH  17  18
HETATM   18  C8  UNL     1      69.422  -3.801  32.151  1.00  0.00     0.068 A 
HETATM   19  C9  UNL     1      68.454  -2.970  31.666  1.00  0.00     0.037 A 
HETATM   20  C10 UNL     1      68.747  -1.877  30.874  1.00  0.00     0.003 A 
HETATM   21  C11 UNL     1      70.062  -1.629  30.571  1.00  0.00     0.000 A 
HETATM   22  C12 UNL     1      71.072  -2.451  31.045  1.00  0.00     0.003 A 
HETATM   23  C13 UNL     1      70.752  -3.518  31.822  1.00  0.00     0.037 A 
ENDBRANCH  17  18
ENDBRANCH  16  17
ENDBRANCH  15  16
ENDBRANCH  13  15
ENDBRANCH   1  13
TORSDOF 6
ENDMDL
MODEL 3
REMARK VINA RESULT: -8.025668807      0.917      1.231
REMARK  6 active torsions:
REMARK  status: ('A' for Active; 'I' for Inactive)
REMARK    1  A    between atoms: C4_6  and  C5_7 
REMARK    2  A    between atoms: C5_7  and  N3_11 
REMARK    3  A    between atoms: N3_11  and  C6_13 
REMARK    4  A    between atoms: C6_13  and  C7_14 
REMARK    5  A    between atoms: C7_14  and  O1_15 
REMARK    6  A    between atoms: O1_15  and  C8_16 
ROOT
HETATM    1  C5  UNL     1      70.042  -9.298  32.668  1.00  0.00     0.140 C 
HETATM    2  N2  UNL     1      70.804  -9.157  31.635  1.00  0.00    -0.383 N 
ATOM      3  H21 UNL     1      71.445  -8.370  31.536  1.00  0.00     0.157 HD
ATOM      4  H22 UNL     1      70.756  -9.865  30.901  1.00  0.00     0.157 HD
ENDROOT
BRANCH   1   5
HETATM    5  C4  UNL     1      69.127 -10.422  32.809  1.00  0.00     0.149 A 
HETATM    6  N1  UNL     1      67.868 -10.388  33.274  1.00  0.00    -0.347 N 
HETATM    7  C3  UNL     1      67.321 -11.636  33.263  1.00  0.00     0.114 A 
ATOM      8  H1  UNL     1      67.388  -9.546  33.592  1.00  0.00     0.167 HD
HETATM    9  C2  UNL     1      68.294 -12.481  32.764  1.00  0.00     0.022 A 
HETATM   10  C1  UNL     1      68.095 -13.942  32.587  1.00  0.00     0.069 C 
HETATM   11  N4  UNL     1      69.353 -11.722  32.506  1.00  0.00    -0.342 N 
ATOM     12  H4  UNL     1      70.231 -12.076  32.127  1.00  0.00     0.167 HD
ENDBRANCH   1   5
BRANCH   1  13
HETATM   13  N3  UNL     1      70.108  -8.319  33.682  1.00  0.00    -0.372 N 
ATOM     14  H3  UNL     1      70.787  -8.398  34.439  1.00  0.00     0.161 HD
BRANCH  13  15
HETATM   15  C6  UNL     1      69.189  -7.196  33.627  1.00  0.00     0.148 C 
BRANCH  15  16
HETATM   16  C7  UNL     1      69.871  -6.088  32.893  1.00  0.00     0.195 C 
BRANCH  16  17
HETATM   17  O1  UNL     1      69.276  -4.866  32.867  1.00  0.00    -0.350 OA
BRANCH  17  18
HETATM   18  C8  UNL     1      69.569  -3.782  32.110  1.00  0.00     0.068 A 
HETATM   19  C9  UNL     1      70.821  -3.386  31.742  1.00  0.00     0.037 A 
HETATM   20  C10 UNL     1      71.044  -2.262  30.969  1.00  0.00     0.003 A 
HETATM   21  C11 UNL     1      69.959  -1.527  30.564  1.00  0.00     0.000 A 
HETATM   22  C12 UNL     1      68.671  -1.899  30.920  1.00  0.00     0.003 A 
HETATM   23  C13 UNL     1      68.485  -3.009  31.681  1.00  0.00     0.037 A 
ENDBRANCH  17  18
ENDBRANCH  16  17
ENDBRANCH  15  16
ENDBRANCH  13  15
ENDBRANCH   1  13
TORSDOF 6
ENDMDL
MODEL 4
REMARK VINA RESULT: -7.940430734      1.126      1.935
REMARK  6 active torsions:
REMARK  status: ('A' for Active; 'I' for Inactive)
REMARK    1  A    between atoms: C4_6  and  C5_7 
REMARK    2  A    between atoms: C5_7  and  N3_11 
REMARK    3  A    between atoms: N3_11  and  C6_13 
REMARK    4  A    between atoms: C6_13  and  C7_14 
REMARK    5  A    between atoms: C7_14  and  O1_15 
REMARK    6  A    between atoms: O1_15  and  C8_16 
ROOT
HETATM    1  C5  UNL     1      69.390  -8.595  33.307  1.00  0.00     0.140 C 
HETATM    2  N2  UNL     1      70.569  -8.168  33.613  1.00  0.00    -0.383 N 
ATOM      3  H21 UNL     1      70.757  -7.184  33.808  1.00  0.00     0.157 HD
ATOM      4  H22 UNL     1      71.330  -8.846  33.661  1.00  0.00     0.157 HD
ENDROOT
BRANCH   1   5
HETATM    5  C4  UNL     1      69.122 -10.000  33.028  1.00  0.00     0.149 A 
HETATM    6  N1  UNL     1      67.959 -10.650  33.188  1.00  0.00    -0.347 N 
HETATM    7  C3  UNL     1      68.089 -11.957  32.827  1.00  0.00     0.114 A 
ATOM      8  H1  UNL     1      67.098 -10.225  33.532  1.00  0.00     0.167 HD
HETATM    9  C2  UNL     1      69.400 -12.118  32.423  1.00  0.00     0.022 A 
HETATM   10  C1  UNL     1      69.955 -13.411  31.945  1.00  0.00     0.069 C 
HETATM   11  N4  UNL     1      69.983 -10.932  32.558  1.00  0.00    -0.342 N 
ATOM     12  H4  UNL     1      70.961 -10.747  32.334  1.00  0.00     0.167 HD
ENDBRANCH   1   5
BRANCH   1  13
HETATM   13  N3  UNL     1      68.338  -7.657  33.240  1.00  0.00    -0.372 N 
ATOM     14  H3  UNL     1      67.467  -7.885  32.762  1.00  0.00     0.161 HD
BRANCH  13  15
HETATM   15  C6  UNL     1      68.521  -6.359  33.865  1.00  0.00     0.148 C 
BRANCH  15  16
HETATM   16  C7  UNL     1      68.567  -5.335  32.778  1.00  0.00     0.195 C 
BRANCH  16  17
HETATM   17  O1  UNL     1      68.579  -4.020  33.127  1.00  0.00    -0.350 OA
BRANCH  17  18
HETATM   18  C8  UNL     1      69.294  -2.997  32.603  1.00  0.00     0.068 A 
HETATM   19  C9  UNL     1      68.975  -1.674  32.700  1.00  0.00     0.037 A 
HETATM   20  C10 UNL     1      69.753  -0.682  32.134  1.00  0.00     0.003 A 
HETATM   21  C11 UNL     1      70.884  -1.055  31.453  1.00  0.00     0.000 A 
HETATM   22  C12 UNL     1      71.239  -2.389  31.332  1.00  0.00     0.003 A 
HETATM   23  C13 UNL     1      70.453  -3.340  31.900  1.00  0.00     0.037 A 
ENDBRANCH  17  18
ENDBRANCH  16  17
ENDBRANCH  15  16
ENDBRANCH  13  15
ENDBRANCH   1  13
TORSDOF 6
ENDMDL
MODEL 5
REMARK VINA RESULT: -7.933026357      0.790      1.393
REMARK  6 active torsions:
REMARK  status: ('A' for Active; 'I' for Inactive)
REMARK    1  A    between atoms: C4_6  and  C5_7 
REMARK    2  A    between atoms: C5_7  and  N3_11 
REMARK    3  A    between atoms: N3_11  and  C6_13 
REMARK    4  A    between atoms: C6_13  and  C7_14 
REMARK    5  A    between atoms: C7_14  and  O1_15 
REMARK    6  A    between atoms: O1_15  and  C8_16 
ROOT
HETATM    1  C5  UNL     1      69.495  -8.673  33.167  1.00  0.00     0.140 C 
HETATM    2  N2  UNL     1      70.708  -8.288  33.387  1.00  0.00    -0.383 N 
ATOM      3  H21 UNL     1      70.948  -7.308  33.538  1.00  0.00     0.157 HD
ATOM      4  H22 UNL     1      71.441  -8.997  33.413  1.00  0.00     0.157 HD
ENDROOT
BRANCH   1   5
HETATM    5  C4  UNL     1      69.153 -10.072  32.952  1.00  0.00     0.149 A 
HETATM    6  N1  UNL     1      67.965 -10.658  33.170  1.00  0.00    -0.347 N 
HETATM    7  C3  UNL     1      68.021 -11.983  32.858  1.00  0.00     0.114 A 
ATOM      8  H1  UNL     1      67.136 -10.179  33.521  1.00  0.00     0.167 HD
HETATM    9  C2  UNL     1      69.311 -12.224  32.424  1.00  0.00     0.022 A 
HETATM   10  C1  UNL     1      69.789 -13.559  31.983  1.00  0.00     0.069 C 
HETATM   11  N4  UNL     1      69.953 -11.064  32.495  1.00  0.00    -0.342 N 
ATOM     12  H4  UNL     1      70.932 -10.935  32.238  1.00  0.00     0.167 HD
ENDBRANCH   1   5
BRANCH   1  13
HETATM   13  N3  UNL     1      68.481  -7.692  33.131  1.00  0.00    -0.372 N 
ATOM     14  H3  UNL     1      67.741  -7.733  32.431  1.00  0.00     0.161 HD
BRANCH  13  15
HETATM   15  C6  UNL     1      68.512  -6.622  34.112  1.00  0.00     0.148 C 
BRANCH  15  16
HETATM   16  C7  UNL     1      68.419  -5.327  33.373  1.00  0.00     0.195 C 
BRANCH  16  17
HETATM   17  O1  UNL     1      69.457  -4.959  32.575  1.00  0.00    -0.350 OA
BRANCH  17  18
HETATM   18  C8  UNL     1      69.695  -3.776  31.963  1.00  0.00     0.068 A 
HETATM   19  C9  UNL     1      70.927  -3.244  31.715  1.00  0.00     0.037 A 
HETATM   20  C10 UNL     1      71.093  -2.025  31.087  1.00  0.00     0.003 A 
HETATM   21  C11 UNL     1      69.971  -1.334  30.703  1.00  0.00     0.000 A 
HETATM   22  C12 UNL     1      68.703  -1.843  30.939  1.00  0.00     0.003 A 
HETATM   23  C13 UNL     1      68.574  -3.045  31.558  1.00  0.00     0.037 A 
ENDBRANCH  17  18
ENDBRANCH  16  17
ENDBRANCH  15  16
ENDBRANCH  13  15
ENDBRANCH   1  13
TORSDOF 6
ENDMDL
