MODEL 1
REMARK VINA RESULT: -7.455420279      0.000      0.000
REMARK  6 active torsions:
REMARK  status: ('A' for Active; 'I' for Inactive)
REMARK    1  A    between atoms: C4_5  and  N2_6 
REMARK    2  A    between atoms: N2_6  and  C5_8 
REMARK    3  A    between atoms: C5_8  and  C6_9 
REMARK    4  A    between atoms: C6_9  and  O1_10 
REMARK    5  A    between atoms: C6_9  and  C7_12 
REMARK    6  A    between atoms: C7_12  and  N3_13 
ROOT
HETATM    1  C5  UNL     1      69.010  -6.944  31.887  1.00  0.00     0.153 C 
ENDROOT
BRANCH   1   2
HETATM    2  N2  UNL     1      68.355  -5.708  32.248  1.00  0.00    -0.387 N 
ATOM      3  H2  UNL     1      67.435  -5.741  32.687  1.00  0.00     0.159 HD
BRANCH   2   4
HETATM    4  C4  UNL     1      68.972  -4.430  32.004  1.00  0.00     0.028 A 
HETATM    5  C3  UNL     1      68.184  -3.392  31.559  1.00  0.00     0.031 A 
HETATM    6  C2  UNL     1      68.775  -2.149  31.321  1.00  0.00     0.029 A 
HETATM    7  C1  UNL     1      70.127  -1.995  31.536  1.00  0.00     0.046 A 
HETATM    8  N1  UNL     1      70.695  -0.708  31.281  1.00  0.00    -0.102 NA
HETATM    9  C14 UNL     1      70.931  -3.034  31.984  1.00  0.00     0.029 A 
HETATM   10  C13 UNL     1      70.323  -4.273  32.218  1.00  0.00     0.031 A 
ENDBRANCH   2   4
ENDBRANCH   1   2
BRANCH   1  11
HETATM   11  C6  UNL     1      68.887  -7.939  33.000  1.00  0.00     0.154 C 
BRANCH  11  12
HETATM   12  O1  UNL     1      69.120  -7.265  34.196  1.00  0.00    -0.392 OA
ATOM     13  H1  UNL     1      69.961  -7.554  34.531  1.00  0.00     0.210 HD
ENDBRANCH  11  12
BRANCH  11  14
HETATM   14  C7  UNL     1      69.904  -9.042  32.760  1.00  0.00     0.161 C 
BRANCH  14  15
HETATM   15  N3  UNL     1      69.188 -10.307  32.808  1.00  0.00    -0.364 N 
HETATM   16  C8  UNL     1      67.932 -10.342  33.267  1.00  0.00     0.090 A 
HETATM   17  C9  UNL     1      67.253 -11.540  33.315  1.00  0.00     0.017 A 
HETATM   18  C10 UNL     1      67.889 -12.687  32.882  1.00  0.00     0.003 A 
HETATM   19  C11 UNL     1      69.186 -12.656  32.407  1.00  0.00     0.017 A 
HETATM   20  C12 UNL     1      69.808 -11.423  32.387  1.00  0.00     0.090 A 
ENDBRANCH  14  15
ENDBRANCH  11  14
ENDBRANCH   1  11
TORSDOF 6
ENDMDL
MODEL 2
REMARK VINA RESULT: -7.452644322      0.037      1.120
REMARK  6 active torsions:
REMARK  status: ('A' for Active; 'I' for Inactive)
REMARK    1  A    between atoms: C4_5  and  N2_6 
REMARK    2  A    between atoms: N2_6  and  C5_8 
REMARK    3  A    between atoms: C5_8  and  C6_9 
REMARK    4  A    between atoms: C6_9  and  O1_10 
REMARK    5  A    between atoms: C6_9  and  C7_12 
REMARK    6  A    between atoms: C7_12  and  N3_13 
ROOT
HETATM    1  C5  UNL     1      68.999  -6.928  31.881  1.00  0.00     0.153 C 
ENDROOT
BRANCH   1   2
HETATM    2  N2  UNL     1      68.360  -5.686  32.253  1.00  0.00    -0.387 N 
ATOM      3  H2  UNL     1      67.447  -5.712  32.707  1.00  0.00     0.159 HD
BRANCH   2   4
HETATM    4  C4  UNL     1      68.983  -4.414  31.998  1.00  0.00     0.028 A 
HETATM    5  C3  UNL     1      68.203  -3.379  31.532  1.00  0.00     0.031 A 
HETATM    6  C2  UNL     1      68.800  -2.141  31.283  1.00  0.00     0.029 A 
HETATM    7  C1  UNL     1      70.150  -1.988  31.510  1.00  0.00     0.046 A 
HETATM    8  N1  UNL     1      70.724  -0.706  31.243  1.00  0.00    -0.102 NA
HETATM    9  C14 UNL     1      70.946  -3.023  31.979  1.00  0.00     0.029 A 
HETATM   10  C13 UNL     1      70.333  -4.258  32.224  1.00  0.00     0.031 A 
ENDBRANCH   2   4
ENDBRANCH   1   2
BRANCH   1  11
HETATM   11  C6  UNL     1      68.882  -7.923  32.993  1.00  0.00     0.154 C 
BRANCH  11  12
HETATM   12  O1  UNL     1      69.107  -7.248  34.190  1.00  0.00    -0.392 OA
ATOM     13  H1  UNL     1      69.518  -7.857  34.792  1.00  0.00     0.210 HD
ENDBRANCH  11  12
BRANCH  11  14
HETATM   14  C7  UNL     1      69.908  -9.018  32.755  1.00  0.00     0.161 C 
BRANCH  14  15
HETATM   15  N3  UNL     1      69.203 -10.289  32.802  1.00  0.00    -0.364 N 
HETATM   16  C8  UNL     1      69.814 -11.403  32.380  1.00  0.00     0.090 A 
HETATM   17  C9  UNL     1      69.148 -12.608  32.423  1.00  0.00     0.017 A 
HETATM   18  C10 UNL     1      67.853 -12.639  32.904  1.00  0.00     0.003 A 
HETATM   19  C11 UNL     1      67.218 -11.493  33.340  1.00  0.00     0.017 A 
HETATM   20  C12 UNL     1      67.943 -10.320  33.270  1.00  0.00     0.090 A 
ENDBRANCH  14  15
ENDBRANCH  11  14
ENDBRANCH   1  11
TORSDOF 6
ENDMDL
MODEL 3
REMARK VINA RESULT: -7.452192534      0.078      1.598
REMARK  6 active torsions:
REMARK  status: ('A' for Active; 'I' for Inactive)
REMARK    1  A    between atoms: C4_5  and  N2_6 
REMARK    2  A    between atoms: N2_6  and  C5_8 
REMARK    3  A    between atoms: C5_8  and  C6_9 
REMARK    4  A    between atoms: C6_9  and  O1_10 
REMARK    5  A    between atoms: C6_9  and  C7_12 
REMARK    6  A    between atoms: C7_12  and  N3_13 
ROOT
HETATM    1  C5  UNL     1      69.001  -6.989  31.945  1.00  0.00     0.153 C 
ENDROOT
BRANCH   1   2
HETATM    2  N2  UNL     1      68.381  -5.752  32.365  1.00  0.00    -0.387 N 
ATOM      3  H2  UNL     1      67.501  -5.787  32.879  1.00  0.00     0.159 HD
BRANCH   2   4
HETATM    4  C4  UNL     1      68.976  -4.475  32.073  1.00  0.00     0.028 A 
HETATM    5  C3  UNL     1      70.328  -4.315  32.282  1.00  0.00     0.031 A 
HETATM    6  C2  UNL     1      70.913  -3.078  32.000  1.00  0.00     0.029 A 
HETATM    7  C1  UNL     1      70.125  -2.054  31.523  1.00  0.00     0.046 A 
HETATM    8  N1  UNL     1      70.761  -0.803  31.247  1.00  0.00    -0.102 NA
HETATM    9  C14 UNL     1      68.762  -2.204  31.310  1.00  0.00     0.029 A 
HETATM   10  C13 UNL     1      68.190  -3.449  31.596  1.00  0.00     0.031 A 
ENDBRANCH   2   4
ENDBRANCH   1   2
BRANCH   1  11
HETATM   11  C6  UNL     1      68.906  -8.010  33.036  1.00  0.00     0.154 C 
BRANCH  11  12
HETATM   12  O1  UNL     1      69.163  -7.365  34.243  1.00  0.00    -0.392 OA
ATOM     13  H1  UNL     1      69.529  -6.512  34.041  1.00  0.00     0.210 HD
ENDBRANCH  11  12
BRANCH  11  14
HETATM   14  C7  UNL     1      69.921  -9.103  32.746  1.00  0.00     0.161 C 
BRANCH  14  15
HETATM   15  N3  UNL     1      69.213 -10.373  32.792  1.00  0.00    -0.364 N 
HETATM   16  C8  UNL     1      69.822 -11.488  32.368  1.00  0.00     0.090 A 
HETATM   17  C9  UNL     1      69.154 -12.691  32.410  1.00  0.00     0.017 A 
HETATM   18  C10 UNL     1      67.860 -12.721  32.892  1.00  0.00     0.003 A 
HETATM   19  C11 UNL     1      67.227 -11.574  33.330  1.00  0.00     0.017 A 
HETATM   20  C12 UNL     1      67.954 -10.402  33.261  1.00  0.00     0.090 A 
ENDBRANCH  14  15
ENDBRANCH  11  14
ENDBRANCH   1  11
TORSDOF 6
ENDMDL
MODEL 4
REMARK VINA RESULT: -7.445474094      0.101      1.143
REMARK  6 active torsions:
REMARK  status: ('A' for Active; 'I' for Inactive)
REMARK    1  A    between atoms: C4_5  and  N2_6 
REMARK    2  A    between atoms: N2_6  and  C5_8 
REMARK    3  A    between atoms: C5_8  and  C6_9 
REMARK    4  A    between atoms: C6_9  and  O1_10 
REMARK    5  A    between atoms: C6_9  and  C7_12 
REMARK    6  A    between atoms: C7_12  and  N3_13 
ROOT
HETATM    1  C5  UNL     1      68.989  -7.006  31.957  1.00  0.00     0.153 C 
ENDROOT
BRANCH   1   2
HETATM    2  N2  UNL     1      68.378  -5.768  32.384  1.00  0.00    -0.387 N 
ATOM      3  H2  UNL     1      67.506  -5.800  32.913  1.00  0.00     0.159 HD
BRANCH   2   4
HETATM    4  C4  UNL     1      68.971  -4.492  32.082  1.00  0.00     0.028 A 
HETATM    5  C3  UNL     1      70.323  -4.329  32.286  1.00  0.00     0.031 A 
HETATM    6  C2  UNL     1      70.907  -3.093  31.994  1.00  0.00     0.029 A 
HETATM    7  C1  UNL     1      70.116  -2.074  31.511  1.00  0.00     0.046 A 
HETATM    8  N1  UNL     1      70.750  -0.825  31.224  1.00  0.00    -0.102 NA
HETATM    9  C14 UNL     1      68.753  -2.227  31.302  1.00  0.00     0.029 A 
HETATM   10  C13 UNL     1      68.183  -3.471  31.599  1.00  0.00     0.031 A 
ENDBRANCH   2   4
ENDBRANCH   1   2
BRANCH   1  11
HETATM   11  C6  UNL     1      68.899  -8.030  33.046  1.00  0.00     0.154 C 
BRANCH  11  12
HETATM   12  O1  UNL     1      69.182  -7.392  34.250  1.00  0.00    -0.392 OA
ATOM     13  H1  UNL     1      68.619  -6.629  34.312  1.00  0.00     0.210 HD
ENDBRANCH  11  12
BRANCH  11  14
HETATM   14  C7  UNL     1      69.895  -9.134  32.737  1.00  0.00     0.161 C 
BRANCH  14  15
HETATM   15  N3  UNL     1      69.175 -10.396  32.796  1.00  0.00    -0.364 N 
HETATM   16  C8  UNL     1      67.921 -10.424  33.264  1.00  0.00     0.090 A 
HETATM   17  C9  UNL     1      67.238 -11.618  33.322  1.00  0.00     0.017 A 
HETATM   18  C10 UNL     1      67.866 -12.769  32.889  1.00  0.00     0.003 A 
HETATM   19  C11 UNL     1      69.160 -12.747  32.405  1.00  0.00     0.017 A 
HETATM   20  C12 UNL     1      69.787 -11.517  32.375  1.00  0.00     0.090 A 
ENDBRANCH  14  15
ENDBRANCH  11  14
ENDBRANCH   1  11
TORSDOF 6
ENDMDL
MODEL 5
REMARK VINA RESULT: -7.278505270      0.995      1.468
REMARK  6 active torsions:
REMARK  status: ('A' for Active; 'I' for Inactive)
REMARK    1  A    between atoms: C4_5  and  N2_6 
REMARK    2  A    between atoms: N2_6  and  C5_8 
REMARK    3  A    between atoms: C5_8  and  C6_9 
REMARK    4  A    between atoms: C6_9  and  O1_10 
REMARK    5  A    between atoms: C6_9  and  C7_12 
REMARK    6  A    between atoms: C7_12  and  N3_13 
ROOT
HETATM    1  C5  UNL     1      69.937  -6.803  32.852  1.00  0.00     0.153 C 
ENDROOT
BRANCH   1   2
HETATM    2  N2  UNL     1      68.946  -5.783  32.592  1.00  0.00    -0.387 N 
ATOM      3  H2  UNL     1      67.958  -6.005  32.718  1.00  0.00     0.159 HD
BRANCH   2   4
HETATM    4  C4  UNL     1      69.321  -4.462  32.161  1.00  0.00     0.028 A 
HETATM    5  C3  UNL     1      68.334  -3.607  31.723  1.00  0.00     0.031 A 
HETATM    6  C2  UNL     1      68.691  -2.323  31.303  1.00  0.00     0.029 A 
HETATM    7  C1  UNL     1      70.016  -1.948  31.338  1.00  0.00     0.046 A 
HETATM    8  N1  UNL     1      70.340  -0.625  30.900  1.00  0.00    -0.102 NA
HETATM    9  C14 UNL     1      71.018  -2.801  31.777  1.00  0.00     0.029 A 
HETATM   10  C13 UNL     1      70.645  -4.084  32.194  1.00  0.00     0.031 A 
ENDBRANCH   2   4
ENDBRANCH   1   2
BRANCH   1  11
HETATM   11  C6  UNL     1      69.494  -8.112  32.274  1.00  0.00     0.154 C 
BRANCH  11  12
HETATM   12  O1  UNL     1      68.845  -7.845  31.072  1.00  0.00    -0.392 OA
ATOM     13  H1  UNL     1      67.986  -8.248  31.113  1.00  0.00     0.210 HD
ENDBRANCH  11  12
BRANCH  11  14
HETATM   14  C7  UNL     1      68.576  -8.784  33.281  1.00  0.00     0.161 C 
BRANCH  14  15
HETATM   15  N3  UNL     1      68.633 -10.215  33.031  1.00  0.00    -0.364 N 
HETATM   16  C8  UNL     1      69.760 -10.763  32.560  1.00  0.00     0.090 A 
HETATM   17  C9  UNL     1      69.816 -12.118  32.322  1.00  0.00     0.017 A 
HETATM   18  C10 UNL     1      68.698 -12.888  32.576  1.00  0.00     0.003 A 
HETATM   19  C11 UNL     1      67.532 -12.329  33.062  1.00  0.00     0.017 A 
HETATM   20  C12 UNL     1      67.545 -10.964  33.278  1.00  0.00     0.090 A 
ENDBRANCH  14  15
ENDBRANCH  11  14
ENDBRANCH   1  11
TORSDOF 6
ENDMDL
