MODEL 1
REMARK VINA RESULT: -6.211600897      0.000      0.000
REMARK  4 active torsions:
REMARK  status: ('A' for Active; 'I' for Inactive)
REMARK    1  A    between atoms: N1_2  and  C2_3 
REMARK    2  A    between atoms: N1_2  and  C5_12 
REMARK    3  A    between atoms: C2_3  and  C3_4 
REMARK    4  A    between atoms: C3_4  and  N2_5 
REMARK       I    between atoms: N2_5  and  C4_7 
ROOT
HETATM    1  C1  UNL     1      68.230  -5.731  33.964  1.00  0.00     0.150 C 
HETATM    2  N1  UNL     1      68.654  -5.369  32.654  1.00  0.00    -0.382 N 
ENDROOT
BRANCH   2   3
HETATM    3  C2  UNL     1      68.937  -6.315  31.596  1.00  0.00     0.142 C 
BRANCH   3   4
HETATM    4  C3  UNL     1      69.637  -7.547  32.179  1.00  0.00     0.142 C 
BRANCH   4   5
HETATM    5  N2  UNL     1      68.905  -8.739  31.856  1.00  0.00    -0.363 N 
HETATM    6  C4  UNL     1      69.011  -9.945  32.580  1.00  0.00     0.181 C 
HETATM    7  N3  UNL     1      70.167 -10.492  32.709  1.00  0.00    -0.374 N 
HETATM    8  N4  UNL     1      67.889 -10.563  33.159  1.00  0.00    -0.064 NA
ATOM      9  H32 UNL     1      70.981 -10.044  32.289  1.00  0.00     0.158 HD
ATOM     10  H31 UNL     1      70.243 -11.364  33.233  1.00  0.00     0.158 HD
ATOM     11  H2  UNL     1      68.272  -8.712  31.058  1.00  0.00     0.162 HD
ENDBRANCH   4   5
ENDBRANCH   3   4
ENDBRANCH   2   3
BRANCH   2  12
HETATM   12  C5  UNL     1      68.815  -3.976  32.382  1.00  0.00     0.058 A 
HETATM   13  C6  UNL     1      67.768  -3.092  32.483  1.00  0.00     0.121 A 
HETATM   14  N5  UNL     1      68.232  -1.877  32.188  1.00  0.00    -0.358 N 
HETATM   15  C7  UNL     1      67.469  -0.639  32.168  1.00  0.00     0.156 C 
HETATM   16  C8  UNL     1      69.540  -1.966  31.902  1.00  0.00     0.046 A 
HETATM   17  C9  UNL     1      70.501  -1.035  31.532  1.00  0.00     0.030 A 
HETATM   18  C13 UNL     1      69.921  -3.286  32.022  1.00  0.00     0.019 A 
HETATM   19  C10 UNL     1      71.787  -1.446  31.297  1.00  0.00     0.002 A 
HETATM   20  C11 UNL     1      72.174  -2.769  31.416  1.00  0.00     0.001 A 
HETATM   21  C12 UNL     1      71.235  -3.697  31.780  1.00  0.00     0.016 A 
ENDBRANCH   2  12
TORSDOF 4
ENDMDL
MODEL 2
REMARK VINA RESULT: -5.604242332      1.211      2.522
REMARK  4 active torsions:
REMARK  status: ('A' for Active; 'I' for Inactive)
REMARK    1  A    between atoms: N1_2  and  C2_3 
REMARK    2  A    between atoms: N1_2  and  C5_12 
REMARK    3  A    between atoms: C2_3  and  C3_4 
REMARK    4  A    between atoms: C3_4  and  N2_5 
REMARK       I    between atoms: N2_5  and  C4_7 
ROOT
HETATM    1  C1  UNL     1      68.290  -5.410  33.840  1.00  0.00     0.150 C 
HETATM    2  N1  UNL     1      68.649  -5.208  32.477  1.00  0.00    -0.382 N 
ENDROOT
BRANCH   2   3
HETATM    3  C2  UNL     1      68.285  -6.098  31.395  1.00  0.00     0.142 C 
BRANCH   3   4
HETATM    4  C3  UNL     1      69.136  -7.370  31.467  1.00  0.00     0.142 C 
BRANCH   4   5
HETATM    5  N2  UNL     1      68.695  -8.207  32.547  1.00  0.00    -0.363 N 
HETATM    6  C4  UNL     1      69.538  -9.099  33.243  1.00  0.00     0.181 C 
HETATM    7  N3  UNL     1      70.167 -10.003  32.581  1.00  0.00    -0.374 N 
HETATM    8  N4  UNL     1      69.705  -9.025  34.637  1.00  0.00    -0.064 NA
ATOM      9  H32 UNL     1      70.045 -10.057  31.570  1.00  0.00     0.158 HD
ATOM     10  H31 UNL     1      70.776 -10.647  33.085  1.00  0.00     0.158 HD
ATOM     11  H2  UNL     1      67.716  -8.153  32.828  1.00  0.00     0.162 HD
ENDBRANCH   4   5
ENDBRANCH   3   4
ENDBRANCH   2   3
BRANCH   2  12
HETATM   12  C5  UNL     1      69.425  -4.048  32.171  1.00  0.00     0.058 A 
HETATM   13  C6  UNL     1      70.761  -4.129  31.864  1.00  0.00     0.121 A 
HETATM   14  N5  UNL     1      71.197  -2.895  31.612  1.00  0.00    -0.358 N 
HETATM   15  C7  UNL     1      72.551  -2.511  31.244  1.00  0.00     0.156 C 
HETATM   16  C8  UNL     1      70.176  -2.034  31.751  1.00  0.00     0.046 A 
HETATM   17  C9  UNL     1      70.065  -0.657  31.617  1.00  0.00     0.030 A 
HETATM   18  C13 UNL     1      69.051  -2.750  32.103  1.00  0.00     0.019 A 
HETATM   19  C10 UNL     1      68.855  -0.051  31.836  1.00  0.00     0.002 A 
HETATM   20  C11 UNL     1      67.724  -0.765  32.190  1.00  0.00     0.001 A 
HETATM   21  C12 UNL     1      67.821  -2.123  32.325  1.00  0.00     0.016 A 
ENDBRANCH   2  12
TORSDOF 4
ENDMDL
MODEL 3
REMARK VINA RESULT: -5.410928912      1.334      2.814
REMARK  4 active torsions:
REMARK  status: ('A' for Active; 'I' for Inactive)
REMARK    1  A    between atoms: N1_2  and  C2_3 
REMARK    2  A    between atoms: N1_2  and  C5_12 
REMARK    3  A    between atoms: C2_3  and  C3_4 
REMARK    4  A    between atoms: C3_4  and  N2_5 
REMARK       I    between atoms: N2_5  and  C4_7 
ROOT
HETATM    1  C1  UNL     1      68.226  -5.934  31.376  1.00  0.00     0.150 C 
HETATM    2  N1  UNL     1      68.727  -5.181  32.476  1.00  0.00    -0.382 N 
ENDROOT
BRANCH   2   3
HETATM    3  C2  UNL     1      68.510  -5.521  33.866  1.00  0.00     0.142 C 
BRANCH   3   4
HETATM    4  C3  UNL     1      68.398  -7.042  34.013  1.00  0.00     0.142 C 
BRANCH   4   5
HETATM    5  N2  UNL     1      69.679  -7.660  33.814  1.00  0.00    -0.363 N 
HETATM    6  C4  UNL     1      69.865  -8.870  33.112  1.00  0.00     0.181 C 
HETATM    7  N3  UNL     1      69.236  -9.918  33.505  1.00  0.00    -0.374 N 
HETATM    8  N4  UNL     1      70.721  -8.956  32.000  1.00  0.00    -0.064 NA
ATOM      9  H32 UNL     1      68.615  -9.856  34.312  1.00  0.00     0.158 HD
ATOM     10  H31 UNL     1      69.371 -10.793  32.997  1.00  0.00     0.158 HD
ATOM     11  H2  UNL     1      70.500  -7.198  34.202  1.00  0.00     0.162 HD
ENDBRANCH   4   5
ENDBRANCH   3   4
ENDBRANCH   2   3
BRANCH   2  12
HETATM   12  C5  UNL     1      69.487  -4.010  32.173  1.00  0.00     0.058 A 
HETATM   13  C6  UNL     1      70.824  -4.073  31.866  1.00  0.00     0.121 A 
HETATM   14  N5  UNL     1      71.243  -2.832  31.616  1.00  0.00    -0.358 N 
HETATM   15  C7  UNL     1      72.592  -2.429  31.249  1.00  0.00     0.156 C 
HETATM   16  C8  UNL     1      70.211  -1.986  31.757  1.00  0.00     0.046 A 
HETATM   17  C9  UNL     1      70.082  -0.609  31.626  1.00  0.00     0.030 A 
HETATM   18  C13 UNL     1      69.096  -2.717  32.108  1.00  0.00     0.019 A 
HETATM   19  C10 UNL     1      68.864  -0.021  31.846  1.00  0.00     0.002 A 
HETATM   20  C11 UNL     1      67.742  -0.750  32.199  1.00  0.00     0.001 A 
HETATM   21  C12 UNL     1      67.858  -2.107  32.332  1.00  0.00     0.016 A 
ENDBRANCH   2  12
TORSDOF 4
ENDMDL
MODEL 4
REMARK VINA RESULT: -4.931023867      2.472      8.556
REMARK  4 active torsions:
REMARK  status: ('A' for Active; 'I' for Inactive)
REMARK    1  A    between atoms: N1_2  and  C2_3 
REMARK    2  A    between atoms: N1_2  and  C5_12 
REMARK    3  A    between atoms: C2_3  and  C3_4 
REMARK    4  A    between atoms: C3_4  and  N2_5 
REMARK       I    between atoms: N2_5  and  C4_7 
ROOT
HETATM    1  C1  UNL     1      69.673  -8.633  34.287  1.00  0.00     0.150 C 
HETATM    2  N1  UNL     1      69.347  -9.072  32.972  1.00  0.00    -0.382 N 
ENDROOT
BRANCH   2   3
HETATM    3  C2  UNL     1      69.015  -8.189  31.874  1.00  0.00     0.142 C 
BRANCH   3   4
HETATM    4  C3  UNL     1      68.589  -6.823  32.422  1.00  0.00     0.142 C 
BRANCH   4   5
HETATM    5  N2  UNL     1      69.260  -5.769  31.717  1.00  0.00    -0.363 N 
HETATM    6  C4  UNL     1      69.379  -4.450  32.204  1.00  0.00     0.181 C 
HETATM    7  N3  UNL     1      68.311  -3.798  32.497  1.00  0.00    -0.374 N 
HETATM    8  N4  UNL     1      70.630  -3.834  32.374  1.00  0.00    -0.064 NA
ATOM      9  H32 UNL     1      67.403  -4.246  32.373  1.00  0.00     0.158 HD
ATOM     10  H31 UNL     1      68.398  -2.845  32.849  1.00  0.00     0.158 HD
ATOM     11  H2  UNL     1      69.675  -5.985  30.811  1.00  0.00     0.162 HD
ENDBRANCH   4   5
ENDBRANCH   3   4
ENDBRANCH   2   3
BRANCH   2  12
HETATM   12  C5  UNL     1      69.345 -10.481  32.737  1.00  0.00     0.058 A 
HETATM   13  C6  UNL     1      70.393 -11.114  32.115  1.00  0.00     0.121 A 
HETATM   14  N5  UNL     1      70.107 -12.415  32.058  1.00  0.00    -0.358 N 
HETATM   15  C7  UNL     1      70.937 -13.461  31.482  1.00  0.00     0.156 C 
HETATM   16  C8  UNL     1      68.909 -12.624  32.626  1.00  0.00     0.046 A 
HETATM   17  C9  UNL     1      68.136 -13.759  32.832  1.00  0.00     0.030 A 
HETATM   18  C13 UNL     1      68.417 -11.411  33.059  1.00  0.00     0.019 A 
HETATM   19  C10 UNL     1      66.920 -13.646  33.453  1.00  0.00     0.002 A 
HETATM   20  C11 UNL     1      66.422 -12.431  33.889  1.00  0.00     0.001 A 
HETATM   21  C12 UNL     1      67.174 -11.305  33.691  1.00  0.00     0.016 A 
ENDBRANCH   2  12
TORSDOF 4
ENDMDL
MODEL 5
REMARK VINA RESULT: -4.924865598      7.416      9.813
REMARK  4 active torsions:
REMARK  status: ('A' for Active; 'I' for Inactive)
REMARK    1  A    between atoms: N1_2  and  C2_3 
REMARK    2  A    between atoms: N1_2  and  C5_12 
REMARK    3  A    between atoms: C2_3  and  C3_4 
REMARK    4  A    between atoms: C3_4  and  N2_5 
REMARK       I    between atoms: N2_5  and  C4_7 
ROOT
HETATM    1  C1  UNL     1      72.487 -14.544  32.653  1.00  0.00     0.150 C 
HETATM    2  N1  UNL     1      71.570 -13.980  31.720  1.00  0.00    -0.382 N 
ENDROOT
BRANCH   2   3
HETATM    3  C2  UNL     1      71.931 -13.513  30.399  1.00  0.00     0.142 C 
BRANCH   3   4
HETATM    4  C3  UNL     1      71.833 -14.669  29.399  1.00  0.00     0.142 C 
BRANCH   4   5
HETATM    5  N2  UNL     1      72.255 -14.242  28.095  1.00  0.00    -0.363 N 
HETATM    6  C4  UNL     1      71.661 -13.176  27.388  1.00  0.00     0.181 C 
HETATM    7  N3  UNL     1      70.400 -13.219  27.146  1.00  0.00    -0.374 N 
HETATM    8  N4  UNL     1      72.411 -12.074  26.941  1.00  0.00    -0.064 NA
ATOM      9  H32 UNL     1      69.856 -14.018  27.469  1.00  0.00     0.158 HD
ATOM     10  H31 UNL     1      69.971 -12.448  26.634  1.00  0.00     0.158 HD
ATOM     11  H2  UNL     1      73.030 -14.738  27.656  1.00  0.00     0.162 HD
ENDBRANCH   4   5
ENDBRANCH   3   4
ENDBRANCH   2   3
BRANCH   2  12
HETATM   12  C5  UNL     1      70.206 -13.869  32.132  1.00  0.00     0.058 A 
HETATM   13  C6  UNL     1      69.400 -14.971  32.278  1.00  0.00     0.121 A 
HETATM   14  N5  UNL     1      68.203 -14.549  32.687  1.00  0.00    -0.358 N 
HETATM   15  C7  UNL     1      67.041 -15.376  32.968  1.00  0.00     0.156 C 
HETATM   16  C8  UNL     1      68.228 -13.211  32.803  1.00  0.00     0.046 A 
HETATM   17  C9  UNL     1      67.279 -12.269  33.177  1.00  0.00     0.030 A 
HETATM   18  C13 UNL     1      69.487 -12.770  32.456  1.00  0.00     0.019 A 
HETATM   19  C10 UNL     1      67.615 -10.941  33.192  1.00  0.00     0.002 A 
HETATM   20  C11 UNL     1      68.877 -10.493  32.845  1.00  0.00     0.001 A 
HETATM   21  C12 UNL     1      69.821 -11.412  32.474  1.00  0.00     0.016 A 
ENDBRANCH   2  12
TORSDOF 4
ENDMDL
