MODEL 1
REMARK VINA RESULT: -7.350702934      0.000      0.000
REMARK  6 active torsions:
REMARK  status: ('A' for Active; 'I' for Inactive)
REMARK    1  A    between atoms: C2_2  and  C3_3 
REMARK    2  A    between atoms: C3_3  and  O1_4 
REMARK    3  A    between atoms: C11_15  and  O4_16 
REMARK    4  A    between atoms: O4_16  and  C12_17 
REMARK    5  A    between atoms: C12_17  and  O6_19 
REMARK    6  A    between atoms: O6_19  and  C13_20 
ROOT
HETATM    1  C3  UNL     1      -2.168   4.311  10.588  1.00  0.00     0.139 C 
HETATM    2  C4  UNL     1      -3.574   4.724  10.519  1.00  0.00     0.170 C 
HETATM    3  O2  UNL     1      -3.970   5.178   9.434  1.00  0.00    -0.294 OA
HETATM    4  C5  UNL     1      -4.558   4.654  11.604  1.00  0.00     0.072 C 
HETATM    5  C6  UNL     1      -4.853   6.070  12.031  1.00  0.00     0.092 C 
HETATM    6  C7  UNL     1      -5.848   6.000  13.131  1.00  0.00     0.138 C 
HETATM    7  O3  UNL     1      -6.942   6.546  13.052  1.00  0.00    -0.297 OA
HETATM    8  C8  UNL     1      -5.409   5.221  14.323  1.00  0.00     0.040 C 
HETATM    9  C9  UNL     1      -4.350   6.075  15.021  1.00  0.00     0.026 C 
HETATM   10  C10 UNL     1      -6.602   5.154  15.254  1.00  0.00     0.026 C 
HETATM   11  C11 UNL     1      -4.885   3.863  13.976  1.00  0.00     0.154 C 
HETATM   12  C16 UNL     1      -4.129   3.761  12.717  1.00  0.00     0.029 C 
HETATM   13  C17 UNL     1      -2.623   3.944  12.949  1.00  0.00     0.016 C 
HETATM   14  C18 UNL     1      -1.959   3.333  11.715  1.00  0.00     0.028 C 
HETATM   15  C19 UNL     1      -0.527   2.998  11.948  1.00  0.00     0.014 C 
ENDROOT
BRANCH  11  16
HETATM   16  O4  UNL     1      -3.995   3.481  15.036  1.00  0.00    -0.291 OA
BRANCH  16  17
HETATM   17  C12 UNL     1      -4.277   2.374  15.842  1.00  0.00     0.407 C 
HETATM   18  O5  UNL     1      -3.298   1.882  16.454  1.00  0.00    -0.229 OA
BRANCH  17  19
HETATM   19  O6  UNL     1      -5.542   1.838  15.973  1.00  0.00    -0.293 OA
BRANCH  19  20
HETATM   20  C13 UNL     1      -6.045   1.558  17.254  1.00  0.00     0.126 C 
HETATM   21  C14 UNL     1      -6.298   2.815  18.059  1.00  0.00     0.040 C 
HETATM   22  C15 UNL     1      -7.363   0.810  17.194  1.00  0.00     0.040 C 
ENDBRANCH  19  20
ENDBRANCH  17  19
ENDBRANCH  16  17
ENDBRANCH  11  16
BRANCH   1  23
HETATM   23  C2  UNL     1      -1.236   5.456  10.772  1.00  0.00     0.009 C 
HETATM   24  C1  UNL     1      -0.595   5.992   9.739  1.00  0.00     0.010 C 
ENDBRANCH   1  23
BRANCH   1  25
HETATM   25  O1  UNL     1      -1.828   3.707   9.360  1.00  0.00    -0.378 OA
ATOM     26  H1  UNL     1      -0.885   3.783   9.273  1.00  0.00     0.211 HD
ENDBRANCH   1  25
TORSDOF 6
ENDMDL
MODEL 2
REMARK VINA RESULT: -6.536737265      2.120      6.372
REMARK  6 active torsions:
REMARK  status: ('A' for Active; 'I' for Inactive)
REMARK    1  A    between atoms: C2_2  and  C3_3 
REMARK    2  A    between atoms: C3_3  and  O1_4 
REMARK    3  A    between atoms: C11_15  and  O4_16 
REMARK    4  A    between atoms: O4_16  and  C12_17 
REMARK    5  A    between atoms: C12_17  and  O6_19 
REMARK    6  A    between atoms: O6_19  and  C13_20 
ROOT
HETATM    1  C3  UNL     1      -5.103   3.537  14.269  1.00  0.00     0.139 C 
HETATM    2  C4  UNL     1      -4.727   2.930  12.988  1.00  0.00     0.170 C 
HETATM    3  O2  UNL     1      -4.795   1.692  12.915  1.00  0.00    -0.294 OA
HETATM    4  C5  UNL     1      -4.278   3.638  11.785  1.00  0.00     0.072 C 
HETATM    5  C6  UNL     1      -2.813   3.327  11.605  1.00  0.00     0.092 C 
HETATM    6  C7  UNL     1      -2.357   4.045  10.388  1.00  0.00     0.138 C 
HETATM    7  O3  UNL     1      -1.875   3.455   9.429  1.00  0.00    -0.297 OA
HETATM    8  C8  UNL     1      -2.533   5.524  10.432  1.00  0.00     0.040 C 
HETATM    9  C9  UNL     1      -1.485   6.047  11.417  1.00  0.00     0.026 C 
HETATM   10  C10 UNL     1      -2.144   6.043   9.063  1.00  0.00     0.026 C 
HETATM   11  C11 UNL     1      -3.916   5.940  10.822  1.00  0.00     0.154 C 
HETATM   12  C16 UNL     1      -4.590   5.095  11.821  1.00  0.00     0.029 C 
HETATM   13  C17 UNL     1      -4.363   5.616  13.246  1.00  0.00     0.016 C 
HETATM   14  C18 UNL     1      -5.479   4.984  14.078  1.00  0.00     0.028 C 
HETATM   15  C19 UNL     1      -5.713   5.707  15.358  1.00  0.00     0.014 C 
ENDROOT
BRANCH  11  16
HETATM   16  O4  UNL     1      -3.807   7.256  11.388  1.00  0.00    -0.291 OA
BRANCH  16  17
HETATM   17  C12 UNL     1      -4.496   8.335  10.825  1.00  0.00     0.407 C 
HETATM   18  O5  UNL     1      -4.116   9.474  11.188  1.00  0.00    -0.229 OA
BRANCH  17  19
HETATM   19  O6  UNL     1      -5.532   8.182   9.925  1.00  0.00    -0.293 OA
BRANCH  19  20
HETATM   20  C13 UNL     1      -6.851   8.425  10.341  1.00  0.00     0.126 C 
HETATM   21  C14 UNL     1      -7.869   7.953   9.326  1.00  0.00     0.040 C 
HETATM   22  C15 UNL     1      -7.174   7.713  11.641  1.00  0.00     0.040 C 
ENDBRANCH  19  20
ENDBRANCH  17  19
ENDBRANCH  16  17
ENDBRANCH  11  16
BRANCH   1  23
HETATM   23  C2  UNL     1      -4.022   3.457  15.288  1.00  0.00     0.009 C 
HETATM   24  C1  UNL     1      -4.005   2.488  16.196  1.00  0.00     0.010 C 
ENDBRANCH   1  23
BRANCH   1  25
HETATM   25  O1  UNL     1      -6.201   2.821  14.789  1.00  0.00    -0.378 OA
ATOM     26  H1  UNL     1      -6.816   2.712  14.073  1.00  0.00     0.211 HD
ENDBRANCH   1  25
TORSDOF 6
ENDMDL
MODEL 3
REMARK VINA RESULT: -6.422227081      2.551      3.859
REMARK  6 active torsions:
REMARK  status: ('A' for Active; 'I' for Inactive)
REMARK    1  A    between atoms: C2_2  and  C3_3 
REMARK    2  A    between atoms: C3_3  and  O1_4 
REMARK    3  A    between atoms: C11_15  and  O4_16 
REMARK    4  A    between atoms: O4_16  and  C12_17 
REMARK    5  A    between atoms: C12_17  and  O6_19 
REMARK    6  A    between atoms: O6_19  and  C13_20 
ROOT
HETATM    1  C3  UNL     1      -1.148   7.907  13.390  1.00  0.00     0.139 C 
HETATM    2  C4  UNL     1      -0.774   6.869  12.423  1.00  0.00     0.170 C 
HETATM    3  O2  UNL     1       0.123   7.157  11.615  1.00  0.00    -0.294 OA
HETATM    4  C5  UNL     1      -1.354   5.527  12.316  1.00  0.00     0.072 C 
HETATM    5  C6  UNL     1      -2.159   5.490  11.041  1.00  0.00     0.092 C 
HETATM    6  C7  UNL     1      -2.748   4.131  10.933  1.00  0.00     0.138 C 
HETATM    7  O3  UNL     1      -2.519   3.400   9.977  1.00  0.00    -0.297 OA
HETATM    8  C8  UNL     1      -3.628   3.738  12.068  1.00  0.00     0.040 C 
HETATM    9  C9  UNL     1      -4.909   4.560  11.916  1.00  0.00     0.026 C 
HETATM   10  C10 UNL     1      -4.006   2.290  11.836  1.00  0.00     0.026 C 
HETATM   11  C11 UNL     1      -2.991   3.949  13.405  1.00  0.00     0.154 C 
HETATM   12  C16 UNL     1      -2.120   5.129  13.531  1.00  0.00     0.029 C 
HETATM   13  C17 UNL     1      -2.894   6.347  14.051  1.00  0.00     0.016 C 
HETATM   14  C18 UNL     1      -1.821   7.293  14.591  1.00  0.00     0.028 C 
HETATM   15  C19 UNL     1      -2.375   8.301  15.537  1.00  0.00     0.014 C 
ENDROOT
BRANCH  11  16
HETATM   16  O4  UNL     1      -4.060   4.111  14.351  1.00  0.00    -0.291 OA
BRANCH  16  17
HETATM   17  C12 UNL     1      -4.342   3.112  15.289  1.00  0.00     0.407 C 
HETATM   18  O5  UNL     1      -3.371   2.731  15.987  1.00  0.00    -0.229 OA
BRANCH  17  19
HETATM   19  O6  UNL     1      -5.599   2.566  15.455  1.00  0.00    -0.293 OA
BRANCH  19  20
HETATM   20  C13 UNL     1      -6.188   2.564  16.728  1.00  0.00     0.126 C 
HETATM   21  C14 UNL     1      -6.983   3.825  16.995  1.00  0.00     0.040 C 
HETATM   22  C15 UNL     1      -7.148   1.402  16.906  1.00  0.00     0.040 C 
ENDBRANCH  19  20
ENDBRANCH  17  19
ENDBRANCH  16  17
ENDBRANCH  11  16
BRANCH   1  23
HETATM   23  C2  UNL     1      -2.053   8.938  12.813  1.00  0.00     0.009 C 
HETATM   24  C1  UNL     1      -1.585  10.114  12.410  1.00  0.00     0.010 C 
ENDBRANCH   1  23
BRANCH   1  25
HETATM   25  O1  UNL     1       0.025   8.579  13.790  1.00  0.00    -0.378 OA
ATOM     26  H1  UNL     1       0.756   8.068  13.461  1.00  0.00     0.211 HD
ENDBRANCH   1  25
TORSDOF 6
ENDMDL
MODEL 4
REMARK VINA RESULT: -6.407546002      2.361      4.750
REMARK  6 active torsions:
REMARK  status: ('A' for Active; 'I' for Inactive)
REMARK    1  A    between atoms: C2_2  and  C3_3 
REMARK    2  A    between atoms: C3_3  and  O1_4 
REMARK    3  A    between atoms: C11_15  and  O4_16 
REMARK    4  A    between atoms: O4_16  and  C12_17 
REMARK    5  A    between atoms: C12_17  and  O6_19 
REMARK    6  A    between atoms: O6_19  and  C13_20 
ROOT
HETATM    1  C3  UNL     1      -5.960   7.777   9.550  1.00  0.00     0.139 C 
HETATM    2  C4  UNL     1      -4.644   7.301   9.110  1.00  0.00     0.170 C 
HETATM    3  O2  UNL     1      -4.267   7.663   7.984  1.00  0.00    -0.294 OA
HETATM    4  C5  UNL     1      -3.730   6.440   9.866  1.00  0.00     0.072 C 
HETATM    5  C6  UNL     1      -3.709   5.098   9.178  1.00  0.00     0.092 C 
HETATM    6  C7  UNL     1      -2.785   4.225   9.944  1.00  0.00     0.138 C 
HETATM    7  O3  UNL     1      -1.798   3.713   9.429  1.00  0.00    -0.297 OA
HETATM    8  C8  UNL     1      -3.154   4.025  11.374  1.00  0.00     0.040 C 
HETATM    9  C9  UNL     1      -4.385   3.116  11.371  1.00  0.00     0.026 C 
HETATM   10  C10 UNL     1      -2.026   3.233  12.001  1.00  0.00     0.026 C 
HETATM   11  C11 UNL     1      -3.415   5.308  12.097  1.00  0.00     0.154 C 
HETATM   12  C16 UNL     1      -4.066   6.373  11.317  1.00  0.00     0.029 C 
HETATM   13  C17 UNL     1      -5.591   6.333  11.472  1.00  0.00     0.016 C 
HETATM   14  C18 UNL     1      -6.066   7.725  11.053  1.00  0.00     0.028 C 
HETATM   15  C19 UNL     1      -7.430   8.037  11.560  1.00  0.00     0.014 C 
ENDROOT
BRANCH  11  16
HETATM   16  O4  UNL     1      -4.289   4.994  13.193  1.00  0.00    -0.291 OA
BRANCH  16  17
HETATM   17  C12 UNL     1      -3.837   5.074  14.514  1.00  0.00     0.407 C 
HETATM   18  O5  UNL     1      -3.566   6.227  14.928  1.00  0.00    -0.229 OA
BRANCH  17  19
HETATM   19  O6  UNL     1      -3.690   3.970  15.330  1.00  0.00    -0.293 OA
BRANCH  19  20
HETATM   20  C13 UNL     1      -4.699   2.995  15.360  1.00  0.00     0.126 C 
HETATM   21  C14 UNL     1      -4.388   1.877  16.333  1.00  0.00     0.040 C 
HETATM   22  C15 UNL     1      -6.036   3.575  15.782  1.00  0.00     0.040 C 
ENDBRANCH  19  20
ENDBRANCH  17  19
ENDBRANCH  16  17
ENDBRANCH  11  16
BRANCH   1  23
HETATM   23  C2  UNL     1      -7.084   6.997   8.966  1.00  0.00     0.009 C 
HETATM   24  C1  UNL     1      -7.767   7.454   7.922  1.00  0.00     0.010 C 
ENDBRANCH   1  23
BRANCH   1  25
HETATM   25  O1  UNL     1      -6.117   9.106   9.105  1.00  0.00    -0.378 OA
ATOM     26  H1  UNL     1      -5.251   9.418   8.870  1.00  0.00     0.211 HD
ENDBRANCH   1  25
TORSDOF 6
ENDMDL
MODEL 5
REMARK VINA RESULT: -6.399718016      2.415      6.686
REMARK  6 active torsions:
REMARK  status: ('A' for Active; 'I' for Inactive)
REMARK    1  A    between atoms: C2_2  and  C3_3 
REMARK    2  A    between atoms: C3_3  and  O1_4 
REMARK    3  A    between atoms: C11_15  and  O4_16 
REMARK    4  A    between atoms: O4_16  and  C12_17 
REMARK    5  A    between atoms: C12_17  and  O6_19 
REMARK    6  A    between atoms: O6_19  and  C13_20 
ROOT
HETATM    1  C3  UNL     1      -5.802   1.638  16.571  1.00  0.00     0.139 C 
HETATM    2  C4  UNL     1      -4.561   1.700  15.792  1.00  0.00     0.170 C 
HETATM    3  O2  UNL     1      -3.751   0.775  15.958  1.00  0.00    -0.294 OA
HETATM    4  C5  UNL     1      -4.183   2.746  14.836  1.00  0.00     0.072 C 
HETATM    5  C6  UNL     1      -3.051   3.527  15.456  1.00  0.00     0.092 C 
HETATM    6  C7  UNL     1      -2.669   4.587  14.489  1.00  0.00     0.138 C 
HETATM    7  O3  UNL     1      -1.535   4.669  14.031  1.00  0.00    -0.297 OA
HETATM    8  C8  UNL     1      -3.763   5.531  14.130  1.00  0.00     0.040 C 
HETATM    9  C9  UNL     1      -3.988   6.409  15.362  1.00  0.00     0.026 C 
HETATM   10  C10 UNL     1      -3.213   6.433  13.044  1.00  0.00     0.026 C 
HETATM   11  C11 UNL     1      -5.021   4.839  13.707  1.00  0.00     0.154 C 
HETATM   12  C16 UNL     1      -5.338   3.584  14.409  1.00  0.00     0.029 C 
HETATM   13  C17 UNL     1      -6.247   3.832  15.620  1.00  0.00     0.016 C 
HETATM   14  C18 UNL     1      -6.877   2.472  15.922  1.00  0.00     0.028 C 
HETATM   15  C19 UNL     1      -8.112   2.588  16.746  1.00  0.00     0.014 C 
ENDROOT
BRANCH  11  16
HETATM   16  O4  UNL     1      -6.100   5.751  13.963  1.00  0.00    -0.291 OA
BRANCH  16  17
HETATM   17  C12 UNL     1      -6.801   6.343  12.907  1.00  0.00     0.407 C 
HETATM   18  O5  UNL     1      -7.967   6.723  13.172  1.00  0.00    -0.229 OA
BRANCH  17  19
HETATM   19  O6  UNL     1      -6.265   6.510  11.645  1.00  0.00    -0.293 OA
BRANCH  19  20
HETATM   20  C13 UNL     1      -6.822   7.464  10.779  1.00  0.00     0.126 C 
HETATM   21  C14 UNL     1      -6.037   8.759  10.770  1.00  0.00     0.040 C 
HETATM   22  C15 UNL     1      -6.862   6.972   9.345  1.00  0.00     0.040 C 
ENDBRANCH  19  20
ENDBRANCH  17  19
ENDBRANCH  16  17
ENDBRANCH  11  16
BRANCH   1  23
HETATM   23  C2  UNL     1      -5.628   2.096  17.976  1.00  0.00     0.009 C 
HETATM   24  C1  UNL     1      -6.092   1.380  18.994  1.00  0.00     0.010 C 
ENDBRANCH   1  23
BRANCH   1  25
HETATM   25  O1  UNL     1      -6.214   0.291  16.635  1.00  0.00    -0.378 OA
ATOM     26  H1  UNL     1      -5.721  -0.175  15.970  1.00  0.00     0.211 HD
ENDBRANCH   1  25
TORSDOF 6
ENDMDL
