MODEL 1
REMARK VINA RESULT: -8.057068040      0.000      0.000
REMARK  3 active torsions:
REMARK  status: ('A' for Active; 'I' for Inactive)
REMARK    1  A    between atoms: C2_5  and  C3_6 
REMARK    2  A    between atoms: C3_6  and  N2_7 
REMARK    3  A    between atoms: N2_7  and  C4_10 
ROOT
HETATM    1  C4  UNL     1      -4.117   0.705  14.074  1.00  0.00     0.189 C 
HETATM    2  C5  UNL     1      -4.595   0.005  12.847  1.00  0.00     0.036 C 
HETATM    3  C6  UNL     1      -4.410   1.100  11.788  1.00  0.00     0.043 C 
HETATM    4  C7  UNL     1      -4.489   2.421  12.542  1.00  0.00     0.098 C 
HETATM    5  C8  UNL     1      -3.162   3.148  12.501  1.00  0.00     0.044 C 
HETATM    6  C9  UNL     1      -3.460   4.641  12.472  1.00  0.00     0.047 C 
HETATM    7  C10 UNL     1      -4.258   4.898  11.202  1.00  0.00     0.122 C 
HETATM    8  C11 UNL     1      -3.295   5.330  10.141  1.00  0.00     0.044 C 
HETATM    9  C12 UNL     1      -3.933   5.607   8.815  1.00  0.00     0.010 C 
HETATM   10  C13 UNL     1      -4.638   6.905   8.715  1.00  0.00     0.015 C 
HETATM   11  C14 UNL     1      -4.045   8.089   9.391  1.00  0.00     0.014 C 
HETATM   12  C15 UNL     1      -5.151   8.041  10.411  1.00  0.00     0.018 C 
HETATM   13  C16 UNL     1      -4.831   7.290  11.676  1.00  0.00     0.042 C 
HETATM   14  C17 UNL     1      -5.339   5.911  11.421  1.00  0.00     0.160 C 
HETATM   15  O2  UNL     1      -6.154   5.939  10.317  1.00  0.00    -0.377 OA
HETATM   16  C18 UNL     1      -5.864   7.031   9.557  1.00  0.00     0.130 C 
HETATM   17  O3  UNL     1      -4.909   3.699  10.842  1.00  0.00    -0.226 OA
HETATM   18  O4  UNL     1      -5.445   3.251  11.983  1.00  0.00    -0.229 OA
HETATM   19  C19 UNL     1      -4.783   2.054  13.987  1.00  0.00     0.074 C 
ENDROOT
BRANCH   1  20
HETATM   20  N2  UNL     1      -4.376   0.005  15.313  1.00  0.00    -0.068 N 
ATOM     21  H22 UNL     1      -3.560  -0.488  15.675  1.00  0.00     0.277 HD
ATOM     22  H21 UNL     1      -4.977  -0.810  15.197  1.00  0.00     0.277 HD
BRANCH  20  23
HETATM   23  C3  UNL     1      -4.907   0.977  16.232  1.00  0.00     0.267 C 
BRANCH  23  24
HETATM   24  C2  UNL     1      -5.946   0.455  17.171  1.00  0.00     0.182 C 
HETATM   25  O1  UNL     1      -5.672   0.902  18.486  1.00  0.00    -0.274 OA
HETATM   26  N1  UNL     1      -6.134   2.198  18.564  1.00  0.00    -0.281 N 
HETATM   27  C1  UNL     1      -7.029   2.431  17.673  1.00  0.00     0.089 C 
ATOM     28  H1  UNL     1      -5.806   2.885  19.243  1.00  0.00     0.193 HD
HETATM   29  C20 UNL     1      -7.239   1.201  16.876  1.00  0.00     0.083 C 
ENDBRANCH  23  24
ENDBRANCH  20  23
ENDBRANCH   1  20
TORSDOF 3
ENDMDL
MODEL 2
REMARK VINA RESULT: -7.991296408      3.011      4.215
REMARK  3 active torsions:
REMARK  status: ('A' for Active; 'I' for Inactive)
REMARK    1  A    between atoms: C2_5  and  C3_6 
REMARK    2  A    between atoms: C3_6  and  N2_7 
REMARK    3  A    between atoms: N2_7  and  C4_10 
ROOT
HETATM    1  C4  UNL     1      -5.054   4.035  14.665  1.00  0.00     0.189 C 
HETATM    2  C5  UNL     1      -3.947   3.645  15.585  1.00  0.00     0.036 C 
HETATM    3  C6  UNL     1      -2.721   4.130  14.799  1.00  0.00     0.043 C 
HETATM    4  C7  UNL     1      -3.143   4.127  13.334  1.00  0.00     0.098 C 
HETATM    5  C8  UNL     1      -3.171   5.534  12.777  1.00  0.00     0.044 C 
HETATM    6  C9  UNL     1      -2.765   5.453  11.311  1.00  0.00     0.047 C 
HETATM    7  C10 UNL     1      -1.353   4.887  11.285  1.00  0.00     0.122 C 
HETATM    8  C11 UNL     1      -0.403   6.043  11.219  1.00  0.00     0.044 C 
HETATM    9  C12 UNL     1       1.040   5.646  11.202  1.00  0.00     0.010 C 
HETATM   10  C13 UNL     1       1.541   5.148   9.901  1.00  0.00     0.015 C 
HETATM   11  C14 UNL     1       1.049   5.796   8.656  1.00  0.00     0.014 C 
HETATM   12  C15 UNL     1       0.249   4.560   8.348  1.00  0.00     0.018 C 
HETATM   13  C16 UNL     1      -1.186   4.589   8.804  1.00  0.00     0.042 C 
HETATM   14  C17 UNL     1      -1.156   3.936  10.145  1.00  0.00     0.160 C 
HETATM   15  O2  UNL     1       0.050   3.300  10.298  1.00  0.00    -0.377 OA
HETATM   16  C18 UNL     1       0.970   3.844   9.454  1.00  0.00     0.130 C 
HETATM   17  O3  UNL     1      -1.158   4.136  12.463  1.00  0.00    -0.226 OA
HETATM   18  O4  UNL     1      -2.260   3.385  12.569  1.00  0.00    -0.229 OA
HETATM   19  C19 UNL     1      -4.561   3.581  13.315  1.00  0.00     0.074 C 
ENDROOT
BRANCH   1  20
HETATM   20  N2  UNL     1      -6.353   3.508  15.019  1.00  0.00    -0.068 N 
ATOM     21  H22 UNL     1      -7.005   3.482  14.235  1.00  0.00     0.277 HD
ATOM     22  H21 UNL     1      -6.894   4.134  15.615  1.00  0.00     0.277 HD
BRANCH  20  23
HETATM   23  C3  UNL     1      -6.125   2.216  15.611  1.00  0.00     0.267 C 
BRANCH  23  24
HETATM   24  C2  UNL     1      -7.128   1.808  16.641  1.00  0.00     0.182 C 
HETATM   25  O1  UNL     1      -7.118   0.400  16.789  1.00  0.00    -0.274 OA
HETATM   26  N1  UNL     1      -6.044   0.099  17.598  1.00  0.00    -0.281 N 
HETATM   27  C1  UNL     1      -5.696   1.110  18.311  1.00  0.00     0.089 C 
ATOM     28  H1  UNL     1      -5.583  -0.811  17.627  1.00  0.00     0.193 HD
HETATM   29  C20 UNL     1      -6.592   2.245  17.995  1.00  0.00     0.083 C 
ENDBRANCH  23  24
ENDBRANCH  20  23
ENDBRANCH   1  20
TORSDOF 3
ENDMDL
MODEL 3
REMARK VINA RESULT: -7.982101036      1.907      3.038
REMARK  3 active torsions:
REMARK  status: ('A' for Active; 'I' for Inactive)
REMARK    1  A    between atoms: C2_5  and  C3_6 
REMARK    2  A    between atoms: C3_6  and  N2_7 
REMARK    3  A    between atoms: N2_7  and  C4_10 
ROOT
HETATM    1  C4  UNL     1      -3.053   4.116  13.400  1.00  0.00     0.189 C 
HETATM    2  C5  UNL     1      -2.718   3.211  12.262  1.00  0.00     0.036 C 
HETATM    3  C6  UNL     1      -3.133   4.075  11.063  1.00  0.00     0.043 C 
HETATM    4  C7  UNL     1      -4.205   5.022  11.588  1.00  0.00     0.098 C 
HETATM    5  C8  UNL     1      -3.725   6.458  11.551  1.00  0.00     0.044 C 
HETATM    6  C9  UNL     1      -4.933   7.336  11.259  1.00  0.00     0.047 C 
HETATM    7  C10 UNL     1      -5.462   6.906   9.899  1.00  0.00     0.122 C 
HETATM    8  C11 UNL     1      -4.870   7.821   8.872  1.00  0.00     0.044 C 
HETATM    9  C12 UNL     1      -5.287   7.512   7.468  1.00  0.00     0.010 C 
HETATM   10  C13 UNL     1      -6.648   7.967   7.101  1.00  0.00     0.015 C 
HETATM   11  C14 UNL     1      -7.129   9.270   7.631  1.00  0.00     0.014 C 
HETATM   12  C15 UNL     1      -8.072   8.534   8.543  1.00  0.00     0.018 C 
HETATM   13  C16 UNL     1      -7.557   8.277   9.934  1.00  0.00     0.042 C 
HETATM   14  C17 UNL     1      -6.959   6.913   9.857  1.00  0.00     0.160 C 
HETATM   15  O2  UNL     1      -7.375   6.315   8.695  1.00  0.00    -0.377 OA
HETATM   16  C18 UNL     1      -7.765   7.264   7.800  1.00  0.00     0.130 C 
HETATM   17  O3  UNL     1      -5.068   5.570   9.677  1.00  0.00    -0.226 OA
HETATM   18  O4  UNL     1      -5.354   4.940  10.822  1.00  0.00    -0.229 OA
HETATM   19  C19 UNL     1      -4.422   4.634  13.041  1.00  0.00     0.074 C 
ENDROOT
BRANCH   1  20
HETATM   20  N2  UNL     1      -2.987   3.498  14.706  1.00  0.00    -0.068 N 
ATOM     21  H22 UNL     1      -2.303   3.934  15.324  1.00  0.00     0.277 HD
ATOM     22  H21 UNL     1      -2.571   2.567  14.691  1.00  0.00     0.277 HD
BRANCH  20  23
HETATM   23  C3  UNL     1      -4.324   3.513  15.238  1.00  0.00     0.267 C 
BRANCH  23  24
HETATM   24  C2  UNL     1      -5.157   2.323  14.888  1.00  0.00     0.182 C 
HETATM   25  O1  UNL     1      -4.346   1.163  14.856  1.00  0.00    -0.274 OA
HETATM   26  N1  UNL     1      -4.179   0.765  16.164  1.00  0.00    -0.281 N 
HETATM   27  C1  UNL     1      -5.115   1.222  16.917  1.00  0.00     0.089 C 
ATOM     28  H1  UNL     1      -3.410   0.181  16.494  1.00  0.00     0.193 HD
HETATM   29  C20 UNL     1      -6.044   2.022  16.087  1.00  0.00     0.083 C 
ENDBRANCH  23  24
ENDBRANCH  20  23
ENDBRANCH   1  20
TORSDOF 3
ENDMDL
MODEL 4
REMARK VINA RESULT: -7.936284855      2.342      3.399
REMARK  3 active torsions:
REMARK  status: ('A' for Active; 'I' for Inactive)
REMARK    1  A    between atoms: C2_5  and  C3_6 
REMARK    2  A    between atoms: C3_6  and  N2_7 
REMARK    3  A    between atoms: N2_7  and  C4_10 
ROOT
HETATM    1  C4  UNL     1      -5.203   4.264  15.241  1.00  0.00     0.189 C 
HETATM    2  C5  UNL     1      -3.979   3.532  15.679  1.00  0.00     0.036 C 
HETATM    3  C6  UNL     1      -2.973   3.964  14.602  1.00  0.00     0.043 C 
HETATM    4  C7  UNL     1      -3.807   4.313  13.375  1.00  0.00     0.098 C 
HETATM    5  C8  UNL     1      -3.705   5.789  13.054  1.00  0.00     0.044 C 
HETATM    6  C9  UNL     1      -3.786   5.933  11.540  1.00  0.00     0.047 C 
HETATM    7  C10 UNL     1      -2.600   5.170  10.969  1.00  0.00     0.122 C 
HETATM    8  C11 UNL     1      -1.493   6.153  10.746  1.00  0.00     0.044 C 
HETATM    9  C12 UNL     1      -0.241   5.545  10.196  1.00  0.00     0.010 C 
HETATM   10  C13 UNL     1      -0.272   5.240   8.748  1.00  0.00     0.015 C 
HETATM   11  C14 UNL     1      -0.968   6.188   7.837  1.00  0.00     0.014 C 
HETATM   12  C15 UNL     1      -2.066   5.177   7.650  1.00  0.00     0.018 C 
HETATM   13  C16 UNL     1      -3.256   5.341   8.558  1.00  0.00     0.042 C 
HETATM   14  C17 UNL     1      -2.962   4.442   9.711  1.00  0.00     0.160 C 
HETATM   15  O2  UNL     1      -1.930   3.607   9.367  1.00  0.00    -0.377 OA
HETATM   16  C18 UNL     1      -1.214   4.154   8.346  1.00  0.00     0.130 C 
HETATM   17  O3  UNL     1      -2.224   4.181  11.902  1.00  0.00    -0.226 OA
HETATM   18  O4  UNL     1      -3.375   3.606  12.267  1.00  0.00    -0.229 OA
HETATM   19  C19 UNL     1      -5.247   4.011  13.756  1.00  0.00     0.074 C 
ENDROOT
BRANCH   1  20
HETATM   20  N2  UNL     1      -6.415   3.887  15.934  1.00  0.00    -0.068 N 
ATOM     21  H22 UNL     1      -7.237   4.401  15.616  1.00  0.00     0.277 HD
ATOM     22  H21 UNL     1      -6.438   4.198  16.905  1.00  0.00     0.277 HD
BRANCH  20  23
HETATM   23  C3  UNL     1      -6.546   2.462  15.790  1.00  0.00     0.267 C 
BRANCH  23  24
HETATM   24  C2  UNL     1      -7.342   1.789  16.861  1.00  0.00     0.182 C 
HETATM   25  O1  UNL     1      -7.141   0.389  16.802  1.00  0.00    -0.274 OA
HETATM   26  N1  UNL     1      -5.938   0.139  17.425  1.00  0.00    -0.281 N 
HETATM   27  C1  UNL     1      -5.621   1.089  18.231  1.00  0.00     0.089 C 
ATOM     28  H1  UNL     1      -5.371  -0.694  17.268  1.00  0.00     0.193 HD
HETATM   29  C20 UNL     1      -6.683   2.120  18.192  1.00  0.00     0.083 C 
ENDBRANCH  23  24
ENDBRANCH  20  23
ENDBRANCH   1  20
TORSDOF 3
ENDMDL
MODEL 5
REMARK VINA RESULT: -7.820014312      1.925      2.918
REMARK  3 active torsions:
REMARK  status: ('A' for Active; 'I' for Inactive)
REMARK    1  A    between atoms: C2_5  and  C3_6 
REMARK    2  A    between atoms: C3_6  and  N2_7 
REMARK    3  A    between atoms: N2_7  and  C4_10 
ROOT
HETATM    1  C4  UNL     1      -3.820   3.715  13.752  1.00  0.00     0.189 C 
HETATM    2  C5  UNL     1      -2.683   3.616  12.791  1.00  0.00     0.036 C 
HETATM    3  C6  UNL     1      -2.971   4.806  11.866  1.00  0.00     0.043 C 
HETATM    4  C7  UNL     1      -4.474   5.041  11.950  1.00  0.00     0.098 C 
HETATM    5  C8  UNL     1      -4.778   6.378  12.592  1.00  0.00     0.044 C 
HETATM    6  C9  UNL     1      -6.044   6.919  11.941  1.00  0.00     0.047 C 
HETATM    7  C10 UNL     1      -5.732   7.086  10.461  1.00  0.00     0.122 C 
HETATM    8  C11 UNL     1      -5.319   8.508  10.243  1.00  0.00     0.044 C 
HETATM    9  C12 UNL     1      -4.961   8.827   8.824  1.00  0.00     0.010 C 
HETATM   10  C13 UNL     1      -6.112   9.013   7.911  1.00  0.00     0.015 C 
HETATM   11  C14 UNL     1      -7.325   9.701   8.428  1.00  0.00     0.014 C 
HETATM   12  C15 UNL     1      -8.058   8.387   8.412  1.00  0.00     0.018 C 
HETATM   13  C16 UNL     1      -8.059   7.633   9.715  1.00  0.00     0.042 C 
HETATM   14  C17 UNL     1      -6.897   6.705   9.601  1.00  0.00     0.160 C 
HETATM   15  O2  UNL     1      -6.491   6.665   8.292  1.00  0.00    -0.377 OA
HETATM   16  C18 UNL     1      -6.916   7.784   7.642  1.00  0.00     0.130 C 
HETATM   17  O3  UNL     1      -4.689   6.196  10.129  1.00  0.00    -0.226 OA
HETATM   18  O4  UNL     1      -5.046   5.035  10.690  1.00  0.00    -0.229 OA
HETATM   19  C19 UNL     1      -5.011   3.948  12.859  1.00  0.00     0.074 C 
ENDROOT
BRANCH   1  20
HETATM   20  N2  UNL     1      -3.966   2.582  14.638  1.00  0.00    -0.068 N 
ATOM     21  H22 UNL     1      -3.075   2.214  14.972  1.00  0.00     0.277 HD
ATOM     22  H21 UNL     1      -4.283   1.737  14.162  1.00  0.00     0.277 HD
BRANCH  20  23
HETATM   23  C3  UNL     1      -4.843   2.999  15.700  1.00  0.00     0.267 C 
BRANCH  23  24
HETATM   24  C2  UNL     1      -6.126   2.239  15.795  1.00  0.00     0.182 C 
HETATM   25  O1  UNL     1      -5.856   0.852  15.890  1.00  0.00    -0.274 OA
HETATM   26  N1  UNL     1      -5.520   0.608  17.203  1.00  0.00    -0.281 N 
HETATM   27  C1  UNL     1      -5.980   1.519  17.983  1.00  0.00     0.089 C 
ATOM     28  H1  UNL     1      -4.974  -0.195  17.517  1.00  0.00     0.193 HD
HETATM   29  C20 UNL     1      -6.716   2.514  17.169  1.00  0.00     0.083 C 
ENDBRANCH  23  24
ENDBRANCH  20  23
ENDBRANCH   1  20
TORSDOF 3
ENDMDL
