MODEL 1
REMARK VINA RESULT: -7.085646848      0.000      0.000
REMARK  5 active torsions:
REMARK  status: ('A' for Active; 'I' for Inactive)
REMARK    1  A    between atoms: O1_2  and  C2_3 
REMARK    2  A    between atoms: C8_10  and  C9_11 
REMARK    3  A    between atoms: C9_11  and  O3_13 
REMARK    4  A    between atoms: O3_13  and  C10_14 
REMARK    5  A    between atoms: C14_18  and  C15_19 
ROOT
HETATM    1  C2  UNL     1      -5.759   2.360  15.997  1.00  0.00     0.120 C 
HETATM    2  C3  UNL     1      -6.316   2.979  14.734  1.00  0.00     0.033 C 
HETATM    3  C4  UNL     1      -5.965   4.470  14.665  1.00  0.00     0.013 C 
HETATM    4  C5  UNL     1      -4.464   4.654  14.355  1.00  0.00    -0.028 C 
HETATM    5  C6  UNL     1      -4.071   5.942  15.036  1.00  0.00     0.020 C 
HETATM    6  C7  UNL     1      -2.888   6.651  14.457  1.00  0.00     0.075 C 
HETATM    7  S1  UNL     1      -3.416   7.209  12.784  1.00  0.00    -0.153 SA
HETATM    8  C8  UNL     1      -4.811   6.096  12.432  1.00  0.00     0.159 C 
HETATM    9  C14 UNL     1      -4.356   4.721  12.878  1.00  0.00     0.084 C 
HETATM   10  C18 UNL     1      -3.805   3.500  15.040  1.00  0.00     0.013 C 
HETATM   11  C19 UNL     1      -4.545   3.182  16.361  1.00  0.00     0.033 C 
ENDROOT
BRANCH   9  12
HETATM   12  C15 UNL     1      -3.095   4.285  12.288  1.00  0.00     0.079 C 
HETATM   13  N1  UNL     1      -2.800   4.278  11.044  1.00  0.00    -0.378 N 
HETATM   14  C16 UNL     1      -1.497   3.799  10.753  1.00  0.00     0.140 C 
ATOM     15  H1  UNL     1      -3.448   4.590  10.321  1.00  0.00     0.160 HD
HETATM   16  C17 UNL     1      -0.785   4.030  12.081  1.00  0.00     0.140 C 
HETATM   17  N2  UNL     1      -1.937   3.797  12.976  1.00  0.00    -0.378 N 
ATOM     18  H2  UNL     1      -1.913   3.371  13.902  1.00  0.00     0.160 HD
ENDBRANCH   9  12
BRANCH   8  19
HETATM   19  C9  UNL     1      -5.366   6.185  11.102  1.00  0.00     0.274 C 
HETATM   20  O2  UNL     1      -5.805   5.263  10.372  1.00  0.00    -0.264 OA
BRANCH  19  21
HETATM   21  O3  UNL     1      -5.444   7.456  10.519  1.00  0.00    -0.310 OA
BRANCH  21  22
HETATM   22  C10 UNL     1      -6.592   8.228  10.562  1.00  0.00     0.060 C 
HETATM   23  C11 UNL     1      -7.375   8.022   9.288  1.00  0.00     0.045 C 
HETATM   24  C12 UNL     1      -6.185   9.689  10.661  1.00  0.00     0.045 C 
HETATM   25  C13 UNL     1      -7.504   7.942  11.723  1.00  0.00     0.045 C 
ENDBRANCH  21  22
ENDBRANCH  19  21
ENDBRANCH   8  19
BRANCH   1  26
HETATM   26  O1  UNL     1      -6.666   2.336  17.032  1.00  0.00    -0.391 OA
HETATM   27  C1  UNL     1      -7.353   1.148  17.108  1.00  0.00     0.202 C 
ENDBRANCH   1  26
TORSDOF 5
ENDMDL
MODEL 2
REMARK VINA RESULT: -6.672674390      0.853      1.244
REMARK  5 active torsions:
REMARK  status: ('A' for Active; 'I' for Inactive)
REMARK    1  A    between atoms: O1_2  and  C2_3 
REMARK    2  A    between atoms: C8_10  and  C9_11 
REMARK    3  A    between atoms: C9_11  and  O3_13 
REMARK    4  A    between atoms: O3_13  and  C10_14 
REMARK    5  A    between atoms: C14_18  and  C15_19 
ROOT
HETATM    1  C2  UNL     1      -5.286   1.919  15.721  1.00  0.00     0.120 C 
HETATM    2  C3  UNL     1      -5.774   2.374  14.363  1.00  0.00     0.033 C 
HETATM    3  C4  UNL     1      -5.768   3.905  14.273  1.00  0.00     0.013 C 
HETATM    4  C5  UNL     1      -4.320   4.430  14.172  1.00  0.00    -0.028 C 
HETATM    5  C6  UNL     1      -4.339   5.783  14.840  1.00  0.00     0.020 C 
HETATM    6  C7  UNL     1      -3.277   6.741  14.402  1.00  0.00     0.075 C 
HETATM    7  S1  UNL     1      -3.661   7.137  12.646  1.00  0.00    -0.153 SA
HETATM    8  C8  UNL     1      -4.695   5.725  12.153  1.00  0.00     0.159 C 
HETATM    9  C14 UNL     1      -4.009   4.501  12.724  1.00  0.00     0.084 C 
HETATM   10  C18 UNL     1      -3.525   3.471  14.999  1.00  0.00     0.013 C 
HETATM   11  C19 UNL     1      -4.362   3.007  16.214  1.00  0.00     0.033 C 
ENDROOT
BRANCH   9  12
HETATM   12  C15 UNL     1      -2.608   4.363  12.342  1.00  0.00     0.079 C 
HETATM   13  N1  UNL     1      -2.163   3.874  11.249  1.00  0.00    -0.378 N 
HETATM   14  C16 UNL     1      -0.748   3.863  11.144  1.00  0.00     0.140 C 
ATOM     15  H1  UNL     1      -2.775   3.520  10.513  1.00  0.00     0.160 HD
HETATM   16  C17 UNL     1      -0.362   4.959  12.129  1.00  0.00     0.140 C 
HETATM   17  N2  UNL     1      -1.458   4.759  13.099  1.00  0.00    -0.378 N 
ATOM     18  H2  UNL     1      -1.406   4.879  14.110  1.00  0.00     0.160 HD
ENDBRANCH   9  12
BRANCH   8  19
HETATM   19  C9  UNL     1      -5.049   5.664  10.754  1.00  0.00     0.274 C 
HETATM   20  O2  UNL     1      -4.337   5.322   9.778  1.00  0.00    -0.264 OA
BRANCH  19  21
HETATM   21  O3  UNL     1      -6.356   6.025  10.404  1.00  0.00    -0.310 OA
BRANCH  21  22
HETATM   22  C10 UNL     1      -6.747   7.341  10.233  1.00  0.00     0.060 C 
HETATM   23  C11 UNL     1      -7.345   7.852  11.521  1.00  0.00     0.045 C 
HETATM   24  C12 UNL     1      -7.805   7.390   9.143  1.00  0.00     0.045 C 
HETATM   25  C13 UNL     1      -5.646   8.280   9.824  1.00  0.00     0.045 C 
ENDBRANCH  21  22
ENDBRANCH  19  21
ENDBRANCH   8  19
BRANCH   1  26
HETATM   26  O1  UNL     1      -6.309   1.698  16.615  1.00  0.00    -0.391 OA
HETATM   27  C1  UNL     1      -6.043   0.662  17.478  1.00  0.00     0.202 C 
ENDBRANCH   1  26
TORSDOF 5
ENDMDL
MODEL 3
REMARK VINA RESULT: -6.588995350      0.793      1.226
REMARK  5 active torsions:
REMARK  status: ('A' for Active; 'I' for Inactive)
REMARK    1  A    between atoms: O1_2  and  C2_3 
REMARK    2  A    between atoms: C8_10  and  C9_11 
REMARK    3  A    between atoms: C9_11  and  O3_13 
REMARK    4  A    between atoms: O3_13  and  C10_14 
REMARK    5  A    between atoms: C14_18  and  C15_19 
ROOT
HETATM    1  C2  UNL     1      -5.644   2.486  15.888  1.00  0.00     0.120 C 
HETATM    2  C3  UNL     1      -6.395   3.279  14.841  1.00  0.00     0.033 C 
HETATM    3  C4  UNL     1      -5.906   4.732  14.812  1.00  0.00     0.013 C 
HETATM    4  C5  UNL     1      -4.500   4.813  14.180  1.00  0.00    -0.028 C 
HETATM    5  C6  UNL     1      -3.827   5.984  14.853  1.00  0.00     0.020 C 
HETATM    6  C7  UNL     1      -2.731   6.641  14.075  1.00  0.00     0.075 C 
HETATM    7  S1  UNL     1      -3.552   7.412  12.619  1.00  0.00    -0.153 SA
HETATM    8  C8  UNL     1      -5.103   6.470  12.510  1.00  0.00     0.159 C 
HETATM    9  C14 UNL     1      -4.714   5.022  12.728  1.00  0.00     0.084 C 
HETATM   10  C18 UNL     1      -3.837   3.540  14.600  1.00  0.00     0.013 C 
HETATM   11  C19 UNL     1      -4.297   3.156  16.026  1.00  0.00     0.033 C 
ENDROOT
BRANCH   9  12
HETATM   12  C15 UNL     1      -3.671   4.538  11.830  1.00  0.00     0.079 C 
HETATM   13  N1  UNL     1      -3.672   4.610  10.554  1.00  0.00    -0.378 N 
HETATM   14  C16 UNL     1      -2.523   4.056   9.934  1.00  0.00     0.140 C 
ATOM     15  H1  UNL     1      -4.437   5.030  10.026  1.00  0.00     0.160 HD
HETATM   16  C17 UNL     1      -1.506   4.120  11.067  1.00  0.00     0.140 C 
HETATM   17  N2  UNL     1      -2.438   3.905  12.193  1.00  0.00    -0.378 N 
ATOM     18  H2  UNL     1      -2.241   3.404  13.059  1.00  0.00     0.160 HD
ENDBRANCH   9  12
BRANCH   8  19
HETATM   19  C9  UNL     1      -5.925   6.744  11.355  1.00  0.00     0.274 C 
HETATM   20  O2  UNL     1      -6.293   5.956  10.449  1.00  0.00    -0.264 OA
BRANCH  19  21
HETATM   21  O3  UNL     1      -6.396   8.053  11.195  1.00  0.00    -0.310 OA
BRANCH  21  22
HETATM   22  C10 UNL     1      -6.110   8.818  10.078  1.00  0.00     0.060 C 
HETATM   23  C11 UNL     1      -5.926  10.257  10.496  1.00  0.00     0.045 C 
HETATM   24  C12 UNL     1      -7.285   8.727   9.120  1.00  0.00     0.045 C 
HETATM   25  C13 UNL     1      -4.884   8.393   9.318  1.00  0.00     0.045 C 
ENDBRANCH  21  22
ENDBRANCH  19  21
ENDBRANCH   8  19
BRANCH   1  26
HETATM   26  O1  UNL     1      -6.297   2.437  17.099  1.00  0.00    -0.391 OA
HETATM   27  C1  UNL     1      -7.239   1.438  17.152  1.00  0.00     0.202 C 
ENDBRANCH   1  26
TORSDOF 5
ENDMDL
MODEL 4
REMARK VINA RESULT: -6.537493374      2.604      5.986
REMARK  5 active torsions:
REMARK  status: ('A' for Active; 'I' for Inactive)
REMARK    1  A    between atoms: O1_2  and  C2_3 
REMARK    2  A    between atoms: C8_10  and  C9_11 
REMARK    3  A    between atoms: C9_11  and  O3_13 
REMARK    4  A    between atoms: O3_13  and  C10_14 
REMARK    5  A    between atoms: C14_18  and  C15_19 
ROOT
HETATM    1  C2  UNL     1      -6.581   8.036  11.117  1.00  0.00     0.120 C 
HETATM    2  C3  UNL     1      -6.264   6.945  12.116  1.00  0.00     0.033 C 
HETATM    3  C4  UNL     1      -5.049   6.130  11.657  1.00  0.00     0.013 C 
HETATM    4  C5  UNL     1      -3.756   6.958  11.820  1.00  0.00    -0.028 C 
HETATM    5  C6  UNL     1      -2.835   6.479  10.724  1.00  0.00     0.020 C 
HETATM    6  C7  UNL     1      -1.372   6.665  10.975  1.00  0.00     0.075 C 
HETATM    7  S1  UNL     1      -0.966   5.546  12.378  1.00  0.00    -0.153 SA
HETATM    8  C8  UNL     1      -2.592   5.291  13.149  1.00  0.00     0.159 C 
HETATM    9  C14 UNL     1      -3.245   6.658  13.180  1.00  0.00     0.084 C 
HETATM   10  C18 UNL     1      -4.184   8.363  11.542  1.00  0.00     0.013 C 
HETATM   11  C19 UNL     1      -5.272   8.372  10.442  1.00  0.00     0.033 C 
ENDROOT
BRANCH   9  12
HETATM   12  C15 UNL     1      -2.445   7.692  13.827  1.00  0.00     0.079 C 
HETATM   13  N1  UNL     1      -2.231   7.813  15.081  1.00  0.00    -0.378 N 
HETATM   14  C16 UNL     1      -1.413   8.917  15.432  1.00  0.00     0.140 C 
ATOM     15  H1  UNL     1      -2.617   7.169  15.772  1.00  0.00     0.160 HD
HETATM   16  C17 UNL     1      -0.662   9.165  14.130  1.00  0.00     0.140 C 
HETATM   17  N2  UNL     1      -1.732   8.761  13.195  1.00  0.00    -0.378 N 
ATOM     18  H2  UNL     1      -1.925   9.165  12.279  1.00  0.00     0.160 HD
ENDBRANCH   9  12
BRANCH   8  19
HETATM   19  C9  UNL     1      -2.591   4.556  14.392  1.00  0.00     0.274 C 
HETATM   20  O2  UNL     1      -1.671   3.866  14.894  1.00  0.00    -0.264 OA
BRANCH  19  21
HETATM   21  O3  UNL     1      -3.755   4.601  15.169  1.00  0.00    -0.310 OA
BRANCH  21  22
HETATM   22  C10 UNL     1      -4.775   3.675  15.040  1.00  0.00     0.060 C 
HETATM   23  C11 UNL     1      -6.101   4.362  15.262  1.00  0.00     0.045 C 
HETATM   24  C12 UNL     1      -4.588   2.605  16.103  1.00  0.00     0.045 C 
HETATM   25  C13 UNL     1      -4.829   2.974  13.711  1.00  0.00     0.045 C 
ENDBRANCH  21  22
ENDBRANCH  19  21
ENDBRANCH   8  19
BRANCH   1  26
HETATM   26  O1  UNL     1      -7.530   7.662  10.193  1.00  0.00    -0.391 OA
HETATM   27  C1  UNL     1      -7.035   7.622   8.911  1.00  0.00     0.202 C 
ENDBRANCH   1  26
TORSDOF 5
ENDMDL
MODEL 5
REMARK VINA RESULT: -6.507620313      2.089      2.868
REMARK  5 active torsions:
REMARK  status: ('A' for Active; 'I' for Inactive)
REMARK    1  A    between atoms: O1_2  and  C2_3 
REMARK    2  A    between atoms: C8_10  and  C9_11 
REMARK    3  A    between atoms: C9_11  and  O3_13 
REMARK    4  A    between atoms: O3_13  and  C10_14 
REMARK    5  A    between atoms: C14_18  and  C15_19 
ROOT
HETATM    1  C2  UNL     1      -4.521   1.013  15.769  1.00  0.00     0.120 C 
HETATM    2  C3  UNL     1      -4.389   1.075  14.263  1.00  0.00     0.033 C 
HETATM    3  C4  UNL     1      -5.205   2.244  13.698  1.00  0.00     0.013 C 
HETATM    4  C5  UNL     1      -4.521   3.587  14.033  1.00  0.00    -0.028 C 
HETATM    5  C6  UNL     1      -5.645   4.586  14.163  1.00  0.00     0.020 C 
HETATM    6  C7  UNL     1      -5.279   6.015  13.915  1.00  0.00     0.075 C 
HETATM    7  S1  UNL     1      -4.842   6.110  12.130  1.00  0.00    -0.153 SA
HETATM    8  C8  UNL     1      -4.450   4.378  11.739  1.00  0.00     0.159 C 
HETATM    9  C14 UNL     1      -3.612   3.879  12.898  1.00  0.00     0.084 C 
HETATM   10  C18 UNL     1      -3.895   3.354  15.371  1.00  0.00     0.013 C 
HETATM   11  C19 UNL     1      -4.798   2.428  16.219  1.00  0.00     0.033 C 
ENDROOT
BRANCH   9  12
HETATM   12  C15 UNL     1      -2.438   4.695  13.186  1.00  0.00     0.079 C 
HETATM   13  N1  UNL     1      -1.437   4.886  12.414  1.00  0.00    -0.378 N 
HETATM   14  C16 UNL     1      -0.432   5.728  12.954  1.00  0.00     0.140 C 
ATOM     15  H1  UNL     1      -1.368   4.467  11.487  1.00  0.00     0.160 HD
HETATM   16  C17 UNL     1      -1.221   6.514  13.994  1.00  0.00     0.140 C 
HETATM   17  N2  UNL     1      -2.176   5.453  14.373  1.00  0.00    -0.378 N 
ATOM     18  H2  UNL     1      -2.572   5.292  15.299  1.00  0.00     0.160 HD
ENDBRANCH   9  12
BRANCH   8  19
HETATM   19  C9  UNL     1      -3.919   4.136  10.417  1.00  0.00     0.274 C 
HETATM   20  O2  UNL     1      -3.018   3.335  10.068  1.00  0.00    -0.264 OA
BRANCH  19  21
HETATM   21  O3  UNL     1      -4.464   4.874   9.359  1.00  0.00    -0.310 OA
BRANCH  21  22
HETATM   22  C10 UNL     1      -3.738   5.821   8.658  1.00  0.00     0.060 C 
HETATM   23  C11 UNL     1      -4.566   7.074   8.514  1.00  0.00     0.045 C 
HETATM   24  C12 UNL     1      -3.434   5.266   7.276  1.00  0.00     0.045 C 
HETATM   25  C13 UNL     1      -2.423   6.199   9.283  1.00  0.00     0.045 C 
ENDBRANCH  21  22
ENDBRANCH  19  21
ENDBRANCH   8  19
BRANCH   1  26
HETATM   26  O1  UNL     1      -5.514   0.158  16.188  1.00  0.00    -0.391 OA
HETATM   27  C1  UNL     1      -6.179   0.623  17.298  1.00  0.00     0.202 C 
ENDBRANCH   1  26
TORSDOF 5
ENDMDL
