MODEL 1
REMARK VINA RESULT: -7.566870590      0.000      0.000
REMARK  3 active torsions:
REMARK  status: ('A' for Active; 'I' for Inactive)
REMARK    1  A    between atoms: C2_2  and  C3_3 
REMARK    2  A    between atoms: C14_19  and  O4_20 
REMARK    3  A    between atoms: C15_23  and  O6_24 
ROOT
HETATM    1  C3  UNL     1      -4.164   1.939  14.875  1.00  0.00     0.019 C 
HETATM    2  C4  UNL     1      -4.524   0.635  14.248  1.00  0.00     0.010 C 
HETATM    3  C5  UNL     1      -3.719   0.220  13.051  1.00  0.00     0.043 C 
HETATM    4  C6  UNL     1      -3.774   1.206  11.903  1.00  0.00     0.112 C 
HETATM    5  C7  UNL     1      -5.188   1.490  11.644  1.00  0.00     0.211 C 
HETATM    6  O1  UNL     1      -5.873   2.222  12.544  1.00  0.00    -0.355 OA
HETATM    7  C8  UNL     1      -5.556   3.290  13.220  1.00  0.00     0.297 C 
HETATM    8  O2  UNL     1      -4.792   4.353  12.462  1.00  0.00    -0.299 OA
HETATM    9  C9  UNL     1      -3.959   4.023  11.348  1.00  0.00     0.207 A 
HETATM   10  N1  UNL     1      -3.911   4.254  10.156  1.00  0.00    -0.240 N 
ATOM     11  H1  UNL     1      -4.461   4.813   9.503  1.00  0.00     0.196 HD
HETATM   12  O3  UNL     1      -2.842   3.473  10.059  1.00  0.00    -0.229 OA
HETATM   13  C10 UNL     1      -2.799   3.244  11.380  1.00  0.00     0.258 A 
HETATM   14  C11 UNL     1      -1.321   3.489  11.655  1.00  0.00     0.080 C 
HETATM   15  C12 UNL     1      -0.818   2.272  10.799  1.00  0.00     0.008 C 
HETATM   16  C13 UNL     1      -1.427   0.981  11.105  1.00  0.00     0.035 C 
HETATM   17  C14 UNL     1      -2.906   0.717  10.762  1.00  0.00     0.155 C 
HETATM   18  O5  UNL     1      -3.030   2.267  12.292  1.00  0.00    -0.331 OA
HETATM   19  C15 UNL     1      -4.951   3.131  14.590  1.00  0.00     0.180 C 
ENDROOT
BRANCH   1  20
HETATM   20  C2  UNL     1      -4.227   1.709  16.406  1.00  0.00     0.003 C 
HETATM   21  C1  UNL     1      -5.621   1.759  16.921  1.00  0.00     0.005 C 
ENDBRANCH   1  20
BRANCH  19  22
HETATM   22  O6  UNL     1      -4.165   4.262  14.773  1.00  0.00    -0.385 OA
HETATM   23  C16 UNL     1      -2.851   4.037  15.054  1.00  0.00     0.202 C 
ENDBRANCH  19  22
BRANCH  17  24
HETATM   24  O4  UNL     1      -3.038  -0.692  10.636  1.00  0.00    -0.392 OA
ATOM     25  H4  UNL     1      -2.471  -1.121  11.266  1.00  0.00     0.210 HD
ENDBRANCH  17  24
TORSDOF 3
ENDMDL
MODEL 2
REMARK VINA RESULT: -7.025065335      2.267      4.895
REMARK  3 active torsions:
REMARK  status: ('A' for Active; 'I' for Inactive)
REMARK    1  A    between atoms: C2_2  and  C3_3 
REMARK    2  A    between atoms: C14_19  and  O4_20 
REMARK    3  A    between atoms: C15_23  and  O6_24 
ROOT
HETATM    1  C3  UNL     1      -3.472   5.074   9.353  1.00  0.00     0.019 C 
HETATM    2  C4  UNL     1      -2.046   4.732   9.622  1.00  0.00     0.010 C 
HETATM    3  C5  UNL     1      -1.762   3.319  10.044  1.00  0.00     0.043 C 
HETATM    4  C6  UNL     1      -2.483   2.900  11.308  1.00  0.00     0.112 C 
HETATM    5  C7  UNL     1      -2.215   3.927  12.319  1.00  0.00     0.211 C 
HETATM    6  O1  UNL     1      -2.789   5.137  12.177  1.00  0.00    -0.355 OA
HETATM    7  C8  UNL     1      -3.990   5.493  11.815  1.00  0.00     0.297 C 
HETATM    8  O2  UNL     1      -5.126   4.668  12.378  1.00  0.00    -0.299 OA
HETATM    9  C9  UNL     1      -4.943   3.299  12.747  1.00  0.00     0.207 A 
HETATM   10  N1  UNL     1      -4.994   2.620  13.753  1.00  0.00    -0.240 N 
ATOM     11  H1  UNL     1      -5.222   2.791  14.732  1.00  0.00     0.196 HD
HETATM   12  O3  UNL     1      -4.629   1.560  13.043  1.00  0.00    -0.229 OA
HETATM   13  C10 UNL     1      -4.629   2.242  11.888  1.00  0.00     0.258 A 
HETATM   14  C11 UNL     1      -5.412   1.282  11.000  1.00  0.00     0.080 C 
HETATM   15  C12 UNL     1      -4.332   0.142  11.045  1.00  0.00     0.008 C 
HETATM   16  C13 UNL     1      -2.971   0.538  10.694  1.00  0.00     0.035 C 
HETATM   17  C14 UNL     1      -2.161   1.455  11.630  1.00  0.00     0.155 C 
HETATM   18  O5  UNL     1      -3.782   2.752  10.960  1.00  0.00    -0.331 OA
HETATM   19  C15 UNL     1      -4.258   5.774  10.360  1.00  0.00     0.180 C 
ENDROOT
BRANCH   1  20
HETATM   20  C2  UNL     1      -3.467   5.961   8.083  1.00  0.00     0.003 C 
HETATM   21  C1  UNL     1      -3.923   5.217   6.880  1.00  0.00     0.005 C 
ENDBRANCH   1  20
BRANCH  19  22
HETATM   22  O6  UNL     1      -5.606   5.488  10.178  1.00  0.00    -0.385 OA
HETATM   23  C16 UNL     1      -6.397   6.539   9.824  1.00  0.00     0.202 C 
ENDBRANCH  19  22
BRANCH  17  24
HETATM   24  O4  UNL     1      -0.792   1.201  11.348  1.00  0.00    -0.392 OA
ATOM     25  H4  UNL     1      -0.498   1.782  10.657  1.00  0.00     0.210 HD
ENDBRANCH  17  24
TORSDOF 3
ENDMDL
MODEL 3
REMARK VINA RESULT: -6.783500023      1.724      3.907
REMARK  3 active torsions:
REMARK  status: ('A' for Active; 'I' for Inactive)
REMARK    1  A    between atoms: C2_2  and  C3_3 
REMARK    2  A    between atoms: C14_19  and  O4_20 
REMARK    3  A    between atoms: C15_23  and  O6_24 
ROOT
HETATM    1  C3  UNL     1      -2.936   0.669  11.780  1.00  0.00     0.019 C 
HETATM    2  C4  UNL     1      -2.024   1.216  10.735  1.00  0.00     0.010 C 
HETATM    3  C5  UNL     1      -1.316   2.499  11.067  1.00  0.00     0.043 C 
HETATM    4  C6  UNL     1      -2.248   3.650  11.379  1.00  0.00     0.112 C 
HETATM    5  C7  UNL     1      -3.219   3.731  10.284  1.00  0.00     0.211 C 
HETATM    6  O1  UNL     1      -4.153   2.766  10.179  1.00  0.00    -0.355 OA
HETATM    7  C8  UNL     1      -4.882   2.160  11.074  1.00  0.00     0.297 C 
HETATM    8  O2  UNL     1      -5.449   3.032  12.171  1.00  0.00    -0.299 OA
HETATM    9  C9  UNL     1      -4.796   4.237  12.580  1.00  0.00     0.207 A 
HETATM   10  N1  UNL     1      -5.028   5.430  12.592  1.00  0.00    -0.240 N 
ATOM     11  H1  UNL     1      -5.817   6.018  12.325  1.00  0.00     0.196 HD
HETATM   12  O3  UNL     1      -3.820   5.647  13.097  1.00  0.00    -0.229 OA
HETATM   13  C10 UNL     1      -3.538   4.339  13.178  1.00  0.00     0.258 A 
HETATM   14  C11 UNL     1      -2.991   4.262  14.599  1.00  0.00     0.080 C 
HETATM   15  C12 UNL     1      -1.728   5.150  14.307  1.00  0.00     0.008 C 
HETATM   16  C13 UNL     1      -0.908   4.740  13.171  1.00  0.00     0.035 C 
HETATM   17  C14 UNL     1      -1.443   4.883  11.733  1.00  0.00     0.155 C 
HETATM   18  O5  UNL     1      -2.769   3.384  12.599  1.00  0.00    -0.331 OA
HETATM   19  C15 UNL     1      -4.375   0.876  11.676  1.00  0.00     0.180 C 
ENDROOT
BRANCH   1  20
HETATM   20  C2  UNL     1      -2.698  -0.861  11.797  1.00  0.00     0.003 C 
HETATM   21  C1  UNL     1      -3.725  -1.595  11.010  1.00  0.00     0.005 C 
ENDBRANCH   1  20
BRANCH  19  22
HETATM   22  O6  UNL     1      -4.945   0.820  12.943  1.00  0.00    -0.385 OA
HETATM   23  C16 UNL     1      -4.076   0.685  13.983  1.00  0.00     0.202 C 
ENDBRANCH  19  22
BRANCH  17  24
HETATM   24  O4  UNL     1      -0.301   4.962  10.891  1.00  0.00    -0.392 OA
ATOM     25  H4  UNL     1      -0.514   4.608  10.035  1.00  0.00     0.210 HD
ENDBRANCH  17  24
TORSDOF 3
ENDMDL
MODEL 4
REMARK VINA RESULT: -6.735349230      1.975      4.157
REMARK  3 active torsions:
REMARK  status: ('A' for Active; 'I' for Inactive)
REMARK    1  A    between atoms: C2_2  and  C3_3 
REMARK    2  A    between atoms: C14_19  and  O4_20 
REMARK    3  A    between atoms: C15_23  and  O6_24 
ROOT
HETATM    1  C3  UNL     1      -2.615   1.499  11.641  1.00  0.00     0.019 C 
HETATM    2  C4  UNL     1      -2.449   2.164  10.317  1.00  0.00     0.010 C 
HETATM    3  C5  UNL     1      -2.003   3.598  10.336  1.00  0.00     0.043 C 
HETATM    4  C6  UNL     1      -2.935   4.519  11.095  1.00  0.00     0.112 C 
HETATM    5  C7  UNL     1      -4.288   4.286  10.580  1.00  0.00     0.211 C 
HETATM    6  O1  UNL     1      -4.899   3.124  10.880  1.00  0.00    -0.355 OA
HETATM    7  C8  UNL     1      -4.963   2.433  11.983  1.00  0.00     0.297 C 
HETATM    8  O2  UNL     1      -5.154   3.230  13.255  1.00  0.00    -0.299 OA
HETATM    9  C9  UNL     1      -4.701   4.581  13.365  1.00  0.00     0.207 A 
HETATM   10  N1  UNL     1      -5.183   5.684  13.535  1.00  0.00    -0.240 N 
ATOM     11  H1  UNL     1      -6.123   6.049  13.691  1.00  0.00     0.196 HD
HETATM   12  O3  UNL     1      -3.972   6.216  13.430  1.00  0.00    -0.229 OA
HETATM   13  C10 UNL     1      -3.376   5.020  13.315  1.00  0.00     0.258 A 
HETATM   14  C11 UNL     1      -2.236   5.182  14.314  1.00  0.00     0.080 C 
HETATM   15  C12 UNL     1      -1.507   6.317  13.507  1.00  0.00     0.008 C 
HETATM   16  C13 UNL     1      -1.231   6.026  12.104  1.00  0.00     0.035 C 
HETATM   17  C14 UNL     1      -2.384   5.930  11.087  1.00  0.00     0.155 C 
HETATM   18  O5  UNL     1      -2.754   4.231  12.404  1.00  0.00    -0.331 OA
HETATM   19  C15 UNL     1      -3.941   1.354  12.225  1.00  0.00     0.180 C 
ENDROOT
BRANCH   1  20
HETATM   20  C2  UNL     1      -2.032   0.073  11.479  1.00  0.00     0.003 C 
HETATM   21  C1  UNL     1      -3.045  -0.890  10.970  1.00  0.00     0.005 C 
ENDBRANCH   1  20
BRANCH  19  22
HETATM   22  O6  UNL     1      -3.831   1.262  13.609  1.00  0.00    -0.385 OA
HETATM   23  C16 UNL     1      -4.395   0.163  14.181  1.00  0.00     0.202 C 
ENDBRANCH  19  22
BRANCH  17  24
HETATM   24  O4  UNL     1      -1.815   6.209   9.815  1.00  0.00    -0.392 OA
ATOM     25  H4  UNL     1      -1.619   7.137   9.753  1.00  0.00     0.210 HD
ENDBRANCH  17  24
TORSDOF 3
ENDMDL
MODEL 5
REMARK VINA RESULT: -6.680367308      2.330      4.183
REMARK  3 active torsions:
REMARK  status: ('A' for Active; 'I' for Inactive)
REMARK    1  A    between atoms: C2_2  and  C3_3 
REMARK    2  A    between atoms: C14_19  and  O4_20 
REMARK    3  A    between atoms: C15_23  and  O6_24 
ROOT
HETATM    1  C3  UNL     1      -5.537   3.814  14.369  1.00  0.00     0.019 C 
HETATM    2  C4  UNL     1      -5.935   5.251  14.374  1.00  0.00     0.010 C 
HETATM    3  C5  UNL     1      -5.732   6.008  13.094  1.00  0.00     0.043 C 
HETATM    4  C6  UNL     1      -4.297   6.028  12.613  1.00  0.00     0.112 C 
HETATM    5  C7  UNL     1      -3.469   6.464  13.741  1.00  0.00     0.211 C 
HETATM    6  O1  UNL     1      -3.300   5.622  14.779  1.00  0.00    -0.355 OA
HETATM    7  C8  UNL     1      -3.084   4.337  14.832  1.00  0.00     0.297 C 
HETATM    8  O2  UNL     1      -2.110   3.785  13.814  1.00  0.00    -0.299 OA
HETATM    9  C9  UNL     1      -1.910   4.422  12.550  1.00  0.00     0.207 A 
HETATM   10  N1  UNL     1      -1.009   4.973  11.948  1.00  0.00    -0.240 N 
ATOM     11  H1  UNL     1      -0.024   5.161  12.132  1.00  0.00     0.196 HD
HETATM   12  O3  UNL     1      -1.847   5.227  10.951  1.00  0.00    -0.229 OA
HETATM   13  C10 UNL     1      -2.858   4.566  11.533  1.00  0.00     0.258 A 
HETATM   14  C11 UNL     1      -3.346   3.721  10.363  1.00  0.00     0.080 C 
HETATM   15  C12 UNL     1      -3.822   4.945   9.500  1.00  0.00     0.008 C 
HETATM   16  C13 UNL     1      -4.720   5.884  10.165  1.00  0.00     0.035 C 
HETATM   17  C14 UNL     1      -4.202   6.783  11.304  1.00  0.00     0.155 C 
HETATM   18  O5  UNL     1      -4.044   4.781  12.154  1.00  0.00    -0.331 OA
HETATM   19  C15 UNL     1      -4.262   3.406  14.944  1.00  0.00     0.180 C 
ENDROOT
BRANCH   1  20
HETATM   20  C2  UNL     1      -6.646   3.060  15.144  1.00  0.00     0.003 C 
HETATM   21  C1  UNL     1      -6.681   3.441  16.581  1.00  0.00     0.005 C 
ENDBRANCH   1  20
BRANCH  19  22
HETATM   22  O6  UNL     1      -3.844   2.220  14.351  1.00  0.00    -0.385 OA
HETATM   23  C16 UNL     1      -4.068   1.083  15.066  1.00  0.00     0.202 C 
ENDBRANCH  19  22
BRANCH  17  24
HETATM   24  O4  UNL     1      -5.066   7.911  11.343  1.00  0.00    -0.392 OA
ATOM     25  H4  UNL     1      -4.959   8.363  12.172  1.00  0.00     0.210 HD
ENDBRANCH  17  24
TORSDOF 3
ENDMDL
