MODEL 1
REMARK VINA RESULT: -6.601459755      0.000      0.000
REMARK  4 active torsions:
REMARK  status: ('A' for Active; 'I' for Inactive)
REMARK    1  A    between atoms: C2_2  and  S1_3 
REMARK    2  A    between atoms: S1_3  and  C3_4 
REMARK    3  A    between atoms: C5_10  and  N3_11 
REMARK       I    between atoms: N4_14  and  C8_15 
REMARK    4  A    between atoms: C8_15  and  C9_17 
ROOT
HETATM    1  C3  UNL     1      -0.571   9.678  14.664  1.00  0.00     0.176 A 
HETATM    2  N1  UNL     1      -1.680   9.193  15.250  1.00  0.00    -0.165 N 
ATOM      3  H1  UNL     1      -2.238   9.695  15.941  1.00  0.00     0.186 HD
HETATM    4  C4  UNL     1      -1.952   7.955  14.801  1.00  0.00     0.736 A 
HETATM    5  N2  UNL     1      -2.734   6.861  14.817  1.00  0.00    -0.018 N 
ATOM      6  H2  UNL     1      -3.568   6.759  15.397  1.00  0.00     0.203 HD
HETATM    7  C5  UNL     1      -2.280   5.922  13.974  1.00  0.00     0.711 A 
HETATM    8  N5  UNL     1      -1.179   6.443  13.413  1.00  0.00    -0.095 N 
ATOM      9  H5  UNL     1      -0.590   5.981  12.720  1.00  0.00     0.208 HD
HETATM   10  N6  UNL     1      -0.981   7.670  13.913  1.00  0.00    -0.003 N 
HETATM   11  N7  UNL     1      -0.155   8.709  13.835  1.00  0.00    -0.242 N 
ATOM     12  H7  UNL     1       0.669   8.762  13.236  1.00  0.00     0.192 HD
ENDROOT
BRANCH   7  13
HETATM   13  N3  UNL     1      -2.849   4.622  13.716  1.00  0.00    -0.213 N 
HETATM   14  C6  UNL     1      -3.952   4.175  14.530  1.00  0.00     0.161 C 
HETATM   15  C7  UNL     1      -4.183   2.696  14.446  1.00  0.00     0.146 C 
HETATM   16  N4  UNL     1      -3.943   2.157  13.119  1.00  0.00    -0.348 N 
HETATM   17  C8  UNL     1      -4.131   0.789  12.877  1.00  0.00     0.227 C 
HETATM   18  C13 UNL     1      -3.517   3.049  12.076  1.00  0.00     0.146 C 
HETATM   19  O1  UNL     1      -4.519   0.063  13.870  1.00  0.00    -0.273 OA
HETATM   20  C14 UNL     1      -2.301   3.802  12.657  1.00  0.00     0.161 C 
BRANCH  17  21
HETATM   21  C9  UNL     1      -3.938   0.080  11.612  1.00  0.00     0.030 C 
HETATM   22  C10 UNL     1      -4.001  -1.438  11.821  1.00  0.00     0.025 C 
HETATM   23  C11 UNL     1      -2.548   0.369  11.089  1.00  0.00     0.025 C 
HETATM   24  C12 UNL     1      -4.989   0.442  10.591  1.00  0.00     0.025 C 
ENDBRANCH  17  21
ENDBRANCH   7  13
BRANCH   1  25
HETATM   25  S1  UNL     1       0.197  11.292  14.933  1.00  0.00    -0.092 SA
BRANCH  25  26
HETATM   26  C2  UNL     1      -0.905  12.584  14.306  1.00  0.00     0.078 C 
HETATM   27  C1  UNL     1      -1.687  12.046  13.136  1.00  0.00     0.016 C 
ENDBRANCH  25  26
ENDBRANCH   1  25
TORSDOF 4
ENDMDL
MODEL 2
REMARK VINA RESULT: -6.562355145      0.981      1.266
REMARK  4 active torsions:
REMARK  status: ('A' for Active; 'I' for Inactive)
REMARK    1  A    between atoms: C2_2  and  S1_3 
REMARK    2  A    between atoms: S1_3  and  C3_4 
REMARK    3  A    between atoms: C5_10  and  N3_11 
REMARK       I    between atoms: N4_14  and  C8_15 
REMARK    4  A    between atoms: C8_15  and  C9_17 
ROOT
HETATM    1  C3  UNL     1      -0.581   9.697  14.593  1.00  0.00     0.176 A 
HETATM    2  N1  UNL     1      -1.715   9.231  15.146  1.00  0.00    -0.165 N 
ATOM      3  H1  UNL     1      -2.297   9.752  15.801  1.00  0.00     0.186 HD
HETATM    4  C4  UNL     1      -1.975   7.983  14.716  1.00  0.00     0.736 A 
HETATM    5  N2  UNL     1      -2.764   6.894  14.728  1.00  0.00    -0.018 N 
ATOM      6  H2  UNL     1      -3.620   6.810  15.277  1.00  0.00     0.203 HD
HETATM    7  C5  UNL     1      -2.282   5.932  13.927  1.00  0.00     0.711 A 
HETATM    8  N5  UNL     1      -1.156   6.434  13.398  1.00  0.00    -0.095 N 
ATOM      9  H5  UNL     1      -0.542   5.953  12.740  1.00  0.00     0.208 HD
HETATM   10  N6  UNL     1      -0.971   7.672  13.875  1.00  0.00    -0.003 N 
HETATM   11  N7  UNL     1      -0.138   8.706  13.804  1.00  0.00    -0.242 N 
ATOM     12  H7  UNL     1       0.710   8.740  13.237  1.00  0.00     0.192 HD
ENDROOT
BRANCH   7  13
HETATM   13  N3  UNL     1      -2.846   4.628  13.679  1.00  0.00    -0.213 N 
HETATM   14  C6  UNL     1      -3.942   4.181  14.501  1.00  0.00     0.161 C 
HETATM   15  C7  UNL     1      -4.168   2.700  14.426  1.00  0.00     0.146 C 
HETATM   16  N4  UNL     1      -3.934   2.156  13.100  1.00  0.00    -0.348 N 
HETATM   17  C8  UNL     1      -4.118   0.786  12.865  1.00  0.00     0.227 C 
HETATM   18  C13 UNL     1      -3.518   3.046  12.050  1.00  0.00     0.146 C 
HETATM   19  O1  UNL     1      -4.497   0.064  13.864  1.00  0.00    -0.273 OA
HETATM   20  C14 UNL     1      -2.302   3.806  12.620  1.00  0.00     0.161 C 
BRANCH  17  21
HETATM   21  C9  UNL     1      -3.929   0.073  11.602  1.00  0.00     0.030 C 
HETATM   22  C10 UNL     1      -4.003  -1.445  11.815  1.00  0.00     0.025 C 
HETATM   23  C11 UNL     1      -2.538   0.350  11.078  1.00  0.00     0.025 C 
HETATM   24  C12 UNL     1      -4.978   0.439  10.580  1.00  0.00     0.025 C 
ENDBRANCH  17  21
ENDBRANCH   7  13
BRANCH   1  25
HETATM   25  S1  UNL     1       0.184  11.314  14.852  1.00  0.00    -0.092 SA
BRANCH  25  26
HETATM   26  C2  UNL     1       1.636  11.119  15.914  1.00  0.00     0.078 C 
HETATM   27  C1  UNL     1       1.697  12.265  16.890  1.00  0.00     0.016 C 
ENDBRANCH  25  26
ENDBRANCH   1  25
TORSDOF 4
ENDMDL
MODEL 3
REMARK VINA RESULT: -6.142479062      4.830      6.040
REMARK  4 active torsions:
REMARK  status: ('A' for Active; 'I' for Inactive)
REMARK    1  A    between atoms: C2_2  and  S1_3 
REMARK    2  A    between atoms: S1_3  and  C3_4 
REMARK    3  A    between atoms: C5_10  and  N3_11 
REMARK       I    between atoms: N4_14  and  C8_15 
REMARK    4  A    between atoms: C8_15  and  C9_17 
ROOT
HETATM    1  C3  UNL     1      -5.736   8.278   9.261  1.00  0.00     0.176 A 
HETATM    2  N1  UNL     1      -5.017   7.143   9.227  1.00  0.00    -0.165 N 
ATOM      3  H1  UNL     1      -4.504   6.805   8.413  1.00  0.00     0.186 HD
HETATM    4  C4  UNL     1      -5.065   6.514  10.415  1.00  0.00     0.736 A 
HETATM    5  N2  UNL     1      -4.707   5.477  11.193  1.00  0.00    -0.018 N 
ATOM      6  H2  UNL     1      -4.114   4.706  10.887  1.00  0.00     0.203 HD
HETATM    7  C5  UNL     1      -5.231   5.585  12.424  1.00  0.00     0.711 A 
HETATM    8  N5  UNL     1      -5.938   6.725  12.416  1.00  0.00    -0.095 N 
ATOM      9  H5  UNL     1      -6.466   7.102  13.203  1.00  0.00     0.208 HD
HETATM   10  N6  UNL     1      -5.838   7.285  11.202  1.00  0.00    -0.003 N 
HETATM   11  N7  UNL     1      -6.238   8.343  10.504  1.00  0.00    -0.242 N 
ATOM     12  H7  UNL     1      -6.835   9.091  10.859  1.00  0.00     0.192 HD
ENDROOT
BRANCH   7  13
HETATM   13  N3  UNL     1      -5.073   4.674  13.530  1.00  0.00    -0.213 N 
HETATM   14  C6  UNL     1      -3.769   4.531  14.128  1.00  0.00     0.161 C 
HETATM   15  C7  UNL     1      -3.640   3.296  14.969  1.00  0.00     0.146 C 
HETATM   16  N4  UNL     1      -4.854   2.975  15.697  1.00  0.00    -0.348 N 
HETATM   17  C8  UNL     1      -4.888   1.855  16.541  1.00  0.00     0.227 C 
HETATM   18  C13 UNL     1      -6.003   3.823  15.535  1.00  0.00     0.146 C 
HETATM   19  O1  UNL     1      -3.809   1.154  16.629  1.00  0.00    -0.273 OA
HETATM   20  C14 UNL     1      -6.217   3.930  14.010  1.00  0.00     0.161 C 
BRANCH  17  21
HETATM   21  C9  UNL     1      -6.017   1.386  17.343  1.00  0.00     0.030 C 
HETATM   22  C10 UNL     1      -6.086   2.135  18.680  1.00  0.00     0.025 C 
HETATM   23  C11 UNL     1      -5.806  -0.070  17.694  1.00  0.00     0.025 C 
HETATM   24  C12 UNL     1      -7.338   1.590  16.641  1.00  0.00     0.025 C 
ENDBRANCH  17  21
ENDBRANCH   7  13
BRANCH   1  25
HETATM   25  S1  UNL     1      -5.977   9.467   7.921  1.00  0.00    -0.092 SA
BRANCH  25  26
HETATM   26  C2  UNL     1      -7.311   8.884   6.845  1.00  0.00     0.078 C 
HETATM   27  C1  UNL     1      -8.434   8.346   7.693  1.00  0.00     0.016 C 
ENDBRANCH  25  26
ENDBRANCH   1  25
TORSDOF 4
ENDMDL
MODEL 4
REMARK VINA RESULT: -6.093455879      4.342      5.306
REMARK  4 active torsions:
REMARK  status: ('A' for Active; 'I' for Inactive)
REMARK    1  A    between atoms: C2_2  and  S1_3 
REMARK    2  A    between atoms: S1_3  and  C3_4 
REMARK    3  A    between atoms: C5_10  and  N3_11 
REMARK       I    between atoms: N4_14  and  C8_15 
REMARK    4  A    between atoms: C8_15  and  C9_17 
ROOT
HETATM    1  C3  UNL     1      -5.474   8.984   9.847  1.00  0.00     0.176 A 
HETATM    2  N1  UNL     1      -6.498   8.379  10.473  1.00  0.00    -0.165 N 
ATOM      3  H1  UNL     1      -7.482   8.580  10.303  1.00  0.00     0.186 HD
HETATM    4  C4  UNL     1      -6.044   7.469  11.356  1.00  0.00     0.736 A 
HETATM    5  N2  UNL     1      -6.295   6.532  12.286  1.00  0.00    -0.018 N 
ATOM      6  H2  UNL     1      -7.230   6.255  12.586  1.00  0.00     0.203 HD
HETATM    7  C5  UNL     1      -5.160   6.007  12.771  1.00  0.00     0.711 A 
HETATM    8  N5  UNL     1      -4.167   6.636  12.124  1.00  0.00    -0.095 N 
ATOM      9  H5  UNL     1      -3.170   6.469  12.260  1.00  0.00     0.208 HD
HETATM   10  N6  UNL     1      -4.702   7.519  11.270  1.00  0.00    -0.003 N 
HETATM   11  N7  UNL     1      -4.365   8.430  10.362  1.00  0.00    -0.242 N 
ATOM     12  H7  UNL     1      -3.410   8.671  10.097  1.00  0.00     0.192 HD
ENDROOT
BRANCH   7  13
HETATM   13  N3  UNL     1      -5.023   4.982  13.776  1.00  0.00    -0.213 N 
HETATM   14  C6  UNL     1      -3.710   4.697  14.299  1.00  0.00     0.161 C 
HETATM   15  C7  UNL     1      -3.633   3.378  15.009  1.00  0.00     0.146 C 
HETATM   16  N4  UNL     1      -4.839   3.064  15.754  1.00  0.00    -0.348 N 
HETATM   17  C8  UNL     1      -4.916   1.869  16.485  1.00  0.00     0.227 C 
HETATM   18  C13 UNL     1      -5.933   3.994  15.726  1.00  0.00     0.146 C 
HETATM   19  O1  UNL     1      -3.885   1.096  16.458  1.00  0.00    -0.273 OA
HETATM   20  C14 UNL     1      -6.196   4.267  14.230  1.00  0.00     0.161 C 
BRANCH  17  21
HETATM   21  C9  UNL     1      -6.044   1.394  17.286  1.00  0.00     0.030 C 
HETATM   22  C10 UNL     1      -6.120   2.145  18.622  1.00  0.00     0.025 C 
HETATM   23  C11 UNL     1      -5.824  -0.059  17.640  1.00  0.00     0.025 C 
HETATM   24  C12 UNL     1      -7.365   1.588  16.581  1.00  0.00     0.025 C 
ENDBRANCH  17  21
ENDBRANCH   7  13
BRANCH   1  25
HETATM   25  S1  UNL     1      -5.567  10.270   8.580  1.00  0.00    -0.092 SA
BRANCH  25  26
HETATM   26  C2  UNL     1      -6.554  11.651   9.209  1.00  0.00     0.078 C 
HETATM   27  C1  UNL     1      -6.149  11.945  10.630  1.00  0.00     0.016 C 
ENDBRANCH  25  26
ENDBRANCH   1  25
TORSDOF 4
ENDMDL
MODEL 5
REMARK VINA RESULT: -6.000476517      1.747      2.284
REMARK  4 active torsions:
REMARK  status: ('A' for Active; 'I' for Inactive)
REMARK    1  A    between atoms: C2_2  and  S1_3 
REMARK    2  A    between atoms: S1_3  and  C3_4 
REMARK    3  A    between atoms: C5_10  and  N3_11 
REMARK       I    between atoms: N4_14  and  C8_15 
REMARK    4  A    between atoms: C8_15  and  C9_17 
ROOT
HETATM    1  C3  UNL     1       0.381  10.145  15.178  1.00  0.00     0.176 A 
HETATM    2  N1  UNL     1      -0.740   9.553  15.627  1.00  0.00    -0.165 N 
ATOM      3  H1  UNL     1      -1.242   9.826  16.471  1.00  0.00     0.186 HD
HETATM    4  C4  UNL     1      -1.109   8.552  14.807  1.00  0.00     0.736 A 
HETATM    5  N2  UNL     1      -1.963   7.560  14.501  1.00  0.00    -0.018 N 
ATOM      6  H2  UNL     1      -2.784   7.315  15.056  1.00  0.00     0.203 HD
HETATM    7  C5  UNL     1      -1.599   6.931  13.373  1.00  0.00     0.711 A 
HETATM    8  N5  UNL     1      -0.482   7.549  12.961  1.00  0.00    -0.095 N 
ATOM      9  H5  UNL     1       0.053   7.313  12.125  1.00  0.00     0.208 HD
HETATM   10  N6  UNL     1      -0.187   8.527  13.827  1.00  0.00    -0.003 N 
HETATM   11  N7  UNL     1       0.705   9.486  14.055  1.00  0.00    -0.242 N 
ATOM     12  H7  UNL     1       1.513   9.691  13.466  1.00  0.00     0.192 HD
ENDROOT
BRANCH   7  13
HETATM   13  N3  UNL     1      -2.262   5.824  12.729  1.00  0.00    -0.213 N 
HETATM   14  C6  UNL     1      -3.008   6.072  11.521  1.00  0.00     0.161 C 
HETATM   15  C7  UNL     1      -3.961   4.965  11.180  1.00  0.00     0.146 C 
HETATM   16  N4  UNL     1      -3.440   3.648  11.502  1.00  0.00    -0.348 N 
HETATM   17  C8  UNL     1      -4.209   2.507  11.229  1.00  0.00     0.227 C 
HETATM   18  C13 UNL     1      -2.136   3.545  12.096  1.00  0.00     0.146 C 
HETATM   19  O1  UNL     1      -5.366   2.693  10.690  1.00  0.00    -0.273 OA
HETATM   20  C14 UNL     1      -2.165   4.501  13.308  1.00  0.00     0.161 C 
BRANCH  17  21
HETATM   21  C9  UNL     1      -3.846   1.114  11.485  1.00  0.00     0.030 C 
HETATM   22  C10 UNL     1      -4.814   0.158  10.776  1.00  0.00     0.025 C 
HETATM   23  C11 UNL     1      -3.988   0.828  12.963  1.00  0.00     0.025 C 
HETATM   24  C12 UNL     1      -2.453   0.791  11.000  1.00  0.00     0.025 C 
ENDBRANCH  17  21
ENDBRANCH   7  13
BRANCH   1  25
HETATM   25  S1  UNL     1       1.264  11.534  15.926  1.00  0.00    -0.092 SA
BRANCH  25  26
HETATM   26  C2  UNL     1       0.416  13.075  15.498  1.00  0.00     0.078 C 
HETATM   27  C1  UNL     1       0.600  14.070  16.614  1.00  0.00     0.016 C 
ENDBRANCH  25  26
ENDBRANCH   1  25
TORSDOF 4
ENDMDL
