MODEL 1
REMARK VINA RESULT: -6.834529285      0.000      0.000
REMARK  4 active torsions:
REMARK  status: ('A' for Active; 'I' for Inactive)
REMARK    1  A    between atoms: C3_3  and  O1_4 
REMARK    2  A    between atoms: N1_6  and  C4_7 
REMARK    3  A    between atoms: C4_7  and  C5_8 
REMARK    4  A    between atoms: C8_11  and  N2_12 
ROOT
HETATM    1  C5  UNL     1      -3.279   1.992  12.085  1.00  0.00     0.004 C 
HETATM    2  C6  UNL     1      -2.307   1.069  11.332  1.00  0.00     0.008 C 
HETATM    3  C7  UNL     1      -0.993   1.837  11.312  1.00  0.00     0.036 C 
HETATM    4  C8  UNL     1      -1.295   3.278  11.016  1.00  0.00     0.223 C 
HETATM    5  C13 UNL     1      -2.557   3.499  10.227  1.00  0.00     0.036 C 
HETATM    6  C14 UNL     1      -3.731   3.034  11.092  1.00  0.00     0.008 C 
ENDROOT
BRANCH   1   7
HETATM    7  C4  UNL     1      -4.356   1.137  12.646  1.00  0.00     0.140 C 
BRANCH   7   8
HETATM    8  N1  UNL     1      -4.864   1.543  13.931  1.00  0.00    -0.278 N 
HETATM    9  C3  UNL     1      -4.789   0.844  15.085  1.00  0.00     0.169 A 
HETATM   10  C2  UNL     1      -5.395   1.549  16.103  1.00  0.00     0.063 A 
HETATM   11  C1  UNL     1      -5.548   1.166  17.532  1.00  0.00     0.073 C 
HETATM   12  N3  UNL     1      -5.828   2.681  15.522  1.00  0.00    -0.304 N 
HETATM   13  C15 UNL     1      -5.510   2.681  14.210  1.00  0.00     0.330 A 
HETATM   14  C16 UNL     1      -6.542   3.759  16.204  1.00  0.00     0.161 C 
HETATM   15  O2  UNL     1      -5.808   3.635  13.439  1.00  0.00    -0.246 OA
BRANCH   9  16
HETATM   16  O1  UNL     1      -4.195  -0.403  15.250  1.00  0.00    -0.344 OA
ATOM     17  H1  UNL     1      -3.815  -0.908  14.541  1.00  0.00     0.219 HD
ENDBRANCH   9  16
ENDBRANCH   7   8
ENDBRANCH   1   7
BRANCH   4  18
HETATM   18  N2  UNL     1      -0.140   3.889  10.426  1.00  0.00     0.094 N 
HETATM   19  C9  UNL     1      -0.327   4.543   9.183  1.00  0.00     0.283 C 
HETATM   20  C10 UNL     1       0.917   4.229   8.336  1.00  0.00     0.104 C 
HETATM   21  S1  UNL     1       2.323   3.858   9.455  1.00  0.00    -0.166 SA
HETATM   22  C11 UNL     1       2.057   4.883  10.933  1.00  0.00     0.104 C 
HETATM   23  C12 UNL     1       0.611   4.710  11.341  1.00  0.00     0.283 C 
ENDBRANCH   4  18
TORSDOF 4
ENDMDL
MODEL 2
REMARK VINA RESULT: -6.779104386      0.412      1.862
REMARK  4 active torsions:
REMARK  status: ('A' for Active; 'I' for Inactive)
REMARK    1  A    between atoms: C3_3  and  O1_4 
REMARK    2  A    between atoms: N1_6  and  C4_7 
REMARK    3  A    between atoms: C4_7  and  C5_8 
REMARK    4  A    between atoms: C8_11  and  N2_12 
ROOT
HETATM    1  C5  UNL     1      -3.269   1.930  12.093  1.00  0.00     0.004 C 
HETATM    2  C6  UNL     1      -2.283   1.025  11.336  1.00  0.00     0.008 C 
HETATM    3  C7  UNL     1      -0.980   1.812  11.319  1.00  0.00     0.036 C 
HETATM    4  C8  UNL     1      -1.303   3.250  11.030  1.00  0.00     0.223 C 
HETATM    5  C13 UNL     1      -2.569   3.456  10.242  1.00  0.00     0.036 C 
HETATM    6  C14 UNL     1      -3.735   2.969  11.105  1.00  0.00     0.008 C 
ENDROOT
BRANCH   1   7
HETATM    7  C4  UNL     1      -4.332   1.056  12.650  1.00  0.00     0.140 C 
BRANCH   7   8
HETATM    8  N1  UNL     1      -4.847   1.449  13.937  1.00  0.00    -0.278 N 
HETATM    9  C3  UNL     1      -5.502   2.594  14.228  1.00  0.00     0.169 A 
HETATM   10  C2  UNL     1      -5.830   2.621  15.567  1.00  0.00     0.063 A 
HETATM   11  C1  UNL     1      -6.551   3.680  16.323  1.00  0.00     0.073 C 
HETATM   12  N3  UNL     1      -5.353   1.465  16.058  1.00  0.00    -0.304 N 
HETATM   13  C15 UNL     1      -4.757   0.754  15.077  1.00  0.00     0.330 A 
HETATM   14  C16 UNL     1      -5.458   1.032  17.450  1.00  0.00     0.161 C 
HETATM   15  O2  UNL     1      -4.227  -0.373  15.281  1.00  0.00    -0.246 OA
BRANCH   9  16
HETATM   16  O1  UNL     1      -5.813   3.610  13.331  1.00  0.00    -0.344 OA
ATOM     17  H1  UNL     1      -5.282   3.833  12.576  1.00  0.00     0.219 HD
ENDBRANCH   9  16
ENDBRANCH   7   8
ENDBRANCH   1   7
BRANCH   4  18
HETATM   18  N2  UNL     1      -0.157   3.880  10.444  1.00  0.00     0.094 N 
HETATM   19  C9  UNL     1      -0.355   4.539   9.204  1.00  0.00     0.283 C 
HETATM   20  C10 UNL     1       0.894   4.247   8.355  1.00  0.00     0.104 C 
HETATM   21  S1  UNL     1       2.305   3.890   9.472  1.00  0.00    -0.166 SA
HETATM   22  C11 UNL     1       2.025   4.903  10.955  1.00  0.00     0.104 C 
HETATM   23  C12 UNL     1       0.582   4.708  11.362  1.00  0.00     0.283 C 
ENDBRANCH   4  18
TORSDOF 4
ENDMDL
MODEL 3
REMARK VINA RESULT: -6.575537042      3.417      7.372
REMARK  4 active torsions:
REMARK  status: ('A' for Active; 'I' for Inactive)
REMARK    1  A    between atoms: C3_3  and  O1_4 
REMARK    2  A    between atoms: N1_6  and  C4_7 
REMARK    3  A    between atoms: C4_7  and  C5_8 
REMARK    4  A    between atoms: C8_11  and  N2_12 
ROOT
HETATM    1  C5  UNL     1      -3.053   1.887  11.925  1.00  0.00     0.004 C 
HETATM    2  C6  UNL     1      -4.335   2.736  11.909  1.00  0.00     0.008 C 
HETATM    3  C7  UNL     1      -4.601   3.049  13.375  1.00  0.00     0.036 C 
HETATM    4  C8  UNL     1      -4.341   1.806  14.176  1.00  0.00     0.223 C 
HETATM    5  C13 UNL     1      -4.527   0.523  13.411  1.00  0.00     0.036 C 
HETATM    6  C14 UNL     1      -3.473   0.489  12.302  1.00  0.00     0.008 C 
ENDROOT
BRANCH   1   7
HETATM    7  C4  UNL     1      -2.416   2.024  10.590  1.00  0.00     0.140 C 
BRANCH   7   8
HETATM    8  N1  UNL     1      -1.694   3.250  10.370  1.00  0.00    -0.278 N 
HETATM    9  C3  UNL     1      -0.615   3.686  11.058  1.00  0.00     0.169 A 
HETATM   10  C2  UNL     1      -0.206   4.907  10.568  1.00  0.00     0.063 A 
HETATM   11  C1  UNL     1       0.932   5.753  11.018  1.00  0.00     0.073 C 
HETATM   12  N3  UNL     1      -1.068   5.181   9.573  1.00  0.00    -0.304 N 
HETATM   13  C15 UNL     1      -1.968   4.183   9.451  1.00  0.00     0.330 A 
HETATM   14  C16 UNL     1      -1.041   6.383   8.741  1.00  0.00     0.161 C 
HETATM   15  O2  UNL     1      -2.888   4.201   8.587  1.00  0.00    -0.246 OA
BRANCH   9  16
HETATM   16  O1  UNL     1       0.008   3.022  12.109  1.00  0.00    -0.344 OA
ATOM     17  H1  UNL     1      -0.294   2.197  12.470  1.00  0.00     0.219 HD
ENDBRANCH   9  16
ENDBRANCH   7   8
ENDBRANCH   1   7
BRANCH   4  18
HETATM   18  N2  UNL     1      -5.101   1.861  15.390  1.00  0.00     0.094 N 
HETATM   19  C9  UNL     1      -4.465   1.388  16.565  1.00  0.00     0.283 C 
HETATM   20  C10 UNL     1      -5.538   0.631  17.364  1.00  0.00     0.104 C 
HETATM   21  S1  UNL     1      -7.193   1.280  16.906  1.00  0.00    -0.166 SA
HETATM   22  C11 UNL     1      -6.941   3.040  16.529  1.00  0.00     0.104 C 
HETATM   23  C12 UNL     1      -5.737   3.133  15.617  1.00  0.00     0.283 C 
ENDBRANCH   4  18
TORSDOF 4
ENDMDL
MODEL 4
REMARK VINA RESULT: -6.541053200      0.663      1.305
REMARK  4 active torsions:
REMARK  status: ('A' for Active; 'I' for Inactive)
REMARK    1  A    between atoms: C3_3  and  O1_4 
REMARK    2  A    between atoms: N1_6  and  C4_7 
REMARK    3  A    between atoms: C4_7  and  C5_8 
REMARK    4  A    between atoms: C8_11  and  N2_12 
ROOT
HETATM    1  C5  UNL     1      -3.261   2.032  12.089  1.00  0.00     0.004 C 
HETATM    2  C6  UNL     1      -2.255   1.151  11.328  1.00  0.00     0.008 C 
HETATM    3  C7  UNL     1      -0.981   1.983  11.281  1.00  0.00     0.036 C 
HETATM    4  C8  UNL     1      -1.359   3.405  10.978  1.00  0.00     0.223 C 
HETATM    5  C13 UNL     1      -2.643   3.555  10.207  1.00  0.00     0.036 C 
HETATM    6  C14 UNL     1      -3.779   3.040  11.094  1.00  0.00     0.008 C 
ENDROOT
BRANCH   1   7
HETATM    7  C4  UNL     1      -4.284   1.129  12.674  1.00  0.00     0.140 C 
BRANCH   7   8
HETATM    8  N1  UNL     1      -4.810   1.534  13.952  1.00  0.00    -0.278 N 
HETATM    9  C3  UNL     1      -4.708   0.858  15.118  1.00  0.00     0.169 A 
HETATM   10  C2  UNL     1      -5.344   1.554  16.123  1.00  0.00     0.063 A 
HETATM   11  C1  UNL     1      -5.483   1.190  17.558  1.00  0.00     0.073 C 
HETATM   12  N3  UNL     1      -5.825   2.657  15.522  1.00  0.00    -0.304 N 
HETATM   13  C15 UNL     1      -5.505   2.648  14.211  1.00  0.00     0.330 A 
HETATM   14  C16 UNL     1      -6.584   3.715  16.186  1.00  0.00     0.161 C 
HETATM   15  O2  UNL     1      -5.842   3.576  13.424  1.00  0.00    -0.246 OA
BRANCH   9  16
HETATM   16  O1  UNL     1      -4.062  -0.359  15.304  1.00  0.00    -0.344 OA
ATOM     17  H1  UNL     1      -3.574  -0.810  14.625  1.00  0.00     0.219 HD
ENDBRANCH   9  16
ENDBRANCH   7   8
ENDBRANCH   1   7
BRANCH   4  18
HETATM   18  N2  UNL     1      -0.245   4.067  10.365  1.00  0.00     0.094 N 
HETATM   19  C9  UNL     1       1.022   3.879  10.972  1.00  0.00     0.283 C 
HETATM   20  C10 UNL     1       1.742   5.236  10.900  1.00  0.00     0.104 C 
HETATM   21  S1  UNL     1       1.058   6.201   9.496  1.00  0.00    -0.166 SA
HETATM   22  C11 UNL     1       0.599   4.974   8.236  1.00  0.00     0.104 C 
HETATM   23  C12 UNL     1      -0.174   3.881   8.939  1.00  0.00     0.283 C 
ENDBRANCH   4  18
TORSDOF 4
ENDMDL
MODEL 5
REMARK VINA RESULT: -6.520047783      0.776      2.271
REMARK  4 active torsions:
REMARK  status: ('A' for Active; 'I' for Inactive)
REMARK    1  A    between atoms: C3_3  and  O1_4 
REMARK    2  A    between atoms: N1_6  and  C4_7 
REMARK    3  A    between atoms: C4_7  and  C5_8 
REMARK    4  A    between atoms: C8_11  and  N2_12 
ROOT
HETATM    1  C5  UNL     1      -3.275   1.999  12.073  1.00  0.00     0.004 C 
HETATM    2  C6  UNL     1      -2.255   1.122  11.327  1.00  0.00     0.008 C 
HETATM    3  C7  UNL     1      -0.985   1.959  11.296  1.00  0.00     0.036 C 
HETATM    4  C8  UNL     1      -1.365   3.379  10.985  1.00  0.00     0.223 C 
HETATM    5  C13 UNL     1      -2.639   3.522  10.198  1.00  0.00     0.036 C 
HETATM    6  C14 UNL     1      -3.784   3.004  11.070  1.00  0.00     0.008 C 
ENDROOT
BRANCH   1   7
HETATM    7  C4  UNL     1      -4.302   1.093  12.646  1.00  0.00     0.140 C 
BRANCH   7   8
HETATM    8  N1  UNL     1      -4.826   1.482  13.930  1.00  0.00    -0.278 N 
HETATM    9  C3  UNL     1      -5.466   2.635  14.224  1.00  0.00     0.169 A 
HETATM   10  C2  UNL     1      -5.810   2.655  15.558  1.00  0.00     0.063 A 
HETATM   11  C1  UNL     1      -6.523   3.719  16.316  1.00  0.00     0.073 C 
HETATM   12  N3  UNL     1      -5.358   1.486  16.044  1.00  0.00    -0.304 N 
HETATM   13  C15 UNL     1      -4.762   0.775  15.064  1.00  0.00     0.330 A 
HETATM   14  C16 UNL     1      -5.487   1.043  17.431  1.00  0.00     0.161 C 
HETATM   15  O2  UNL     1      -4.252  -0.362  15.264  1.00  0.00    -0.246 OA
BRANCH   9  16
HETATM   16  O1  UNL     1      -5.749   3.664  13.332  1.00  0.00    -0.344 OA
ATOM     17  H1  UNL     1      -5.716   3.573  12.388  1.00  0.00     0.219 HD
ENDBRANCH   9  16
ENDBRANCH   7   8
ENDBRANCH   1   7
BRANCH   4  18
HETATM   18  N2  UNL     1      -0.246   4.045  10.387  1.00  0.00     0.094 N 
HETATM   19  C9  UNL     1       1.024   3.811  10.971  1.00  0.00     0.283 C 
HETATM   20  C10 UNL     1       1.768   5.157  10.944  1.00  0.00     0.104 C 
HETATM   21  S1  UNL     1       1.087   6.188   9.587  1.00  0.00    -0.166 SA
HETATM   22  C11 UNL     1       0.592   5.021   8.285  1.00  0.00     0.104 C 
HETATM   23  C12 UNL     1      -0.193   3.914   8.953  1.00  0.00     0.283 C 
ENDBRANCH   4  18
TORSDOF 4
ENDMDL
