MODEL 1
REMARK VINA RESULT: -7.539482646      0.000      0.000
REMARK  6 active torsions:
REMARK  status: ('A' for Active; 'I' for Inactive)
REMARK    1  A    between atoms: C2_2  and  O2_4 
REMARK    2  A    between atoms: O2_4  and  C3_5 
REMARK    3  A    between atoms: C8_12  and  C9_13 
REMARK    4  A    between atoms: C12_16  and  O5_17 
REMARK    5  A    between atoms: O5_17  and  C13_18 
REMARK    6  A    between atoms: C15_21  and  O7_22 
ROOT
HETATM    1  C3  UNL     1      -4.796   4.918  12.842  1.00  0.00     0.134 C 
HETATM    2  C4  UNL     1      -4.741   4.892  14.353  1.00  0.00     0.033 C 
HETATM    3  C5  UNL     1      -4.300   3.600  14.940  1.00  0.00     0.012 C 
HETATM    4  C6  UNL     1      -5.315   2.495  14.708  1.00  0.00     0.111 C 
HETATM    5  C7  UNL     1      -4.524   1.267  14.383  1.00  0.00     0.259 C 
HETATM    6  O3  UNL     1      -4.801   0.290  15.169  1.00  0.00    -0.265 OA
HETATM    7  O4  UNL     1      -3.670   1.297  13.385  1.00  0.00    -0.313 OA
HETATM    8  C8  UNL     1      -3.415   0.993  12.097  1.00  0.00     0.167 C 
HETATM    9  C12 UNL     1      -3.061   2.115  11.176  1.00  0.00     0.190 C 
HETATM   10  C15 UNL     1      -3.857   3.364  11.180  1.00  0.00     0.152 C 
HETATM   11  C16 UNL     1      -3.574   4.388  12.187  1.00  0.00     0.067 C 
ENDROOT
BRANCH   1  12
HETATM   12  O2  UNL     1      -5.107   6.245  12.458  1.00  0.00    -0.316 OA
BRANCH  12  13
HETATM   13  C2  UNL     1      -6.024   6.567  11.510  1.00  0.00     0.255 C 
HETATM   14  C1  UNL     1      -7.061   7.637  11.697  1.00  0.00     0.126 C 
HETATM   15  O1  UNL     1      -6.035   5.972  10.429  1.00  0.00    -0.266 OA
ENDBRANCH  12  13
ENDBRANCH   1  12
BRANCH  10  16
HETATM   16  O7  UNL     1      -5.217   3.097  11.120  1.00  0.00    -0.393 OA
ATOM     17  H7  UNL     1      -5.710   3.686  11.678  1.00  0.00     0.210 HD
ENDBRANCH  10  16
BRANCH   9  18
HETATM   18  O5  UNL     1      -1.703   2.494  11.347  1.00  0.00    -0.311 OA
BRANCH  18  19
HETATM   19  C13 UNL     1      -0.935   2.949  10.307  1.00  0.00     0.255 C 
HETATM   20  C14 UNL     1       0.368   3.593  10.568  1.00  0.00     0.126 C 
HETATM   21  O6  UNL     1      -1.329   2.824   9.137  1.00  0.00    -0.266 OA
ENDBRANCH  18  19
ENDBRANCH   9  18
BRANCH   8  22
HETATM   22  C9  UNL     1      -4.263  -0.092  11.500  1.00  0.00     0.010 C 
HETATM   23  C10 UNL     1      -3.658  -1.479  11.756  1.00  0.00     0.012 C 
HETATM   24  C11 UNL     1      -4.557  -0.032  10.058  1.00  0.00     0.012 C 
ENDBRANCH   8  22
TORSDOF 6
ENDMDL
MODEL 2
REMARK VINA RESULT: -7.493058158      1.834      5.958
REMARK  6 active torsions:
REMARK  status: ('A' for Active; 'I' for Inactive)
REMARK    1  A    between atoms: C2_2  and  O2_4 
REMARK    2  A    between atoms: O2_4  and  C3_5 
REMARK    3  A    between atoms: C8_12  and  C9_13 
REMARK    4  A    between atoms: C12_16  and  O5_17 
REMARK    5  A    between atoms: O5_17  and  C13_18 
REMARK    6  A    between atoms: C15_21  and  O7_22 
ROOT
HETATM    1  C3  UNL     1      -2.865   1.885  11.081  1.00  0.00     0.134 C 
HETATM    2  C4  UNL     1      -1.470   2.379  10.773  1.00  0.00     0.033 C 
HETATM    3  C5  UNL     1      -1.013   3.521  11.608  1.00  0.00     0.012 C 
HETATM    4  C6  UNL     1      -1.796   4.787  11.315  1.00  0.00     0.111 C 
HETATM    5  C7  UNL     1      -2.034   5.443  12.639  1.00  0.00     0.259 C 
HETATM    6  O3  UNL     1      -1.597   6.651  12.668  1.00  0.00    -0.265 OA
HETATM    7  O4  UNL     1      -2.631   4.767  13.594  1.00  0.00    -0.313 OA
HETATM    8  C8  UNL     1      -3.771   4.513  14.265  1.00  0.00     0.167 C 
HETATM    9  C12 UNL     1      -4.277   3.108  14.268  1.00  0.00     0.190 C 
HETATM   10  C15 UNL     1      -4.331   2.331  13.007  1.00  0.00     0.152 C 
HETATM   11  C16 UNL     1      -3.120   1.666  12.527  1.00  0.00     0.067 C 
ENDROOT
BRANCH   1  12
HETATM   12  O2  UNL     1      -3.084   0.730  10.291  1.00  0.00    -0.316 OA
BRANCH  12  13
HETATM   13  C2  UNL     1      -3.831  -0.331  10.686  1.00  0.00     0.255 C 
HETATM   14  C1  UNL     1      -3.243  -1.575  11.289  1.00  0.00     0.126 C 
HETATM   15  O1  UNL     1      -5.059  -0.307  10.560  1.00  0.00    -0.266 OA
ENDBRANCH  12  13
ENDBRANCH   1  12
BRANCH  10  16
HETATM   16  O7  UNL     1      -4.928   3.060  11.989  1.00  0.00    -0.393 OA
ATOM     17  H7  UNL     1      -5.850   3.207  12.164  1.00  0.00     0.210 HD
ENDBRANCH  10  16
BRANCH   9  18
HETATM   18  O5  UNL     1      -3.560   2.319  15.205  1.00  0.00    -0.311 OA
BRANCH  18  19
HETATM   19  C13 UNL     1      -4.189   1.475  16.084  1.00  0.00     0.255 C 
HETATM   20  C14 UNL     1      -5.440   1.888  16.749  1.00  0.00     0.126 C 
HETATM   21  O6  UNL     1      -3.709   0.356  16.328  1.00  0.00    -0.266 OA
ENDBRANCH  18  19
ENDBRANCH   9  18
BRANCH   8  22
HETATM   22  C9  UNL     1      -4.824   5.580  14.194  1.00  0.00     0.010 C 
HETATM   23  C10 UNL     1      -6.094   5.165  14.950  1.00  0.00     0.012 C 
HETATM   24  C11 UNL     1      -5.269   6.033  12.865  1.00  0.00     0.012 C 
ENDBRANCH   8  22
TORSDOF 6
ENDMDL
MODEL 3
REMARK VINA RESULT: -7.448016172      2.265      5.403
REMARK  6 active torsions:
REMARK  status: ('A' for Active; 'I' for Inactive)
REMARK    1  A    between atoms: C2_2  and  O2_4 
REMARK    2  A    between atoms: O2_4  and  C3_5 
REMARK    3  A    between atoms: C8_12  and  C9_13 
REMARK    4  A    between atoms: C12_16  and  O5_17 
REMARK    5  A    between atoms: O5_17  and  C13_18 
REMARK    6  A    between atoms: C15_21  and  O7_22 
ROOT
HETATM    1  C3  UNL     1      -4.713   1.983  15.223  1.00  0.00     0.134 C 
HETATM    2  C4  UNL     1      -4.280   0.751  14.461  1.00  0.00     0.033 C 
HETATM    3  C5  UNL     1      -3.840   1.002  13.063  1.00  0.00     0.012 C 
HETATM    4  C6  UNL     1      -4.989   1.452  12.179  1.00  0.00     0.111 C 
HETATM    5  C7  UNL     1      -4.438   2.527  11.297  1.00  0.00     0.259 C 
HETATM    6  O3  UNL     1      -4.606   2.267  10.051  1.00  0.00    -0.265 OA
HETATM    7  O4  UNL     1      -3.866   3.577  11.843  1.00  0.00    -0.313 OA
HETATM    8  C8  UNL     1      -3.978   4.866  12.220  1.00  0.00     0.167 C 
HETATM    9  C12 UNL     1      -3.755   5.190  13.661  1.00  0.00     0.190 C 
HETATM   10  C15 UNL     1      -4.392   4.371  14.718  1.00  0.00     0.152 C 
HETATM   11  C16 UNL     1      -3.759   3.116  15.126  1.00  0.00     0.067 C 
ENDROOT
BRANCH   1  12
HETATM   12  O2  UNL     1      -4.973   1.581  16.555  1.00  0.00    -0.316 OA
BRANCH  12  13
HETATM   13  C2  UNL     1      -6.015   0.793  16.922  1.00  0.00     0.255 C 
HETATM   14  C1  UNL     1      -7.443   1.259  16.910  1.00  0.00     0.126 C 
HETATM   15  O1  UNL     1      -5.817  -0.368  17.289  1.00  0.00    -0.266 OA
ENDBRANCH  12  13
ENDBRANCH   1  12
BRANCH  10  16
HETATM   16  O7  UNL     1      -5.742   4.181  14.466  1.00  0.00    -0.393 OA
ATOM     17  H7  UNL     1      -5.885   3.441  13.889  1.00  0.00     0.210 HD
ENDBRANCH  10  16
BRANCH   9  18
HETATM   18  O5  UNL     1      -2.367   5.234  13.955  1.00  0.00    -0.311 OA
BRANCH  18  19
HETATM   19  C13 UNL     1      -1.609   6.356  13.742  1.00  0.00     0.255 C 
HETATM   20  C14 UNL     1      -1.923   7.614  14.447  1.00  0.00     0.126 C 
HETATM   21  O6  UNL     1      -0.651   6.323  12.953  1.00  0.00    -0.266 OA
ENDBRANCH  18  19
ENDBRANCH   9  18
BRANCH   8  22
HETATM   22  C9  UNL     1      -5.057   5.655  11.538  1.00  0.00     0.010 C 
HETATM   23  C10 UNL     1      -4.736   5.876  10.053  1.00  0.00     0.012 C 
HETATM   24  C11 UNL     1      -5.402   6.980  12.083  1.00  0.00     0.012 C 
ENDBRANCH   8  22
TORSDOF 6
ENDMDL
MODEL 4
REMARK VINA RESULT: -7.350165545      1.770      5.094
REMARK  6 active torsions:
REMARK  status: ('A' for Active; 'I' for Inactive)
REMARK    1  A    between atoms: C2_2  and  O2_4 
REMARK    2  A    between atoms: O2_4  and  C3_5 
REMARK    3  A    between atoms: C8_12  and  C9_13 
REMARK    4  A    between atoms: C12_16  and  O5_17 
REMARK    5  A    between atoms: O5_17  and  C13_18 
REMARK    6  A    between atoms: C15_21  and  O7_22 
ROOT
HETATM    1  C3  UNL     1      -5.103   2.751  15.475  1.00  0.00     0.134 C 
HETATM    2  C4  UNL     1      -6.264   3.712  15.590  1.00  0.00     0.033 C 
HETATM    3  C5  UNL     1      -6.500   4.553  14.387  1.00  0.00     0.012 C 
HETATM    4  C6  UNL     1      -5.376   5.547  14.160  1.00  0.00     0.111 C 
HETATM    5  C7  UNL     1      -5.139   5.576  12.683  1.00  0.00     0.259 C 
HETATM    6  O3  UNL     1      -5.237   6.762  12.199  1.00  0.00    -0.265 OA
HETATM    7  O4  UNL     1      -4.870   4.456  12.052  1.00  0.00    -0.313 OA
HETATM    8  C8  UNL     1      -3.932   3.651  11.514  1.00  0.00     0.167 C 
HETATM    9  C12 UNL     1      -3.826   2.258  12.044  1.00  0.00     0.190 C 
HETATM   10  C15 UNL     1      -3.824   2.013  13.506  1.00  0.00     0.152 C 
HETATM   11  C16 UNL     1      -5.099   1.957  14.221  1.00  0.00     0.067 C 
ENDROOT
BRANCH   1  12
HETATM   12  O2  UNL     1      -5.104   1.952  16.645  1.00  0.00    -0.316 OA
BRANCH  12  13
HETATM   13  C2  UNL     1      -5.935   0.899  16.845  1.00  0.00     0.255 C 
HETATM   14  C1  UNL     1      -7.402   1.050  17.128  1.00  0.00     0.126 C 
HETATM   15  O1  UNL     1      -5.499  -0.254  16.800  1.00  0.00    -0.266 OA
ENDBRANCH  12  13
ENDBRANCH   1  12
BRANCH  10  16
HETATM   16  O7  UNL     1      -2.931   2.851  14.157  1.00  0.00    -0.393 OA
ATOM     17  H7  UNL     1      -2.187   2.367  14.495  1.00  0.00     0.210 HD
ENDBRANCH  10  16
BRANCH   9  18
HETATM   18  O5  UNL     1      -4.840   1.433  11.492  1.00  0.00    -0.311 OA
BRANCH  18  19
HETATM   19  C13 UNL     1      -4.559   0.237  10.883  1.00  0.00     0.255 C 
HETATM   20  C14 UNL     1      -4.265  -0.962  11.692  1.00  0.00     0.126 C 
HETATM   21  O6  UNL     1      -4.549   0.154   9.644  1.00  0.00    -0.266 OA
ENDBRANCH  18  19
ENDBRANCH   9  18
BRANCH   8  22
HETATM   22  C9  UNL     1      -2.632   4.308  11.156  1.00  0.00     0.010 C 
HETATM   23  C10 UNL     1      -2.753   5.120   9.859  1.00  0.00     0.012 C 
HETATM   24  C11 UNL     1      -1.440   3.456  10.996  1.00  0.00     0.012 C 
ENDBRANCH   8  22
TORSDOF 6
ENDMDL
MODEL 5
REMARK VINA RESULT: -7.274809792      1.767      5.024
REMARK  6 active torsions:
REMARK  status: ('A' for Active; 'I' for Inactive)
REMARK    1  A    between atoms: C2_2  and  O2_4 
REMARK    2  A    between atoms: O2_4  and  C3_5 
REMARK    3  A    between atoms: C8_12  and  C9_13 
REMARK    4  A    between atoms: C12_16  and  O5_17 
REMARK    5  A    between atoms: O5_17  and  C13_18 
REMARK    6  A    between atoms: C15_21  and  O7_22 
ROOT
HETATM    1  C3  UNL     1      -4.427   3.252  14.917  1.00  0.00     0.134 C 
HETATM    2  C4  UNL     1      -5.600   4.177  15.149  1.00  0.00     0.033 C 
HETATM    3  C5  UNL     1      -6.103   4.865  13.931  1.00  0.00     0.012 C 
HETATM    4  C6  UNL     1      -5.100   5.867  13.390  1.00  0.00     0.111 C 
HETATM    5  C7  UNL     1      -5.144   5.735  11.901  1.00  0.00     0.259 C 
HETATM    6  O3  UNL     1      -5.398   6.853  11.321  1.00  0.00    -0.265 OA
HETATM    7  O4  UNL     1      -4.933   4.560  11.352  1.00  0.00    -0.313 OA
HETATM    8  C8  UNL     1      -4.067   3.733  10.733  1.00  0.00     0.167 C 
HETATM    9  C12 UNL     1      -3.784   2.416  11.377  1.00  0.00     0.190 C 
HETATM   10  C15 UNL     1      -3.496   2.340  12.828  1.00  0.00     0.152 C 
HETATM   11  C16 UNL     1      -4.611   2.320  13.776  1.00  0.00     0.067 C 
ENDROOT
BRANCH   1  12
HETATM   12  O2  UNL     1      -4.165   2.593  16.143  1.00  0.00    -0.316 OA
BRANCH  12  13
HETATM   13  C2  UNL     1      -4.527   1.313  16.411  1.00  0.00     0.255 C 
HETATM   14  C1  UNL     1      -5.906   0.924  16.859  1.00  0.00     0.126 C 
HETATM   15  O1  UNL     1      -3.708   0.398  16.290  1.00  0.00    -0.266 OA
ENDBRANCH  12  13
ENDBRANCH   1  12
BRANCH  10  16
HETATM   16  O7  UNL     1      -2.548   3.279  13.205  1.00  0.00    -0.393 OA
ATOM     17  H7  UNL     1      -2.256   3.136  14.098  1.00  0.00     0.210 HD
ENDBRANCH  10  16
BRANCH   9  18
HETATM   18  O5  UNL     1      -4.834   1.496  11.119  1.00  0.00    -0.311 OA
BRANCH  18  19
HETATM   19  C13 UNL     1      -4.596   0.212  10.701  1.00  0.00     0.255 C 
HETATM   20  C14 UNL     1      -4.437  -0.876  11.687  1.00  0.00     0.126 C 
HETATM   21  O6  UNL     1      -4.512  -0.046   9.490  1.00  0.00    -0.266 OA
ENDBRANCH  18  19
ENDBRANCH   9  18
BRANCH   8  22
HETATM   22  C9  UNL     1      -2.896   4.392  10.065  1.00  0.00     0.010 C 
HETATM   23  C10 UNL     1      -3.311   5.084   8.759  1.00  0.00     0.012 C 
HETATM   24  C11 UNL     1      -1.724   3.563   9.734  1.00  0.00     0.012 C 
ENDBRANCH   8  22
TORSDOF 6
ENDMDL
