MODEL 1
REMARK VINA RESULT: -7.348895193      0.000      0.000
REMARK  4 active torsions:
REMARK  status: ('A' for Active; 'I' for Inactive)
REMARK    1  A    between atoms: C4_6  and  C6_8 
REMARK    2  A    between atoms: C6_8  and  O3_9 
REMARK    3  A    between atoms: C6_8  and  C7_11 
REMARK    4  A    between atoms: C7_11  and  C8_13 
ROOT
HETATM    1  C7  UNL     1      -2.713   2.120  10.640  1.00  0.00     0.170 C 
HETATM    2  O4  UNL     1      -2.354   1.152   9.969  1.00  0.00    -0.294 OA
ENDROOT
BRANCH   1   3
HETATM    3  C6  UNL     1      -4.100   2.065  11.166  1.00  0.00     0.252 C 
BRANCH   3   4
HETATM    4  C4  UNL     1      -4.221   1.163  12.368  1.00  0.00     0.229 C 
HETATM    5  O2  UNL     1      -3.173   1.478  13.228  1.00  0.00    -0.195 OA
HETATM    6  O1  UNL     1      -3.667   2.572  13.816  1.00  0.00    -0.198 OA
HETATM    7  C2  UNL     1      -4.929   2.149  14.169  1.00  0.00     0.193 C 
HETATM    8  C1  UNL     1      -5.823   3.287  14.609  1.00  0.00     0.081 C 
HETATM    9  C3  UNL     1      -4.801   1.192  15.326  1.00  0.00     0.081 C 
HETATM   10  O7  UNL     1      -5.391   1.522  13.035  1.00  0.00    -0.312 OA
HETATM   11  C5  UNL     1      -4.291  -0.285  12.032  1.00  0.00     0.085 C 
ENDBRANCH   3   4
BRANCH   3  12
HETATM   12  O3  UNL     1      -4.978   1.683  10.168  1.00  0.00    -0.382 OA
ATOM     13  H3  UNL     1      -5.797   2.162  10.232  1.00  0.00     0.210 HD
ENDBRANCH   3  12
ENDBRANCH   1   3
BRANCH   1  14
HETATM   14  C8  UNL     1      -1.874   3.286  10.938  1.00  0.00     0.124 C 
HETATM   15  C9  UNL     1      -0.390   2.972  10.998  1.00  0.00     0.025 C 
HETATM   16  C10 UNL     1       0.187   3.901   9.917  1.00  0.00     0.023 C 
HETATM   17  C11 UNL     1      -0.620   3.492   8.672  1.00  0.00     0.045 C 
HETATM   18  C14 UNL     1      -0.118   5.300  10.350  1.00  0.00     0.061 C 
HETATM   19  C12 UNL     1      -1.771   4.382   8.646  1.00  0.00     0.189 A 
HETATM   20  O5  UNL     1      -3.004   4.297   9.106  1.00  0.00    -0.341 OA
HETATM   21  C13 UNL     1      -2.194   4.501  10.124  1.00  0.00     0.202 A 
HETATM   22  O6  UNL     1      -1.486   5.543  10.564  1.00  0.00    -0.341 OA
HETATM   23  C15 UNL     1       0.530   5.466  11.735  1.00  0.00     0.046 C 
HETATM   24  C16 UNL     1       0.513   6.344   9.467  1.00  0.00     0.046 C 
ENDBRANCH   1  14
TORSDOF 4
ENDMDL
MODEL 2
REMARK VINA RESULT: -6.976602194      1.923      2.243
REMARK  4 active torsions:
REMARK  status: ('A' for Active; 'I' for Inactive)
REMARK    1  A    between atoms: C4_6  and  C6_8 
REMARK    2  A    between atoms: C6_8  and  O3_9 
REMARK    3  A    between atoms: C6_8  and  C7_11 
REMARK    4  A    between atoms: C7_11  and  C8_13 
ROOT
HETATM    1  C7  UNL     1      -3.792   3.074  11.116  1.00  0.00     0.170 C 
HETATM    2  O4  UNL     1      -3.253   2.387  10.248  1.00  0.00    -0.294 OA
ENDROOT
BRANCH   1   3
HETATM    3  C6  UNL     1      -4.894   2.423  11.866  1.00  0.00     0.252 C 
BRANCH   3   4
HETATM    4  C4  UNL     1      -4.391   1.371  12.823  1.00  0.00     0.229 C 
HETATM    5  O2  UNL     1      -3.248   1.880  13.432  1.00  0.00    -0.195 OA
HETATM    6  O1  UNL     1      -3.801   2.668  14.359  1.00  0.00    -0.198 OA
HETATM    7  C2  UNL     1      -4.732   1.822  14.920  1.00  0.00     0.193 C 
HETATM    8  C1  UNL     1      -5.707   2.547  15.820  1.00  0.00     0.081 C 
HETATM    9  C3  UNL     1      -4.002   0.805  15.758  1.00  0.00     0.081 C 
HETATM   10  O7  UNL     1      -5.345   1.245  13.832  1.00  0.00    -0.312 OA
HETATM   11  C5  UNL     1      -4.183   0.036  12.198  1.00  0.00     0.085 C 
ENDBRANCH   3   4
BRANCH   3  12
HETATM   12  O3  UNL     1      -5.825   1.893  10.991  1.00  0.00    -0.382 OA
ATOM     13  H3  UNL     1      -5.612   2.113  10.091  1.00  0.00     0.210 HD
ENDBRANCH   3  12
ENDBRANCH   1   3
BRANCH   1  14
HETATM   14  C8  UNL     1      -3.419   4.456  11.437  1.00  0.00     0.124 C 
HETATM   15  C9  UNL     1      -2.007   4.822  11.014  1.00  0.00     0.025 C 
HETATM   16  C10 UNL     1      -2.247   6.009  10.065  1.00  0.00     0.023 C 
HETATM   17  C11 UNL     1      -3.212   5.408   9.028  1.00  0.00     0.045 C 
HETATM   18  C14 UNL     1      -2.894   7.082  10.881  1.00  0.00     0.061 C 
HETATM   19  C12 UNL     1      -4.548   5.699   9.528  1.00  0.00     0.189 A 
HETATM   20  O5  UNL     1      -5.410   5.037  10.274  1.00  0.00    -0.341 OA
HETATM   21  C13 UNL     1      -4.442   5.478  11.051  1.00  0.00     0.202 A 
HETATM   22  O6  UNL     1      -4.083   6.678  11.511  1.00  0.00    -0.341 OA
HETATM   23  C15 UNL     1      -1.922   7.383  12.034  1.00  0.00     0.046 C 
HETATM   24  C16 UNL     1      -3.062   8.377  10.129  1.00  0.00     0.046 C 
ENDBRANCH   1  14
TORSDOF 4
ENDMDL
MODEL 3
REMARK VINA RESULT: -6.864970947      1.950      3.163
REMARK  4 active torsions:
REMARK  status: ('A' for Active; 'I' for Inactive)
REMARK    1  A    between atoms: C4_6  and  C6_8 
REMARK    2  A    between atoms: C6_8  and  O3_9 
REMARK    3  A    between atoms: C6_8  and  C7_11 
REMARK    4  A    between atoms: C7_11  and  C8_13 
ROOT
HETATM    1  C7  UNL     1      -4.280   2.781  13.015  1.00  0.00     0.170 C 
HETATM    2  O4  UNL     1      -5.447   2.647  12.645  1.00  0.00    -0.294 OA
ENDROOT
BRANCH   1   3
HETATM    3  C6  UNL     1      -4.047   2.672  14.477  1.00  0.00     0.252 C 
BRANCH   3   4
HETATM    4  C4  UNL     1      -4.415   1.311  15.015  1.00  0.00     0.229 C 
HETATM    5  O2  UNL     1      -3.633   1.089  16.144  1.00  0.00    -0.195 OA
HETATM    6  O1  UNL     1      -4.316   1.794  17.051  1.00  0.00    -0.198 OA
HETATM    7  C2  UNL     1      -5.602   1.350  16.833  1.00  0.00     0.193 C 
HETATM    8  C1  UNL     1      -6.636   2.196  17.540  1.00  0.00     0.081 C 
HETATM    9  C3  UNL     1      -5.714  -0.054  17.367  1.00  0.00     0.081 C 
HETATM   10  O7  UNL     1      -5.732   1.390  15.464  1.00  0.00    -0.312 OA
HETATM   11  C5  UNL     1      -4.321   0.218  14.008  1.00  0.00     0.085 C 
ENDBRANCH   3   4
BRANCH   3  12
HETATM   12  O3  UNL     1      -4.728   3.671  15.149  1.00  0.00    -0.382 OA
ATOM     13  H3  UNL     1      -5.536   3.341  15.525  1.00  0.00     0.210 HD
ENDBRANCH   3  12
ENDBRANCH   1   3
BRANCH   1  14
HETATM   14  C8  UNL     1      -3.145   3.036  12.121  1.00  0.00     0.124 C 
HETATM   15  C9  UNL     1      -3.436   2.731  10.662  1.00  0.00     0.025 C 
HETATM   16  C10 UNL     1      -3.176   4.088   9.986  1.00  0.00     0.023 C 
HETATM   17  C11 UNL     1      -4.117   5.025  10.762  1.00  0.00     0.045 C 
HETATM   18  C14 UNL     1      -1.736   4.414  10.225  1.00  0.00     0.061 C 
HETATM   19  C12 UNL     1      -3.319   5.558  11.856  1.00  0.00     0.189 A 
HETATM   20  O5  UNL     1      -3.128   5.198  13.110  1.00  0.00    -0.341 OA
HETATM   21  C13 UNL     1      -2.476   4.358  12.333  1.00  0.00     0.202 A 
HETATM   22  O6  UNL     1      -1.376   4.437  11.583  1.00  0.00    -0.341 OA
HETATM   23  C15 UNL     1      -0.932   3.247   9.626  1.00  0.00     0.046 C 
HETATM   24  C16 UNL     1      -1.280   5.651   9.495  1.00  0.00     0.046 C 
ENDBRANCH   1  14
TORSDOF 4
ENDMDL
MODEL 4
REMARK VINA RESULT: -6.829136707      2.542      3.051
REMARK  4 active torsions:
REMARK  status: ('A' for Active; 'I' for Inactive)
REMARK    1  A    between atoms: C4_6  and  C6_8 
REMARK    2  A    between atoms: C6_8  and  O3_9 
REMARK    3  A    between atoms: C6_8  and  C7_11 
REMARK    4  A    between atoms: C7_11  and  C8_13 
ROOT
HETATM    1  C7  UNL     1      -3.294   3.468  13.069  1.00  0.00     0.170 C 
HETATM    2  O4  UNL     1      -2.458   2.755  12.514  1.00  0.00    -0.294 OA
ENDROOT
BRANCH   1   3
HETATM    3  C6  UNL     1      -4.626   2.852  13.292  1.00  0.00     0.252 C 
BRANCH   3   4
HETATM    4  C4  UNL     1      -4.554   1.647  14.197  1.00  0.00     0.229 C 
HETATM    5  O2  UNL     1      -3.657   1.950  15.216  1.00  0.00    -0.195 OA
HETATM    6  O1  UNL     1      -4.438   2.685  16.013  1.00  0.00    -0.198 OA
HETATM    7  C2  UNL     1      -5.560   1.892  16.106  1.00  0.00     0.193 C 
HETATM    8  C1  UNL     1      -6.733   2.615  16.729  1.00  0.00     0.081 C 
HETATM    9  C3  UNL     1      -5.233   0.709  16.980  1.00  0.00     0.081 C 
HETATM   10  O7  UNL     1      -5.802   1.517  14.804  1.00  0.00    -0.312 OA
HETATM   11  C5  UNL     1      -4.236   0.378  13.488  1.00  0.00     0.085 C 
ENDBRANCH   3   4
BRANCH   3  12
HETATM   12  O3  UNL     1      -5.216   2.530  12.083  1.00  0.00    -0.382 OA
ATOM     13  H3  UNL     1      -5.696   3.271  11.730  1.00  0.00     0.210 HD
ENDBRANCH   3  12
ENDBRANCH   1   3
BRANCH   1  14
HETATM   14  C8  UNL     1      -3.056   4.849  13.505  1.00  0.00     0.124 C 
HETATM   15  C9  UNL     1      -1.616   5.126  13.896  1.00  0.00     0.025 C 
HETATM   16  C10 UNL     1      -1.229   6.265  12.938  1.00  0.00     0.023 C 
HETATM   17  C11 UNL     1      -1.530   5.649  11.560  1.00  0.00     0.045 C 
HETATM   18  C14 UNL     1      -2.136   7.412  13.251  1.00  0.00     0.061 C 
HETATM   19  C12 UNL     1      -2.903   6.027  11.258  1.00  0.00     0.189 A 
HETATM   20  O5  UNL     1      -4.073   5.449  11.441  1.00  0.00    -0.341 OA
HETATM   21  C13 UNL     1      -3.642   5.891  12.605  1.00  0.00     0.202 A 
HETATM   22  O6  UNL     1      -3.502   7.099  13.155  1.00  0.00    -0.341 OA
HETATM   23  C15 UNL     1      -1.912   7.736  14.738  1.00  0.00     0.046 C 
HETATM   24  C16 UNL     1      -1.787   8.667  12.494  1.00  0.00     0.046 C 
ENDBRANCH   1  14
TORSDOF 4
ENDMDL
MODEL 5
REMARK VINA RESULT: -6.813980170      2.354      3.484
REMARK  4 active torsions:
REMARK  status: ('A' for Active; 'I' for Inactive)
REMARK    1  A    between atoms: C4_6  and  C6_8 
REMARK    2  A    between atoms: C6_8  and  O3_9 
REMARK    3  A    between atoms: C6_8  and  C7_11 
REMARK    4  A    between atoms: C7_11  and  C8_13 
ROOT
HETATM    1  C7  UNL     1      -3.820   2.288  13.172  1.00  0.00     0.170 C 
HETATM    2  O4  UNL     1      -2.936   1.563  12.714  1.00  0.00    -0.294 OA
ENDROOT
BRANCH   1   3
HETATM    3  C6  UNL     1      -4.782   1.634  14.094  1.00  0.00     0.252 C 
BRANCH   3   4
HETATM    4  C4  UNL     1      -4.631   2.116  15.515  1.00  0.00     0.229 C 
HETATM    5  O2  UNL     1      -5.369   3.290  15.634  1.00  0.00    -0.195 OA
HETATM    6  O1  UNL     1      -6.598   2.787  15.780  1.00  0.00    -0.198 OA
HETATM    7  C2  UNL     1      -6.392   1.836  16.754  1.00  0.00     0.193 C 
HETATM    8  C1  UNL     1      -7.574   0.907  16.920  1.00  0.00     0.081 C 
HETATM    9  C3  UNL     1      -6.176   2.543  18.067  1.00  0.00     0.081 C 
HETATM   10  O7  UNL     1      -5.259   1.179  16.334  1.00  0.00    -0.312 OA
HETATM   11  C5  UNL     1      -3.217   2.261  15.956  1.00  0.00     0.085 C 
ENDBRANCH   3   4
BRANCH   3  12
HETATM   12  O3  UNL     1      -4.660   0.258  14.020  1.00  0.00    -0.382 OA
ATOM     13  H3  UNL     1      -5.004  -0.157  14.803  1.00  0.00     0.210 HD
ENDBRANCH   3  12
ENDBRANCH   1   3
BRANCH   1  14
HETATM   14  C8  UNL     1      -3.969   3.715  12.866  1.00  0.00     0.124 C 
HETATM   15  C9  UNL     1      -2.671   4.498  12.953  1.00  0.00     0.025 C 
HETATM   16  C10 UNL     1      -2.544   5.081  11.535  1.00  0.00     0.023 C 
HETATM   17  C11 UNL     1      -2.606   3.818  10.657  1.00  0.00     0.045 C 
HETATM   18  C14 UNL     1      -3.732   5.966  11.331  1.00  0.00     0.061 C 
HETATM   19  C12 UNL     1      -4.012   3.644  10.326  1.00  0.00     0.189 A 
HETATM   20  O5  UNL     1      -5.001   2.957  10.862  1.00  0.00    -0.341 OA
HETATM   21  C13 UNL     1      -4.758   4.002  11.627  1.00  0.00     0.202 A 
HETATM   22  O6  UNL     1      -4.964   5.316  11.513  1.00  0.00    -0.341 OA
HETATM   23  C15 UNL     1      -3.675   7.018  12.451  1.00  0.00     0.046 C 
HETATM   24  C16 UNL     1      -3.682   6.735  10.036  1.00  0.00     0.046 C 
ENDBRANCH   1  14
TORSDOF 4
ENDMDL
