MODEL 1
REMARK VINA RESULT: -8.602052773      0.000      0.000
REMARK  10 active torsions:
REMARK  status: ('A' for Active; 'I' for Inactive)
REMARK    1  A    between atoms: C1_2  and  C2_3 
REMARK    2  A    between atoms: C2_3  and  O1_5 
REMARK    3  A    between atoms: O1_5  and  C3_6 
REMARK    4  A    between atoms: C3_6  and  C4_7 
REMARK    5  A    between atoms: C6_9  and  N1_10 
REMARK    6  A    between atoms: N1_10  and  C7_12 
REMARK    7  A    between atoms: C12_18  and  O3_19 
REMARK    8  A    between atoms: O3_19  and  C13_20 
REMARK    9  A    between atoms: C18_28  and  O4_29 
REMARK   10  A    between atoms: O4_29  and  C19_30 
ROOT
HETATM    1  C4  UNL     1     -66.360 -11.697  21.363  1.00  0.00     0.017 C 
HETATM    2  C5  UNL     1     -66.166 -12.728  20.336  1.00  0.00     0.061 C 
HETATM    3  C6  UNL     1     -67.324 -13.491  19.851  1.00  0.00     0.015 C 
HETATM    4  C12 UNL     1     -68.687 -13.123  20.341  1.00  0.00     0.205 C 
HETATM    5  C18 UNL     1     -68.652 -12.617  21.781  1.00  0.00     0.164 C 
HETATM    6  C25 UNL     1     -67.796 -11.320  21.629  1.00  0.00     0.042 C 
ENDROOT
BRANCH   4   7
HETATM    7  O3  UNL     1     -69.654 -14.097  20.143  1.00  0.00    -0.322 OA
BRANCH   7   8
HETATM    8  C13 UNL     1     -70.571 -14.195  19.125  1.00  0.00     0.142 A 
HETATM    9  C14 UNL     1     -70.528 -15.288  18.239  1.00  0.00     0.058 A 
HETATM   10  C15 UNL     1     -71.445 -15.363  17.240  1.00  0.00     0.029 A 
HETATM   11  C16 UNL     1     -72.410 -14.403  17.072  1.00  0.00     0.049 A 
HETATM   12 CL1  UNL     1     -73.605 -14.492  15.775  1.00  0.00    -0.083 Cl
HETATM   13  C17 UNL     1     -72.438 -13.335  17.953  1.00  0.00     0.114 A 
HETATM   14  N2  UNL     1     -71.518 -13.289  18.930  1.00  0.00    -0.345 N 
ATOM     15  H2  UNL     1     -71.550 -12.496  19.571  1.00  0.00     0.167 HD
ENDBRANCH   7   8
ENDBRANCH   4   7
BRANCH   3  16
HETATM   16  N1  UNL     1     -67.190 -14.888  19.741  1.00  0.00    -0.389 N 
ATOM     17  H1  UNL     1     -67.675 -15.461  20.432  1.00  0.00     0.159 HD
BRANCH  16  18
HETATM   18  C7  UNL     1     -66.457 -15.548  18.775  1.00  0.00     0.085 C 
HETATM   19  C8  UNL     1     -65.119 -15.993  19.347  1.00  0.00     0.051 C 
HETATM   20  C9  UNL     1     -65.194 -17.483  19.737  1.00  0.00     0.169 C 
HETATM   21  O2  UNL     1     -66.412 -17.814  20.275  1.00  0.00    -0.391 OA
HETATM   22  C10 UNL     1     -67.465 -17.694  19.404  1.00  0.00     0.169 C 
HETATM   23  C11 UNL     1     -67.071 -16.845  18.239  1.00  0.00     0.051 C 
ENDBRANCH  16  18
ENDBRANCH   3  16
BRANCH   5  24
HETATM   24  O4  UNL     1     -69.876 -12.235  22.227  1.00  0.00    -0.341 OA
BRANCH  24  25
HETATM   25  C19 UNL     1     -70.931 -11.573  21.766  1.00  0.00     0.091 A 
HETATM   26  C20 UNL     1     -70.679 -10.408  21.003  1.00  0.00     0.040 A 
HETATM   27  C21 UNL     1     -71.672  -9.636  20.476  1.00  0.00     0.026 A 
HETATM   28  C22 UNL     1     -72.988  -9.942  20.651  1.00  0.00     0.035 A 
HETATM   29 CL2  UNL     1     -74.275  -8.973  19.982  1.00  0.00    -0.084 Cl
HETATM   30  C23 UNL     1     -73.290 -11.066  21.385  1.00  0.00     0.050 A 
HETATM   31  C24 UNL     1     -72.271 -11.851  21.922  1.00  0.00     0.069 A 
HETATM   32 CL3  UNL     1     -72.816 -13.235  22.843  1.00  0.00    -0.081 Cl
ENDBRANCH  24  25
ENDBRANCH   5  24
BRANCH   1  33
HETATM   33  C3  UNL     1     -65.650 -10.367  21.071  1.00  0.00     0.176 C 
BRANCH  33  34
HETATM   34  O1  UNL     1     -66.562  -9.380  20.767  1.00  0.00    -0.354 OA
BRANCH  34  35
HETATM   35  C2  UNL     1     -66.503  -8.895  19.488  1.00  0.00     0.335 C 
HETATM   36  F2  UNL     1     -65.651  -9.739  18.753  1.00  0.00    -0.217 F 
BRANCH  35  37
HETATM   37  C1  UNL     1     -67.841  -8.997  18.776  1.00  0.00     0.287 C 
HETATM   38  F1  UNL     1     -67.964 -10.333  18.408  1.00  0.00    -0.250 F 
ENDBRANCH  35  37
ENDBRANCH  34  35
ENDBRANCH  33  34
ENDBRANCH   1  33
TORSDOF 10
ENDMDL
MODEL 2
REMARK VINA RESULT: -8.570762223      3.488      7.855
REMARK  10 active torsions:
REMARK  status: ('A' for Active; 'I' for Inactive)
REMARK    1  A    between atoms: C1_2  and  C2_3 
REMARK    2  A    between atoms: C2_3  and  O1_5 
REMARK    3  A    between atoms: O1_5  and  C3_6 
REMARK    4  A    between atoms: C3_6  and  C4_7 
REMARK    5  A    between atoms: C6_9  and  N1_10 
REMARK    6  A    between atoms: N1_10  and  C7_12 
REMARK    7  A    between atoms: C12_18  and  O3_19 
REMARK    8  A    between atoms: O3_19  and  C13_20 
REMARK    9  A    between atoms: C18_28  and  O4_29 
REMARK   10  A    between atoms: O4_29  and  C19_30 
ROOT
HETATM    1  C4  UNL     1     -71.494 -15.301  18.786  1.00  0.00     0.017 C 
HETATM    2  C5  UNL     1     -71.914 -14.241  19.711  1.00  0.00     0.061 C 
HETATM    3  C6  UNL     1     -70.922 -13.270  20.195  1.00  0.00     0.015 C 
HETATM    4  C12 UNL     1     -69.532 -13.326  19.649  1.00  0.00     0.205 C 
HETATM    5  C18 UNL     1     -69.109 -14.757  19.326  1.00  0.00     0.164 C 
HETATM    6  C25 UNL     1     -70.118 -15.127  18.193  1.00  0.00     0.042 C 
ENDROOT
BRANCH   4   7
HETATM    7  O3  UNL     1     -68.587 -12.651  20.406  1.00  0.00    -0.322 OA
BRANCH   7   8
HETATM    8  C13 UNL     1     -68.049 -11.405  20.187  1.00  0.00     0.142 A 
HETATM    9  C14 UNL     1     -66.928 -10.981  20.926  1.00  0.00     0.058 A 
HETATM   10  C15 UNL     1     -66.414  -9.746  20.692  1.00  0.00     0.029 A 
HETATM   11  C16 UNL     1     -66.957  -8.903  19.757  1.00  0.00     0.049 A 
HETATM   12 CL1  UNL     1     -66.296  -7.295  19.447  1.00  0.00    -0.083 Cl
HETATM   13  C17 UNL     1     -68.060  -9.336  19.039  1.00  0.00     0.114 A 
HETATM   14  N2  UNL     1     -68.545 -10.563  19.293  1.00  0.00    -0.345 N 
ATOM     15  H2  UNL     1     -69.357 -10.869  18.757  1.00  0.00     0.167 HD
ENDBRANCH   7   8
ENDBRANCH   4   7
BRANCH   3  16
HETATM   16  N1  UNL     1     -70.909 -12.976  21.571  1.00  0.00    -0.389 N 
ATOM     17  H1  UNL     1     -70.685 -13.738  22.211  1.00  0.00     0.159 HD
BRANCH  16  18
HETATM   18  C7  UNL     1     -71.175 -11.741  22.128  1.00  0.00     0.085 C 
HETATM   19  C8  UNL     1     -71.720 -10.795  21.069  1.00  0.00     0.051 C 
HETATM   20  C9  UNL     1     -73.255 -10.727  21.176  1.00  0.00     0.169 C 
HETATM   21  O2  UNL     1     -73.805 -11.948  21.477  1.00  0.00    -0.391 OA
HETATM   22  C10 UNL     1     -73.453 -12.436  22.710  1.00  0.00     0.169 C 
HETATM   23  C11 UNL     1     -72.248 -11.717  23.221  1.00  0.00     0.051 C 
ENDBRANCH  16  18
ENDBRANCH   3  16
BRANCH   5  24
HETATM   24  O4  UNL     1     -67.865 -14.821  18.785  1.00  0.00    -0.341 OA
BRANCH  24  25
HETATM   25  C19 UNL     1     -66.758 -15.536  18.942  1.00  0.00     0.091 A 
HETATM   26  C20 UNL     1     -65.721 -14.958  19.714  1.00  0.00     0.040 A 
HETATM   27  C21 UNL     1     -64.532 -15.584  19.949  1.00  0.00     0.026 A 
HETATM   28  C22 UNL     1     -64.262 -16.823  19.450  1.00  0.00     0.035 A 
HETATM   29 CL2  UNL     1     -62.752 -17.645  19.740  1.00  0.00    -0.084 Cl
HETATM   30  C23 UNL     1     -65.237 -17.431  18.692  1.00  0.00     0.050 A 
HETATM   31  C24 UNL     1     -66.450 -16.786  18.455  1.00  0.00     0.069 A 
HETATM   32 CL3  UNL     1     -67.577 -17.682  17.461  1.00  0.00    -0.081 Cl
ENDBRANCH  24  25
ENDBRANCH   5  24
BRANCH   1  33
HETATM   33  C3  UNL     1     -72.423 -15.497  17.579  1.00  0.00     0.176 C 
BRANCH  33  34
HETATM   34  O1  UNL     1     -72.343 -14.424  16.719  1.00  0.00    -0.354 OA
BRANCH  34  35
HETATM   35  C2  UNL     1     -73.541 -13.880  16.341  1.00  0.00     0.335 C 
HETATM   36  F2  UNL     1     -74.553 -14.785  16.709  1.00  0.00    -0.217 F 
BRANCH  35  37
HETATM   37  C1  UNL     1     -73.864 -12.615  17.118  1.00  0.00     0.287 C 
HETATM   38  F1  UNL     1     -72.632 -12.078  17.479  1.00  0.00    -0.250 F 
ENDBRANCH  35  37
ENDBRANCH  34  35
ENDBRANCH  33  34
ENDBRANCH   1  33
TORSDOF 10
ENDMDL
MODEL 3
REMARK VINA RESULT: -8.395519096      2.468      6.144
REMARK  10 active torsions:
REMARK  status: ('A' for Active; 'I' for Inactive)
REMARK    1  A    between atoms: C1_2  and  C2_3 
REMARK    2  A    between atoms: C2_3  and  O1_5 
REMARK    3  A    between atoms: O1_5  and  C3_6 
REMARK    4  A    between atoms: C3_6  and  C4_7 
REMARK    5  A    between atoms: C6_9  and  N1_10 
REMARK    6  A    between atoms: N1_10  and  C7_12 
REMARK    7  A    between atoms: C12_18  and  O3_19 
REMARK    8  A    between atoms: O3_19  and  C13_20 
REMARK    9  A    between atoms: C18_28  and  O4_29 
REMARK   10  A    between atoms: O4_29  and  C19_30 
ROOT
HETATM    1  C4  UNL     1     -65.775 -12.930  19.813  1.00  0.00     0.017 C 
HETATM    2  C5  UNL     1     -65.776 -11.567  20.361  1.00  0.00     0.061 C 
HETATM    3  C6  UNL     1     -67.045 -10.962  20.788  1.00  0.00     0.015 C 
HETATM    4  C12 UNL     1     -68.288 -11.790  20.750  1.00  0.00     0.205 C 
HETATM    5  C18 UNL     1     -68.266 -12.789  19.596  1.00  0.00     0.164 C 
HETATM    6  C25 UNL     1     -67.061 -13.696  19.998  1.00  0.00     0.042 C 
ENDROOT
BRANCH   4   7
HETATM    7  O3  UNL     1     -69.468 -11.063  20.801  1.00  0.00    -0.322 OA
BRANCH   7   8
HETATM    8  C13 UNL     1     -70.653 -11.400  21.410  1.00  0.00     0.142 A 
HETATM    9  C14 UNL     1     -71.823 -10.669  21.131  1.00  0.00     0.058 A 
HETATM   10  C15 UNL     1     -72.982 -11.020  21.746  1.00  0.00     0.029 A 
HETATM   11  C16 UNL     1     -73.041 -12.067  22.631  1.00  0.00     0.049 A 
HETATM   12 CL1  UNL     1     -74.543 -12.529  23.436  1.00  0.00    -0.083 Cl
HETATM   13  C17 UNL     1     -71.880 -12.775  22.894  1.00  0.00     0.114 A 
HETATM   14  N2  UNL     1     -70.750 -12.403  22.271  1.00  0.00    -0.345 N 
ATOM     15  H2  UNL     1     -69.903 -12.933  22.475  1.00  0.00     0.167 HD
ENDBRANCH   7   8
ENDBRANCH   4   7
BRANCH   3  16
HETATM   16  N1  UNL     1     -67.310  -9.640  20.384  1.00  0.00    -0.389 N 
ATOM     17  H1  UNL     1     -67.443  -8.943  21.118  1.00  0.00     0.159 HD
BRANCH  16  18
HETATM   18  C7  UNL     1     -67.405  -9.207  19.077  1.00  0.00     0.085 C 
HETATM   19  C8  UNL     1     -68.751  -8.536  18.844  1.00  0.00     0.051 C 
HETATM   20  C9  UNL     1     -68.586  -7.006  18.917  1.00  0.00     0.169 C 
HETATM   21  O2  UNL     1     -67.695  -6.630  19.890  1.00  0.00    -0.391 OA
HETATM   22  C10 UNL     1     -66.406  -7.046  19.666  1.00  0.00     0.169 C 
HETATM   23  C11 UNL     1     -66.391  -8.141  18.649  1.00  0.00     0.051 C 
ENDBRANCH  16  18
ENDBRANCH   3  16
BRANCH   5  24
HETATM   24  O4  UNL     1     -69.368 -13.582  19.574  1.00  0.00    -0.341 OA
BRANCH  24  25
HETATM   25  C19 UNL     1     -70.341 -13.896  18.726  1.00  0.00     0.091 A 
HETATM   26  C20 UNL     1     -71.332 -12.914  18.489  1.00  0.00     0.040 A 
HETATM   27  C21 UNL     1     -72.385 -13.110  17.644  1.00  0.00     0.026 A 
HETATM   28  C22 UNL     1     -72.552 -14.279  16.965  1.00  0.00     0.035 A 
HETATM   29 CL2  UNL     1     -73.888 -14.552  15.877  1.00  0.00    -0.084 Cl
HETATM   30  C23 UNL     1     -71.616 -15.269  17.159  1.00  0.00     0.050 A 
HETATM   31  C24 UNL     1     -70.542 -15.063  18.024  1.00  0.00     0.069 A 
HETATM   32 CL3  UNL     1     -69.449 -16.421  18.175  1.00  0.00    -0.081 Cl
ENDBRANCH  24  25
ENDBRANCH   5  24
BRANCH   1  33
HETATM   33  C3  UNL     1     -64.683 -13.845  20.386  1.00  0.00     0.176 C 
BRANCH  33  34
HETATM   34  O1  UNL     1     -65.085 -15.162  20.363  1.00  0.00    -0.354 OA
BRANCH  34  35
HETATM   35  C2  UNL     1     -64.587 -15.914  19.332  1.00  0.00     0.335 C 
HETATM   36  F2  UNL     1     -63.421 -16.550  19.795  1.00  0.00    -0.217 F 
BRANCH  35  37
HETATM   37  C1  UNL     1     -65.517 -17.054  18.955  1.00  0.00     0.287 C 
HETATM   38  F1  UNL     1     -66.027 -16.717  17.704  1.00  0.00    -0.250 F 
ENDBRANCH  35  37
ENDBRANCH  34  35
ENDBRANCH  33  34
ENDBRANCH   1  33
TORSDOF 10
ENDMDL
MODEL 4
REMARK VINA RESULT: -8.294669834      2.663      3.921
REMARK  10 active torsions:
REMARK  status: ('A' for Active; 'I' for Inactive)
REMARK    1  A    between atoms: C1_2  and  C2_3 
REMARK    2  A    between atoms: C2_3  and  O1_5 
REMARK    3  A    between atoms: O1_5  and  C3_6 
REMARK    4  A    between atoms: C3_6  and  C4_7 
REMARK    5  A    between atoms: C6_9  and  N1_10 
REMARK    6  A    between atoms: N1_10  and  C7_12 
REMARK    7  A    between atoms: C12_18  and  O3_19 
REMARK    8  A    between atoms: O3_19  and  C13_20 
REMARK    9  A    between atoms: C18_28  and  O4_29 
REMARK   10  A    between atoms: O4_29  and  C19_30 
ROOT
HETATM    1  C4  UNL     1     -67.912  -8.199  19.754  1.00  0.00     0.017 C 
HETATM    2  C5  UNL     1     -66.646  -8.877  19.447  1.00  0.00     0.061 C 
HETATM    3  C6  UNL     1     -66.658 -10.306  19.103  1.00  0.00     0.015 C 
HETATM    4  C12 UNL     1     -67.971 -11.007  18.975  1.00  0.00     0.205 C 
HETATM    5  C18 UNL     1     -69.009 -10.443  19.942  1.00  0.00     0.164 C 
HETATM    6  C25 UNL     1     -69.157  -8.980  19.415  1.00  0.00     0.042 C 
ENDROOT
BRANCH   4   7
HETATM    7  O3  UNL     1     -67.894 -12.390  19.025  1.00  0.00    -0.322 OA
BRANCH   7   8
HETATM    8  C13 UNL     1     -68.914 -13.306  18.922  1.00  0.00     0.142 A 
HETATM    9  C14 UNL     1     -68.993 -14.380  19.830  1.00  0.00     0.058 A 
HETATM   10  C15 UNL     1     -70.009 -15.272  19.707  1.00  0.00     0.029 A 
HETATM   11  C16 UNL     1     -70.958 -15.155  18.724  1.00  0.00     0.049 A 
HETATM   12 CL1  UNL     1     -72.282 -16.312  18.557  1.00  0.00    -0.083 Cl
HETATM   13  C17 UNL     1     -70.865 -14.093  17.840  1.00  0.00     0.114 A 
HETATM   14  N2  UNL     1     -69.849 -13.227  17.987  1.00  0.00    -0.345 N 
ATOM     15  H2  UNL     1     -69.793 -12.451  17.328  1.00  0.00     0.167 HD
ENDBRANCH   7   8
ENDBRANCH   4   7
BRANCH   3  16
HETATM   16  N1  UNL     1     -65.704 -11.136  19.722  1.00  0.00    -0.389 N 
ATOM     17  H1  UNL     1     -65.335 -11.914  19.175  1.00  0.00     0.159 HD
BRANCH  16  18
HETATM   18  C7  UNL     1     -65.226 -10.985  21.008  1.00  0.00     0.085 C 
HETATM   19  C8  UNL     1     -66.319 -11.312  22.015  1.00  0.00     0.051 C 
HETATM   20  C9  UNL     1     -66.125 -12.748  22.540  1.00  0.00     0.169 C 
HETATM   21  O2  UNL     1     -65.702 -13.604  21.555  1.00  0.00    -0.391 OA
HETATM   22  C10 UNL     1     -64.459 -13.314  21.051  1.00  0.00     0.169 C 
HETATM   23  C11 UNL     1     -64.075 -11.915  21.408  1.00  0.00     0.051 C 
ENDBRANCH  16  18
ENDBRANCH   3  16
BRANCH   5  24
HETATM   24  O4  UNL     1     -70.222 -11.038  19.807  1.00  0.00    -0.341 OA
BRANCH  24  25
HETATM   25  C19 UNL     1     -71.260 -11.348  20.574  1.00  0.00     0.091 A 
HETATM   26  C20 UNL     1     -70.993 -11.629  21.936  1.00  0.00     0.040 A 
HETATM   27  C21 UNL     1     -71.967 -11.964  22.830  1.00  0.00     0.026 A 
HETATM   28  C22 UNL     1     -73.277 -12.050  22.466  1.00  0.00     0.035 A 
HETATM   29 CL2  UNL     1     -74.541 -12.473  23.591  1.00  0.00    -0.084 Cl
HETATM   30  C23 UNL     1     -73.592 -11.786  21.152  1.00  0.00     0.050 A 
HETATM   31  C24 UNL     1     -72.593 -11.444  20.242  1.00  0.00     0.069 A 
HETATM   32 CL3  UNL     1     -73.151 -11.155  18.610  1.00  0.00    -0.081 Cl
ENDBRANCH  24  25
ENDBRANCH   5  24
BRANCH   1  33
HETATM   33  C3  UNL     1     -68.094  -6.844  19.055  1.00  0.00     0.176 C 
BRANCH  33  34
HETATM   34  O1  UNL     1     -68.317  -5.843  19.975  1.00  0.00    -0.354 OA
BRANCH  34  35
HETATM   35  C2  UNL     1     -69.516  -5.191  19.859  1.00  0.00     0.335 C 
HETATM   36  F2  UNL     1     -70.246  -5.823  18.836  1.00  0.00    -0.217 F 
BRANCH  35  37
HETATM   37  C1  UNL     1     -70.380  -5.357  21.098  1.00  0.00     0.287 C 
HETATM   38  F1  UNL     1     -70.711  -6.709  21.139  1.00  0.00    -0.250 F 
ENDBRANCH  35  37
ENDBRANCH  34  35
ENDBRANCH  33  34
ENDBRANCH   1  33
TORSDOF 10
ENDMDL
MODEL 5
REMARK VINA RESULT: -8.195538818      2.605      6.030
REMARK  10 active torsions:
REMARK  status: ('A' for Active; 'I' for Inactive)
REMARK    1  A    between atoms: C1_2  and  C2_3 
REMARK    2  A    between atoms: C2_3  and  O1_5 
REMARK    3  A    between atoms: O1_5  and  C3_6 
REMARK    4  A    between atoms: C3_6  and  C4_7 
REMARK    5  A    between atoms: C6_9  and  N1_10 
REMARK    6  A    between atoms: N1_10  and  C7_12 
REMARK    7  A    between atoms: C12_18  and  O3_19 
REMARK    8  A    between atoms: O3_19  and  C13_20 
REMARK    9  A    between atoms: C18_28  and  O4_29 
REMARK   10  A    between atoms: O4_29  and  C19_30 
ROOT
HETATM    1  C4  UNL     1     -65.867 -12.363  19.435  1.00  0.00     0.017 C 
HETATM    2  C5  UNL     1     -65.928 -11.033  20.054  1.00  0.00     0.061 C 
HETATM    3  C6  UNL     1     -67.202 -10.549  20.603  1.00  0.00     0.015 C 
HETATM    4  C12 UNL     1     -68.380 -11.469  20.610  1.00  0.00     0.205 C 
HETATM    5  C18 UNL     1     -68.372 -12.406  19.405  1.00  0.00     0.164 C 
HETATM    6  C25 UNL     1     -67.075 -13.236  19.671  1.00  0.00     0.042 C 
ENDROOT
BRANCH   4   7
HETATM    7  O3  UNL     1     -69.603 -10.839  20.784  1.00  0.00    -0.322 OA
BRANCH   7   8
HETATM    8  C13 UNL     1     -70.730 -11.320  21.406  1.00  0.00     0.142 A 
HETATM    9  C14 UNL     1     -71.979 -10.716  21.169  1.00  0.00     0.058 A 
HETATM   10  C15 UNL     1     -73.079 -11.208  21.796  1.00  0.00     0.029 A 
HETATM   11  C16 UNL     1     -73.004 -12.277  22.653  1.00  0.00     0.049 A 
HETATM   12 CL1  UNL     1     -74.428 -12.923  23.473  1.00  0.00    -0.083 Cl
HETATM   13  C17 UNL     1     -71.766 -12.859  22.875  1.00  0.00     0.114 A 
HETATM   14  N2  UNL     1     -70.698 -12.349  22.241  1.00  0.00    -0.345 N 
ATOM     15  H2  UNL     1     -69.793 -12.787  22.414  1.00  0.00     0.167 HD
ENDBRANCH   7   8
ENDBRANCH   4   7
BRANCH   3  16
HETATM   16  N1  UNL     1     -67.594  -9.234  20.290  1.00  0.00    -0.389 N 
ATOM     17  H1  UNL     1     -67.722  -8.586  21.068  1.00  0.00     0.159 HD
BRANCH  16  18
HETATM   18  C7  UNL     1     -67.819  -8.747  19.019  1.00  0.00     0.085 C 
HETATM   19  C8  UNL     1     -69.186  -8.083  18.946  1.00  0.00     0.051 C 
HETATM   20  C9  UNL     1     -69.026  -6.555  19.069  1.00  0.00     0.169 C 
HETATM   21  O2  UNL     1     -68.047  -6.210  19.966  1.00  0.00    -0.391 OA
HETATM   22  C10 UNL     1     -66.783  -6.602  19.600  1.00  0.00     0.169 C 
HETATM   23  C11 UNL     1     -66.859  -7.653  18.541  1.00  0.00     0.051 C 
ENDBRANCH  16  18
ENDBRANCH   3  16
BRANCH   5  24
HETATM   24  O4  UNL     1     -69.411 -13.280  19.420  1.00  0.00    -0.341 OA
BRANCH  24  25
HETATM   25  C19 UNL     1     -70.399 -13.652  18.615  1.00  0.00     0.091 A 
HETATM   26  C20 UNL     1     -71.391 -12.685  18.324  1.00  0.00     0.040 A 
HETATM   27  C21 UNL     1     -72.460 -12.938  17.514  1.00  0.00     0.026 A 
HETATM   28  C22 UNL     1     -72.643 -14.154  16.925  1.00  0.00     0.035 A 
HETATM   29 CL2  UNL     1     -73.998 -14.499  15.884  1.00  0.00    -0.084 Cl
HETATM   30  C23 UNL     1     -71.706 -15.130  17.175  1.00  0.00     0.050 A 
HETATM   31  C24 UNL     1     -70.615 -14.866  18.003  1.00  0.00     0.069 A 
HETATM   32 CL3  UNL     1     -69.524 -16.214  18.235  1.00  0.00    -0.081 Cl
ENDBRANCH  24  25
ENDBRANCH   5  24
BRANCH   1  33
HETATM   33  C3  UNL     1     -64.671 -13.218  19.878  1.00  0.00     0.176 C 
BRANCH  33  34
HETATM   34  O1  UNL     1     -65.023 -14.057  20.912  1.00  0.00    -0.354 OA
BRANCH  34  35
HETATM   35  C2  UNL     1     -64.574 -13.688  22.152  1.00  0.00     0.335 C 
HETATM   36  F2  UNL     1     -63.683 -12.613  21.977  1.00  0.00    -0.217 F 
BRANCH  35  37
HETATM   37  C1  UNL     1     -65.686 -13.120  23.016  1.00  0.00     0.287 C 
HETATM   38  F1  UNL     1     -65.385 -11.770  23.168  1.00  0.00    -0.250 F 
ENDBRANCH  35  37
ENDBRANCH  34  35
ENDBRANCH  33  34
ENDBRANCH   1  33
TORSDOF 10
ENDMDL
