MODEL 1
REMARK VINA RESULT: -7.543861591      0.000      0.000
REMARK  13 active torsions:
REMARK  status: ('A' for Active; 'I' for Inactive)
REMARK    1  A    between atoms: C2_2  and  C3_3 
REMARK    2  A    between atoms: C3_3  and  C4_4 
REMARK    3  A    between atoms: C4_4  and  O1_5 
REMARK    4  A    between atoms: O1_5  and  C5_6 
REMARK    5  A    between atoms: C5_6  and  C6_8 
REMARK    6  A    between atoms: C11_15  and  C12_16 
REMARK    7  A    between atoms: C12_16  and  O3_17 
REMARK    8  A    between atoms: C12_16  and  C13_19 
REMARK    9  A    between atoms: C12_16  and  C20_30 
REMARK   10  A    between atoms: C13_19  and  O4_20 
REMARK   11  A    between atoms: O4_20  and  C14_21 
REMARK   12  A    between atoms: C20_30  and  O6_32 
REMARK   13  A    between atoms: O6_32  and  C21_33 
ROOT
HETATM    1  C12 UNL     1     -68.043 -11.013  19.268  1.00  0.00     0.192 C 
ENDROOT
BRANCH   1   2
HETATM    2  C11 UNL     1     -69.520 -11.173  19.275  1.00  0.00    -0.018 C 
HETATM    3  C6  UNL     1     -70.278 -11.291  20.493  1.00  0.00     0.044 C 
HETATM    4  C7  UNL     1     -71.127 -10.286  20.842  1.00  0.00     0.033 C 
HETATM    5  C8  UNL     1     -71.391  -9.062  20.091  1.00  0.00     0.132 C 
HETATM    6 CL1  UNL     1     -70.572  -7.612  20.618  1.00  0.00    -0.097 Cl
HETATM    7 CL2  UNL     1     -73.193  -8.776  20.355  1.00  0.00    -0.097 Cl
HETATM    8  C9  UNL     1     -71.262  -9.398  18.641  1.00  0.00     0.051 C 
HETATM    9  C10 UNL     1     -70.113 -10.234  18.252  1.00  0.00     0.042 C 
BRANCH   3  10
HETATM   10  C5  UNL     1     -70.209 -12.427  21.433  1.00  0.00     0.293 C 
HETATM   11  O2  UNL     1     -69.637 -12.374  22.510  1.00  0.00    -0.259 OA
BRANCH  10  12
HETATM   12  O1  UNL     1     -70.811 -13.650  21.126  1.00  0.00    -0.318 OA
BRANCH  12  13
HETATM   13  C4  UNL     1     -72.024 -13.836  20.490  1.00  0.00     0.179 C 
BRANCH  13  14
HETATM   14  C3  UNL     1     -71.976 -14.167  19.038  1.00  0.00     0.026 C 
BRANCH  14  15
HETATM   15  C2  UNL     1     -72.596 -13.045  18.195  1.00  0.00    -0.002 C 
HETATM   16  C1  UNL     1     -73.601 -12.253  18.968  1.00  0.00     0.005 C 
ENDBRANCH  14  15
ENDBRANCH  13  14
ENDBRANCH  12  13
ENDBRANCH  10  12
ENDBRANCH   3  10
ENDBRANCH   1   2
BRANCH   1  17
HETATM   17  O3  UNL     1     -67.814 -10.154  18.119  1.00  0.00    -0.373 OA
ATOM     18  H3  UNL     1     -68.042 -10.713  17.385  1.00  0.00     0.211 HD
ENDBRANCH   1  17
BRANCH   1  19
HETATM   19  C13 UNL     1     -67.137 -12.182  19.123  1.00  0.00     0.229 C 
BRANCH  19  20
HETATM   20  O4  UNL     1     -67.387 -13.384  19.626  1.00  0.00    -0.346 OA
BRANCH  20  21
HETATM   21  C14 UNL     1     -67.437 -14.679  19.407  1.00  0.00     0.092 A 
HETATM   22  C15 UNL     1     -68.526 -15.438  19.044  1.00  0.00     0.040 A 
HETATM   23  C16 UNL     1     -68.455 -16.821  18.836  1.00  0.00     0.028 A 
HETATM   24  C17 UNL     1     -67.262 -17.472  18.993  1.00  0.00     0.057 A 
HETATM   25 CL3  UNL     1     -67.100 -19.191  18.751  1.00  0.00    -0.082 Cl
HETATM   26  C18 UNL     1     -66.148 -16.756  19.352  1.00  0.00     0.080 A 
HETATM   27 CL4  UNL     1     -64.588 -17.571  19.562  1.00  0.00    -0.081 Cl
HETATM   28  C19 UNL     1     -66.234 -15.405  19.553  1.00  0.00     0.090 A 
HETATM   29 CL5  UNL     1     -64.770 -14.544  19.992  1.00  0.00    -0.079 Cl
ENDBRANCH  20  21
ENDBRANCH  19  20
ENDBRANCH   1  19
BRANCH   1  30
HETATM   30  C20 UNL     1     -67.502 -10.236  20.435  1.00  0.00     0.300 C 
HETATM   31  O5  UNL     1     -67.471  -8.981  20.319  1.00  0.00    -0.261 OA
BRANCH  30  32
HETATM   32  O6  UNL     1     -67.062 -10.846  21.570  1.00  0.00    -0.319 OA
BRANCH  32  33
HETATM   33  C21 UNL     1     -65.686 -11.107  21.828  1.00  0.00     0.174 C 
HETATM   34  C22 UNL     1     -65.653 -12.323  22.741  1.00  0.00     0.034 C 
ENDBRANCH  32  33
ENDBRANCH  30  32
ENDBRANCH   1  30
TORSDOF 13
ENDMDL
MODEL 2
REMARK VINA RESULT: -7.539813928      1.511      4.667
REMARK  13 active torsions:
REMARK  status: ('A' for Active; 'I' for Inactive)
REMARK    1  A    between atoms: C2_2  and  C3_3 
REMARK    2  A    between atoms: C3_3  and  C4_4 
REMARK    3  A    between atoms: C4_4  and  O1_5 
REMARK    4  A    between atoms: O1_5  and  C5_6 
REMARK    5  A    between atoms: C5_6  and  C6_8 
REMARK    6  A    between atoms: C11_15  and  C12_16 
REMARK    7  A    between atoms: C12_16  and  O3_17 
REMARK    8  A    between atoms: C12_16  and  C13_19 
REMARK    9  A    between atoms: C12_16  and  C20_30 
REMARK   10  A    between atoms: C13_19  and  O4_20 
REMARK   11  A    between atoms: O4_20  and  C14_21 
REMARK   12  A    between atoms: C20_30  and  O6_32 
REMARK   13  A    between atoms: O6_32  and  C21_33 
ROOT
HETATM    1  C12 UNL     1     -69.799 -12.528  20.531  1.00  0.00     0.192 C 
ENDROOT
BRANCH   1   2
HETATM    2  C11 UNL     1     -70.301 -11.159  20.813  1.00  0.00    -0.018 C 
HETATM    3  C6  UNL     1     -70.262 -10.105  19.834  1.00  0.00     0.044 C 
HETATM    4  C7  UNL     1     -71.432  -9.631  19.326  1.00  0.00     0.033 C 
HETATM    5  C8  UNL     1     -72.780 -10.062  19.685  1.00  0.00     0.132 C 
HETATM    6 CL1  UNL     1     -73.573 -11.180  18.602  1.00  0.00    -0.097 Cl
HETATM    7 CL2  UNL     1     -73.758  -8.499  19.638  1.00  0.00    -0.097 Cl
HETATM    8  C9  UNL     1     -72.749 -10.454  21.126  1.00  0.00     0.051 C 
HETATM    9  C10 UNL     1     -71.605 -11.269  21.569  1.00  0.00     0.042 C 
BRANCH   3  10
HETATM   10  C5  UNL     1     -69.034  -9.482  19.302  1.00  0.00     0.293 C 
HETATM   11  O2  UNL     1     -68.832  -9.302  18.112  1.00  0.00    -0.259 OA
BRANCH  10  12
HETATM   12  O1  UNL     1     -68.016  -9.057  20.160  1.00  0.00    -0.318 OA
BRANCH  12  13
HETATM   13  C4  UNL     1     -66.655  -9.182  19.952  1.00  0.00     0.179 C 
BRANCH  13  14
HETATM   14  C3  UNL     1     -66.011 -10.427  20.456  1.00  0.00     0.026 C 
BRANCH  14  15
HETATM   15  C2  UNL     1     -66.557 -10.812  21.837  1.00  0.00    -0.002 C 
HETATM   16  C1  UNL     1     -65.683 -11.810  22.527  1.00  0.00     0.005 C 
ENDBRANCH  14  15
ENDBRANCH  13  14
ENDBRANCH  12  13
ENDBRANCH  10  12
ENDBRANCH   3  10
ENDBRANCH   1   2
BRANCH   1  17
HETATM   17  O3  UNL     1     -69.239 -12.939  21.808  1.00  0.00    -0.373 OA
ATOM     18  H3  UNL     1     -68.892 -13.804  21.620  1.00  0.00     0.211 HD
ENDBRANCH   1  17
BRANCH   1  19
HETATM   19  C13 UNL     1     -68.756 -12.774  19.501  1.00  0.00     0.229 C 
BRANCH  19  20
HETATM   20  O4  UNL     1     -68.162 -13.945  19.309  1.00  0.00    -0.346 OA
BRANCH  20  21
HETATM   21  C14 UNL     1     -67.048 -14.639  19.388  1.00  0.00     0.092 A 
HETATM   22  C15 UNL     1     -65.821 -14.226  19.851  1.00  0.00     0.040 A 
HETATM   23  C16 UNL     1     -64.700 -15.064  19.889  1.00  0.00     0.028 A 
HETATM   24  C17 UNL     1     -64.802 -16.356  19.452  1.00  0.00     0.057 A 
HETATM   25 CL3  UNL     1     -63.448 -17.455  19.469  1.00  0.00    -0.082 Cl
HETATM   26  C18 UNL     1     -66.007 -16.814  18.982  1.00  0.00     0.080 A 
HETATM   27 CL4  UNL     1     -66.171 -18.484  18.410  1.00  0.00    -0.081 Cl
HETATM   28  C19 UNL     1     -67.093 -15.982  18.952  1.00  0.00     0.090 A 
HETATM   29 CL5  UNL     1     -68.610 -16.633  18.358  1.00  0.00    -0.079 Cl
ENDBRANCH  20  21
ENDBRANCH  19  20
ENDBRANCH   1  19
BRANCH   1  30
HETATM   30  C20 UNL     1     -70.878 -13.535  20.250  1.00  0.00     0.300 C 
HETATM   31  O5  UNL     1     -71.153 -14.348  21.173  1.00  0.00    -0.261 OA
BRANCH  30  32
HETATM   32  O6  UNL     1     -71.536 -13.579  19.059  1.00  0.00    -0.319 OA
BRANCH  32  33
HETATM   33  C21 UNL     1     -71.972 -14.793  18.456  1.00  0.00     0.174 C 
HETATM   34  C22 UNL     1     -71.485 -14.746  17.016  1.00  0.00     0.034 C 
ENDBRANCH  32  33
ENDBRANCH  30  32
ENDBRANCH   1  30
TORSDOF 13
ENDMDL
MODEL 3
REMARK VINA RESULT: -7.485189831      2.047      3.730
REMARK  13 active torsions:
REMARK  status: ('A' for Active; 'I' for Inactive)
REMARK    1  A    between atoms: C2_2  and  C3_3 
REMARK    2  A    between atoms: C3_3  and  C4_4 
REMARK    3  A    between atoms: C4_4  and  O1_5 
REMARK    4  A    between atoms: O1_5  and  C5_6 
REMARK    5  A    between atoms: C5_6  and  C6_8 
REMARK    6  A    between atoms: C11_15  and  C12_16 
REMARK    7  A    between atoms: C12_16  and  O3_17 
REMARK    8  A    between atoms: C12_16  and  C13_19 
REMARK    9  A    between atoms: C12_16  and  C20_30 
REMARK   10  A    between atoms: C13_19  and  O4_20 
REMARK   11  A    between atoms: O4_20  and  C14_21 
REMARK   12  A    between atoms: C20_30  and  O6_32 
REMARK   13  A    between atoms: O6_32  and  C21_33 
ROOT
HETATM    1  C12 UNL     1     -69.098 -12.302  20.338  1.00  0.00     0.192 C 
ENDROOT
BRANCH   1   2
HETATM    2  C11 UNL     1     -70.423 -11.635  20.262  1.00  0.00    -0.018 C 
HETATM    3  C6  UNL     1     -70.862 -10.919  19.094  1.00  0.00     0.044 C 
HETATM    4  C7  UNL     1     -71.896 -11.417  18.363  1.00  0.00     0.033 C 
HETATM    5  C8  UNL     1     -72.663 -12.627  18.643  1.00  0.00     0.132 C 
HETATM    6 CL1  UNL     1     -72.247 -14.061  17.735  1.00  0.00    -0.097 Cl
HETATM    7 CL2  UNL     1     -74.380 -12.171  18.151  1.00  0.00    -0.097 Cl
HETATM    8  C9  UNL     1     -72.715 -12.783  20.128  1.00  0.00     0.051 C 
HETATM    9  C10 UNL     1     -71.461 -12.553  20.865  1.00  0.00     0.042 C 
BRANCH   3  10
HETATM   10  C5  UNL     1     -70.267  -9.665  18.591  1.00  0.00     0.293 C 
HETATM   11  O2  UNL     1     -69.780  -9.550  17.478  1.00  0.00    -0.259 OA
BRANCH  10  12
HETATM   12  O1  UNL     1     -70.233  -8.517  19.387  1.00  0.00    -0.318 OA
BRANCH  12  13
HETATM   13  C4  UNL     1     -71.260  -8.027  20.173  1.00  0.00     0.179 C 
BRANCH  13  14
HETATM   14  C3  UNL     1     -72.551  -7.739  19.488  1.00  0.00     0.026 C 
BRANCH  14  15
HETATM   15  C2  UNL     1     -73.681  -8.612  20.048  1.00  0.00    -0.002 C 
HETATM   16  C1  UNL     1     -75.020  -7.967  19.886  1.00  0.00     0.005 C 
ENDBRANCH  14  15
ENDBRANCH  13  14
ENDBRANCH  12  13
ENDBRANCH  10  12
ENDBRANCH   3  10
ENDBRANCH   1   2
BRANCH   1  17
HETATM   17  O3  UNL     1     -68.319 -11.595  19.336  1.00  0.00    -0.373 OA
ATOM     18  H3  UNL     1     -68.564 -10.687  19.477  1.00  0.00     0.211 HD
ENDBRANCH   1  17
BRANCH   1  19
HETATM   19  C13 UNL     1     -68.944 -13.754  20.061  1.00  0.00     0.229 C 
BRANCH  19  20
HETATM   20  O4  UNL     1     -67.929 -14.280  19.387  1.00  0.00    -0.346 OA
BRANCH  20  21
HETATM   21  C14 UNL     1     -66.792 -14.938  19.447  1.00  0.00     0.092 A 
HETATM   22  C15 UNL     1     -65.558 -14.468  19.834  1.00  0.00     0.040 A 
HETATM   23  C16 UNL     1     -64.412 -15.272  19.859  1.00  0.00     0.028 A 
HETATM   24  C17 UNL     1     -64.494 -16.585  19.488  1.00  0.00     0.057 A 
HETATM   25 CL3  UNL     1     -63.108 -17.644  19.494  1.00  0.00    -0.082 Cl
HETATM   26  C18 UNL     1     -65.705 -17.099  19.096  1.00  0.00     0.080 A 
HETATM   27 CL4  UNL     1     -65.843 -18.799  18.611  1.00  0.00    -0.081 Cl
HETATM   28  C19 UNL     1     -66.816 -16.300  19.077  1.00  0.00     0.090 A 
HETATM   29 CL5  UNL     1     -68.337 -17.022  18.585  1.00  0.00    -0.079 Cl
ENDBRANCH  20  21
ENDBRANCH  19  20
ENDBRANCH   1  19
BRANCH   1  30
HETATM   30  C20 UNL     1     -68.362 -12.066  21.626  1.00  0.00     0.300 C 
HETATM   31  O5  UNL     1     -68.945 -12.415  22.688  1.00  0.00    -0.261 OA
BRANCH  30  32
HETATM   32  O6  UNL     1     -67.123 -11.502  21.660  1.00  0.00    -0.319 OA
BRANCH  32  33
HETATM   33  C21 UNL     1     -66.062 -12.006  22.466  1.00  0.00     0.174 C 
HETATM   34  C22 UNL     1     -64.780 -11.442  21.873  1.00  0.00     0.034 C 
ENDBRANCH  32  33
ENDBRANCH  30  32
ENDBRANCH   1  30
TORSDOF 13
ENDMDL
MODEL 4
REMARK VINA RESULT: -7.461066697      2.243      6.873
REMARK  13 active torsions:
REMARK  status: ('A' for Active; 'I' for Inactive)
REMARK    1  A    between atoms: C2_2  and  C3_3 
REMARK    2  A    between atoms: C3_3  and  C4_4 
REMARK    3  A    between atoms: C4_4  and  O1_5 
REMARK    4  A    between atoms: O1_5  and  C5_6 
REMARK    5  A    between atoms: C5_6  and  C6_8 
REMARK    6  A    between atoms: C11_15  and  C12_16 
REMARK    7  A    between atoms: C12_16  and  O3_17 
REMARK    8  A    between atoms: C12_16  and  C13_19 
REMARK    9  A    between atoms: C12_16  and  C20_30 
REMARK   10  A    between atoms: C13_19  and  O4_20 
REMARK   11  A    between atoms: O4_20  and  C14_21 
REMARK   12  A    between atoms: C20_30  and  O6_32 
REMARK   13  A    between atoms: O6_32  and  C21_33 
ROOT
HETATM    1  C12 UNL     1     -68.780 -11.948  18.817  1.00  0.00     0.192 C 
ENDROOT
BRANCH   1   2
HETATM    2  C11 UNL     1     -68.102 -11.222  19.922  1.00  0.00    -0.018 C 
HETATM    3  C6  UNL     1     -67.940 -11.790  21.234  1.00  0.00     0.044 C 
HETATM    4  C7  UNL     1     -66.689 -12.108  21.667  1.00  0.00     0.033 C 
HETATM    5  C8  UNL     1     -65.437 -11.914  20.941  1.00  0.00     0.132 C 
HETATM    6 CL1  UNL     1     -64.757 -13.309  20.139  1.00  0.00    -0.097 Cl
HETATM    7 CL2  UNL     1     -64.245 -11.432  22.263  1.00  0.00    -0.097 Cl
HETATM    8  C9  UNL     1     -65.598 -10.689  20.102  1.00  0.00     0.051 C 
HETATM    9  C10 UNL     1     -66.869 -10.546  19.371  1.00  0.00     0.042 C 
BRANCH   3  10
HETATM   10  C5  UNL     1     -69.037 -12.083  22.177  1.00  0.00     0.293 C 
HETATM   11  O2  UNL     1     -68.858 -12.517  23.303  1.00  0.00    -0.259 OA
BRANCH  10  12
HETATM   12  O1  UNL     1     -70.370 -11.870  21.815  1.00  0.00    -0.318 OA
BRANCH  12  13
HETATM   13  C4  UNL     1     -71.389 -12.804  21.830  1.00  0.00     0.179 C 
BRANCH  13  14
HETATM   14  C3  UNL     1     -72.582 -12.509  20.989  1.00  0.00     0.026 C 
BRANCH  14  15
HETATM   15  C2  UNL     1     -73.598 -11.650  21.753  1.00  0.00    -0.002 C 
HETATM   16  C1  UNL     1     -73.910 -12.217  23.102  1.00  0.00     0.005 C 
ENDBRANCH  14  15
ENDBRANCH  13  14
ENDBRANCH  12  13
ENDBRANCH  10  12
ENDBRANCH   3  10
ENDBRANCH   1   2
BRANCH   1  17
HETATM   17  O3  UNL     1     -67.880 -11.746  17.694  1.00  0.00    -0.373 OA
ATOM     18  H3  UNL     1     -67.226 -11.154  18.048  1.00  0.00     0.211 HD
ENDBRANCH   1  17
BRANCH   1  19
HETATM   19  C13 UNL     1     -70.140 -11.563  18.357  1.00  0.00     0.229 C 
BRANCH  19  20
HETATM   20  O4  UNL     1     -70.510 -10.318  18.089  1.00  0.00    -0.346 OA
BRANCH  20  21
HETATM   21  C14 UNL     1     -70.756  -9.117  18.565  1.00  0.00     0.092 A 
HETATM   22  C15 UNL     1     -69.855  -8.118  18.856  1.00  0.00     0.040 A 
HETATM   23  C16 UNL     1     -70.239  -6.870  19.360  1.00  0.00     0.028 A 
HETATM   24  C17 UNL     1     -71.562  -6.605  19.583  1.00  0.00     0.057 A 
HETATM   25 CL3  UNL     1     -72.113  -5.074  20.210  1.00  0.00    -0.082 Cl
HETATM   26  C18 UNL     1     -72.498  -7.570  19.306  1.00  0.00     0.080 A 
HETATM   27 CL4  UNL     1     -74.220  -7.256  19.583  1.00  0.00    -0.081 Cl
HETATM   28  C19 UNL     1     -72.105  -8.785  18.814  1.00  0.00     0.090 A 
HETATM   29 CL5  UNL     1     -73.351  -9.970  18.463  1.00  0.00    -0.079 Cl
ENDBRANCH  20  21
ENDBRANCH  19  20
ENDBRANCH   1  19
BRANCH   1  30
HETATM   30  C20 UNL     1     -68.831 -13.438  18.999  1.00  0.00     0.300 C 
HETATM   31  O5  UNL     1     -69.974 -13.964  19.072  1.00  0.00    -0.261 OA
BRANCH  30  32
HETATM   32  O6  UNL     1     -67.703 -14.197  19.082  1.00  0.00    -0.319 OA
BRANCH  32  33
HETATM   33  C21 UNL     1     -67.730 -15.611  19.255  1.00  0.00     0.174 C 
HETATM   34  C22 UNL     1     -66.427 -16.131  18.667  1.00  0.00     0.034 C 
ENDBRANCH  32  33
ENDBRANCH  30  32
ENDBRANCH   1  30
TORSDOF 13
ENDMDL
MODEL 5
REMARK VINA RESULT: -7.436840780      0.971      1.714
REMARK  13 active torsions:
REMARK  status: ('A' for Active; 'I' for Inactive)
REMARK    1  A    between atoms: C2_2  and  C3_3 
REMARK    2  A    between atoms: C3_3  and  C4_4 
REMARK    3  A    between atoms: C4_4  and  O1_5 
REMARK    4  A    between atoms: O1_5  and  C5_6 
REMARK    5  A    between atoms: C5_6  and  C6_8 
REMARK    6  A    between atoms: C11_15  and  C12_16 
REMARK    7  A    between atoms: C12_16  and  O3_17 
REMARK    8  A    between atoms: C12_16  and  C13_19 
REMARK    9  A    between atoms: C12_16  and  C20_30 
REMARK   10  A    between atoms: C13_19  and  O4_20 
REMARK   11  A    between atoms: O4_20  and  C14_21 
REMARK   12  A    between atoms: C20_30  and  O6_32 
REMARK   13  A    between atoms: O6_32  and  C21_33 
ROOT
HETATM    1  C12 UNL     1     -67.857 -10.993  19.558  1.00  0.00     0.192 C 
ENDROOT
BRANCH   1   2
HETATM    2  C11 UNL     1     -69.318 -11.263  19.554  1.00  0.00    -0.018 C 
HETATM    3  C6  UNL     1     -70.096 -11.321  20.763  1.00  0.00     0.044 C 
HETATM    4  C7  UNL     1     -71.024 -10.355  20.999  1.00  0.00     0.033 C 
HETATM    5  C8  UNL     1     -71.357  -9.230  20.129  1.00  0.00     0.132 C 
HETATM    6 CL1  UNL     1     -70.660  -7.679  20.530  1.00  0.00    -0.097 Cl
HETATM    7 CL2  UNL     1     -73.182  -9.056  20.332  1.00  0.00    -0.097 Cl
HETATM    8  C9  UNL     1     -71.168  -9.690  18.721  1.00  0.00     0.051 C 
HETATM    9  C10 UNL     1     -69.952 -10.471  18.435  1.00  0.00     0.042 C 
BRANCH   3  10
HETATM   10  C5  UNL     1     -69.968 -12.355  21.809  1.00  0.00     0.293 C 
HETATM   11  O2  UNL     1     -69.118 -12.326  22.683  1.00  0.00    -0.259 OA
BRANCH  10  12
HETATM   12  O1  UNL     1     -70.839 -13.447  21.849  1.00  0.00    -0.318 OA
BRANCH  12  13
HETATM   13  C4  UNL     1     -71.260 -14.207  20.773  1.00  0.00     0.179 C 
BRANCH  13  14
HETATM   14  C3  UNL     1     -72.415 -13.683  19.992  1.00  0.00     0.026 C 
BRANCH  14  15
HETATM   15  C2  UNL     1     -72.072 -13.578  18.501  1.00  0.00    -0.002 C 
HETATM   16  C1  UNL     1     -73.028 -12.694  17.766  1.00  0.00     0.005 C 
ENDBRANCH  14  15
ENDBRANCH  13  14
ENDBRANCH  12  13
ENDBRANCH  10  12
ENDBRANCH   3  10
ENDBRANCH   1   2
BRANCH   1  17
HETATM   17  O3  UNL     1     -67.584 -10.651  18.173  1.00  0.00    -0.373 OA
ATOM     18  H3  UNL     1     -68.266 -11.114  17.700  1.00  0.00     0.211 HD
ENDBRANCH   1  17
BRANCH   1  19
HETATM   19  C13 UNL     1     -66.877 -12.042  19.946  1.00  0.00     0.229 C 
BRANCH  19  20
HETATM   20  O4  UNL     1     -67.186 -13.320  20.123  1.00  0.00    -0.346 OA
BRANCH  20  21
HETATM   21  C14 UNL     1     -67.136 -14.541  19.637  1.00  0.00     0.092 A 
HETATM   22  C15 UNL     1     -68.152 -15.270  19.064  1.00  0.00     0.040 A 
HETATM   23  C16 UNL     1     -67.976 -16.570  18.577  1.00  0.00     0.028 A 
HETATM   24  C17 UNL     1     -66.748 -17.167  18.662  1.00  0.00     0.057 A 
HETATM   25 CL3  UNL     1     -66.455 -18.784  18.077  1.00  0.00    -0.082 Cl
HETATM   26  C18 UNL     1     -65.702 -16.478  19.224  1.00  0.00     0.080 A 
HETATM   27 CL4  UNL     1     -64.099 -17.224  19.346  1.00  0.00    -0.081 Cl
HETATM   28  C19 UNL     1     -65.892 -15.207  19.695  1.00  0.00     0.090 A 
HETATM   29 CL5  UNL     1     -64.511 -14.373  20.385  1.00  0.00    -0.079 Cl
ENDBRANCH  20  21
ENDBRANCH  19  20
ENDBRANCH   1  19
BRANCH   1  30
HETATM   30  C20 UNL     1     -67.458  -9.772  20.336  1.00  0.00     0.300 C 
HETATM   31  O5  UNL     1     -66.706  -9.951  21.332  1.00  0.00    -0.261 OA
BRANCH  30  32
HETATM   32  O6  UNL     1     -67.880  -8.524  19.993  1.00  0.00    -0.319 OA
BRANCH  32  33
HETATM   33  C21 UNL     1     -67.155  -7.674  19.109  1.00  0.00     0.174 C 
HETATM   34  C22 UNL     1     -68.065  -7.436  17.914  1.00  0.00     0.034 C 
ENDBRANCH  32  33
ENDBRANCH  30  32
ENDBRANCH   1  30
TORSDOF 13
ENDMDL
