MODEL 1
REMARK VINA RESULT: -5.719280226      0.000      0.000
REMARK  3 active torsions:
REMARK  status: ('A' for Active; 'I' for Inactive)
REMARK    1  A    between atoms: N1_1  and  C1_4 
REMARK    2  A    between atoms: C2_7  and  C3_8 
REMARK    3  A    between atoms: C4_9  and  N3_10 
ROOT
HETATM    1  C1  UNL     1      -0.495 -22.483 -37.414  1.00  0.00     0.692 A 
HETATM    2  N2  UNL     1      -0.271 -21.648 -36.416  1.00  0.00    -0.174 N 
ATOM      3  H2  UNL     1       0.604 -21.558 -35.898  1.00  0.00     0.186 HD
HETATM    4  C2  UNL     1      -1.433 -20.909 -36.189  1.00  0.00     0.137 A 
HETATM    5  N7  UNL     1      -2.325 -21.333 -37.073  1.00  0.00    -0.271 N 
ATOM      6  H7  UNL     1      -3.282 -20.997 -37.177  1.00  0.00     0.189 HD
HETATM    7  N8  UNL     1      -1.732 -22.290 -37.808  1.00  0.00    -0.131 N 
ATOM      8  H8  UNL     1      -2.183 -22.798 -38.569  1.00  0.00     0.205 HD
ENDROOT
BRANCH   4   9
HETATM    9  C3  UNL     1      -1.436 -19.933 -35.148  1.00  0.00     0.071 C 
HETATM   10  C4  UNL     1      -2.150 -18.954 -34.771  1.00  0.00     0.143 C 
BRANCH  10  11
HETATM   11  N3  UNL     1      -3.332 -18.383 -35.266  1.00  0.00    -0.177 N 
HETATM   12  N4  UNL     1      -3.567 -17.027 -35.481  1.00  0.00    -0.205 N 
HETATM   13  N5  UNL     1      -4.764 -17.332 -35.901  1.00  0.00    -0.210 N 
ATOM     14  H4  UNL     1      -3.033 -16.166 -35.360  1.00  0.00     0.212 HD
HETATM   15  N6  UNL     1      -4.545 -18.611 -35.701  1.00  0.00    -0.205 N 
ATOM     16  H5  UNL     1      -5.557 -16.791 -36.249  1.00  0.00     0.211 HD
ATOM     17  H6  UNL     1      -5.104 -19.454 -35.832  1.00  0.00     0.212 HD
ENDBRANCH  10  11
ENDBRANCH   4   9
BRANCH   1  18
HETATM   18  N1  UNL     1       0.414 -23.313 -37.862  1.00  0.00    -0.233 N 
ATOM     19  H12 UNL     1       0.443 -24.333 -37.835  1.00  0.00     0.174 HD
ATOM     20  H11 UNL     1       1.265 -23.001 -38.329  1.00  0.00     0.174 HD
ENDBRANCH   1  18
TORSDOF 3
ENDMDL
MODEL 2
REMARK VINA RESULT: -5.704606095      1.176      5.251
REMARK  3 active torsions:
REMARK  status: ('A' for Active; 'I' for Inactive)
REMARK    1  A    between atoms: N1_1  and  C1_4 
REMARK    2  A    between atoms: C2_7  and  C3_8 
REMARK    3  A    between atoms: C4_9  and  N3_10 
ROOT
HETATM    1  C1  UNL     1      -3.355 -18.138 -34.864  1.00  0.00     0.692 A 
HETATM    2  N2  UNL     1      -2.105 -18.559 -34.818  1.00  0.00    -0.174 N 
ATOM      3  H2  UNL     1      -1.320 -18.053 -34.408  1.00  0.00     0.186 HD
HETATM    4  C2  UNL     1      -2.038 -19.814 -35.426  1.00  0.00     0.137 A 
HETATM    5  N7  UNL     1      -3.271 -20.105 -35.819  1.00  0.00    -0.271 N 
ATOM      6  H7  UNL     1      -3.569 -20.954 -36.299  1.00  0.00     0.189 HD
HETATM    7  N8  UNL     1      -4.055 -19.072 -35.466  1.00  0.00    -0.131 N 
ATOM      8  H8  UNL     1      -5.058 -19.020 -35.643  1.00  0.00     0.205 HD
ENDROOT
BRANCH   4   9
HETATM    9  C3  UNL     1      -0.777 -20.477 -35.499  1.00  0.00     0.071 C 
HETATM   10  C4  UNL     1      -0.253 -21.445 -36.132  1.00  0.00     0.143 C 
BRANCH  10  11
HETATM   11  N3  UNL     1      -0.741 -22.332 -37.102  1.00  0.00    -0.177 N 
HETATM   12  N4  UNL     1      -0.213 -23.583 -37.417  1.00  0.00    -0.205 N 
HETATM   13  N5  UNL     1      -1.152 -23.720 -38.313  1.00  0.00    -0.210 N 
ATOM     14  H4  UNL     1       0.570 -24.148 -37.088  1.00  0.00     0.212 HD
HETATM   15  N6  UNL     1      -1.652 -22.542 -38.018  1.00  0.00    -0.205 N 
ATOM     16  H5  UNL     1      -1.400 -24.452 -38.979  1.00  0.00     0.211 HD
ATOM     17  H6  UNL     1      -2.442 -22.001 -38.367  1.00  0.00     0.212 HD
ENDBRANCH  10  11
ENDBRANCH   4   9
BRANCH   1  18
HETATM   18  N1  UNL     1      -3.735 -16.986 -34.369  1.00  0.00    -0.233 N 
ATOM     19  H12 UNL     1      -3.654 -16.046 -34.758  1.00  0.00     0.174 HD
ATOM     20  H11 UNL     1      -4.195 -16.898 -33.463  1.00  0.00     0.174 HD
ENDBRANCH   1  18
TORSDOF 3
ENDMDL
MODEL 3
REMARK VINA RESULT: -5.590458298      0.993      1.237
REMARK  3 active torsions:
REMARK  status: ('A' for Active; 'I' for Inactive)
REMARK    1  A    between atoms: N1_1  and  C1_4 
REMARK    2  A    between atoms: C2_7  and  C3_8 
REMARK    3  A    between atoms: C4_9  and  N3_10 
ROOT
HETATM    1  C1  UNL     1      -0.182 -23.599 -37.683  1.00  0.00     0.692 A 
HETATM    2  N2  UNL     1       0.116 -22.716 -36.748  1.00  0.00    -0.174 N 
ATOM      3  H2  UNL     1       0.945 -22.732 -36.154  1.00  0.00     0.186 HD
HETATM    4  C2  UNL     1      -0.897 -21.756 -36.708  1.00  0.00     0.137 A 
HETATM    5  N7  UNL     1      -1.778 -22.103 -37.637  1.00  0.00    -0.271 N 
ATOM      6  H7  UNL     1      -2.641 -21.610 -37.868  1.00  0.00     0.189 HD
HETATM    7  N8  UNL     1      -1.322 -23.227 -38.217  1.00  0.00    -0.131 N 
ATOM      8  H8  UNL     1      -1.798 -23.723 -38.970  1.00  0.00     0.205 HD
ENDROOT
BRANCH   4   9
HETATM    9  C3  UNL     1      -0.798 -20.689 -35.766  1.00  0.00     0.071 C 
HETATM   10  C4  UNL     1      -1.552 -19.802 -35.258  1.00  0.00     0.143 C 
BRANCH  10  11
HETATM   11  N3  UNL     1      -2.907 -19.484 -35.429  1.00  0.00    -0.177 N 
HETATM   12  N4  UNL     1      -3.536 -18.309 -35.023  1.00  0.00    -0.205 N 
HETATM   13  N5  UNL     1      -4.654 -18.776 -35.510  1.00  0.00    -0.210 N 
ATOM     14  H4  UNL     1      -3.248 -17.453 -34.549  1.00  0.00     0.212 HD
HETATM   15  N6  UNL     1      -4.063 -19.883 -35.894  1.00  0.00    -0.205 N 
ATOM     16  H5  UNL     1      -5.609 -18.420 -35.568  1.00  0.00     0.211 HD
ATOM     17  H6  UNL     1      -4.382 -20.727 -36.370  1.00  0.00     0.212 HD
ENDBRANCH  10  11
ENDBRANCH   4   9
BRANCH   1  18
HETATM   18  N1  UNL     1       0.584 -24.626 -37.959  1.00  0.00    -0.233 N 
ATOM     19  H12 UNL     1       0.447 -25.388 -38.622  1.00  0.00     0.174 HD
ATOM     20  H11 UNL     1       1.481 -24.785 -37.500  1.00  0.00     0.174 HD
ENDBRANCH   1  18
TORSDOF 3
ENDMDL
MODEL 4
REMARK VINA RESULT: -4.985393747      1.137      1.695
REMARK  3 active torsions:
REMARK  status: ('A' for Active; 'I' for Inactive)
REMARK    1  A    between atoms: N1_1  and  C1_4 
REMARK    2  A    between atoms: C2_7  and  C3_8 
REMARK    3  A    between atoms: C4_9  and  N3_10 
ROOT
HETATM    1  C1  UNL     1      -0.636 -23.015 -37.339  1.00  0.00     0.692 A 
HETATM    2  N2  UNL     1      -0.938 -21.749 -37.118  1.00  0.00    -0.174 N 
ATOM      3  H2  UNL     1      -1.551 -21.172 -37.695  1.00  0.00     0.186 HD
HETATM    4  C2  UNL     1      -0.278 -21.333 -35.960  1.00  0.00     0.137 A 
HETATM    5  N7  UNL     1       0.405 -22.381 -35.522  1.00  0.00    -0.271 N 
ATOM      6  H7  UNL     1       0.997 -22.414 -34.692  1.00  0.00     0.189 HD
HETATM    7  N8  UNL     1       0.172 -23.393 -36.375  1.00  0.00    -0.131 N 
ATOM      8  H8  UNL     1       0.570 -24.327 -36.287  1.00  0.00     0.205 HD
ENDROOT
BRANCH   4   9
HETATM    9  C3  UNL     1      -0.451 -19.988 -35.515  1.00  0.00     0.071 C 
HETATM   10  C4  UNL     1      -1.404 -19.177 -35.303  1.00  0.00     0.143 C 
BRANCH  10  11
HETATM   11  N3  UNL     1      -2.797 -19.281 -35.429  1.00  0.00    -0.177 N 
HETATM   12  N4  UNL     1      -3.737 -18.342 -35.008  1.00  0.00    -0.205 N 
HETATM   13  N5  UNL     1      -4.678 -19.129 -35.454  1.00  0.00    -0.210 N 
ATOM     14  H4  UNL     1      -3.703 -17.431 -34.550  1.00  0.00     0.212 HD
HETATM   15  N6  UNL     1      -3.795 -20.016 -35.851  1.00  0.00    -0.205 N 
ATOM     16  H5  UNL     1      -5.697 -19.077 -35.482  1.00  0.00     0.211 HD
ATOM     17  H6  UNL     1      -3.861 -20.924 -36.310  1.00  0.00     0.212 HD
ENDBRANCH  10  11
ENDBRANCH   4   9
BRANCH   1  18
HETATM   18  N1  UNL     1      -1.107 -23.689 -38.358  1.00  0.00    -0.233 N 
ATOM     19  H12 UNL     1      -1.189 -23.424 -39.340  1.00  0.00     0.174 HD
ATOM     20  H11 UNL     1      -1.473 -24.638 -38.272  1.00  0.00     0.174 HD
ENDBRANCH   1  18
TORSDOF 3
ENDMDL
MODEL 5
REMARK VINA RESULT: -4.802393961      1.752      5.422
REMARK  3 active torsions:
REMARK  status: ('A' for Active; 'I' for Inactive)
REMARK    1  A    between atoms: N1_1  and  C1_4 
REMARK    2  A    between atoms: C2_7  and  C3_8 
REMARK    3  A    between atoms: C4_9  and  N3_10 
ROOT
HETATM    1  C1  UNL     1      -2.872 -19.878 -35.518  1.00  0.00     0.692 A 
HETATM    2  N2  UNL     1      -1.856 -20.498 -36.089  1.00  0.00    -0.174 N 
ATOM      3  H2  UNL     1      -0.870 -20.349 -35.877  1.00  0.00     0.186 HD
HETATM    4  C2  UNL     1      -2.361 -21.394 -37.033  1.00  0.00     0.137 A 
HETATM    5  N7  UNL     1      -3.681 -21.277 -36.992  1.00  0.00    -0.271 N 
ATOM      6  H7  UNL     1      -4.353 -21.794 -37.560  1.00  0.00     0.189 HD
HETATM    7  N8  UNL     1      -3.969 -20.349 -36.063  1.00  0.00    -0.131 N 
ATOM      8  H8  UNL     1      -4.913 -20.052 -35.816  1.00  0.00     0.205 HD
ENDROOT
BRANCH   4   9
HETATM    9  C3  UNL     1      -1.445 -22.187 -37.788  1.00  0.00     0.071 C 
HETATM   10  C4  UNL     1      -0.399 -22.875 -37.583  1.00  0.00     0.143 C 
BRANCH  10  11
HETATM   11  N3  UNL     1       0.349 -23.164 -36.432  1.00  0.00    -0.177 N 
HETATM   12  N4  UNL     1       0.974 -24.373 -36.134  1.00  0.00    -0.205 N 
HETATM   13  N5  UNL     1       1.394 -23.846 -35.016  1.00  0.00    -0.210 N 
ATOM     14  H4  UNL     1       1.063 -25.280 -36.593  1.00  0.00     0.212 HD
HETATM   15  N6  UNL     1       0.806 -22.705 -35.294  1.00  0.00    -0.205 N 
ATOM     16  H5  UNL     1       1.956 -24.187 -34.236  1.00  0.00     0.211 HD
ATOM     17  H6  UNL     1       0.734 -21.810 -34.812  1.00  0.00     0.212 HD
ENDBRANCH  10  11
ENDBRANCH   4   9
BRANCH   1  18
HETATM   18  N1  UNL     1      -2.715 -18.972 -34.583  1.00  0.00    -0.233 N 
ATOM     19  H12 UNL     1      -2.586 -17.963 -34.662  1.00  0.00     0.174 HD
ATOM     20  H11 UNL     1      -2.708 -19.200 -33.589  1.00  0.00     0.174 HD
ENDBRANCH   1  18
TORSDOF 3
ENDMDL
