MODEL 1
REMARK VINA RESULT: -4.848225908      0.000      0.000
REMARK  6 active torsions:
REMARK  status: ('A' for Active; 'I' for Inactive)
REMARK    1  A    between atoms: N1_1  and  C1_4 
REMARK    2  A    between atoms: C1_4  and  C2_5 
REMARK    3  A    between atoms: C2_5  and  C3_6 
REMARK    4  A    between atoms: C3_6  and  N2_7 
REMARK    5  A    between atoms: N2_7  and  N3_9 
REMARK    6  A    between atoms: N3_9  and  C4_11 
ROOT
HETATM    1  N3  UNL     1      -2.842 -18.838 -34.145  1.00  0.00    -0.134 N 
ATOM      2  H3  UNL     1      -2.692 -18.684 -33.148  1.00  0.00     0.205 HD
ENDROOT
BRANCH   1   3
HETATM    3  N2  UNL     1      -2.296 -19.951 -34.769  1.00  0.00    -0.321 N 
ATOM      4  H2  UNL     1      -2.752 -20.861 -34.697  1.00  0.00     0.180 HD
BRANCH   3   5
HETATM    5  C3  UNL     1      -1.076 -19.798 -35.518  1.00  0.00     0.152 C 
BRANCH   5   6
HETATM    6  C2  UNL     1      -0.485 -21.069 -35.937  1.00  0.00     0.125 C 
BRANCH   6   7
HETATM    7  C1  UNL     1      -1.024 -21.782 -36.916  1.00  0.00    -0.076 C 
BRANCH   7   8
HETATM    8  N1  UNL     1      -1.787 -22.246 -37.842  1.00  0.00    -0.370 N 
ATOM      9  H12 UNL     1      -2.510 -22.528 -37.180  1.00  0.00     0.165 HD
ATOM     10  H11 UNL     1      -2.195 -22.536 -38.730  1.00  0.00     0.165 HD
ENDBRANCH   7   8
ENDBRANCH   6   7
ENDBRANCH   5   6
ENDBRANCH   3   5
ENDBRANCH   1   3
BRANCH   1  11
HETATM   11  C4  UNL     1      -3.553 -17.982 -34.844  1.00  0.00     0.728 A 
HETATM   12  N4  UNL     1      -4.414 -18.300 -35.825  1.00  0.00    -0.114 N 
HETATM   13  N5  UNL     1      -4.913 -17.162 -36.262  1.00  0.00    -0.213 N 
ATOM     14  H4  UNL     1      -4.637 -19.235 -36.165  1.00  0.00     0.207 HD
HETATM   15  N6  UNL     1      -4.397 -16.145 -35.594  1.00  0.00    -0.213 N 
ATOM     16  H5  UNL     1      -5.601 -17.077 -37.010  1.00  0.00     0.210 HD
HETATM   17  N7  UNL     1      -3.565 -16.649 -34.726  1.00  0.00    -0.114 N 
ATOM     18  H6  UNL     1      -4.610 -15.157 -35.732  1.00  0.00     0.210 HD
ATOM     19  H7  UNL     1      -3.010 -16.110 -34.061  1.00  0.00     0.207 HD
ENDBRANCH   1  11
TORSDOF 6
ENDMDL
MODEL 2
REMARK VINA RESULT: -4.837715784      0.045      1.079
REMARK  6 active torsions:
REMARK  status: ('A' for Active; 'I' for Inactive)
REMARK    1  A    between atoms: N1_1  and  C1_4 
REMARK    2  A    between atoms: C1_4  and  C2_5 
REMARK    3  A    between atoms: C2_5  and  C3_6 
REMARK    4  A    between atoms: C3_6  and  N2_7 
REMARK    5  A    between atoms: N2_7  and  N3_9 
REMARK    6  A    between atoms: N3_9  and  C4_11 
ROOT
HETATM    1  N3  UNL     1      -2.856 -18.821 -34.100  1.00  0.00    -0.134 N 
ATOM      2  H3  UNL     1      -2.718 -18.654 -33.103  1.00  0.00     0.205 HD
ENDROOT
BRANCH   1   3
HETATM    3  N2  UNL     1      -2.301 -19.941 -34.702  1.00  0.00    -0.321 N 
ATOM      4  H2  UNL     1      -2.717 -20.863 -34.567  1.00  0.00     0.180 HD
BRANCH   3   5
HETATM    5  C3  UNL     1      -1.127 -19.779 -35.521  1.00  0.00     0.152 C 
BRANCH   5   6
HETATM    6  C2  UNL     1      -0.528 -21.046 -35.939  1.00  0.00     0.125 C 
BRANCH   6   7
HETATM    7  C1  UNL     1      -1.070 -21.769 -36.909  1.00  0.00    -0.076 C 
BRANCH   7   8
HETATM    8  N1  UNL     1      -1.807 -22.215 -37.864  1.00  0.00    -0.370 N 
ATOM      9  H12 UNL     1      -2.498 -22.604 -37.223  1.00  0.00     0.165 HD
ATOM     10  H11 UNL     1      -2.202 -22.463 -38.771  1.00  0.00     0.165 HD
ENDBRANCH   7   8
ENDBRANCH   6   7
ENDBRANCH   5   6
ENDBRANCH   3   5
ENDBRANCH   1   3
BRANCH   1  11
HETATM   11  C4  UNL     1      -3.560 -17.976 -34.818  1.00  0.00     0.728 A 
HETATM   12  N4  UNL     1      -3.548 -16.639 -34.685  1.00  0.00    -0.114 N 
HETATM   13  N5  UNL     1      -4.385 -16.170 -35.587  1.00  0.00    -0.213 N 
ATOM     14  H4  UNL     1      -3.001 -16.095 -34.018  1.00  0.00     0.207 HD
HETATM   15  N6  UNL     1      -4.921 -17.160 -36.278  1.00  0.00    -0.213 N 
ATOM     16  H5  UNL     1      -4.590 -15.182 -35.733  1.00  0.00     0.210 HD
HETATM   17  N7  UNL     1      -4.415 -18.265 -35.807  1.00  0.00    -0.114 N 
ATOM     18  H6  UNL     1      -5.600 -17.076 -37.035  1.00  0.00     0.210 HD
ATOM     19  H7  UNL     1      -4.636 -19.204 -36.140  1.00  0.00     0.207 HD
ENDBRANCH   1  11
TORSDOF 6
ENDMDL
MODEL 3
REMARK VINA RESULT: -4.713129492      1.354      1.387
REMARK  6 active torsions:
REMARK  status: ('A' for Active; 'I' for Inactive)
REMARK    1  A    between atoms: N1_1  and  C1_4 
REMARK    2  A    between atoms: C1_4  and  C2_5 
REMARK    3  A    between atoms: C2_5  and  C3_6 
REMARK    4  A    between atoms: C3_6  and  N2_7 
REMARK    5  A    between atoms: N2_7  and  N3_9 
REMARK    6  A    between atoms: N3_9  and  C4_11 
ROOT
HETATM    1  N3  UNL     1      -2.747 -19.049 -34.301  1.00  0.00    -0.134 N 
ATOM      2  H3  UNL     1      -3.081 -19.508 -33.454  1.00  0.00     0.205 HD
ENDROOT
BRANCH   1   3
HETATM    3  N2  UNL     1      -1.504 -19.372 -34.825  1.00  0.00    -0.321 N 
ATOM      4  H2  UNL     1      -0.682 -18.813 -34.595  1.00  0.00     0.180 HD
BRANCH   3   5
HETATM    5  C3  UNL     1      -1.394 -20.512 -35.700  1.00  0.00     0.152 C 
BRANCH   5   6
HETATM    6  C2  UNL     1      -0.012 -20.876 -36.013  1.00  0.00     0.125 C 
BRANCH   6   7
HETATM    7  C1  UNL     1       0.454 -22.086 -35.737  1.00  0.00    -0.076 C 
BRANCH   7   8
HETATM    8  N1  UNL     1       0.956 -23.126 -35.171  1.00  0.00    -0.370 N 
ATOM      9  H12 UNL     1       1.010 -22.671 -34.260  1.00  0.00     0.165 HD
ATOM     10  H11 UNL     1       1.332 -24.050 -34.963  1.00  0.00     0.165 HD
ENDBRANCH   7   8
ENDBRANCH   6   7
ENDBRANCH   5   6
ENDBRANCH   3   5
ENDBRANCH   1   3
BRANCH   1  11
HETATM   11  C4  UNL     1      -3.493 -18.149 -34.900  1.00  0.00     0.728 A 
HETATM   12  N4  UNL     1      -4.412 -18.402 -35.848  1.00  0.00    -0.114 N 
HETATM   13  N5  UNL     1      -4.930 -17.238 -36.180  1.00  0.00    -0.213 N 
ATOM     14  H4  UNL     1      -4.658 -19.313 -36.234  1.00  0.00     0.207 HD
HETATM   15  N6  UNL     1      -4.372 -16.267 -35.480  1.00  0.00    -0.213 N 
ATOM     16  H5  UNL     1      -5.660 -17.104 -36.880  1.00  0.00     0.210 HD
HETATM   17  N7  UNL     1      -3.493 -16.826 -34.696  1.00  0.00    -0.114 N 
ATOM     18  H6  UNL     1      -4.587 -15.272 -35.540  1.00  0.00     0.210 HD
ATOM     19  H7  UNL     1      -2.897 -16.332 -34.031  1.00  0.00     0.207 HD
ENDBRANCH   1  11
TORSDOF 6
ENDMDL
MODEL 4
REMARK VINA RESULT: -4.711979495      1.358      1.758
REMARK  6 active torsions:
REMARK  status: ('A' for Active; 'I' for Inactive)
REMARK    1  A    between atoms: N1_1  and  C1_4 
REMARK    2  A    between atoms: C1_4  and  C2_5 
REMARK    3  A    between atoms: C2_5  and  C3_6 
REMARK    4  A    between atoms: C3_6  and  N2_7 
REMARK    5  A    between atoms: N2_7  and  N3_9 
REMARK    6  A    between atoms: N3_9  and  C4_11 
ROOT
HETATM    1  N3  UNL     1      -2.759 -19.083 -34.302  1.00  0.00    -0.134 N 
ATOM      2  H3  UNL     1      -3.110 -19.562 -33.472  1.00  0.00     0.205 HD
ENDROOT
BRANCH   1   3
HETATM    3  N2  UNL     1      -1.507 -19.395 -34.810  1.00  0.00    -0.321 N 
ATOM      4  H2  UNL     1      -0.688 -18.847 -34.547  1.00  0.00     0.180 HD
BRANCH   3   5
HETATM    5  C3  UNL     1      -1.384 -20.508 -35.717  1.00  0.00     0.152 C 
BRANCH   5   6
HETATM    6  C2  UNL     1       0.003 -20.876 -36.004  1.00  0.00     0.125 C 
BRANCH   6   7
HETATM    7  C1  UNL     1       0.457 -22.091 -35.730  1.00  0.00    -0.076 C 
BRANCH   7   8
HETATM    8  N1  UNL     1       0.964 -23.133 -35.170  1.00  0.00    -0.370 N 
ATOM      9  H12 UNL     1       1.077 -23.622 -36.058  1.00  0.00     0.165 HD
ATOM     10  H11 UNL     1       1.329 -23.817 -34.509  1.00  0.00     0.165 HD
ENDBRANCH   7   8
ENDBRANCH   6   7
ENDBRANCH   5   6
ENDBRANCH   3   5
ENDBRANCH   1   3
BRANCH   1  11
HETATM   11  C4  UNL     1      -3.493 -18.167 -34.892  1.00  0.00     0.728 A 
HETATM   12  N4  UNL     1      -3.465 -16.851 -34.622  1.00  0.00    -0.114 N 
HETATM   13  N5  UNL     1      -4.343 -16.290 -35.428  1.00  0.00    -0.213 N 
ATOM     14  H4  UNL     1      -2.882 -16.380 -33.931  1.00  0.00     0.207 HD
HETATM   15  N6  UNL     1      -4.920 -17.202 -36.189  1.00  0.00    -0.213 N 
ATOM     16  H5  UNL     1      -4.549 -15.291 -35.459  1.00  0.00     0.210 HD
HETATM   17  N7  UNL     1      -4.398 -18.351 -35.861  1.00  0.00    -0.114 N 
ATOM     18  H6  UNL     1      -5.635 -17.039 -36.898  1.00  0.00     0.210 HD
ATOM     19  H7  UNL     1      -4.642 -19.250 -36.278  1.00  0.00     0.207 HD
ENDBRANCH   1  11
TORSDOF 6
ENDMDL
MODEL 5
REMARK VINA RESULT: -4.663598578      1.361      5.620
REMARK  6 active torsions:
REMARK  status: ('A' for Active; 'I' for Inactive)
REMARK    1  A    between atoms: N1_1  and  C1_4 
REMARK    2  A    between atoms: C1_4  and  C2_5 
REMARK    3  A    between atoms: C2_5  and  C3_6 
REMARK    4  A    between atoms: C3_6  and  N2_7 
REMARK    5  A    between atoms: N2_7  and  N3_9 
REMARK    6  A    between atoms: N3_9  and  C4_11 
ROOT
HETATM    1  N3  UNL     1      -0.729 -20.821 -35.975  1.00  0.00    -0.134 N 
ATOM      2  H3  UNL     1       0.152 -20.483 -35.588  1.00  0.00     0.205 HD
ENDROOT
BRANCH   1   3
HETATM    3  N2  UNL     1      -1.915 -20.162 -35.688  1.00  0.00    -0.321 N 
ATOM      4  H2  UNL     1      -2.803 -20.509 -36.051  1.00  0.00     0.180 HD
BRANCH   3   5
HETATM    5  C3  UNL     1      -1.871 -18.978 -34.868  1.00  0.00     0.152 C 
BRANCH   5   6
HETATM    6  C2  UNL     1      -3.188 -18.396 -34.611  1.00  0.00     0.125 C 
BRANCH   6   7
HETATM    7  C1  UNL     1      -3.573 -17.282 -35.219  1.00  0.00    -0.076 C 
BRANCH   7   8
HETATM    8  N1  UNL     1      -4.179 -16.401 -35.932  1.00  0.00    -0.370 N 
ATOM      9  H12 UNL     1      -4.461 -17.084 -36.635  1.00  0.00     0.165 HD
ATOM     10  H11 UNL     1      -4.579 -15.541 -36.307  1.00  0.00     0.165 HD
ENDBRANCH   7   8
ENDBRANCH   6   7
ENDBRANCH   5   6
ENDBRANCH   3   5
ENDBRANCH   1   3
BRANCH   1  11
HETATM   11  C4  UNL     1      -0.744 -21.883 -36.747  1.00  0.00     0.728 A 
HETATM   12  N4  UNL     1      -1.702 -22.187 -37.639  1.00  0.00    -0.114 N 
HETATM   13  N5  UNL     1      -1.339 -23.323 -38.199  1.00  0.00    -0.213 N 
ATOM     14  H4  UNL     1      -2.543 -21.647 -37.841  1.00  0.00     0.207 HD
HETATM   15  N6  UNL     1      -0.193 -23.741 -37.693  1.00  0.00    -0.213 N 
ATOM     16  H5  UNL     1      -1.868 -23.810 -38.923  1.00  0.00     0.210 HD
HETATM   17  N7  UNL     1       0.171 -22.859 -36.805  1.00  0.00    -0.114 N 
ATOM     18  H6  UNL     1       0.310 -24.591 -37.948  1.00  0.00     0.210 HD
ATOM     19  H7  UNL     1       1.020 -22.906 -36.241  1.00  0.00     0.207 HD
ENDBRANCH   1  11
TORSDOF 6
ENDMDL
