MODEL 1
REMARK VINA RESULT: -4.605098861      0.000      0.000
REMARK  4 active torsions:
REMARK  status: ('A' for Active; 'I' for Inactive)
REMARK    1  A    between atoms: C2_2  and  C3_3 
REMARK    2  A    between atoms: C3_3  and  N1_4 
REMARK    3  A    between atoms: N1_4  and  N2_5 
REMARK    4  A    between atoms: N2_5  and  C4_7 
ROOT
HETATM    1  C4  UNL     1       2.603 -20.922 -22.502  1.00  0.00     0.204 C 
HETATM    2  N3  UNL     1       1.834 -20.210 -23.264  1.00  0.00    -0.345 N 
ATOM      3  H3  UNL     1       0.814 -20.237 -23.256  1.00  0.00     0.163 HD
HETATM    4  C5  UNL     1       2.630 -19.377 -24.122  1.00  0.00     0.259 C 
HETATM    5  N4  UNL     1       3.900 -19.318 -23.421  1.00  0.00    -0.119 NA
HETATM    6  N5  UNL     1       3.959 -20.584 -22.829  1.00  0.00    -0.273 N 
ATOM      7  H5  UNL     1       4.791 -21.148 -22.663  1.00  0.00     0.185 HD
ENDROOT
BRANCH   1   8
HETATM    8  N2  UNL     1       2.227 -21.874 -21.511  1.00  0.00    -0.274 N 
ATOM      9  H2  UNL     1       2.939 -22.510 -21.153  1.00  0.00     0.185 HD
BRANCH   8  10
HETATM   10  N1  UNL     1       0.927 -21.976 -21.006  1.00  0.00    -0.139 NA
BRANCH  10  11
HETATM   11  C3  UNL     1       0.205 -22.932 -21.827  1.00  0.00     0.135 C 
BRANCH  11  12
HETATM   12  C2  UNL     1       0.388 -24.316 -21.242  1.00  0.00     0.013 C 
HETATM   13  C1  UNL     1      -0.565 -24.433 -20.075  1.00  0.00     0.006 C 
ENDBRANCH  11  12
ENDBRANCH  10  11
ENDBRANCH   8  10
ENDBRANCH   1   8
TORSDOF 4
ENDMDL
MODEL 2
REMARK VINA RESULT: -4.593608369      1.300      5.137
REMARK  4 active torsions:
REMARK  status: ('A' for Active; 'I' for Inactive)
REMARK    1  A    between atoms: C2_2  and  C3_3 
REMARK    2  A    between atoms: C3_3  and  N1_4 
REMARK    3  A    between atoms: N1_4  and  N2_5 
REMARK    4  A    between atoms: N2_5  and  C4_7 
ROOT
HETATM    1  C4  UNL     1       0.945 -22.036 -21.856  1.00  0.00     0.204 C 
HETATM    2  N3  UNL     1       1.323 -23.032 -21.119  1.00  0.00    -0.345 N 
ATOM      3  H3  UNL     1       2.289 -23.237 -20.864  1.00  0.00     0.163 HD
HETATM    4  C5  UNL     1       0.182 -23.804 -20.714  1.00  0.00     0.259 C 
HETATM    5  N4  UNL     1      -0.912 -22.863 -20.873  1.00  0.00    -0.119 NA
HETATM    6  N5  UNL     1      -0.484 -22.108 -21.970  1.00  0.00    -0.273 N 
ATOM      7  H5  UNL     1      -1.066 -21.695 -22.698  1.00  0.00     0.185 HD
ENDROOT
BRANCH   1   8
HETATM    8  N2  UNL     1       1.750 -21.030 -22.463  1.00  0.00    -0.274 N 
ATOM      9  H2  UNL     1       1.289 -20.216 -22.867  1.00  0.00     0.185 HD
BRANCH   8  10
HETATM   10  N1  UNL     1       3.145 -21.107 -22.529  1.00  0.00    -0.139 NA
BRANCH  10  11
HETATM   11  C3  UNL     1       3.624 -19.917 -23.210  1.00  0.00     0.135 C 
BRANCH  11  12
HETATM   12  C2  UNL     1       2.505 -19.358 -24.062  1.00  0.00     0.013 C 
HETATM   13  C1  UNL     1       3.119 -18.319 -24.972  1.00  0.00     0.006 C 
ENDBRANCH  11  12
ENDBRANCH  10  11
ENDBRANCH   8  10
ENDBRANCH   1   8
TORSDOF 4
ENDMDL
MODEL 3
REMARK VINA RESULT: -4.561352515      3.936      5.015
REMARK  4 active torsions:
REMARK  status: ('A' for Active; 'I' for Inactive)
REMARK    1  A    between atoms: C2_2  and  C3_3 
REMARK    2  A    between atoms: C3_3  and  N1_4 
REMARK    3  A    between atoms: N1_4  and  N2_5 
REMARK    4  A    between atoms: N2_5  and  C4_7 
ROOT
HETATM    1  C4  UNL     1       0.583 -19.258 -23.641  1.00  0.00     0.204 C 
HETATM    2  N3  UNL     1       1.623 -18.626 -24.085  1.00  0.00    -0.345 N 
ATOM      3  H3  UNL     1       1.622 -17.667 -24.431  1.00  0.00     0.163 HD
HETATM    4  C5  UNL     1       2.779 -19.477 -24.018  1.00  0.00     0.259 C 
HETATM    5  N4  UNL     1       2.390 -20.466 -23.030  1.00  0.00    -0.119 NA
HETATM    6  N5  UNL     1       1.014 -20.572 -23.256  1.00  0.00    -0.273 N 
ATOM      7  H5  UNL     1       0.437 -21.407 -23.165  1.00  0.00     0.185 HD
ENDROOT
BRANCH   1   8
HETATM    8  N2  UNL     1      -0.757 -18.787 -23.533  1.00  0.00    -0.274 N 
ATOM      9  H2  UNL     1      -1.471 -19.210 -24.125  1.00  0.00     0.185 HD
BRANCH   8  10
HETATM   10  N1  UNL     1      -1.139 -17.770 -22.653  1.00  0.00    -0.139 NA
BRANCH  10  11
HETATM   11  C3  UNL     1      -2.587 -17.662 -22.699  1.00  0.00     0.135 C 
BRANCH  11  12
HETATM   12  C2  UNL     1      -3.005 -16.387 -21.998  1.00  0.00     0.013 C 
HETATM   13  C1  UNL     1      -2.226 -16.318 -20.704  1.00  0.00     0.006 C 
ENDBRANCH  11  12
ENDBRANCH  10  11
ENDBRANCH   8  10
ENDBRANCH   1   8
TORSDOF 4
ENDMDL
MODEL 4
REMARK VINA RESULT: -4.535559528      0.751      1.007
REMARK  4 active torsions:
REMARK  status: ('A' for Active; 'I' for Inactive)
REMARK    1  A    between atoms: C2_2  and  C3_3 
REMARK    2  A    between atoms: C3_3  and  N1_4 
REMARK    3  A    between atoms: N1_4  and  N2_5 
REMARK    4  A    between atoms: N2_5  and  C4_7 
ROOT
HETATM    1  C4  UNL     1       2.508 -20.975 -22.440  1.00  0.00     0.204 C 
HETATM    2  N3  UNL     1       1.735 -20.260 -23.195  1.00  0.00    -0.345 N 
ATOM      3  H3  UNL     1       0.716 -20.271 -23.167  1.00  0.00     0.163 HD
HETATM    4  C5  UNL     1       2.526 -19.448 -24.077  1.00  0.00     0.259 C 
HETATM    5  N4  UNL     1       3.810 -19.401 -23.402  1.00  0.00    -0.119 NA
HETATM    6  N5  UNL     1       3.862 -20.660 -22.796  1.00  0.00    -0.273 N 
ATOM      7  H5  UNL     1       4.689 -21.235 -22.640  1.00  0.00     0.185 HD
ENDROOT
BRANCH   1   8
HETATM    8  N2  UNL     1       2.137 -21.910 -21.431  1.00  0.00    -0.274 N 
ATOM      9  H2  UNL     1       2.873 -22.444 -20.970  1.00  0.00     0.185 HD
BRANCH   8  10
HETATM   10  N1  UNL     1       0.812 -22.128 -21.044  1.00  0.00    -0.139 NA
BRANCH  10  11
HETATM   11  C3  UNL     1       0.534 -23.546 -21.189  1.00  0.00     0.135 C 
BRANCH  11  12
HETATM   12  C2  UNL     1      -0.544 -23.728 -22.237  1.00  0.00     0.013 C 
HETATM   13  C1  UNL     1      -0.574 -25.198 -22.589  1.00  0.00     0.006 C 
ENDBRANCH  11  12
ENDBRANCH  10  11
ENDBRANCH   8  10
ENDBRANCH   1   8
TORSDOF 4
ENDMDL
MODEL 5
REMARK VINA RESULT: -4.532975529      1.553      5.013
REMARK  4 active torsions:
REMARK  status: ('A' for Active; 'I' for Inactive)
REMARK    1  A    between atoms: C2_2  and  C3_3 
REMARK    2  A    between atoms: C3_3  and  N1_4 
REMARK    3  A    between atoms: N1_4  and  N2_5 
REMARK    4  A    between atoms: N2_5  and  C4_7 
ROOT
HETATM    1  C4  UNL     1       0.753 -22.563 -21.696  1.00  0.00     0.204 C 
HETATM    2  N3  UNL     1      -0.336 -22.777 -22.365  1.00  0.00    -0.345 N 
ATOM      3  H3  UNL     1      -0.768 -22.114 -23.008  1.00  0.00     0.163 HD
HETATM    4  C5  UNL     1      -0.845 -24.087 -22.066  1.00  0.00     0.259 C 
HETATM    5  N4  UNL     1       0.327 -24.776 -21.557  1.00  0.00    -0.119 NA
HETATM    6  N5  UNL     1       1.013 -23.739 -20.917  1.00  0.00    -0.273 N 
ATOM      7  H5  UNL     1       1.581 -23.805 -20.072  1.00  0.00     0.185 HD
ENDROOT
BRANCH   1   8
HETATM    8  N2  UNL     1       1.574 -21.399 -21.697  1.00  0.00    -0.274 N 
ATOM      9  H2  UNL     1       1.701 -20.893 -20.821  1.00  0.00     0.185 HD
BRANCH   8  10
HETATM   10  N1  UNL     1       2.215 -20.919 -22.843  1.00  0.00    -0.139 NA
BRANCH  10  11
HETATM   11  C3  UNL     1       1.355 -19.918 -23.448  1.00  0.00     0.135 C 
BRANCH  11  12
HETATM   12  C2  UNL     1       2.019 -19.398 -24.705  1.00  0.00     0.013 C 
HETATM   13  C1  UNL     1       3.105 -18.442 -24.268  1.00  0.00     0.006 C 
ENDBRANCH  11  12
ENDBRANCH  10  11
ENDBRANCH   8  10
ENDBRANCH   1   8
TORSDOF 4
ENDMDL
