MODEL 1
REMARK VINA RESULT: -4.642791435      0.000      0.000
REMARK  3 active torsions:
REMARK  status: ('A' for Active; 'I' for Inactive)
REMARK    1  A    between atoms: C3_6  and  N3_7 
REMARK    2  A    between atoms: N3_7  and  C4_9 
REMARK    3  A    between atoms: C5_15  and  N6_16 
ROOT
HETATM    1  N1  UNL     1      -3.329 -23.901 -24.414  1.00  0.00    -0.188 NA
HETATM    2  C1  UNL     1      -2.392 -23.442 -23.905  1.00  0.00     0.138 C 
HETATM    3  C2  UNL     1      -1.226 -22.859 -23.290  1.00  0.00     0.217 A 
HETATM    4  N2  UNL     1      -0.731 -21.671 -23.668  1.00  0.00    -0.165 N 
ATOM      5  H2  UNL     1      -1.194 -21.158 -24.418  1.00  0.00     0.186 HD
HETATM    6  C3  UNL     1       0.361 -21.137 -23.085  1.00  0.00     0.699 A 
HETATM    7  N5  UNL     1       1.003 -21.779 -22.092  1.00  0.00    -0.022 N 
ATOM      8  H5  UNL     1       1.829 -21.376 -21.651  1.00  0.00     0.203 HD
HETATM    9  C5  UNL     1       0.519 -22.966 -21.706  1.00  0.00     0.692 A 
HETATM   10  N7  UNL     1      -0.571 -23.496 -22.291  1.00  0.00    -0.166 N 
ATOM     11  H7  UNL     1      -0.913 -24.402 -21.972  1.00  0.00     0.186 HD
ENDROOT
BRANCH   6  12
HETATM   12  N3  UNL     1       0.870 -19.859 -23.511  1.00  0.00    -0.188 N 
ATOM     13  H3  UNL     1       0.245 -19.060 -23.621  1.00  0.00     0.185 HD
BRANCH  12  14
HETATM   14  C4  UNL     1       2.257 -19.730 -23.775  1.00  0.00     0.191 C 
HETATM   15  N4  UNL     1       2.740 -18.758 -24.498  1.00  0.00    -0.395 N 
ATOM     16  H42 UNL     1       2.085 -18.075 -24.878  1.00  0.00     0.156 HD
ATOM     17  H41 UNL     1       3.738 -18.665 -24.688  1.00  0.00     0.156 HD
ENDBRANCH  12  14
ENDBRANCH   6  12
BRANCH   9  18
HETATM   18  N6  UNL     1       1.090 -23.623 -20.765  1.00  0.00    -0.234 N 
ATOM     19  H62 UNL     1       1.952 -24.127 -20.976  1.00  0.00     0.174 HD
ATOM     20  H61 UNL     1       0.687 -23.637 -19.828  1.00  0.00     0.174 HD
ENDBRANCH   9  18
TORSDOF 3
ENDMDL
MODEL 2
REMARK VINA RESULT: -4.628146232      1.677      5.156
REMARK  3 active torsions:
REMARK  status: ('A' for Active; 'I' for Inactive)
REMARK    1  A    between atoms: C3_6  and  N3_7 
REMARK    2  A    between atoms: N3_7  and  C4_9 
REMARK    3  A    between atoms: C5_15  and  N6_16 
ROOT
HETATM    1  N1  UNL     1       3.434 -19.990 -23.317  1.00  0.00    -0.188 NA
HETATM    2  C1  UNL     1       2.492 -20.570 -22.966  1.00  0.00     0.138 C 
HETATM    3  C2  UNL     1       1.336 -21.307 -22.523  1.00  0.00     0.217 A 
HETATM    4  N2  UNL     1       1.421 -22.327 -21.656  1.00  0.00    -0.165 N 
ATOM      5  H2  UNL     1       2.336 -22.594 -21.294  1.00  0.00     0.186 HD
HETATM    6  C3  UNL     1       0.330 -23.008 -21.250  1.00  0.00     0.699 A 
HETATM    7  N5  UNL     1      -0.897 -22.690 -21.701  1.00  0.00    -0.022 N 
ATOM      8  H5  UNL     1      -1.722 -23.205 -21.395  1.00  0.00     0.203 HD
HETATM    9  C5  UNL     1      -0.995 -21.674 -22.567  1.00  0.00     0.692 A 
HETATM   10  N7  UNL     1       0.095 -20.996 -22.970  1.00  0.00    -0.166 N 
ATOM     11  H7  UNL     1      -0.015 -20.227 -23.630  1.00  0.00     0.186 HD
ENDROOT
BRANCH   6  12
HETATM   12  N3  UNL     1       0.452 -24.100 -20.318  1.00  0.00    -0.188 N 
ATOM     13  H3  UNL     1       1.365 -24.376 -19.956  1.00  0.00     0.185 HD
BRANCH  12  14
HETATM   14  C4  UNL     1      -0.722 -24.784 -19.911  1.00  0.00     0.191 C 
HETATM   15  N4  UNL     1      -1.266 -24.597 -18.741  1.00  0.00    -0.395 N 
ATOM     16  H42 UNL     1      -0.820 -23.932 -18.109  1.00  0.00     0.156 HD
ATOM     17  H41 UNL     1      -2.110 -25.088 -18.449  1.00  0.00     0.156 HD
ENDBRANCH  12  14
ENDBRANCH   6  12
BRANCH   9  18
HETATM   18  N6  UNL     1      -2.138 -21.326 -23.030  1.00  0.00    -0.234 N 
ATOM     19  H62 UNL     1      -2.572 -21.909 -23.746  1.00  0.00     0.174 HD
ATOM     20  H61 UNL     1      -2.599 -20.483 -22.686  1.00  0.00     0.174 HD
ENDBRANCH   9  18
TORSDOF 3
ENDMDL
MODEL 3
REMARK VINA RESULT: -4.619828872      1.661      5.013
REMARK  3 active torsions:
REMARK  status: ('A' for Active; 'I' for Inactive)
REMARK    1  A    between atoms: C3_6  and  N3_7 
REMARK    2  A    between atoms: N3_7  and  C4_9 
REMARK    3  A    between atoms: C5_15  and  N6_16 
ROOT
HETATM    1  N1  UNL     1       3.377 -18.817 -24.401  1.00  0.00    -0.188 NA
HETATM    2  C1  UNL     1       2.322 -19.181 -24.084  1.00  0.00     0.138 C 
HETATM    3  C2  UNL     1       1.018 -19.654 -23.693  1.00  0.00     0.217 A 
HETATM    4  N2  UNL     1       0.796 -20.921 -23.315  1.00  0.00    -0.165 N 
ATOM      5  H2  UNL     1       1.576 -21.578 -23.300  1.00  0.00     0.186 HD
HETATM    6  C3  UNL     1      -0.430 -21.351 -22.952  1.00  0.00     0.699 A 
HETATM    7  N5  UNL     1      -1.487 -20.519 -22.955  1.00  0.00    -0.022 N 
ATOM      8  H5  UNL     1      -2.415 -20.843 -22.681  1.00  0.00     0.203 HD
HETATM    9  C5  UNL     1      -1.278 -19.252 -23.331  1.00  0.00     0.692 A 
HETATM   10  N7  UNL     1      -0.054 -18.827 -23.693  1.00  0.00    -0.166 N 
ATOM     11  H7  UNL     1       0.070 -17.855 -23.974  1.00  0.00     0.186 HD
ENDROOT
BRANCH   6  12
HETATM   12  N3  UNL     1      -0.639 -22.718 -22.549  1.00  0.00    -0.188 N 
ATOM     13  H3  UNL     1      -1.086 -23.383 -23.180  1.00  0.00     0.185 HD
BRANCH  12  14
HETATM   14  C4  UNL     1      -0.213 -23.123 -21.259  1.00  0.00     0.191 C 
HETATM   15  N4  UNL     1       0.975 -23.617 -21.042  1.00  0.00    -0.395 N 
ATOM     16  H42 UNL     1       1.606 -23.708 -21.838  1.00  0.00     0.156 HD
ATOM     17  H41 UNL     1       1.282 -23.907 -20.114  1.00  0.00     0.156 HD
ENDBRANCH  12  14
ENDBRANCH   6  12
BRANCH   9  18
HETATM   18  N6  UNL     1      -2.249 -18.415 -23.354  1.00  0.00    -0.234 N 
ATOM     19  H62 UNL     1      -2.947 -18.457 -22.611  1.00  0.00     0.174 HD
ATOM     20  H61 UNL     1      -2.317 -17.724 -24.102  1.00  0.00     0.174 HD
ENDBRANCH   9  18
TORSDOF 3
ENDMDL
MODEL 4
REMARK VINA RESULT: -4.583578546      2.331      5.593
REMARK  3 active torsions:
REMARK  status: ('A' for Active; 'I' for Inactive)
REMARK    1  A    between atoms: C3_6  and  N3_7 
REMARK    2  A    between atoms: N3_7  and  C4_9 
REMARK    3  A    between atoms: C5_15  and  N6_16 
ROOT
HETATM    1  N1  UNL     1       3.245 -21.048 -22.312  1.00  0.00    -0.188 NA
HETATM    2  C1  UNL     1       2.217 -21.529 -22.068  1.00  0.00     0.138 C 
HETATM    3  C2  UNL     1       0.951 -22.143 -21.757  1.00  0.00     0.217 A 
HETATM    4  N2  UNL     1       0.839 -23.161 -20.891  1.00  0.00    -0.165 N 
ATOM      5  H2  UNL     1       1.678 -23.518 -20.434  1.00  0.00     0.186 HD
HETATM    6  C3  UNL     1      -0.352 -23.728 -20.609  1.00  0.00     0.699 A 
HETATM    7  N5  UNL     1      -1.484 -23.291 -21.189  1.00  0.00    -0.022 N 
ATOM      8  H5  UNL     1      -2.385 -23.719 -20.977  1.00  0.00     0.203 HD
HETATM    9  C5  UNL     1      -1.386 -22.275 -22.055  1.00  0.00     0.692 A 
HETATM   10  N7  UNL     1      -0.196 -21.712 -22.334  1.00  0.00    -0.166 N 
ATOM     11  H7  UNL     1      -0.156 -20.940 -22.998  1.00  0.00     0.186 HD
ENDROOT
BRANCH   6  12
HETATM   12  N3  UNL     1      -0.442 -24.821 -19.675  1.00  0.00    -0.188 N 
ATOM     13  H3  UNL     1       0.350 -25.063 -19.080  1.00  0.00     0.185 HD
BRANCH  12  14
HETATM   14  C4  UNL     1      -1.653 -25.554 -19.597  1.00  0.00     0.191 C 
HETATM   15  N4  UNL     1      -1.813 -26.546 -18.766  1.00  0.00    -0.395 N 
ATOM     16  H42 UNL     1      -1.032 -26.790 -18.158  1.00  0.00     0.156 HD
ATOM     17  H41 UNL     1      -2.684 -27.073 -18.710  1.00  0.00     0.156 HD
ENDBRANCH  12  14
ENDBRANCH   6  12
BRANCH   9  18
HETATM   18  N6  UNL     1      -2.432 -21.817 -22.637  1.00  0.00    -0.234 N 
ATOM     19  H62 UNL     1      -3.347 -22.117 -22.302  1.00  0.00     0.174 HD
ATOM     20  H61 UNL     1      -2.344 -21.167 -23.419  1.00  0.00     0.174 HD
ENDBRANCH   9  18
TORSDOF 3
ENDMDL
MODEL 5
REMARK VINA RESULT: -4.537656493      1.031      4.439
REMARK  3 active torsions:
REMARK  status: ('A' for Active; 'I' for Inactive)
REMARK    1  A    between atoms: C3_6  and  N3_7 
REMARK    2  A    between atoms: N3_7  and  C4_9 
REMARK    3  A    between atoms: C5_15  and  N6_16 
ROOT
HETATM    1  N1  UNL     1       0.678 -18.992 -24.061  1.00  0.00    -0.188 NA
HETATM    2  C1  UNL     1       0.410 -20.046 -23.657  1.00  0.00     0.138 C 
HETATM    3  C2  UNL     1       0.056 -21.353 -23.165  1.00  0.00     0.217 A 
HETATM    4  N2  UNL     1      -0.942 -22.076 -23.695  1.00  0.00    -0.165 N 
ATOM      5  H2  UNL     1      -1.473 -21.690 -24.475  1.00  0.00     0.186 HD
HETATM    6  C3  UNL     1      -1.262 -23.298 -23.225  1.00  0.00     0.699 A 
HETATM    7  N5  UNL     1      -0.589 -23.847 -22.198  1.00  0.00    -0.022 N 
ATOM      8  H5  UNL     1      -0.831 -24.771 -21.841  1.00  0.00     0.203 HD
HETATM    9  C5  UNL     1       0.409 -23.135 -21.660  1.00  0.00     0.692 A 
HETATM   10  N7  UNL     1       0.726 -21.916 -22.132  1.00  0.00    -0.166 N 
ATOM     11  H7  UNL     1       1.493 -21.401 -21.699  1.00  0.00     0.186 HD
ENDROOT
BRANCH   6  12
HETATM   12  N3  UNL     1      -2.340 -24.053 -23.814  1.00  0.00    -0.188 N 
ATOM     13  H3  UNL     1      -2.203 -25.025 -24.091  1.00  0.00     0.185 HD
BRANCH  12  14
HETATM   14  C4  UNL     1      -3.594 -23.419 -24.001  1.00  0.00     0.191 C 
HETATM   15  N4  UNL     1      -4.480 -23.867 -24.846  1.00  0.00    -0.395 N 
ATOM     16  H42 UNL     1      -4.248 -24.703 -25.383  1.00  0.00     0.156 HD
ATOM     17  H41 UNL     1      -5.383 -23.412 -24.980  1.00  0.00     0.156 HD
ENDBRANCH  12  14
ENDBRANCH   6  12
BRANCH   9  18
HETATM   18  N6  UNL     1       1.086 -23.608 -20.679  1.00  0.00    -0.234 N 
ATOM     19  H62 UNL     1       0.659 -24.327 -20.094  1.00  0.00     0.174 HD
ATOM     20  H61 UNL     1       2.029 -23.268 -20.492  1.00  0.00     0.174 HD
ENDBRANCH   9  18
TORSDOF 3
ENDMDL
