MODEL 1
REMARK VINA RESULT: -8.017739242      0.000      0.000
REMARK  5 active torsions:
REMARK  status: ('A' for Active; 'I' for Inactive)
REMARK    1  A    between atoms: O1_2  and  C2_3 
REMARK    2  A    between atoms: C5_6  and  C6_7 
REMARK    3  A    between atoms: C7_8  and  C8_9 
REMARK    4  A    between atoms: C9_10  and  C10_11 
REMARK    5  A    between atoms: N2_13  and  N3_15 
REMARK       I    between atoms: N3_15  and  C11_17 
ROOT
HETATM    1  C8  UNL     1     219.612   8.405   6.538  1.00  0.00     0.003 C 
HETATM    2  C9  UNL     1     220.524   8.488   5.530  1.00  0.00     0.046 C 
ENDROOT
BRANCH   1   3
HETATM    3  C7  UNL     1     219.805   9.265   7.660  1.00  0.00     0.001 C 
HETATM    4  C6  UNL     1     219.275   9.315   8.810  1.00  0.00     0.011 C 
BRANCH   4   5
HETATM    5  C5  UNL     1     218.268   8.562   9.514  1.00  0.00    -0.036 A 
HETATM    6  C4  UNL     1     217.014   8.380   8.890  1.00  0.00     0.014 A 
HETATM    7  C3  UNL     1     215.979   7.681   9.463  1.00  0.00     0.037 A 
HETATM    8  C2  UNL     1     216.141   7.121  10.705  1.00  0.00     0.068 A 
HETATM    9  C13 UNL     1     217.348   7.278  11.340  1.00  0.00     0.037 A 
HETATM   10  C12 UNL     1     218.396   7.988  10.755  1.00  0.00     0.014 A 
BRANCH   8  11
HETATM   11  O1  UNL     1     215.105   6.405  11.311  1.00  0.00    -0.356 OA
HETATM   12  C1  UNL     1     215.097   6.268  12.720  1.00  0.00     0.210 C 
ENDBRANCH   8  11
ENDBRANCH   4   5
ENDBRANCH   1   3
BRANCH   2  13
HETATM   13  C10 UNL     1     220.382   7.643   4.367  1.00  0.00     0.130 C 
HETATM   14  N1  UNL     1     219.250   6.797   4.233  1.00  0.00    -0.081 NA
HETATM   15  N2  UNL     1     221.295   7.662   3.446  1.00  0.00    -0.284 N 
ATOM     16  H2  UNL     1     222.108   8.270   3.542  1.00  0.00     0.188 HD
BRANCH  15  17
HETATM   17  N3  UNL     1     221.159   6.850   2.329  1.00  0.00    -0.253 N 
HETATM   18  C11 UNL     1     221.862   5.622   2.189  1.00  0.00     0.347 C 
HETATM   19  N4  UNL     1     221.731   4.787   1.052  1.00  0.00    -0.038 NA
HETATM   20  O2  UNL     1     222.638   5.265   3.124  1.00  0.00    -0.249 OA
ATOM     21  H3  UNL     1     220.532   7.146   1.581  1.00  0.00     0.191 HD
ENDBRANCH  15  17
ENDBRANCH   2  13
TORSDOF 5
ENDMDL
MODEL 2
REMARK VINA RESULT: -7.965215656      1.305      1.695
REMARK  5 active torsions:
REMARK  status: ('A' for Active; 'I' for Inactive)
REMARK    1  A    between atoms: O1_2  and  C2_3 
REMARK    2  A    between atoms: C5_6  and  C6_7 
REMARK    3  A    between atoms: C7_8  and  C8_9 
REMARK    4  A    between atoms: C9_10  and  C10_11 
REMARK    5  A    between atoms: N2_13  and  N3_15 
REMARK       I    between atoms: N3_15  and  C11_17 
ROOT
HETATM    1  C8  UNL     1     219.577   8.412   6.463  1.00  0.00     0.003 C 
HETATM    2  C9  UNL     1     220.598   8.337   5.565  1.00  0.00     0.046 C 
ENDROOT
BRANCH   1   3
HETATM    3  C7  UNL     1     219.817   9.154   7.657  1.00  0.00     0.001 C 
HETATM    4  C6  UNL     1     219.244   9.178   8.788  1.00  0.00     0.011 C 
BRANCH   4   5
HETATM    5  C5  UNL     1     218.124   8.500   9.390  1.00  0.00    -0.036 A 
HETATM    6  C4  UNL     1     218.292   7.949  10.679  1.00  0.00     0.014 A 
HETATM    7  C3  UNL     1     217.297   7.281  11.352  1.00  0.00     0.037 A 
HETATM    8  C2  UNL     1     216.066   7.125  10.766  1.00  0.00     0.068 A 
HETATM    9  C13 UNL     1     215.868   7.648   9.512  1.00  0.00     0.037 A 
HETATM   10  C12 UNL     1     216.881   8.325   8.833  1.00  0.00     0.014 A 
BRANCH   8  11
HETATM   11  O1  UNL     1     215.037   6.450  11.427  1.00  0.00    -0.356 OA
HETATM   12  C1  UNL     1     215.083   6.339  12.838  1.00  0.00     0.210 C 
ENDBRANCH   8  11
ENDBRANCH   4   5
ENDBRANCH   1   3
BRANCH   2  13
HETATM   13  C10 UNL     1     220.416   7.600   4.335  1.00  0.00     0.130 C 
HETATM   14  N1  UNL     1     219.290   6.751   4.173  1.00  0.00    -0.081 NA
HETATM   15  N2  UNL     1     221.286   7.719   3.382  1.00  0.00    -0.284 N 
ATOM     16  H2  UNL     1     222.095   8.329   3.499  1.00  0.00     0.188 HD
BRANCH  15  17
HETATM   17  N3  UNL     1     221.111   7.012   2.201  1.00  0.00    -0.253 N 
HETATM   18  C11 UNL     1     221.225   7.623   0.923  1.00  0.00     0.347 C 
HETATM   19  N4  UNL     1     221.047   6.910  -0.289  1.00  0.00    -0.038 NA
HETATM   20  O2  UNL     1     221.497   8.859   0.870  1.00  0.00    -0.249 OA
ATOM     21  H3  UNL     1     220.893   6.017   2.253  1.00  0.00     0.191 HD
ENDBRANCH  15  17
ENDBRANCH   2  13
TORSDOF 5
ENDMDL
MODEL 3
REMARK VINA RESULT: -7.921826441      0.213      1.102
REMARK  5 active torsions:
REMARK  status: ('A' for Active; 'I' for Inactive)
REMARK    1  A    between atoms: O1_2  and  C2_3 
REMARK    2  A    between atoms: C5_6  and  C6_7 
REMARK    3  A    between atoms: C7_8  and  C8_9 
REMARK    4  A    between atoms: C9_10  and  C10_11 
REMARK    5  A    between atoms: N2_13  and  N3_15 
REMARK       I    between atoms: N3_15  and  C11_17 
ROOT
HETATM    1  C8  UNL     1     219.901   8.047   6.721  1.00  0.00     0.003 C 
HETATM    2  C9  UNL     1     220.273   8.494   5.489  1.00  0.00     0.046 C 
ENDROOT
BRANCH   1   3
HETATM    3  C7  UNL     1     219.957   8.985   7.795  1.00  0.00     0.001 C 
HETATM    4  C6  UNL     1     219.263   9.137   8.845  1.00  0.00     0.011 C 
BRANCH   4   5
HETATM    5  C5  UNL     1     218.132   8.468   9.438  1.00  0.00    -0.036 A 
HETATM    6  C4  UNL     1     218.287   7.916  10.728  1.00  0.00     0.014 A 
HETATM    7  C3  UNL     1     217.281   7.257  11.394  1.00  0.00     0.037 A 
HETATM    8  C2  UNL     1     216.053   7.110  10.798  1.00  0.00     0.068 A 
HETATM    9  C13 UNL     1     215.869   7.635   9.544  1.00  0.00     0.037 A 
HETATM   10  C12 UNL     1     216.892   8.304   8.872  1.00  0.00     0.014 A 
BRANCH   8  11
HETATM   11  O1  UNL     1     215.013   6.444  11.452  1.00  0.00    -0.356 OA
HETATM   12  C1  UNL     1     214.980   6.444  12.867  1.00  0.00     0.210 C 
ENDBRANCH   8  11
ENDBRANCH   4   5
ENDBRANCH   1   3
BRANCH   2  13
HETATM   13  C10 UNL     1     220.238   7.590   4.362  1.00  0.00     0.130 C 
HETATM   14  N1  UNL     1     219.219   6.606   4.267  1.00  0.00    -0.081 NA
HETATM   15  N2  UNL     1     221.142   7.685   3.437  1.00  0.00    -0.284 N 
ATOM     16  H2  UNL     1     221.873   8.392   3.505  1.00  0.00     0.188 HD
BRANCH  15  17
HETATM   17  N3  UNL     1     221.108   6.819   2.354  1.00  0.00    -0.253 N 
HETATM   18  C11 UNL     1     221.888   5.631   2.305  1.00  0.00     0.347 C 
HETATM   19  N4  UNL     1     221.861   4.739   1.202  1.00  0.00    -0.038 NA
HETATM   20  O2  UNL     1     222.637   5.362   3.289  1.00  0.00    -0.249 OA
ATOM     21  H3  UNL     1     220.503   7.042   1.565  1.00  0.00     0.191 HD
ENDBRANCH  15  17
ENDBRANCH   2  13
TORSDOF 5
ENDMDL
MODEL 4
REMARK VINA RESULT: -7.905163299      1.254      1.254
REMARK  5 active torsions:
REMARK  status: ('A' for Active; 'I' for Inactive)
REMARK    1  A    between atoms: O1_2  and  C2_3 
REMARK    2  A    between atoms: C5_6  and  C6_7 
REMARK    3  A    between atoms: C7_8  and  C8_9 
REMARK    4  A    between atoms: C9_10  and  C10_11 
REMARK    5  A    between atoms: N2_13  and  N3_15 
REMARK       I    between atoms: N3_15  and  C11_17 
ROOT
HETATM    1  C8  UNL     1     219.638   8.402   6.517  1.00  0.00     0.003 C 
HETATM    2  C9  UNL     1     220.555   8.480   5.513  1.00  0.00     0.046 C 
ENDROOT
BRANCH   1   3
HETATM    3  C7  UNL     1     219.844   9.244   7.650  1.00  0.00     0.001 C 
HETATM    4  C6  UNL     1     219.314   9.288   8.801  1.00  0.00     0.011 C 
BRANCH   4   5
HETATM    5  C5  UNL     1     218.293   8.543   9.493  1.00  0.00    -0.036 A 
HETATM    6  C4  UNL     1     217.043   8.378   8.859  1.00  0.00     0.014 A 
HETATM    7  C3  UNL     1     215.995   7.688   9.421  1.00  0.00     0.037 A 
HETATM    8  C2  UNL     1     216.142   7.120  10.662  1.00  0.00     0.068 A 
HETATM    9  C13 UNL     1     217.345   7.262  11.307  1.00  0.00     0.037 A 
HETATM   10  C12 UNL     1     218.405   7.962  10.733  1.00  0.00     0.014 A 
BRANCH   8  11
HETATM   11  O1  UNL     1     215.094   6.414  11.257  1.00  0.00    -0.356 OA
HETATM   12  C1  UNL     1     215.068   6.279  12.666  1.00  0.00     0.210 C 
ENDBRANCH   8  11
ENDBRANCH   4   5
ENDBRANCH   1   3
BRANCH   2  13
HETATM   13  C10 UNL     1     220.400   7.653   4.338  1.00  0.00     0.130 C 
HETATM   14  N1  UNL     1     219.307   6.753   4.239  1.00  0.00    -0.081 NA
HETATM   15  N2  UNL     1     221.265   7.738   3.376  1.00  0.00    -0.284 N 
ATOM     16  H2  UNL     1     222.051   8.385   3.448  1.00  0.00     0.188 HD
BRANCH  15  17
HETATM   17  N3  UNL     1     221.117   6.944   2.249  1.00  0.00    -0.253 N 
HETATM   18  C11 UNL     1     221.204   7.468   0.930  1.00  0.00     0.347 C 
HETATM   19  N4  UNL     1     221.053   6.665  -0.228  1.00  0.00    -0.038 NA
HETATM   20  O2  UNL     1     221.425   8.707   0.790  1.00  0.00    -0.249 OA
ATOM     21  H3  UNL     1     220.939   5.947   2.370  1.00  0.00     0.191 HD
ENDBRANCH  15  17
ENDBRANCH   2  13
TORSDOF 5
ENDMDL
MODEL 5
REMARK VINA RESULT: -6.076087346      1.488      2.158
REMARK  5 active torsions:
REMARK  status: ('A' for Active; 'I' for Inactive)
REMARK    1  A    between atoms: O1_2  and  C2_3 
REMARK    2  A    between atoms: C5_6  and  C6_7 
REMARK    3  A    between atoms: C7_8  and  C8_9 
REMARK    4  A    between atoms: C9_10  and  C10_11 
REMARK    5  A    between atoms: N2_13  and  N3_15 
REMARK       I    between atoms: N3_15  and  C11_17 
ROOT
HETATM    1  C8  UNL     1     220.015   9.540   7.837  1.00  0.00     0.003 C 
HETATM    2  C9  UNL     1     220.363   8.423   7.140  1.00  0.00     0.046 C 
ENDROOT
BRANCH   1   3
HETATM    3  C7  UNL     1     220.077   9.462   9.260  1.00  0.00     0.001 C 
HETATM    4  C6  UNL     1     219.228   9.141  10.146  1.00  0.00     0.011 C 
BRANCH   4   5
HETATM    5  C5  UNL     1     217.850   8.720  10.145  1.00  0.00    -0.036 A 
HETATM    6  C4  UNL     1     217.035   9.103  11.233  1.00  0.00     0.014 A 
HETATM    7  C3  UNL     1     215.709   8.761  11.341  1.00  0.00     0.037 A 
HETATM    8  C2  UNL     1     215.118   8.007  10.358  1.00  0.00     0.068 A 
HETATM    9  C13 UNL     1     215.881   7.618   9.286  1.00  0.00     0.037 A 
HETATM   10  C12 UNL     1     217.227   7.967   9.180  1.00  0.00     0.014 A 
BRANCH   8  11
HETATM   11  O1  UNL     1     213.771   7.645  10.443  1.00  0.00    -0.356 OA
HETATM   12  C1  UNL     1     212.879   8.071   9.429  1.00  0.00     0.210 C 
ENDBRANCH   8  11
ENDBRANCH   4   5
ENDBRANCH   1   3
BRANCH   2  13
HETATM   13  C10 UNL     1     220.321   8.441   5.696  1.00  0.00     0.130 C 
HETATM   14  N1  UNL     1     220.631   9.631   4.987  1.00  0.00    -0.081 NA
HETATM   15  N2  UNL     1     219.998   7.363   5.051  1.00  0.00    -0.284 N 
ATOM     16  H2  UNL     1     219.775   6.508   5.561  1.00  0.00     0.188 HD
BRANCH  15  17
HETATM   17  N3  UNL     1     219.957   7.379   3.665  1.00  0.00    -0.253 N 
HETATM   18  C11 UNL     1     221.066   6.991   2.865  1.00  0.00     0.347 C 
HETATM   19  N4  UNL     1     221.035   7.005   1.448  1.00  0.00    -0.038 NA
HETATM   20  O2  UNL     1     222.126   6.619   3.449  1.00  0.00    -0.249 OA
ATOM     21  H3  UNL     1     219.099   7.681   3.203  1.00  0.00     0.191 HD
ENDBRANCH  15  17
ENDBRANCH   2  13
TORSDOF 5
ENDMDL
