MODEL 1
REMARK VINA RESULT: -6.514588994      0.000      0.000
REMARK  6 active torsions:
REMARK  status: ('A' for Active; 'I' for Inactive)
REMARK    1  A    between atoms: C2_2  and  C3_3 
REMARK    2  A    between atoms: C3_3  and  N1_6 
REMARK    3  A    between atoms: N1_6  and  N2_7 
REMARK    4  A    between atoms: N2_7  and  C6_9 
REMARK    5  A    between atoms: C9_12  and  S1_13 
REMARK    6  A    between atoms: S1_13  and  N3_14 
ROOT
HETATM    1  C6  UNL     1     218.115   8.325  10.438  1.00  0.00     0.044 A 
HETATM    2  C7  UNL     1     218.055   7.292   9.526  1.00  0.00     0.032 A 
HETATM    3  C8  UNL     1     218.733   7.346   8.326  1.00  0.00     0.027 A 
HETATM    4  C9  UNL     1     219.491   8.434   8.008  1.00  0.00     0.079 A 
HETATM    5  C10 UNL     1     219.540   9.463   8.939  1.00  0.00     0.027 A 
HETATM    6  C11 UNL     1     218.872   9.430  10.138  1.00  0.00     0.032 A 
ENDROOT
BRANCH   1   7
HETATM    7  N2  UNL     1     217.415   8.274  11.676  1.00  0.00    -0.303 N 
ATOM      8  H2  UNL     1     217.263   9.106  12.245  1.00  0.00     0.182 HD
BRANCH   7   9
HETATM    9  N1  UNL     1     216.945   7.005  12.068  1.00  0.00    -0.127 NA
BRANCH   9  10
HETATM   10  C3  UNL     1     215.508   6.978  12.156  1.00  0.00     0.060 C 
HETATM   11  C4  UNL     1     215.141   5.832  13.092  1.00  0.00     0.040 C 
HETATM   12  C5  UNL     1     215.066   8.316  12.717  1.00  0.00     0.040 C 
BRANCH  10  13
HETATM   13  C2  UNL     1     214.939   6.725  10.829  1.00  0.00    -0.009 C 
HETATM   14  C1  UNL     1     214.354   7.690  10.143  1.00  0.00     0.009 C 
ENDBRANCH  10  13
ENDBRANCH   9  10
ENDBRANCH   7   9
ENDBRANCH   1   7
BRANCH   4  15
HETATM   15  S1  UNL     1     220.387   8.582   6.501  1.00  0.00     0.256 S 
HETATM   16  O1  UNL     1     220.487  10.028   6.130  1.00  0.00    -0.201 OA
HETATM   17  O2  UNL     1     221.739   7.970   6.720  1.00  0.00    -0.201 OA
BRANCH  15  18
HETATM   18  N3  UNL     1     219.478   7.694   5.312  1.00  0.00    -0.324 N 
ATOM     19  H32 UNL     1     218.497   7.838   5.072  1.00  0.00     0.169 HD
ATOM     20  H31 UNL     1     220.125   7.013   4.914  1.00  0.00     0.169 HD
ENDBRANCH  15  18
ENDBRANCH   4  15
TORSDOF 6
ENDMDL
MODEL 2
REMARK VINA RESULT: -6.514476395      0.082      1.147
REMARK  6 active torsions:
REMARK  status: ('A' for Active; 'I' for Inactive)
REMARK    1  A    between atoms: C2_2  and  C3_3 
REMARK    2  A    between atoms: C3_3  and  N1_6 
REMARK    3  A    between atoms: N1_6  and  N2_7 
REMARK    4  A    between atoms: N2_7  and  C6_9 
REMARK    5  A    between atoms: C9_12  and  S1_13 
REMARK    6  A    between atoms: S1_13  and  N3_14 
ROOT
HETATM    1  C6  UNL     1     218.158   8.363  10.415  1.00  0.00     0.044 A 
HETATM    2  C7  UNL     1     218.913   9.474  10.104  1.00  0.00     0.032 A 
HETATM    3  C8  UNL     1     219.607   9.568   8.916  1.00  0.00     0.027 A 
HETATM    4  C9  UNL     1     219.562   8.552   8.007  1.00  0.00     0.079 A 
HETATM    5  C10 UNL     1     218.796   7.442   8.337  1.00  0.00     0.027 A 
HETATM    6  C11 UNL     1     218.099   7.328   9.515  1.00  0.00     0.032 A 
ENDROOT
BRANCH   1   7
HETATM    7  N2  UNL     1     217.442   8.262  11.641  1.00  0.00    -0.303 N 
ATOM      8  H2  UNL     1     217.279   9.071  12.239  1.00  0.00     0.182 HD
BRANCH   7   9
HETATM    9  N1  UNL     1     216.973   6.977  11.979  1.00  0.00    -0.127 NA
BRANCH   9  10
HETATM   10  C3  UNL     1     215.541   6.961  12.128  1.00  0.00     0.060 C 
HETATM   11  C4  UNL     1     215.205   5.811  13.071  1.00  0.00     0.040 C 
HETATM   12  C5  UNL     1     215.133   8.297  12.716  1.00  0.00     0.040 C 
BRANCH  10  13
HETATM   13  C2  UNL     1     214.913   6.721  10.825  1.00  0.00    -0.009 C 
HETATM   14  C1  UNL     1     214.407   7.716  10.120  1.00  0.00     0.009 C 
ENDBRANCH  10  13
ENDBRANCH   9  10
ENDBRANCH   7   9
ENDBRANCH   1   7
BRANCH   4  15
HETATM   15  S1  UNL     1     220.416   8.592   6.468  1.00  0.00     0.256 S 
HETATM   16  O1  UNL     1     220.529  10.011   6.008  1.00  0.00    -0.201 OA
HETATM   17  O2  UNL     1     221.763   7.969   6.686  1.00  0.00    -0.201 OA
BRANCH  15  18
HETATM   18  N3  UNL     1     219.458   7.652   5.362  1.00  0.00    -0.324 N 
ATOM     19  H32 UNL     1     219.474   6.637   5.262  1.00  0.00     0.169 HD
ATOM     20  H31 UNL     1     218.887   8.320   4.845  1.00  0.00     0.169 HD
ENDBRANCH  15  18
ENDBRANCH   4  15
TORSDOF 6
ENDMDL
MODEL 3
REMARK VINA RESULT: -6.511768679      1.510      2.044
REMARK  6 active torsions:
REMARK  status: ('A' for Active; 'I' for Inactive)
REMARK    1  A    between atoms: C2_2  and  C3_3 
REMARK    2  A    between atoms: C3_3  and  N1_6 
REMARK    3  A    between atoms: N1_6  and  N2_7 
REMARK    4  A    between atoms: N2_7  and  C6_9 
REMARK    5  A    between atoms: C9_12  and  S1_13 
REMARK    6  A    between atoms: S1_13  and  N3_14 
ROOT
HETATM    1  C6  UNL     1     217.050   8.978  10.166  1.00  0.00     0.044 A 
HETATM    2  C7  UNL     1     218.370   9.326  10.363  1.00  0.00     0.032 A 
HETATM    3  C8  UNL     1     219.306   9.210   9.357  1.00  0.00     0.027 A 
HETATM    4  C9  UNL     1     218.946   8.745   8.126  1.00  0.00     0.079 A 
HETATM    5  C10 UNL     1     217.612   8.401   7.947  1.00  0.00     0.027 A 
HETATM    6  C11 UNL     1     216.664   8.507   8.935  1.00  0.00     0.032 A 
ENDROOT
BRANCH   1   7
HETATM    7  N2  UNL     1     216.081   9.094  11.202  1.00  0.00    -0.303 N 
ATOM      8  H2  UNL     1     215.107   9.324  11.008  1.00  0.00     0.182 HD
BRANCH   7   9
HETATM    9  N1  UNL     1     216.549   8.872  12.513  1.00  0.00    -0.127 NA
BRANCH   9  10
HETATM   10  C3  UNL     1     216.132   7.587  13.011  1.00  0.00     0.060 C 
HETATM   11  C4  UNL     1     217.305   6.633  12.817  1.00  0.00     0.040 C 
HETATM   12  C5  UNL     1     215.796   7.760  14.479  1.00  0.00     0.040 C 
BRANCH  10  13
HETATM   13  C2  UNL     1     214.982   7.108  12.238  1.00  0.00    -0.009 C 
HETATM   14  C1  UNL     1     215.121   6.163  11.326  1.00  0.00     0.009 C 
ENDBRANCH  10  13
ENDBRANCH   9  10
ENDBRANCH   7   9
ENDBRANCH   1   7
BRANCH   4  15
HETATM   15  S1  UNL     1     220.076   8.568   6.789  1.00  0.00     0.256 S 
HETATM   16  O1  UNL     1     221.255   7.769   7.248  1.00  0.00    -0.201 OA
HETATM   17  O2  UNL     1     219.345   7.889   5.670  1.00  0.00    -0.201 OA
BRANCH  15  18
HETATM   18  N3  UNL     1     220.551  10.182   6.345  1.00  0.00    -0.324 N 
ATOM     19  H32 UNL     1     220.216  10.709   5.538  1.00  0.00     0.169 HD
ATOM     20  H31 UNL     1     221.223  10.483   7.051  1.00  0.00     0.169 HD
ENDBRANCH  15  18
ENDBRANCH   4  15
TORSDOF 6
ENDMDL
MODEL 4
REMARK VINA RESULT: -6.443197170      0.921      1.110
REMARK  6 active torsions:
REMARK  status: ('A' for Active; 'I' for Inactive)
REMARK    1  A    between atoms: C2_2  and  C3_3 
REMARK    2  A    between atoms: C3_3  and  N1_6 
REMARK    3  A    between atoms: N1_6  and  N2_7 
REMARK    4  A    between atoms: N2_7  and  C6_9 
REMARK    5  A    between atoms: C9_12  and  S1_13 
REMARK    6  A    between atoms: S1_13  and  N3_14 
ROOT
HETATM    1  C6  UNL     1     218.107   8.327  10.459  1.00  0.00     0.044 A 
HETATM    2  C7  UNL     1     218.039   7.290   9.553  1.00  0.00     0.032 A 
HETATM    3  C8  UNL     1     218.722   7.330   8.355  1.00  0.00     0.027 A 
HETATM    4  C9  UNL     1     219.492   8.409   8.034  1.00  0.00     0.079 A 
HETATM    5  C10 UNL     1     219.549   9.443   8.960  1.00  0.00     0.027 A 
HETATM    6  C11 UNL     1     218.875   9.423  10.157  1.00  0.00     0.032 A 
ENDROOT
BRANCH   1   7
HETATM    7  N2  UNL     1     217.401   8.289  11.695  1.00  0.00    -0.303 N 
ATOM      8  H2  UNL     1     217.251   9.127  12.256  1.00  0.00     0.182 HD
BRANCH   7   9
HETATM    9  N1  UNL     1     216.923   7.026  12.096  1.00  0.00    -0.127 NA
BRANCH   9  10
HETATM   10  C3  UNL     1     215.486   7.008  12.180  1.00  0.00     0.060 C 
HETATM   11  C4  UNL     1     215.111   5.882  13.137  1.00  0.00     0.040 C 
HETATM   12  C5  UNL     1     215.048   8.358  12.713  1.00  0.00     0.040 C 
BRANCH  10  13
HETATM   13  C2  UNL     1     214.919   6.731  10.856  1.00  0.00    -0.009 C 
HETATM   14  C1  UNL     1     214.345   7.686  10.148  1.00  0.00     0.009 C 
ENDBRANCH  10  13
ENDBRANCH   9  10
ENDBRANCH   7   9
ENDBRANCH   1   7
BRANCH   4  15
HETATM   15  S1  UNL     1     220.396   8.540   6.530  1.00  0.00     0.256 S 
HETATM   16  O1  UNL     1     221.743   7.916   6.712  1.00  0.00    -0.201 OA
HETATM   17  O2  UNL     1     219.600   7.844   5.466  1.00  0.00    -0.201 OA
BRANCH  15  18
HETATM   18  N3  UNL     1     220.536  10.242   6.200  1.00  0.00    -0.324 N 
ATOM     19  H32 UNL     1     221.388  10.800   6.259  1.00  0.00     0.169 HD
ATOM     20  H31 UNL     1     219.602  10.557   5.939  1.00  0.00     0.169 HD
ENDBRANCH  15  18
ENDBRANCH   4  15
TORSDOF 6
ENDMDL
MODEL 5
REMARK VINA RESULT: -6.411606955      1.187      1.696
REMARK  6 active torsions:
REMARK  status: ('A' for Active; 'I' for Inactive)
REMARK    1  A    between atoms: C2_2  and  C3_3 
REMARK    2  A    between atoms: C3_3  and  N1_6 
REMARK    3  A    between atoms: N1_6  and  N2_7 
REMARK    4  A    between atoms: N2_7  and  C6_9 
REMARK    5  A    between atoms: C9_12  and  S1_13 
REMARK    6  A    between atoms: S1_13  and  N3_14 
ROOT
HETATM    1  C6  UNL     1     217.082   8.956  10.111  1.00  0.00     0.044 A 
HETATM    2  C7  UNL     1     218.398   9.296  10.344  1.00  0.00     0.032 A 
HETATM    3  C8  UNL     1     219.353   9.217   9.352  1.00  0.00     0.027 A 
HETATM    4  C9  UNL     1     219.014   8.797   8.099  1.00  0.00     0.079 A 
HETATM    5  C10 UNL     1     217.684   8.461   7.883  1.00  0.00     0.027 A 
HETATM    6  C11 UNL     1     216.719   8.531   8.857  1.00  0.00     0.032 A 
ENDROOT
BRANCH   1   7
HETATM    7  N2  UNL     1     216.095   9.035  11.133  1.00  0.00    -0.303 N 
ATOM      8  H2  UNL     1     215.112   9.204  10.923  1.00  0.00     0.182 HD
BRANCH   7   9
HETATM    9  N1  UNL     1     216.557   8.864  12.453  1.00  0.00    -0.127 NA
BRANCH   9  10
HETATM   10  C3  UNL     1     216.156   7.591  12.993  1.00  0.00     0.060 C 
HETATM   11  C4  UNL     1     217.336   6.642  12.820  1.00  0.00     0.040 C 
HETATM   12  C5  UNL     1     215.828   7.806  14.458  1.00  0.00     0.040 C 
BRANCH  10  13
HETATM   13  C2  UNL     1     215.005   7.079  12.243  1.00  0.00    -0.009 C 
HETATM   14  C1  UNL     1     215.153   6.137  11.330  1.00  0.00     0.009 C 
ENDBRANCH  10  13
ENDBRANCH   9  10
ENDBRANCH   7   9
ENDBRANCH   1   7
BRANCH   4  15
HETATM   15  S1  UNL     1     220.169   8.669   6.777  1.00  0.00     0.256 S 
HETATM   16  O1  UNL     1     220.521  10.042   6.300  1.00  0.00    -0.201 OA
HETATM   17  O2  UNL     1     221.369   7.936   7.298  1.00  0.00    -0.201 OA
BRANCH  15  18
HETATM   18  N3  UNL     1     219.369   7.759   5.527  1.00  0.00    -0.324 N 
ATOM     19  H32 UNL     1     219.739   6.938   5.049  1.00  0.00     0.169 HD
ATOM     20  H31 UNL     1     218.470   8.216   5.378  1.00  0.00     0.169 HD
ENDBRANCH  15  18
ENDBRANCH   4  15
TORSDOF 6
ENDMDL
