MODEL 1
REMARK VINA RESULT: -6.970114059      0.000      0.000
REMARK  8 active torsions:
REMARK  status: ('A' for Active; 'I' for Inactive)
REMARK    1  A    between atoms: C2_2  and  C3_3 
REMARK    2  A    between atoms: C3_3  and  C4_4 
REMARK    3  A    between atoms: C4_4  and  C5_5 
REMARK    4  A    between atoms: C6_6  and  C7_7 
REMARK    5  A    between atoms: C7_7  and  N1_8 
REMARK    6  A    between atoms: N1_8  and  N2_10 
REMARK    7  A    between atoms: N4_16  and  C9_17 
REMARK    8  A    between atoms: C9_17  and  C10_18 
ROOT
HETATM    1  C5  UNL     1     216.158   8.125  10.853  1.00  0.00     0.060 A 
HETATM    2  C6  UNL     1     215.046   7.709  10.061  1.00  0.00     0.026 A 
HETATM    3  C8  UNL     1     215.532   6.889   9.087  1.00  0.00     0.122 A 
HETATM    4  N3  UNL     1     216.820   6.784   9.231  1.00  0.00    -0.308 N 
ATOM      5  H3  UNL     1     217.437   6.229   8.637  1.00  0.00     0.186 HD
HETATM    6  N4  UNL     1     217.221   7.536  10.305  1.00  0.00    -0.288 N 
ENDROOT
BRANCH   6   7
HETATM    7  C9  UNL     1     218.646   7.604  10.542  1.00  0.00     0.187 C 
BRANCH   7   8
HETATM    8  C10 UNL     1     219.282   8.181   9.314  1.00  0.00    -0.038 A 
HETATM    9  C11 UNL     1     219.622   9.546   9.314  1.00  0.00     0.009 A 
HETATM   10  C12 UNL     1     220.184  10.111   8.199  1.00  0.00     0.001 A 
HETATM   11  C13 UNL     1     220.405   9.323   7.098  1.00  0.00     0.000 A 
HETATM   12  C14 UNL     1     220.079   7.986   7.081  1.00  0.00     0.001 A 
HETATM   13  C15 UNL     1     219.504   7.411   8.220  1.00  0.00     0.009 A 
ENDBRANCH   7   8
ENDBRANCH   6   7
BRANCH   1  14
HETATM   14  C4  UNL     1     216.040   8.894  11.903  1.00  0.00     0.005 C 
BRANCH  14  15
HETATM   15  C3  UNL     1     216.290   8.550  13.277  1.00  0.00     0.029 C 
BRANCH  15  16
HETATM   16  C2  UNL     1     215.183   7.641  13.849  1.00  0.00    -0.001 C 
HETATM   17  C1  UNL     1     215.173   6.302  13.210  1.00  0.00     0.005 C 
ENDBRANCH  15  16
ENDBRANCH  14  15
ENDBRANCH   1  14
BRANCH   2  18
HETATM   18  C7  UNL     1     213.786   8.061  10.246  1.00  0.00     0.121 C 
BRANCH  18  19
HETATM   19  N1  UNL     1     212.891   7.990   9.148  1.00  0.00    -0.318 N 
ATOM     20  H1  UNL     1     213.151   7.407   8.352  1.00  0.00     0.185 HD
BRANCH  19  21
HETATM   21  N2  UNL     1     211.674   8.670   9.096  1.00  0.00    -0.345 N 
ATOM     22  H22 UNL     1     211.299   9.020   9.978  1.00  0.00     0.176 HD
ATOM     23  H21 UNL     1     211.152   8.831   8.234  1.00  0.00     0.176 HD
ENDBRANCH  19  21
ENDBRANCH  18  19
ENDBRANCH   2  18
TORSDOF 8
ENDMDL
MODEL 2
REMARK VINA RESULT: -6.660715564      1.971      3.137
REMARK  8 active torsions:
REMARK  status: ('A' for Active; 'I' for Inactive)
REMARK    1  A    between atoms: C2_2  and  C3_3 
REMARK    2  A    between atoms: C3_3  and  C4_4 
REMARK    3  A    between atoms: C4_4  and  C5_5 
REMARK    4  A    between atoms: C6_6  and  C7_7 
REMARK    5  A    between atoms: C7_7  and  N1_8 
REMARK    6  A    between atoms: N1_8  and  N2_10 
REMARK    7  A    between atoms: N4_16  and  C9_17 
REMARK    8  A    between atoms: C9_17  and  C10_18 
ROOT
HETATM    1  C5  UNL     1     217.171   8.126  10.844  1.00  0.00     0.060 A 
HETATM    2  C6  UNL     1     216.775   8.213  12.212  1.00  0.00     0.026 A 
HETATM    3  C8  UNL     1     217.698   7.523  12.941  1.00  0.00     0.122 A 
HETATM    4  N3  UNL     1     218.596   7.041  12.132  1.00  0.00    -0.308 N 
ATOM      5  H3  UNL     1     219.403   6.483  12.411  1.00  0.00     0.186 HD
HETATM    6  N4  UNL     1     218.288   7.399  10.845  1.00  0.00    -0.288 N 
ENDROOT
BRANCH   6   7
HETATM    7  C9  UNL     1     219.140   6.855   9.810  1.00  0.00     0.187 C 
BRANCH   7   8
HETATM    8  C10 UNL     1     219.526   7.983   8.903  1.00  0.00    -0.038 A 
HETATM    9  C11 UNL     1     219.393   7.804   7.515  1.00  0.00     0.009 A 
HETATM   10  C12 UNL     1     219.758   8.807   6.656  1.00  0.00     0.001 A 
HETATM   11  C13 UNL     1     220.250   9.977   7.178  1.00  0.00     0.000 A 
HETATM   12  C14 UNL     1     220.388  10.170   8.534  1.00  0.00     0.001 A 
HETATM   13  C15 UNL     1     220.015   9.143   9.408  1.00  0.00     0.009 A 
ENDBRANCH   7   8
ENDBRANCH   6   7
BRANCH   1  14
HETATM   14  C4  UNL     1     216.522   8.714   9.873  1.00  0.00     0.005 C 
BRANCH  14  15
HETATM   15  C3  UNL     1     215.722   8.095   8.851  1.00  0.00     0.029 C 
BRANCH  15  16
HETATM   16  C2  UNL     1     214.652   7.158   9.451  1.00  0.00    -0.001 C 
HETATM   17  C1  UNL     1     213.473   7.905   9.954  1.00  0.00     0.005 C 
ENDBRANCH  15  16
ENDBRANCH  14  15
ENDBRANCH   1  14
BRANCH   2  18
HETATM   18  C7  UNL     1     215.711   8.844  12.675  1.00  0.00     0.121 C 
BRANCH  18  19
HETATM   19  N1  UNL     1     214.719   8.096  13.358  1.00  0.00    -0.318 N 
ATOM     20  H1  UNL     1     214.092   8.593  13.991  1.00  0.00     0.185 HD
BRANCH  19  21
HETATM   21  N2  UNL     1     214.552   6.718  13.214  1.00  0.00    -0.345 N 
ATOM     22  H22 UNL     1     213.602   6.354  13.299  1.00  0.00     0.176 HD
ATOM     23  H21 UNL     1     215.319   6.071  13.032  1.00  0.00     0.176 HD
ENDBRANCH  19  21
ENDBRANCH  18  19
ENDBRANCH   2  18
TORSDOF 8
ENDMDL
MODEL 3
REMARK VINA RESULT: -6.647161545      0.767      1.240
REMARK  8 active torsions:
REMARK  status: ('A' for Active; 'I' for Inactive)
REMARK    1  A    between atoms: C2_2  and  C3_3 
REMARK    2  A    between atoms: C3_3  and  C4_4 
REMARK    3  A    between atoms: C4_4  and  C5_5 
REMARK    4  A    between atoms: C6_6  and  C7_7 
REMARK    5  A    between atoms: C7_7  and  N1_8 
REMARK    6  A    between atoms: N1_8  and  N2_10 
REMARK    7  A    between atoms: N4_16  and  C9_17 
REMARK    8  A    between atoms: C9_17  and  C10_18 
ROOT
HETATM    1  C5  UNL     1     215.887   7.183  10.636  1.00  0.00     0.060 A 
HETATM    2  C6  UNL     1     214.854   7.901   9.961  1.00  0.00     0.026 A 
HETATM    3  C8  UNL     1     215.463   8.797   9.134  1.00  0.00     0.122 A 
HETATM    4  N3  UNL     1     216.752   8.674   9.258  1.00  0.00    -0.308 N 
ATOM      5  H3  UNL     1     217.449   9.221   8.753  1.00  0.00     0.186 HD
HETATM    6  N4  UNL     1     217.029   7.692  10.174  1.00  0.00    -0.288 N 
ENDROOT
BRANCH   6   7
HETATM    7  C9  UNL     1     218.425   7.498  10.500  1.00  0.00     0.187 C 
BRANCH   7   8
HETATM    8  C10 UNL     1     219.237   8.118   9.404  1.00  0.00    -0.038 A 
HETATM    9  C11 UNL     1     219.668   9.448   9.559  1.00  0.00     0.009 A 
HETATM   10  C12 UNL     1     220.393  10.052   8.565  1.00  0.00     0.001 A 
HETATM   11  C13 UNL     1     220.684   9.337   7.431  1.00  0.00     0.000 A 
HETATM   12  C14 UNL     1     220.270   8.035   7.263  1.00  0.00     0.001 A 
HETATM   13  C15 UNL     1     219.529   7.420   8.278  1.00  0.00     0.009 A 
ENDBRANCH   7   8
ENDBRANCH   6   7
BRANCH   1  14
HETATM   14  C4  UNL     1     215.650   6.215  11.481  1.00  0.00     0.005 C 
BRANCH  14  15
HETATM   15  C3  UNL     1     215.261   6.330  12.861  1.00  0.00     0.029 C 
BRANCH  15  16
HETATM   16  C2  UNL     1     215.246   7.800  13.331  1.00  0.00    -0.001 C 
HETATM   17  C1  UNL     1     216.522   8.194  13.976  1.00  0.00     0.005 C 
ENDBRANCH  15  16
ENDBRANCH  14  15
ENDBRANCH   1  14
BRANCH   2  18
HETATM   18  C7  UNL     1     213.555   7.724  10.119  1.00  0.00     0.121 C 
BRANCH  18  19
HETATM   19  N1  UNL     1     212.699   7.935   9.009  1.00  0.00    -0.318 N 
ATOM     20  H1  UNL     1     212.934   7.481   8.126  1.00  0.00     0.185 HD
BRANCH  19  21
HETATM   21  N2  UNL     1     211.553   8.730   9.055  1.00  0.00    -0.345 N 
ATOM     22  H22 UNL     1     211.438   9.333   9.870  1.00  0.00     0.176 HD
ATOM     23  H21 UNL     1     210.838   8.737   8.327  1.00  0.00     0.176 HD
ENDBRANCH  19  21
ENDBRANCH  18  19
ENDBRANCH   2  18
TORSDOF 8
ENDMDL
MODEL 4
REMARK VINA RESULT: -6.539659715      0.770      1.654
REMARK  8 active torsions:
REMARK  status: ('A' for Active; 'I' for Inactive)
REMARK    1  A    between atoms: C2_2  and  C3_3 
REMARK    2  A    between atoms: C3_3  and  C4_4 
REMARK    3  A    between atoms: C4_4  and  C5_5 
REMARK    4  A    between atoms: C6_6  and  C7_7 
REMARK    5  A    between atoms: C7_7  and  N1_8 
REMARK    6  A    between atoms: N1_8  and  N2_10 
REMARK    7  A    between atoms: N4_16  and  C9_17 
REMARK    8  A    between atoms: C9_17  and  C10_18 
ROOT
HETATM    1  C5  UNL     1     215.877   7.206  10.646  1.00  0.00     0.060 A 
HETATM    2  C6  UNL     1     214.844   7.914   9.962  1.00  0.00     0.026 A 
HETATM    3  C8  UNL     1     215.452   8.795   9.118  1.00  0.00     0.122 A 
HETATM    4  N3  UNL     1     216.741   8.672   9.242  1.00  0.00    -0.308 N 
ATOM      5  H3  UNL     1     217.437   9.211   8.726  1.00  0.00     0.186 HD
HETATM    6  N4  UNL     1     217.019   7.707  10.174  1.00  0.00    -0.288 N 
ENDROOT
BRANCH   6   7
HETATM    7  C9  UNL     1     218.416   7.517  10.501  1.00  0.00     0.187 C 
BRANCH   7   8
HETATM    8  C10 UNL     1     219.226   8.182   9.431  1.00  0.00    -0.038 A 
HETATM    9  C11 UNL     1     219.549   7.444   8.278  1.00  0.00     0.009 A 
HETATM   10  C12 UNL     1     220.307   8.015   7.290  1.00  0.00     0.001 A 
HETATM   11  C13 UNL     1     220.738   9.308   7.450  1.00  0.00     0.000 A 
HETATM   12  C14 UNL     1     220.431  10.044   8.572  1.00  0.00     0.001 A 
HETATM   13  C15 UNL     1     219.657   9.459   9.580  1.00  0.00     0.009 A 
ENDBRANCH   7   8
ENDBRANCH   6   7
BRANCH   1  14
HETATM   14  C4  UNL     1     215.641   6.253  11.509  1.00  0.00     0.005 C 
BRANCH  14  15
HETATM   15  C3  UNL     1     215.155   6.387  12.855  1.00  0.00     0.029 C 
BRANCH  15  16
HETATM   16  C2  UNL     1     215.254   7.843  13.356  1.00  0.00    -0.001 C 
HETATM   17  C1  UNL     1     216.575   8.138  13.963  1.00  0.00     0.005 C 
ENDBRANCH  15  16
ENDBRANCH  14  15
ENDBRANCH   1  14
BRANCH   2  18
HETATM   18  C7  UNL     1     213.544   7.740  10.125  1.00  0.00     0.121 C 
BRANCH  18  19
HETATM   19  N1  UNL     1     212.686   7.941   9.014  1.00  0.00    -0.318 N 
ATOM     20  H1  UNL     1     212.925   7.487   8.133  1.00  0.00     0.185 HD
BRANCH  19  21
HETATM   21  N2  UNL     1     211.532   8.724   9.060  1.00  0.00    -0.345 N 
ATOM     22  H22 UNL     1     211.417   9.425   8.327  1.00  0.00     0.176 HD
ATOM     23  H21 UNL     1     210.813   8.632   9.777  1.00  0.00     0.176 HD
ENDBRANCH  19  21
ENDBRANCH  18  19
ENDBRANCH   2  18
TORSDOF 8
ENDMDL
MODEL 5
REMARK VINA RESULT: -6.264462327      2.091      3.327
REMARK  8 active torsions:
REMARK  status: ('A' for Active; 'I' for Inactive)
REMARK    1  A    between atoms: C2_2  and  C3_3 
REMARK    2  A    between atoms: C3_3  and  C4_4 
REMARK    3  A    between atoms: C4_4  and  C5_5 
REMARK    4  A    between atoms: C6_6  and  C7_7 
REMARK    5  A    between atoms: C7_7  and  N1_8 
REMARK    6  A    between atoms: N1_8  and  N2_10 
REMARK    7  A    between atoms: N4_16  and  C9_17 
REMARK    8  A    between atoms: C9_17  and  C10_18 
ROOT
HETATM    1  C5  UNL     1     216.870   7.584  11.281  1.00  0.00     0.060 A 
HETATM    2  C6  UNL     1     216.287   8.733  11.896  1.00  0.00     0.026 A 
HETATM    3  C8  UNL     1     217.150   9.771  11.705  1.00  0.00     0.122 A 
HETATM    4  N3  UNL     1     218.182   9.341  11.040  1.00  0.00    -0.308 N 
ATOM      5  H3  UNL     1     218.981   9.910  10.759  1.00  0.00     0.186 HD
HETATM    6  N4  UNL     1     218.028   8.005  10.774  1.00  0.00    -0.288 N 
ENDROOT
BRANCH   6   7
HETATM    7  C9  UNL     1     219.141   7.352  10.121  1.00  0.00     0.187 C 
BRANCH   7   8
HETATM    8  C10 UNL     1     219.507   8.171   8.921  1.00  0.00    -0.038 A 
HETATM    9  C11 UNL     1     219.237   7.648   7.644  1.00  0.00     0.009 A 
HETATM   10  C12 UNL     1     219.579   8.361   6.526  1.00  0.00     0.001 A 
HETATM   11  C13 UNL     1     220.184   9.583   6.680  1.00  0.00     0.000 A 
HETATM   12  C14 UNL     1     220.457  10.110   7.922  1.00  0.00     0.001 A 
HETATM   13  C15 UNL     1     220.107   9.379   9.063  1.00  0.00     0.009 A 
ENDBRANCH   7   8
ENDBRANCH   6   7
BRANCH   1  14
HETATM   14  C4  UNL     1     216.283   6.417  11.246  1.00  0.00     0.005 C 
BRANCH  14  15
HETATM   15  C3  UNL     1     215.366   5.924  10.253  1.00  0.00     0.029 C 
BRANCH  15  16
HETATM   16  C2  UNL     1     215.003   7.012   9.220  1.00  0.00    -0.001 C 
HETATM   17  C1  UNL     1     213.713   7.674   9.534  1.00  0.00     0.005 C 
ENDBRANCH  15  16
ENDBRANCH  14  15
ENDBRANCH   1  14
BRANCH   2  18
HETATM   18  C7  UNL     1     215.128   8.771  12.529  1.00  0.00     0.121 C 
BRANCH  18  19
HETATM   19  N1  UNL     1     215.047   8.224  13.835  1.00  0.00    -0.318 N 
ATOM     20  H1  UNL     1     214.169   7.791  14.122  1.00  0.00     0.185 HD
BRANCH  19  21
HETATM   21  N2  UNL     1     216.101   8.245  14.749  1.00  0.00    -0.345 N 
ATOM     22  H22 UNL     1     216.296   9.133  15.212  1.00  0.00     0.176 HD
ATOM     23  H21 UNL     1     216.673   7.430  14.972  1.00  0.00     0.176 HD
ENDBRANCH  19  21
ENDBRANCH  18  19
ENDBRANCH   2  18
TORSDOF 8
ENDMDL
