MODEL 1
REMARK VINA RESULT: -6.258329272      0.000      0.000
REMARK  4 active torsions:
REMARK  status: ('A' for Active; 'I' for Inactive)
REMARK    1  A    between atoms: O1_2  and  C2_3 
REMARK    2  A    between atoms: C4_5  and  C5_6 
REMARK    3  A    between atoms: C12_19  and  O4_20 
REMARK    4  A    between atoms: C14_22  and  O5_23 
ROOT
HETATM    1  C2  UNL     1      -6.788  34.202  -5.483  1.00  0.00     0.105 A 
HETATM    2  C3  UNL     1      -6.862  33.595  -4.224  1.00  0.00     0.051 A 
HETATM    3  C4  UNL     1      -8.014  33.755  -3.458  1.00  0.00    -0.030 A 
HETATM    4  C11 UNL     1      -9.062  34.510  -3.959  1.00  0.00     0.051 A 
HETATM    5  C12 UNL     1      -8.972  35.113  -5.222  1.00  0.00     0.105 A 
HETATM    6  C14 UNL     1      -7.829  34.951  -5.978  1.00  0.00     0.135 A 
ENDROOT
BRANCH   3   7
HETATM    7  C5  UNL     1      -8.140  33.146  -2.151  1.00  0.00     0.034 C 
HETATM    8  C6  UNL     1      -7.614  33.635  -1.033  1.00  0.00     0.101 A 
HETATM    9  C7  UNL     1      -6.833  34.865  -0.977  1.00  0.00     0.263 A 
HETATM   10  C10 UNL     1      -7.798  32.933   0.248  1.00  0.00     0.265 A 
HETATM   11  O2  UNL     1      -6.637  35.520  -2.042  1.00  0.00    -0.267 OA
HETATM   12  N1  UNL     1      -6.288  35.336   0.273  1.00  0.00    -0.299 N 
HETATM   13  C8  UNL     1      -6.514  34.595   1.465  1.00  0.00     0.183 A 
ATOM     14  H1  UNL     1      -5.743  36.197   0.302  1.00  0.00     0.171 HD
HETATM   15  S1  UNL     1      -5.884  35.147   2.888  1.00  0.00    -0.040 SA
HETATM   16  N2  UNL     1      -7.268  33.393   1.458  1.00  0.00    -0.294 N 
HETATM   17  C9  UNL     1      -7.454  32.688   2.729  1.00  0.00     0.162 C 
HETATM   18  O3  UNL     1      -8.469  31.859   0.249  1.00  0.00    -0.267 OA
ENDBRANCH   3   7
BRANCH   1  19
HETATM   19  O1  UNL     1      -5.655  34.061  -6.266  1.00  0.00    -0.353 OA
HETATM   20  C1  UNL     1      -5.359  32.801  -6.830  1.00  0.00     0.210 C 
ENDBRANCH   1  19
BRANCH   5  21
HETATM   21  O4  UNL     1     -10.012  35.874  -5.738  1.00  0.00    -0.353 OA
HETATM   22  C13 UNL     1     -10.391  37.033  -5.049  1.00  0.00     0.210 C 
ENDBRANCH   5  21
BRANCH   6  23
HETATM   23  O5  UNL     1      -7.707  35.527  -7.218  1.00  0.00    -0.351 OA
HETATM   24  C15 UNL     1      -8.144  34.991  -8.429  1.00  0.00     0.210 C 
ENDBRANCH   6  23
TORSDOF 4
ENDMDL
MODEL 2
REMARK VINA RESULT: -6.237741707      0.071      2.651
REMARK  4 active torsions:
REMARK  status: ('A' for Active; 'I' for Inactive)
REMARK    1  A    between atoms: O1_2  and  C2_3 
REMARK    2  A    between atoms: C4_5  and  C5_6 
REMARK    3  A    between atoms: C12_19  and  O4_20 
REMARK    4  A    between atoms: C14_22  and  O5_23 
ROOT
HETATM    1  C2  UNL     1      -8.962  35.147  -5.237  1.00  0.00     0.105 A 
HETATM    2  C3  UNL     1      -9.114  34.575  -3.968  1.00  0.00     0.051 A 
HETATM    3  C4  UNL     1      -8.087  33.792  -3.448  1.00  0.00    -0.030 A 
HETATM    4  C11 UNL     1      -6.938  33.595  -4.196  1.00  0.00     0.051 A 
HETATM    5  C12 UNL     1      -6.801  34.173  -5.466  1.00  0.00     0.105 A 
HETATM    6  C14 UNL     1      -7.821  34.950  -5.978  1.00  0.00     0.135 A 
ENDROOT
BRANCH   3   7
HETATM    7  C5  UNL     1      -8.195  33.180  -2.139  1.00  0.00     0.034 C 
HETATM    8  C6  UNL     1      -7.657  33.669  -1.028  1.00  0.00     0.101 A 
HETATM    9  C7  UNL     1      -6.881  34.902  -0.979  1.00  0.00     0.263 A 
HETATM   10  C10 UNL     1      -7.823  32.964   0.254  1.00  0.00     0.265 A 
HETATM   11  O2  UNL     1      -6.700  35.560  -2.045  1.00  0.00    -0.267 OA
HETATM   12  N1  UNL     1      -6.322  35.373   0.265  1.00  0.00    -0.299 N 
HETATM   13  C8  UNL     1      -6.531  34.629   1.458  1.00  0.00     0.183 A 
ATOM     14  H1  UNL     1      -5.780  36.236   0.289  1.00  0.00     0.171 HD
HETATM   15  S1  UNL     1      -5.885  35.181   2.875  1.00  0.00    -0.040 SA
HETATM   16  N2  UNL     1      -7.280  33.424   1.459  1.00  0.00    -0.294 N 
HETATM   17  C9  UNL     1      -7.448  32.716   2.730  1.00  0.00     0.162 C 
HETATM   18  O3  UNL     1      -8.490  31.887   0.262  1.00  0.00    -0.267 OA
ENDBRANCH   3   7
BRANCH   1  19
HETATM   19  O1  UNL     1      -9.966  35.930  -5.780  1.00  0.00    -0.353 OA
HETATM   20  C1  UNL     1     -10.389  37.086  -5.089  1.00  0.00     0.210 C 
ENDBRANCH   1  19
BRANCH   5  21
HETATM   21  O4  UNL     1      -5.657  33.986  -6.229  1.00  0.00    -0.353 OA
HETATM   22  C13 UNL     1      -5.345  32.686  -6.648  1.00  0.00     0.210 C 
ENDBRANCH   5  21
BRANCH   6  23
HETATM   23  O5  UNL     1      -7.721  35.532  -7.217  1.00  0.00    -0.351 OA
HETATM   24  C15 UNL     1      -8.109  34.969  -8.432  1.00  0.00     0.210 C 
ENDBRANCH   6  23
TORSDOF 4
ENDMDL
MODEL 3
REMARK VINA RESULT: -5.356119833      1.261      1.377
REMARK  4 active torsions:
REMARK  status: ('A' for Active; 'I' for Inactive)
REMARK    1  A    between atoms: O1_2  and  C2_3 
REMARK    2  A    between atoms: C4_5  and  C5_6 
REMARK    3  A    between atoms: C12_19  and  O4_20 
REMARK    4  A    between atoms: C14_22  and  O5_23 
ROOT
HETATM    1  C2  UNL     1      -5.936  33.632  -4.511  1.00  0.00     0.105 A 
HETATM    2  C3  UNL     1      -6.028  33.170  -3.192  1.00  0.00     0.051 A 
HETATM    3  C4  UNL     1      -7.209  33.370  -2.483  1.00  0.00    -0.030 A 
HETATM    4  C11 UNL     1      -8.268  34.019  -3.096  1.00  0.00     0.051 A 
HETATM    5  C12 UNL     1      -8.160  34.477  -4.417  1.00  0.00     0.105 A 
HETATM    6  C14 UNL     1      -6.987  34.277  -5.117  1.00  0.00     0.135 A 
ENDROOT
BRANCH   3   7
HETATM    7  C5  UNL     1      -7.355  32.909  -1.118  1.00  0.00     0.034 C 
HETATM    8  C6  UNL     1      -6.981  33.595  -0.043  1.00  0.00     0.101 A 
HETATM    9  C7  UNL     1      -6.369  34.916  -0.099  1.00  0.00     0.263 A 
HETATM   10  C10 UNL     1      -7.170  33.031   1.304  1.00  0.00     0.265 A 
HETATM   11  O2  UNL     1      -6.178  35.460  -1.226  1.00  0.00    -0.267 OA
HETATM   12  N1  UNL     1      -5.984  35.602   1.111  1.00  0.00    -0.299 N 
HETATM   13  C8  UNL     1      -6.203  34.985   2.372  1.00  0.00     0.183 A 
ATOM     14  H1  UNL     1      -5.555  36.527   1.061  1.00  0.00     0.171 HD
HETATM   15  S1  UNL     1      -5.756  35.782   3.748  1.00  0.00    -0.040 SA
HETATM   16  N2  UNL     1      -6.795  33.700   2.475  1.00  0.00    -0.294 N 
HETATM   17  C9  UNL     1      -6.986  33.133   3.812  1.00  0.00     0.162 C 
HETATM   18  O3  UNL     1      -7.698  31.885   1.403  1.00  0.00    -0.267 OA
ENDBRANCH   3   7
BRANCH   1  19
HETATM   19  O1  UNL     1      -4.773  33.448  -5.240  1.00  0.00    -0.353 OA
HETATM   20  C1  UNL     1      -4.468  32.164  -5.740  1.00  0.00     0.210 C 
ENDBRANCH   1  19
BRANCH   5  21
HETATM   21  O4  UNL     1      -9.210  35.131  -5.047  1.00  0.00    -0.353 OA
HETATM   22  C13 UNL     1     -10.392  35.335  -4.324  1.00  0.00     0.210 C 
ENDBRANCH   5  21
BRANCH   6  23
HETATM   23  O5  UNL     1      -6.846  34.711  -6.412  1.00  0.00    -0.351 OA
HETATM   24  C15 UNL     1      -6.425  35.976  -6.823  1.00  0.00     0.210 C 
ENDBRANCH   6  23
TORSDOF 4
ENDMDL
MODEL 4
REMARK VINA RESULT: -5.284472165      5.273     10.444
REMARK  4 active torsions:
REMARK  status: ('A' for Active; 'I' for Inactive)
REMARK    1  A    between atoms: O1_2  and  C2_3 
REMARK    2  A    between atoms: C4_5  and  C5_6 
REMARK    3  A    between atoms: C12_19  and  O4_20 
REMARK    4  A    between atoms: C14_22  and  O5_23 
ROOT
HETATM    1  C2  UNL     1      -5.636  35.791   6.994  1.00  0.00     0.105 A 
HETATM    2  C3  UNL     1      -6.343  35.381   5.858  1.00  0.00     0.051 A 
HETATM    3  C4  UNL     1      -6.297  34.043   5.474  1.00  0.00    -0.030 A 
HETATM    4  C11 UNL     1      -5.554  33.147   6.225  1.00  0.00     0.051 A 
HETATM    5  C12 UNL     1      -4.850  33.573   7.360  1.00  0.00     0.105 A 
HETATM    6  C14 UNL     1      -4.898  34.900   7.737  1.00  0.00     0.135 A 
ENDROOT
BRANCH   3   7
HETATM    7  C5  UNL     1      -7.012  33.569   4.308  1.00  0.00     0.034 C 
HETATM    8  C6  UNL     1      -6.634  33.776   3.051  1.00  0.00     0.101 A 
HETATM    9  C7  UNL     1      -5.434  34.514   2.679  1.00  0.00     0.263 A 
HETATM   10  C10 UNL     1      -7.439  33.253   1.934  1.00  0.00     0.265 A 
HETATM   11  O2  UNL     1      -4.695  34.990   3.589  1.00  0.00    -0.267 OA
HETATM   12  N1  UNL     1      -5.086  34.703   1.291  1.00  0.00    -0.299 N 
HETATM   13  C8  UNL     1      -5.920  34.164   0.275  1.00  0.00     0.183 A 
ATOM     14  H1  UNL     1      -4.244  35.222   1.040  1.00  0.00     0.171 HD
HETATM   15  S1  UNL     1      -5.508  34.388  -1.309  1.00  0.00    -0.040 SA
HETATM   16  N2  UNL     1      -7.098  33.438   0.590  1.00  0.00    -0.294 N 
HETATM   17  C9  UNL     1      -7.904  32.916  -0.516  1.00  0.00     0.162 C 
HETATM   18  O3  UNL     1      -8.492  32.604   2.209  1.00  0.00    -0.267 OA
ENDBRANCH   3   7
BRANCH   1  19
HETATM   19  O1  UNL     1      -5.662  37.115   7.399  1.00  0.00    -0.353 OA
HETATM   20  C1  UNL     1      -5.254  38.121   6.496  1.00  0.00     0.210 C 
ENDBRANCH   1  19
BRANCH   5  21
HETATM   21  O4  UNL     1      -4.100  32.689   8.123  1.00  0.00    -0.353 OA
HETATM   22  C13 UNL     1      -4.709  31.503   8.553  1.00  0.00     0.210 C 
ENDBRANCH   5  21
BRANCH   6  23
HETATM   23  O5  UNL     1      -4.222  35.353   8.843  1.00  0.00    -0.351 OA
HETATM   24  C15 UNL     1      -4.687  35.355  10.158  1.00  0.00     0.210 C 
ENDBRANCH   6  23
TORSDOF 4
ENDMDL
MODEL 5
REMARK VINA RESULT: -5.242761440      6.021     10.984
REMARK  4 active torsions:
REMARK  status: ('A' for Active; 'I' for Inactive)
REMARK    1  A    between atoms: O1_2  and  C2_3 
REMARK    2  A    between atoms: C4_5  and  C5_6 
REMARK    3  A    between atoms: C12_19  and  O4_20 
REMARK    4  A    between atoms: C14_22  and  O5_23 
ROOT
HETATM    1  C2  UNL     1      -4.388  33.897   8.105  1.00  0.00     0.105 A 
HETATM    2  C3  UNL     1      -4.893  33.492   6.864  1.00  0.00     0.051 A 
HETATM    3  C4  UNL     1      -5.712  34.361   6.148  1.00  0.00    -0.030 A 
HETATM    4  C11 UNL     1      -6.009  35.606   6.677  1.00  0.00     0.051 A 
HETATM    5  C12 UNL     1      -5.496  35.996   7.922  1.00  0.00     0.105 A 
HETATM    6  C14 UNL     1      -4.683  35.133   8.629  1.00  0.00     0.135 A 
ENDROOT
BRANCH   3   7
HETATM    7  C5  UNL     1      -6.258  33.990   4.859  1.00  0.00     0.034 C 
HETATM    8  C6  UNL     1      -5.802  34.423   3.689  1.00  0.00     0.101 A 
HETATM    9  C7  UNL     1      -4.676  35.338   3.549  1.00  0.00     0.263 A 
HETATM   10  C10 UNL     1      -6.435  33.987   2.433  1.00  0.00     0.265 A 
HETATM   11  O2  UNL     1      -4.084  35.752   4.589  1.00  0.00    -0.267 OA
HETATM   12  N1  UNL     1      -4.235  35.771   2.245  1.00  0.00    -0.299 N 
HETATM   13  C8  UNL     1      -4.904  35.300   1.082  1.00  0.00     0.183 A 
ATOM     14  H1  UNL     1      -3.447  36.412   2.157  1.00  0.00     0.171 HD
HETATM   15  S1  UNL     1      -4.388  35.804  -0.404  1.00  0.00    -0.040 SA
HETATM   16  N2  UNL     1      -6.004  34.409   1.170  1.00  0.00    -0.294 N 
HETATM   17  C9  UNL     1      -6.640  33.971  -0.075  1.00  0.00     0.162 C 
HETATM   18  O3  UNL     1      -7.418  33.191   2.504  1.00  0.00    -0.267 OA
ENDBRANCH   3   7
BRANCH   1  19
HETATM   19  O1  UNL     1      -3.571  33.054   8.841  1.00  0.00    -0.353 OA
HETATM   20  C1  UNL     1      -4.138  31.934   9.485  1.00  0.00     0.210 C 
ENDBRANCH   1  19
BRANCH   5  21
HETATM   21  O4  UNL     1      -5.783  37.240   8.468  1.00  0.00    -0.353 OA
HETATM   22  C13 UNL     1      -5.131  38.362   7.940  1.00  0.00     0.210 C 
ENDBRANCH   5  21
BRANCH   6  23
HETATM   23  O5  UNL     1      -4.163  35.482   9.850  1.00  0.00    -0.351 OA
HETATM   24  C15 UNL     1      -4.773  35.310  11.093  1.00  0.00     0.210 C 
ENDBRANCH   6  23
TORSDOF 4
ENDMDL
