MODEL 1
REMARK VINA RESULT: -6.113885317      0.000      0.000
REMARK  4 active torsions:
REMARK  status: ('A' for Active; 'I' for Inactive)
REMARK    1  A    between atoms: N2_5  and  C4_6 
REMARK    2  A    between atoms: C8_17  and  C9_18 
REMARK    3  A    between atoms: C9_18  and  C10_19 
REMARK    4  A    between atoms: C10_19  and  C11_20 
ROOT
HETATM    1  C4  UNL     1      -5.787  34.300   4.785  1.00  0.00     0.682 A 
HETATM    2  N3  UNL     1      -4.884  34.984   4.008  1.00  0.00    -0.195 N 
ATOM      3  H3  UNL     1      -4.094  35.449   4.454  1.00  0.00     0.184 HD
HETATM    4  C5  UNL     1      -5.018  35.049   2.710  1.00  0.00     0.040 A 
HETATM    5  C6  UNL     1      -6.107  34.411   2.076  1.00  0.00     0.042 A 
HETATM    6  C7  UNL     1      -7.016  33.728   2.818  1.00  0.00     0.125 A 
HETATM    7  N4  UNL     1      -8.038  33.101   2.361  1.00  0.00    -0.385 N 
ATOM      8  H41 UNL     1      -8.721  32.587   2.918  1.00  0.00     0.157 HD
ATOM      9  H42 UNL     1      -8.191  33.120   1.352  1.00  0.00     0.157 HD
HETATM   10  N5  UNL     1      -6.809  33.702   4.175  1.00  0.00    -0.176 N 
ATOM     11  H5  UNL     1      -7.480  33.193   4.752  1.00  0.00     0.186 HD
HETATM   12  C8  UNL     1      -6.106  34.590   0.613  1.00  0.00     0.261 C 
HETATM   13  N6  UNL     1      -6.205  35.996   0.503  1.00  0.00     0.093 N 
HETATM   14  C14 UNL     1      -6.655  36.627  -0.662  1.00  0.00     0.310 C 
HETATM   15  C15 UNL     1      -4.950  36.603   0.887  1.00  0.00     0.279 C 
HETATM   16  C16 UNL     1      -4.092  35.751   1.779  1.00  0.00     0.088 C 
ENDROOT
BRANCH   1  17
HETATM   17  N2  UNL     1      -5.608  34.251   6.188  1.00  0.00    -0.214 N 
HETATM   18  C3  UNL     1      -5.497  33.063   6.969  1.00  0.00     0.171 C 
HETATM   19  C2  UNL     1      -4.089  33.044   7.543  1.00  0.00     0.292 C 
HETATM   20  N1  UNL     1      -3.828  34.298   8.190  1.00  0.00     0.087 N 
HETATM   21  C1  UNL     1      -3.234  34.028   9.479  1.00  0.00     0.310 C 
HETATM   22  C18 UNL     1      -4.998  35.139   8.319  1.00  0.00     0.292 C 
HETATM   23  C17 UNL     1      -5.523  35.507   6.953  1.00  0.00     0.171 C 
ENDBRANCH   1  17
BRANCH  12  24
HETATM   24  C9  UNL     1      -6.945  33.672  -0.069  1.00  0.00     0.041 C 
BRANCH  24  25
HETATM   25  C10 UNL     1      -6.508  33.082  -1.398  1.00  0.00     0.007 C 
BRANCH  25  26
HETATM   26  C11 UNL     1      -7.635  33.078  -2.413  1.00  0.00    -0.014 A 
HETATM   27  C12 UNL     1      -7.312  33.432  -3.822  1.00  0.00     0.005 A 
HETATM   28  C13 UNL     1      -8.142  34.332  -3.019  1.00  0.00     0.005 A 
ENDBRANCH  25  26
ENDBRANCH  24  25
ENDBRANCH  12  24
TORSDOF 4
ENDMDL
MODEL 2
REMARK VINA RESULT: -6.046182910      4.794      9.246
REMARK  4 active torsions:
REMARK  status: ('A' for Active; 'I' for Inactive)
REMARK    1  A    between atoms: N2_5  and  C4_6 
REMARK    2  A    between atoms: C8_17  and  C9_18 
REMARK    3  A    between atoms: C9_18  and  C10_19 
REMARK    4  A    between atoms: C10_19  and  C11_20 
ROOT
HETATM    1  C4  UNL     1      -4.986  32.420  -4.359  1.00  0.00     0.682 A 
HETATM    2  N3  UNL     1      -6.128  33.178  -4.447  1.00  0.00    -0.195 N 
ATOM      3  H3  UNL     1      -6.662  33.179  -5.316  1.00  0.00     0.184 HD
HETATM    4  C5  UNL     1      -6.545  33.896  -3.438  1.00  0.00     0.040 A 
HETATM    5  C6  UNL     1      -5.819  33.906  -2.227  1.00  0.00     0.042 A 
HETATM    6  C7  UNL     1      -4.686  33.168  -2.110  1.00  0.00     0.125 A 
HETATM    7  N4  UNL     1      -3.947  33.087  -1.064  1.00  0.00    -0.385 N 
ATOM      8  H41 UNL     1      -3.095  32.531  -0.976  1.00  0.00     0.157 HD
ATOM      9  H42 UNL     1      -4.226  33.629  -0.246  1.00  0.00     0.157 HD
HETATM   10  N5  UNL     1      -4.311  32.438  -3.211  1.00  0.00    -0.176 N 
ATOM     11  H5  UNL     1      -3.463  31.874  -3.146  1.00  0.00     0.186 HD
HETATM   12  C8  UNL     1      -6.426  34.772  -1.199  1.00  0.00     0.261 C 
HETATM   13  N6  UNL     1      -6.379  36.034  -1.833  1.00  0.00     0.093 N 
HETATM   14  C14 UNL     1      -6.451  37.236  -1.118  1.00  0.00     0.310 C 
HETATM   15  C15 UNL     1      -7.360  36.083  -2.894  1.00  0.00     0.279 C 
HETATM   16  C16 UNL     1      -7.772  34.740  -3.424  1.00  0.00     0.088 C 
ENDROOT
BRANCH   1  17
HETATM   17  N2  UNL     1      -4.567  31.655  -5.473  1.00  0.00    -0.214 N 
HETATM   18  C3  UNL     1      -3.610  30.597  -5.440  1.00  0.00     0.171 C 
HETATM   19  C2  UNL     1      -4.355  29.319  -5.792  1.00  0.00     0.292 C 
HETATM   20  N1  UNL     1      -5.088  29.522  -7.009  1.00  0.00     0.087 N 
HETATM   21  C1  UNL     1      -4.856  28.386  -7.872  1.00  0.00     0.310 C 
HETATM   22  C18 UNL     1      -4.769  30.762  -7.679  1.00  0.00     0.292 C 
HETATM   23  C17 UNL     1      -5.138  31.934  -6.802  1.00  0.00     0.171 C 
ENDBRANCH   1  17
BRANCH  12  24
HETATM   24  C9  UNL     1      -5.948  34.514   0.112  1.00  0.00     0.041 C 
BRANCH  24  25
HETATM   25  C10 UNL     1      -6.912  34.088   1.205  1.00  0.00     0.007 C 
BRANCH  25  26
HETATM   26  C11 UNL     1      -8.121  33.366   0.643  1.00  0.00    -0.014 A 
HETATM   27  C12 UNL     1      -8.777  32.333   1.489  1.00  0.00     0.005 A 
HETATM   28  C13 UNL     1      -8.069  31.932   0.272  1.00  0.00     0.005 A 
ENDBRANCH  25  26
ENDBRANCH  24  25
ENDBRANCH  12  24
TORSDOF 4
ENDMDL
MODEL 3
REMARK VINA RESULT: -5.840887937      2.237      8.208
REMARK  4 active torsions:
REMARK  status: ('A' for Active; 'I' for Inactive)
REMARK    1  A    between atoms: N2_5  and  C4_6 
REMARK    2  A    between atoms: C8_17  and  C9_18 
REMARK    3  A    between atoms: C9_18  and  C10_19 
REMARK    4  A    between atoms: C10_19  and  C11_20 
ROOT
HETATM    1  C4  UNL     1      -5.365  35.511   4.781  1.00  0.00     0.682 A 
HETATM    2  N3  UNL     1      -5.922  36.332   5.731  1.00  0.00    -0.195 N 
ATOM      3  H3  UNL     1      -6.640  37.001   5.454  1.00  0.00     0.184 HD
HETATM    4  C5  UNL     1      -5.550  36.271   6.982  1.00  0.00     0.040 A 
HETATM    5  C6  UNL     1      -4.557  35.351   7.383  1.00  0.00     0.042 A 
HETATM    6  C7  UNL     1      -3.988  34.526   6.467  1.00  0.00     0.125 A 
HETATM    7  N4  UNL     1      -3.087  33.645   6.707  1.00  0.00    -0.385 N 
ATOM      8  H41 UNL     1      -2.659  33.025   6.018  1.00  0.00     0.157 HD
ATOM      9  H42 UNL     1      -2.759  33.556   7.669  1.00  0.00     0.157 HD
HETATM   10  N5  UNL     1      -4.430  34.647   5.172  1.00  0.00    -0.176 N 
ATOM     11  H5  UNL     1      -4.017  34.037   4.466  1.00  0.00     0.186 HD
HETATM   12  C8  UNL     1      -4.257  35.420   8.824  1.00  0.00     0.261 C 
HETATM   13  N6  UNL     1      -3.799  36.751   8.951  1.00  0.00     0.093 N 
HETATM   14  C14 UNL     1      -3.010  37.174  10.028  1.00  0.00     0.310 C 
HETATM   15  C15 UNL     1      -4.914  37.663   8.826  1.00  0.00     0.279 C 
HETATM   16  C16 UNL     1      -6.097  37.104   8.089  1.00  0.00     0.088 C 
ENDROOT
BRANCH   1  17
HETATM   17  N2  UNL     1      -5.794  35.606   3.435  1.00  0.00    -0.214 N 
HETATM   18  C3  UNL     1      -6.023  36.819   2.721  1.00  0.00     0.171 C 
HETATM   19  C2  UNL     1      -4.988  36.876   1.608  1.00  0.00     0.292 C 
HETATM   20  N1  UNL     1      -5.025  35.646   0.869  1.00  0.00     0.087 N 
HETATM   21  C1  UNL     1      -5.029  35.964  -0.540  1.00  0.00     0.310 C 
HETATM   22  C18 UNL     1      -6.139  34.793   1.216  1.00  0.00     0.292 C 
HETATM   23  C17 UNL     1      -6.039  34.375   2.664  1.00  0.00     0.171 C 
ENDBRANCH   1  17
BRANCH  12  24
HETATM   24  C9  UNL     1      -3.562  34.284   9.313  1.00  0.00     0.041 C 
BRANCH  24  25
HETATM   25  C10 UNL     1      -4.275  33.276  10.197  1.00  0.00     0.007 C 
BRANCH  25  26
HETATM   26  C11 UNL     1      -4.026  31.850   9.744  1.00  0.00    -0.014 A 
HETATM   27  C12 UNL     1      -4.987  31.240   8.786  1.00  0.00     0.005 A 
HETATM   28  C13 UNL     1      -4.911  30.736  10.158  1.00  0.00     0.005 A 
ENDBRANCH  25  26
ENDBRANCH  24  25
ENDBRANCH  12  24
TORSDOF 4
ENDMDL
MODEL 4
REMARK VINA RESULT: -5.822419902      6.840      9.394
REMARK  4 active torsions:
REMARK  status: ('A' for Active; 'I' for Inactive)
REMARK    1  A    between atoms: N2_5  and  C4_6 
REMARK    2  A    between atoms: C8_17  and  C9_18 
REMARK    3  A    between atoms: C9_18  and  C10_19 
REMARK    4  A    between atoms: C10_19  and  C11_20 
ROOT
HETATM    1  C4  UNL     1      -4.609  36.794  12.234  1.00  0.00     0.682 A 
HETATM    2  N3  UNL     1      -3.482  36.014  12.329  1.00  0.00    -0.195 N 
ATOM      3  H3  UNL     1      -2.961  35.994  13.205  1.00  0.00     0.184 HD
HETATM    4  C5  UNL     1      -3.066  35.297  11.319  1.00  0.00     0.040 A 
HETATM    5  C6  UNL     1      -3.775  35.314  10.098  1.00  0.00     0.042 A 
HETATM    6  C7  UNL     1      -4.892  36.075   9.973  1.00  0.00     0.125 A 
HETATM    7  N4  UNL     1      -5.625  36.166   8.924  1.00  0.00    -0.385 N 
ATOM      8  H41 UNL     1      -6.465  36.738   8.830  1.00  0.00     0.157 HD
ATOM      9  H42 UNL     1      -5.345  35.627   8.104  1.00  0.00     0.157 HD
HETATM   10  N5  UNL     1      -5.269  36.800  11.077  1.00  0.00    -0.176 N 
ATOM     11  H5  UNL     1      -6.106  37.379  11.006  1.00  0.00     0.186 HD
HETATM   12  C8  UNL     1      -3.165  34.454   9.067  1.00  0.00     0.261 C 
HETATM   13  N6  UNL     1      -1.891  35.049   8.925  1.00  0.00     0.093 N 
HETATM   14  C14 UNL     1      -1.098  34.862   7.786  1.00  0.00     0.310 C 
HETATM   15  C15 UNL     1      -1.084  34.753  10.088  1.00  0.00     0.279 C 
HETATM   16  C16 UNL     1      -1.869  34.412  11.322  1.00  0.00     0.088 C 
ENDROOT
BRANCH   1  17
HETATM   17  N2  UNL     1      -5.029  37.556  13.350  1.00  0.00    -0.214 N 
HETATM   18  C3  UNL     1      -4.934  38.974  13.469  1.00  0.00     0.171 C 
HETATM   19  C2  UNL     1      -6.357  39.508  13.517  1.00  0.00     0.292 C 
HETATM   20  N1  UNL     1      -7.092  38.799  14.525  1.00  0.00     0.087 N 
HETATM   21  C1  UNL     1      -7.815  39.763  15.321  1.00  0.00     0.310 C 
HETATM   22  C18 UNL     1      -6.267  37.949  15.354  1.00  0.00     0.292 C 
HETATM   23  C17 UNL     1      -5.622  36.873  14.513  1.00  0.00     0.171 C 
ENDBRANCH   1  17
BRANCH  12  24
HETATM   24  C9  UNL     1      -4.037  34.159   7.988  1.00  0.00     0.041 C 
BRANCH  24  25
HETATM   25  C10 UNL     1      -4.751  32.820   7.927  1.00  0.00     0.007 C 
BRANCH  25  26
HETATM   26  C11 UNL     1      -4.158  31.820   8.901  1.00  0.00    -0.014 A 
HETATM   27  C12 UNL     1      -4.829  30.500   9.045  1.00  0.00     0.005 A 
HETATM   28  C13 UNL     1      -4.852  31.451  10.157  1.00  0.00     0.005 A 
ENDBRANCH  25  26
ENDBRANCH  24  25
ENDBRANCH  12  24
TORSDOF 4
ENDMDL
MODEL 5
REMARK VINA RESULT: -5.796313620      1.431      1.900
REMARK  4 active torsions:
REMARK  status: ('A' for Active; 'I' for Inactive)
REMARK    1  A    between atoms: N2_5  and  C4_6 
REMARK    2  A    between atoms: C8_17  and  C9_18 
REMARK    3  A    between atoms: C9_18  and  C10_19 
REMARK    4  A    between atoms: C10_19  and  C11_20 
ROOT
HETATM    1  C4  UNL     1      -5.301  34.700   6.256  1.00  0.00     0.682 A 
HETATM    2  N3  UNL     1      -4.783  35.776   5.577  1.00  0.00    -0.195 N 
ATOM      3  H3  UNL     1      -4.187  36.439   6.072  1.00  0.00     0.184 HD
HETATM    4  C5  UNL     1      -5.040  35.967   4.310  1.00  0.00     0.040 A 
HETATM    5  C6  UNL     1      -5.865  35.059   3.609  1.00  0.00     0.042 A 
HETATM    6  C7  UNL     1      -6.391  33.986   4.253  1.00  0.00     0.125 A 
HETATM    7  N4  UNL     1      -7.142  33.090   3.726  1.00  0.00    -0.385 N 
ATOM      8  H41 UNL     1      -7.538  32.283   4.210  1.00  0.00     0.157 HD
ATOM      9  H42 UNL     1      -7.376  33.190   2.738  1.00  0.00     0.157 HD
HETATM   10  N5  UNL     1      -6.076  33.850   5.583  1.00  0.00    -0.176 N 
ATOM     11  H5  UNL     1      -6.460  33.051   6.086  1.00  0.00     0.186 HD
HETATM   12  C8  UNL     1      -6.053  35.429   2.194  1.00  0.00     0.261 C 
HETATM   13  N6  UNL     1      -6.673  36.692   2.315  1.00  0.00     0.093 N 
HETATM   14  C14 UNL     1      -7.421  37.263   1.278  1.00  0.00     0.310 C 
HETATM   15  C15 UNL     1      -5.704  37.669   2.760  1.00  0.00     0.279 C 
HETATM   16  C16 UNL     1      -4.521  37.090   3.482  1.00  0.00     0.088 C 
ENDROOT
BRANCH   1  17
HETATM   17  N2  UNL     1      -4.999  34.526   7.627  1.00  0.00    -0.214 N 
HETATM   18  C3  UNL     1      -4.502  33.329   8.222  1.00  0.00     0.171 C 
HETATM   19  C2  UNL     1      -3.100  33.638   8.725  1.00  0.00     0.292 C 
HETATM   20  N1  UNL     1      -3.141  34.822   9.535  1.00  0.00     0.087 N 
HETATM   21  C1  UNL     1      -2.391  34.570  10.743  1.00  0.00     0.310 C 
HETATM   22  C18 UNL     1      -4.482  35.273   9.836  1.00  0.00     0.292 C 
HETATM   23  C17 UNL     1      -5.200  35.648   8.562  1.00  0.00     0.171 C 
ENDBRANCH   1  17
BRANCH  12  24
HETATM   24  C9  UNL     1      -6.546  34.366   1.394  1.00  0.00     0.041 C 
BRANCH  24  25
HETATM   25  C10 UNL     1      -6.185  34.291  -0.079  1.00  0.00     0.007 C 
BRANCH  25  26
HETATM   26  C11 UNL     1      -6.699  33.017  -0.723  1.00  0.00    -0.014 A 
HETATM   27  C12 UNL     1      -7.921  33.101  -1.567  1.00  0.00     0.005 A 
HETATM   28  C13 UNL     1      -7.968  32.384  -0.291  1.00  0.00     0.005 A 
ENDBRANCH  25  26
ENDBRANCH  24  25
ENDBRANCH  12  24
TORSDOF 4
ENDMDL
