MODEL 1
REMARK VINA RESULT: -6.373529804      0.000      0.000
REMARK  6 active torsions:
REMARK  status: ('A' for Active; 'I' for Inactive)
REMARK    1  A    between atoms: C2_2  and  N1_4 
REMARK    2  A    between atoms: N1_4  and  C4_6 
REMARK    3  A    between atoms: C5_9  and  N3_10 
REMARK    4  A    between atoms: C11_17  and  N4_18 
REMARK    5  A    between atoms: N4_18  and  C12_20 
REMARK    6  A    between atoms: C12_20  and  C13_21 
ROOT
HETATM    1  C4  UNL     1      -4.738  33.653   7.430  1.00  0.00     0.681 A 
HETATM    2  N2  UNL     1      -4.660  34.965   7.683  1.00  0.00    -0.177 N 
ATOM      3  H2  UNL     1      -4.107  35.296   8.473  1.00  0.00     0.185 HD
HETATM    4  C5  UNL     1      -5.295  35.837   6.913  1.00  0.00     0.122 A 
HETATM    5  C10 UNL     1      -6.040  35.354   5.840  1.00  0.00     0.097 A 
HETATM    6  C11 UNL     1      -6.107  34.002   5.598  1.00  0.00     0.120 A 
HETATM    7  N5  UNL     1      -5.453  33.137   6.393  1.00  0.00    -0.177 N 
ATOM      8  H5  UNL     1      -5.492  32.131   6.226  1.00  0.00     0.185 HD
ENDROOT
BRANCH   6   9
HETATM    9  N4  UNL     1      -6.810  33.555   4.591  1.00  0.00    -0.373 N 
ATOM     10  H4  UNL     1      -7.463  32.780   4.711  1.00  0.00     0.161 HD
BRANCH   9  11
HETATM   11  C12 UNL     1      -6.640  34.179   3.319  1.00  0.00     0.153 C 
BRANCH  11  12
HETATM   12  C13 UNL     1      -6.856  33.239   2.162  1.00  0.00     0.139 C 
HETATM   13  C14 UNL     1      -8.288  32.755   2.085  1.00  0.00     0.034 C 
HETATM   14  C15 UNL     1      -8.325  31.717   0.959  1.00  0.00     0.005 C 
HETATM   15  C16 UNL     1      -8.036  32.487  -0.319  1.00  0.00     0.026 C 
HETATM   16  C17 UNL     1      -7.356  33.797  -0.024  1.00  0.00     0.168 C 
HETATM   17  O2  UNL     1      -6.398  33.728   0.957  1.00  0.00    -0.384 OA
ENDBRANCH  11  12
ENDBRANCH   9  11
ENDBRANCH   6   9
BRANCH   4  18
HETATM   18  N3  UNL     1      -5.284  37.245   7.075  1.00  0.00    -0.363 N 
HETATM   19  C6  UNL     1      -5.956  37.919   8.164  1.00  0.00     0.150 C 
HETATM   20  C7  UNL     1      -5.329  39.316   8.263  1.00  0.00     0.187 C 
HETATM   21  O1  UNL     1      -5.537  40.047   7.122  1.00  0.00    -0.388 OA
HETATM   22  C8  UNL     1      -5.383  39.350   5.954  1.00  0.00     0.187 C 
HETATM   23  C9  UNL     1      -4.581  38.062   6.120  1.00  0.00     0.150 C 
ENDBRANCH   4  18
BRANCH   1  24
HETATM   24  N1  UNL     1      -4.110  32.825   8.189  1.00  0.00    -0.222 N 
ATOM     25  H1  UNL     1      -3.116  32.673   8.014  1.00  0.00     0.178 HD
BRANCH  24  26
HETATM   26  C2  UNL     1      -4.720  32.109   9.258  1.00  0.00     0.091 C 
HETATM   27  C1  UNL     1      -4.805  30.619   8.991  1.00  0.00     0.032 C 
HETATM   28  C3  UNL     1      -3.843  32.346  10.502  1.00  0.00     0.032 C 
ENDBRANCH  24  26
ENDBRANCH   1  24
TORSDOF 6
ENDMDL
MODEL 2
REMARK VINA RESULT: -6.214206742      2.099      4.826
REMARK  6 active torsions:
REMARK  status: ('A' for Active; 'I' for Inactive)
REMARK    1  A    between atoms: C2_2  and  N1_4 
REMARK    2  A    between atoms: N1_4  and  C4_6 
REMARK    3  A    between atoms: C5_9  and  N3_10 
REMARK    4  A    between atoms: C11_17  and  N4_18 
REMARK    5  A    between atoms: N4_18  and  C12_20 
REMARK    6  A    between atoms: C12_20  and  C13_21 
ROOT
HETATM    1  C4  UNL     1      -5.777  36.134   6.434  1.00  0.00     0.681 A 
HETATM    2  N2  UNL     1      -5.260  35.386   7.417  1.00  0.00    -0.177 N 
ATOM      3  H2  UNL     1      -4.881  35.837   8.250  1.00  0.00     0.185 HD
HETATM    4  C5  UNL     1      -5.236  34.065   7.315  1.00  0.00     0.122 A 
HETATM    5  C10 UNL     1      -5.763  33.480   6.165  1.00  0.00     0.097 A 
HETATM    6  C11 UNL     1      -6.290  34.267   5.168  1.00  0.00     0.120 A 
HETATM    7  N5  UNL     1      -6.302  35.606   5.295  1.00  0.00    -0.177 N 
ATOM      8  H5  UNL     1      -6.690  36.202   4.564  1.00  0.00     0.185 HD
ENDROOT
BRANCH   6   9
HETATM    9  N4  UNL     1      -6.780  33.711   4.092  1.00  0.00    -0.373 N 
ATOM     10  H4  UNL     1      -7.350  32.867   4.152  1.00  0.00     0.161 HD
BRANCH   9  11
HETATM   11  C12 UNL     1      -6.497  34.315   2.831  1.00  0.00     0.153 C 
BRANCH  11  12
HETATM   12  C13 UNL     1      -6.738  33.395   1.663  1.00  0.00     0.139 C 
HETATM   13  C14 UNL     1      -8.190  32.981   1.557  1.00  0.00     0.034 C 
HETATM   14  C15 UNL     1      -8.257  31.954   0.423  1.00  0.00     0.005 C 
HETATM   15  C16 UNL     1      -7.908  32.718  -0.844  1.00  0.00     0.026 C 
HETATM   16  C17 UNL     1      -7.171  33.990  -0.527  1.00  0.00     0.168 C 
HETATM   17  O2  UNL     1      -6.235  33.868   0.470  1.00  0.00    -0.384 OA
ENDBRANCH  11  12
ENDBRANCH   9  11
ENDBRANCH   6   9
BRANCH   4  18
HETATM   18  N3  UNL     1      -4.723  33.170   8.286  1.00  0.00    -0.363 N 
HETATM   19  C6  UNL     1      -5.158  31.795   8.400  1.00  0.00     0.150 C 
HETATM   20  C7  UNL     1      -4.072  31.061   9.197  1.00  0.00     0.187 C 
HETATM   21  O1  UNL     1      -3.942  31.569  10.464  1.00  0.00    -0.388 OA
HETATM   22  C8  UNL     1      -3.993  32.934  10.546  1.00  0.00     0.187 C 
HETATM   23  C9  UNL     1      -3.723  33.631   9.215  1.00  0.00     0.150 C 
ENDBRANCH   4  18
BRANCH   1  24
HETATM   24  N1  UNL     1      -5.792  37.415   6.557  1.00  0.00    -0.222 N 
ATOM     25  H1  UNL     1      -6.504  37.831   7.158  1.00  0.00     0.178 HD
BRANCH  24  26
HETATM   26  C2  UNL     1      -4.874  38.285   5.902  1.00  0.00     0.091 C 
HETATM   27  C1  UNL     1      -5.551  39.214   4.913  1.00  0.00     0.032 C 
HETATM   28  C3  UNL     1      -4.206  39.128   7.004  1.00  0.00     0.032 C 
ENDBRANCH  24  26
ENDBRANCH   1  24
TORSDOF 6
ENDMDL
MODEL 3
REMARK VINA RESULT: -6.209833205      6.984     10.003
REMARK  6 active torsions:
REMARK  status: ('A' for Active; 'I' for Inactive)
REMARK    1  A    between atoms: C2_2  and  N1_4 
REMARK    2  A    between atoms: N1_4  and  C4_6 
REMARK    3  A    between atoms: C5_9  and  N3_10 
REMARK    4  A    between atoms: C11_17  and  N4_18 
REMARK    5  A    between atoms: N4_18  and  C12_20 
REMARK    6  A    between atoms: C12_20  and  C13_21 
ROOT
HETATM    1  C4  UNL     1      -6.922  32.738  -1.263  1.00  0.00     0.681 A 
HETATM    2  N2  UNL     1      -7.817  33.357  -2.042  1.00  0.00    -0.177 N 
ATOM      3  H2  UNL     1      -8.808  33.322  -1.801  1.00  0.00     0.185 HD
HETATM    4  C5  UNL     1      -7.426  34.013  -3.125  1.00  0.00     0.122 A 
HETATM    5  C10 UNL     1      -6.067  34.043  -3.426  1.00  0.00     0.097 A 
HETATM    6  C11 UNL     1      -5.163  33.401  -2.612  1.00  0.00     0.120 A 
HETATM    7  N5  UNL     1      -5.585  32.741  -1.519  1.00  0.00    -0.177 N 
ATOM      8  H5  UNL     1      -4.927  32.261  -0.904  1.00  0.00     0.185 HD
ENDROOT
BRANCH   6   9
HETATM    9  N4  UNL     1      -3.889  33.431  -2.902  1.00  0.00    -0.373 N 
ATOM     10  H4  UNL     1      -3.206  33.764  -2.222  1.00  0.00     0.161 HD
BRANCH   9  11
HETATM   11  C12 UNL     1      -3.481  32.988  -4.194  1.00  0.00     0.153 C 
BRANCH  11  12
HETATM   12  C13 UNL     1      -3.917  31.581  -4.506  1.00  0.00     0.139 C 
HETATM   13  C14 UNL     1      -4.476  31.458  -5.908  1.00  0.00     0.034 C 
HETATM   14  C15 UNL     1      -4.997  30.023  -6.033  1.00  0.00     0.005 C 
HETATM   15  C16 UNL     1      -3.768  29.132  -5.954  1.00  0.00     0.026 C 
HETATM   16  C17 UNL     1      -2.612  29.853  -5.314  1.00  0.00     0.168 C 
HETATM   17  O2  UNL     1      -2.958  30.629  -4.235  1.00  0.00    -0.384 OA
ENDBRANCH  11  12
ENDBRANCH   9  11
ENDBRANCH   6   9
BRANCH   4  18
HETATM   18  N3  UNL     1      -8.275  34.709  -4.022  1.00  0.00    -0.363 N 
HETATM   19  C6  UNL     1      -9.718  34.641  -3.955  1.00  0.00     0.150 C 
HETATM   20  C7  UNL     1     -10.245  35.854  -4.734  1.00  0.00     0.187 C 
HETATM   21  O1  UNL     1      -9.881  35.805  -6.055  1.00  0.00    -0.388 OA
HETATM   22  C8  UNL     1      -8.595  35.399  -6.285  1.00  0.00     0.187 C 
HETATM   23  C9  UNL     1      -7.694  35.522  -5.059  1.00  0.00     0.150 C 
ENDBRANCH   4  18
BRANCH   1  24
HETATM   24  N1  UNL     1      -7.325  32.110  -0.214  1.00  0.00    -0.222 N 
ATOM     25  H1  UNL     1      -6.940  31.182  -0.034  1.00  0.00     0.178 HD
BRANCH  24  26
HETATM   26  C2  UNL     1      -8.276  32.633   0.708  1.00  0.00     0.091 C 
HETATM   27  C1  UNL     1      -9.182  31.563   1.285  1.00  0.00     0.032 C 
HETATM   28  C3  UNL     1      -7.469  33.276   1.852  1.00  0.00     0.032 C 
ENDBRANCH  24  26
ENDBRANCH   1  24
TORSDOF 6
ENDMDL
MODEL 4
REMARK VINA RESULT: -6.132311577      2.166      7.724
REMARK  6 active torsions:
REMARK  status: ('A' for Active; 'I' for Inactive)
REMARK    1  A    between atoms: C2_2  and  N1_4 
REMARK    2  A    between atoms: N1_4  and  C4_6 
REMARK    3  A    between atoms: C5_9  and  N3_10 
REMARK    4  A    between atoms: C11_17  and  N4_18 
REMARK    5  A    between atoms: N4_18  and  C12_20 
REMARK    6  A    between atoms: C12_20  and  C13_21 
ROOT
HETATM    1  C4  UNL     1      -5.543  36.072   4.040  1.00  0.00     0.681 A 
HETATM    2  N2  UNL     1      -6.066  35.536   2.930  1.00  0.00    -0.177 N 
ATOM      3  H2  UNL     1      -6.102  36.085   2.071  1.00  0.00     0.185 HD
HETATM    4  C5  UNL     1      -6.537  34.297   2.940  1.00  0.00     0.122 A 
HETATM    5  C10 UNL     1      -6.472  33.574   4.128  1.00  0.00     0.097 A 
HETATM    6  C11 UNL     1      -5.931  34.143   5.256  1.00  0.00     0.120 A 
HETATM    7  N5  UNL     1      -5.460  35.402   5.221  1.00  0.00    -0.177 N 
ATOM      8  H5  UNL     1      -5.054  35.839   6.050  1.00  0.00     0.185 HD
ENDROOT
BRANCH   6   9
HETATM    9  N4  UNL     1      -5.875  33.459   6.368  1.00  0.00    -0.373 N 
ATOM     10  H4  UNL     1      -6.669  32.898   6.678  1.00  0.00     0.161 HD
BRANCH   9  11
HETATM   11  C12 UNL     1      -4.676  33.517   7.138  1.00  0.00     0.153 C 
BRANCH  11  12
HETATM   12  C13 UNL     1      -4.830  32.950   8.525  1.00  0.00     0.139 C 
HETATM   13  C14 UNL     1      -4.552  31.463   8.564  1.00  0.00     0.034 C 
HETATM   14  C15 UNL     1      -4.877  31.007   9.990  1.00  0.00     0.005 C 
HETATM   15  C16 UNL     1      -3.850  31.685  10.881  1.00  0.00     0.026 C 
HETATM   16  C17 UNL     1      -3.238  32.878  10.198  1.00  0.00     0.168 C 
HETATM   17  O2  UNL     1      -4.132  33.644   9.489  1.00  0.00    -0.384 OA
ENDBRANCH  11  12
ENDBRANCH   9  11
ENDBRANCH   6   9
BRANCH   4  18
HETATM   18  N3  UNL     1      -7.107  33.620   1.833  1.00  0.00    -0.363 N 
HETATM   19  C6  UNL     1      -7.008  34.107   0.474  1.00  0.00     0.150 C 
HETATM   20  C7  UNL     1      -7.303  32.909  -0.438  1.00  0.00     0.187 C 
HETATM   21  O1  UNL     1      -8.575  32.432  -0.253  1.00  0.00    -0.388 OA
HETATM   22  C8  UNL     1      -8.983  32.367   1.052  1.00  0.00     0.187 C 
HETATM   23  C9  UNL     1      -7.826  32.391   2.048  1.00  0.00     0.150 C 
ENDBRANCH   4  18
BRANCH   1  24
HETATM   24  N1  UNL     1      -5.089  37.276   4.005  1.00  0.00    -0.222 N 
ATOM     25  H1  UNL     1      -4.210  37.443   3.516  1.00  0.00     0.178 HD
BRANCH  24  26
HETATM   26  C2  UNL     1      -5.742  38.388   4.611  1.00  0.00     0.091 C 
HETATM   27  C1  UNL     1      -4.869  39.098   5.627  1.00  0.00     0.032 C 
HETATM   28  C3  UNL     1      -6.086  39.368   3.473  1.00  0.00     0.032 C 
ENDBRANCH  24  26
ENDBRANCH   1  24
TORSDOF 6
ENDMDL
MODEL 5
REMARK VINA RESULT: -6.086071231      2.467      4.769
REMARK  6 active torsions:
REMARK  status: ('A' for Active; 'I' for Inactive)
REMARK    1  A    between atoms: C2_2  and  N1_4 
REMARK    2  A    between atoms: N1_4  and  C4_6 
REMARK    3  A    between atoms: C5_9  and  N3_10 
REMARK    4  A    between atoms: C11_17  and  N4_18 
REMARK    5  A    between atoms: N4_18  and  C12_20 
REMARK    6  A    between atoms: C12_20  and  C13_21 
ROOT
HETATM    1  C4  UNL     1      -4.224  35.801   6.168  1.00  0.00     0.681 A 
HETATM    2  N2  UNL     1      -4.036  34.937   7.173  1.00  0.00    -0.177 N 
ATOM      3  H2  UNL     1      -3.372  35.160   7.915  1.00  0.00     0.185 HD
HETATM    4  C5  UNL     1      -4.705  33.794   7.210  1.00  0.00     0.122 A 
HETATM    5  C10 UNL     1      -5.604  33.520   6.183  1.00  0.00     0.097 A 
HETATM    6  C11 UNL     1      -5.783  34.421   5.160  1.00  0.00     0.120 A 
HETATM    7  N5  UNL     1      -5.091  35.575   5.144  1.00  0.00    -0.177 N 
ATOM      8  H5  UNL     1      -5.213  36.254   4.393  1.00  0.00     0.185 HD
ENDROOT
BRANCH   6   9
HETATM    9  N4  UNL     1      -6.627  34.156   4.198  1.00  0.00    -0.373 N 
ATOM     10  H4  UNL     1      -7.513  33.689   4.394  1.00  0.00     0.161 HD
BRANCH   9  11
HETATM   11  C12 UNL     1      -6.277  34.536   2.869  1.00  0.00     0.153 C 
BRANCH  11  12
HETATM   12  C13 UNL     1      -6.584  33.473   1.846  1.00  0.00     0.139 C 
HETATM   13  C14 UNL     1      -7.962  32.878   2.043  1.00  0.00     0.034 C 
HETATM   14  C15 UNL     1      -8.079  31.735   1.030  1.00  0.00     0.005 C 
HETATM   15  C16 UNL     1      -8.060  32.394  -0.338  1.00  0.00     0.026 C 
HETATM   16  C17 UNL     1      -7.462  33.773  -0.271  1.00  0.00     0.168 C 
HETATM   17  O2  UNL     1      -6.362  33.873   0.546  1.00  0.00    -0.384 OA
ENDBRANCH  11  12
ENDBRANCH   9  11
ENDBRANCH   6   9
BRANCH   4  18
HETATM   18  N3  UNL     1      -4.597  32.805   8.220  1.00  0.00    -0.363 N 
HETATM   19  C6  UNL     1      -5.344  31.567   8.194  1.00  0.00     0.150 C 
HETATM   20  C7  UNL     1      -4.619  30.603   9.144  1.00  0.00     0.187 C 
HETATM   21  O1  UNL     1      -4.619  31.069  10.433  1.00  0.00    -0.388 OA
HETATM   22  C8  UNL     1      -4.377  32.410  10.563  1.00  0.00     0.187 C 
HETATM   23  C9  UNL     1      -3.713  33.026   9.335  1.00  0.00     0.150 C 
ENDBRANCH   4  18
BRANCH   1  24
HETATM   24  N1  UNL     1      -3.565  36.907   6.154  1.00  0.00    -0.222 N 
ATOM     25  H1  UNL     1      -4.092  37.780   6.128  1.00  0.00     0.178 HD
BRANCH  24  26
HETATM   26  C2  UNL     1      -2.142  36.983   6.173  1.00  0.00     0.091 C 
HETATM   27  C1  UNL     1      -1.511  36.477   4.891  1.00  0.00     0.032 C 
HETATM   28  C3  UNL     1      -1.785  38.470   6.355  1.00  0.00     0.032 C 
ENDBRANCH  24  26
ENDBRANCH   1  24
TORSDOF 6
ENDMDL
