MODEL 1
REMARK VINA RESULT: -6.710123190      0.000      0.000
REMARK  6 active torsions:
REMARK  status: ('A' for Active; 'I' for Inactive)
REMARK    1  A    between atoms: C4_5  and  N2_6 
REMARK    2  A    between atoms: N2_6  and  C5_8 
REMARK    3  A    between atoms: C7_12  and  C8_13 
REMARK    4  A    between atoms: C8_13  and  C9_14 
REMARK    5  A    between atoms: C11_17  and  N5_18 
REMARK    6  A    between atoms: N5_18  and  C12_20 
ROOT
HETATM    1  C9  UNL     1      -7.420  32.299   0.029  1.00  0.00     0.128 C 
HETATM    2  C10 UNL     1      -8.691  32.009   0.710  1.00  0.00     0.059 C 
HETATM    3  N4  UNL     1      -9.696  31.796   1.245  1.00  0.00    -0.197 NA
ENDROOT
BRANCH   1   4
HETATM    4  C8  UNL     1      -7.656  33.372  -1.011  1.00  0.00     0.058 C 
BRANCH   4   5
HETATM    5  C7  UNL     1      -6.804  33.204  -2.197  1.00  0.00     0.003 A 
HETATM    6  C6  UNL     1      -5.485  32.843  -2.029  1.00  0.00     0.117 A 
HETATM    7  N3  UNL     1      -4.753  32.699  -3.141  1.00  0.00    -0.201 N 
HETATM    8  C5  UNL     1      -5.247  32.890  -4.395  1.00  0.00     0.679 A 
ATOM      9  H3  UNL     1      -3.773  32.432  -3.043  1.00  0.00     0.183 HD
HETATM   10  N6  UNL     1      -6.537  33.241  -4.521  1.00  0.00    -0.176 N 
HETATM   11  C11 UNL     1      -7.350  33.409  -3.454  1.00  0.00     0.125 A 
ATOM     12  H6  UNL     1      -6.918  33.386  -5.455  1.00  0.00     0.186 HD
BRANCH   8  13
HETATM   13  N2  UNL     1      -4.482  32.729  -5.371  1.00  0.00    -0.219 N 
ATOM     14  H2  UNL     1      -3.659  33.330  -5.354  1.00  0.00     0.178 HD
BRANCH  13  15
HETATM   15  C4  UNL     1      -4.543  31.863  -6.502  1.00  0.00     0.127 C 
HETATM   16  C3  UNL     1      -4.964  30.506  -6.000  1.00  0.00     0.049 C 
HETATM   17  C2  UNL     1      -3.807  29.708  -5.455  1.00  0.00     0.151 C 
HETATM   18  N1  UNL     1      -2.644  29.812  -6.272  1.00  0.00    -0.298 N 
HETATM   19  C1  UNL     1      -2.564  28.882  -7.351  1.00  0.00     0.178 C 
HETATM   20  O1  UNL     1      -2.272  31.053  -6.539  1.00  0.00    -0.281 OA
HETATM   21  C17 UNL     1      -3.202  31.835  -7.191  1.00  0.00     0.226 C 
ENDBRANCH  13  15
ENDBRANCH   8  13
BRANCH  11  22
HETATM   22  N5  UNL     1      -8.581  33.741  -3.523  1.00  0.00    -0.371 N 
ATOM     23  H5  UNL     1      -9.269  33.221  -2.980  1.00  0.00     0.161 HD
BRANCH  22  24
HETATM   24  C12 UNL     1      -9.011  34.816  -4.336  1.00  0.00     0.083 C 
HETATM   25  C13 UNL     1     -10.510  35.059  -4.265  1.00  0.00     0.025 C 
HETATM   26  C14 UNL     1     -10.630  36.387  -5.003  1.00  0.00     0.002 C 
HETATM   27  C15 UNL     1      -9.293  37.078  -4.818  1.00  0.00     0.002 C 
HETATM   28  C16 UNL     1      -8.504  36.170  -3.891  1.00  0.00     0.025 C 
ENDBRANCH  22  24
ENDBRANCH  11  22
ENDBRANCH   4   5
ENDBRANCH   1   4
TORSDOF 6
ENDMDL
MODEL 2
REMARK VINA RESULT: -6.682507402      6.566      9.992
REMARK  6 active torsions:
REMARK  status: ('A' for Active; 'I' for Inactive)
REMARK    1  A    between atoms: C4_5  and  N2_6 
REMARK    2  A    between atoms: N2_6  and  C5_8 
REMARK    3  A    between atoms: C7_12  and  C8_13 
REMARK    4  A    between atoms: C8_13  and  C9_14 
REMARK    5  A    between atoms: C11_17  and  N5_18 
REMARK    6  A    between atoms: N5_18  and  C12_20 
ROOT
HETATM    1  C9  UNL     1      -4.165  37.415   6.649  1.00  0.00     0.128 C 
HETATM    2  C10 UNL     1      -5.513  37.574   7.215  1.00  0.00     0.059 C 
HETATM    3  N4  UNL     1      -6.580  37.686   7.652  1.00  0.00    -0.197 NA
ENDROOT
BRANCH   1   4
HETATM    4  C8  UNL     1      -3.871  35.940   6.491  1.00  0.00     0.058 C 
BRANCH   4   5
HETATM    5  C7  UNL     1      -4.636  35.327   5.396  1.00  0.00     0.003 A 
HETATM    6  C6  UNL     1      -4.421  35.757   4.105  1.00  0.00     0.117 A 
HETATM    7  N3  UNL     1      -5.141  35.165   3.144  1.00  0.00    -0.201 N 
HETATM    8  C5  UNL     1      -6.052  34.182   3.386  1.00  0.00     0.679 A 
ATOM      9  H3  UNL     1      -4.999  35.465   2.180  1.00  0.00     0.183 HD
HETATM   10  N6  UNL     1      -6.235  33.787   4.657  1.00  0.00    -0.176 N 
HETATM   11  C11 UNL     1      -5.553  34.329   5.690  1.00  0.00     0.125 A 
ATOM     12  H6  UNL     1      -6.914  33.052   4.849  1.00  0.00     0.186 HD
BRANCH   8  13
HETATM   13  N2  UNL     1      -6.672  33.690   2.419  1.00  0.00    -0.219 N 
ATOM     14  H2  UNL     1      -6.672  32.670   2.403  1.00  0.00     0.178 HD
BRANCH  13  15
HETATM   15  C4  UNL     1      -7.380  34.285   1.334  1.00  0.00     0.127 C 
HETATM   16  C3  UNL     1      -8.516  33.358   0.983  1.00  0.00     0.049 C 
HETATM   17  C2  UNL     1      -8.083  32.231   0.081  1.00  0.00     0.151 C 
HETATM   18  N1  UNL     1      -7.206  32.670  -0.953  1.00  0.00    -0.298 N 
HETATM   19  C1  UNL     1      -7.842  33.155  -2.136  1.00  0.00     0.178 C 
HETATM   20  O1  UNL     1      -6.159  33.357  -0.528  1.00  0.00    -0.281 OA
HETATM   21  C17 UNL     1      -6.439  34.509   0.177  1.00  0.00     0.226 C 
ENDBRANCH  13  15
ENDBRANCH   8  13
BRANCH  11  22
HETATM   22  N5  UNL     1      -5.693  33.989   6.912  1.00  0.00    -0.371 N 
ATOM     23  H5  UNL     1      -6.306  34.536   7.516  1.00  0.00     0.161 HD
BRANCH  22  24
HETATM   24  C12 UNL     1      -5.015  32.868   7.448  1.00  0.00     0.083 C 
HETATM   25  C13 UNL     1      -4.580  33.064   8.891  1.00  0.00     0.025 C 
HETATM   26  C14 UNL     1      -4.137  31.654   9.261  1.00  0.00     0.002 C 
HETATM   27  C15 UNL     1      -4.935  30.727   8.364  1.00  0.00     0.002 C 
HETATM   28  C16 UNL     1      -5.881  31.636   7.599  1.00  0.00     0.025 C 
ENDBRANCH  22  24
ENDBRANCH  11  22
ENDBRANCH   4   5
ENDBRANCH   1   4
TORSDOF 6
ENDMDL
MODEL 3
REMARK VINA RESULT: -6.601276998      1.214      1.572
REMARK  6 active torsions:
REMARK  status: ('A' for Active; 'I' for Inactive)
REMARK    1  A    between atoms: C4_5  and  N2_6 
REMARK    2  A    between atoms: N2_6  and  C5_8 
REMARK    3  A    between atoms: C7_12  and  C8_13 
REMARK    4  A    between atoms: C8_13  and  C9_14 
REMARK    5  A    between atoms: C11_17  and  N5_18 
REMARK    6  A    between atoms: N5_18  and  C12_20 
ROOT
HETATM    1  C9  UNL     1      -7.562  32.362   0.179  1.00  0.00     0.128 C 
HETATM    2  C10 UNL     1      -8.751  31.733   0.771  1.00  0.00     0.059 C 
HETATM    3  N4  UNL     1      -9.697  31.250   1.234  1.00  0.00    -0.197 NA
ENDROOT
BRANCH   1   4
HETATM    4  C8  UNL     1      -7.982  33.154  -1.039  1.00  0.00     0.058 C 
BRANCH   4   5
HETATM    5  C7  UNL     1      -6.923  33.227  -2.056  1.00  0.00     0.003 A 
HETATM    6  C6  UNL     1      -5.614  33.026  -1.676  1.00  0.00     0.117 A 
HETATM    7  N3  UNL     1      -4.688  33.100  -2.640  1.00  0.00    -0.201 N 
HETATM    8  C5  UNL     1      -4.981  33.360  -3.945  1.00  0.00     0.679 A 
ATOM      9  H3  UNL     1      -3.711  32.955  -2.384  1.00  0.00     0.183 HD
HETATM   10  N6  UNL     1      -6.268  33.550  -4.278  1.00  0.00    -0.176 N 
HETATM   11  C11 UNL     1      -7.269  33.494  -3.372  1.00  0.00     0.125 A 
ATOM     12  H6  UNL     1      -6.499  33.744  -5.252  1.00  0.00     0.186 HD
BRANCH   8  13
HETATM   13  N2  UNL     1      -4.044  33.406  -4.771  1.00  0.00    -0.219 N 
ATOM     14  H2  UNL     1      -3.683  34.346  -4.933  1.00  0.00     0.178 HD
BRANCH  13  15
HETATM   15  C4  UNL     1      -3.385  32.394  -5.528  1.00  0.00     0.127 C 
HETATM   16  C3  UNL     1      -3.331  32.873  -6.956  1.00  0.00     0.049 C 
HETATM   17  C2  UNL     1      -4.609  32.598  -7.706  1.00  0.00     0.151 C 
HETATM   18  N1  UNL     1      -5.130  31.299  -7.431  1.00  0.00    -0.298 N 
HETATM   19  C1  UNL     1      -4.618  30.246  -8.247  1.00  0.00     0.178 C 
HETATM   20  O1  UNL     1      -5.274  31.028  -6.145  1.00  0.00    -0.281 OA
HETATM   21  C17 UNL     1      -4.126  31.089  -5.383  1.00  0.00     0.226 C 
ENDBRANCH  13  15
ENDBRANCH   8  13
BRANCH  11  22
HETATM   22  N5  UNL     1      -8.504  33.668  -3.641  1.00  0.00    -0.371 N 
ATOM     23  H5  UNL     1      -9.187  32.983  -3.315  1.00  0.00     0.161 HD
BRANCH  22  24
HETATM   24  C12 UNL     1      -8.949  34.790  -4.380  1.00  0.00     0.083 C 
HETATM   25  C13 UNL     1     -10.454  34.987  -4.324  1.00  0.00     0.025 C 
HETATM   26  C14 UNL     1     -10.597  36.363  -4.962  1.00  0.00     0.002 C 
HETATM   27  C15 UNL     1      -9.284  37.073  -4.697  1.00  0.00     0.002 C 
HETATM   28  C16 UNL     1      -8.488  36.119  -3.824  1.00  0.00     0.025 C 
ENDBRANCH  22  24
ENDBRANCH  11  22
ENDBRANCH   4   5
ENDBRANCH   1   4
TORSDOF 6
ENDMDL
MODEL 4
REMARK VINA RESULT: -6.369547157      1.531      4.123
REMARK  6 active torsions:
REMARK  status: ('A' for Active; 'I' for Inactive)
REMARK    1  A    between atoms: C4_5  and  N2_6 
REMARK    2  A    between atoms: N2_6  and  C5_8 
REMARK    3  A    between atoms: C7_12  and  C8_13 
REMARK    4  A    between atoms: C8_13  and  C9_14 
REMARK    5  A    between atoms: C11_17  and  N5_18 
REMARK    6  A    between atoms: N5_18  and  C12_20 
ROOT
HETATM    1  C9  UNL     1      -9.244  35.519  -4.523  1.00  0.00     0.128 C 
HETATM    2  C10 UNL     1     -10.654  35.101  -4.524  1.00  0.00     0.059 C 
HETATM    3  N4  UNL     1     -11.760  34.757  -4.517  1.00  0.00    -0.197 NA
ENDROOT
BRANCH   1   4
HETATM    4  C8  UNL     1      -8.595  35.051  -3.239  1.00  0.00     0.058 C 
BRANCH   4   5
HETATM    5  C7  UNL     1      -7.392  34.240  -3.480  1.00  0.00     0.003 A 
HETATM    6  C6  UNL     1      -7.078  33.874  -4.770  1.00  0.00     0.117 A 
HETATM    7  N3  UNL     1      -5.971  33.139  -4.935  1.00  0.00    -0.201 N 
HETATM    8  C5  UNL     1      -5.167  32.750  -3.907  1.00  0.00     0.679 A 
ATOM      9  H3  UNL     1      -5.716  32.855  -5.881  1.00  0.00     0.183 HD
HETATM   10  N6  UNL     1      -5.505  33.126  -2.662  1.00  0.00    -0.176 N 
HETATM   11  C11 UNL     1      -6.604  33.868  -2.402  1.00  0.00     0.125 A 
ATOM     12  H6  UNL     1      -4.910  32.841  -1.885  1.00  0.00     0.186 HD
BRANCH   8  13
HETATM   13  N2  UNL     1      -4.154  32.066  -4.165  1.00  0.00    -0.219 N 
ATOM     14  H2  UNL     1      -3.736  31.621  -3.348  1.00  0.00     0.178 HD
BRANCH  13  15
HETATM   15  C4  UNL     1      -3.471  31.791  -5.386  1.00  0.00     0.127 C 
HETATM   16  C3  UNL     1      -4.283  30.758  -6.126  1.00  0.00     0.049 C 
HETATM   17  C2  UNL     1      -4.001  29.355  -5.654  1.00  0.00     0.151 C 
HETATM   18  N1  UNL     1      -2.609  29.122  -5.448  1.00  0.00    -0.298 N 
HETATM   19  C1  UNL     1      -1.878  28.707  -6.601  1.00  0.00     0.178 C 
HETATM   20  O1  UNL     1      -2.016  30.008  -4.666  1.00  0.00    -0.281 OA
HETATM   21  C17 UNL     1      -2.070  31.319  -5.088  1.00  0.00     0.226 C 
ENDBRANCH  13  15
ENDBRANCH   8  13
BRANCH  11  22
HETATM   22  N5  UNL     1      -6.966  34.248  -1.238  1.00  0.00    -0.371 N 
ATOM     23  H5  UNL     1      -7.190  35.231  -1.082  1.00  0.00     0.161 HD
BRANCH  22  24
HETATM   24  C12 UNL     1      -7.062  33.337  -0.160  1.00  0.00     0.083 C 
HETATM   25  C13 UNL     1      -7.547  33.982   1.128  1.00  0.00     0.025 C 
HETATM   26  C14 UNL     1      -7.795  32.756   1.998  1.00  0.00     0.002 C 
HETATM   27  C15 UNL     1      -8.100  31.627   1.033  1.00  0.00     0.002 C 
HETATM   28  C16 UNL     1      -8.125  32.276  -0.340  1.00  0.00     0.025 C 
ENDBRANCH  22  24
ENDBRANCH  11  22
ENDBRANCH   4   5
ENDBRANCH   1   4
TORSDOF 6
ENDMDL
MODEL 5
REMARK VINA RESULT: -6.324212321      6.662     10.072
REMARK  6 active torsions:
REMARK  status: ('A' for Active; 'I' for Inactive)
REMARK    1  A    between atoms: C4_5  and  N2_6 
REMARK    2  A    between atoms: N2_6  and  C5_8 
REMARK    3  A    between atoms: C7_12  and  C8_13 
REMARK    4  A    between atoms: C8_13  and  C9_14 
REMARK    5  A    between atoms: C11_17  and  N5_18 
REMARK    6  A    between atoms: N5_18  and  C12_20 
ROOT
HETATM    1  C9  UNL     1      -2.282  35.131   6.140  1.00  0.00     0.128 C 
HETATM    2  C10 UNL     1      -1.732  35.024   7.499  1.00  0.00     0.059 C 
HETATM    3  N4  UNL     1      -1.307  34.953   8.575  1.00  0.00    -0.197 NA
ENDROOT
BRANCH   1   4
HETATM    4  C8  UNL     1      -3.688  35.681   6.222  1.00  0.00     0.058 C 
BRANCH   4   5
HETATM    5  C7  UNL     1      -4.580  35.099   5.209  1.00  0.00     0.003 A 
HETATM    6  C6  UNL     1      -4.414  35.451   3.888  1.00  0.00     0.117 A 
HETATM    7  N3  UNL     1      -5.250  34.890   3.005  1.00  0.00    -0.201 N 
HETATM    8  C5  UNL     1      -6.231  34.011   3.353  1.00  0.00     0.679 A 
ATOM      9  H3  UNL     1      -5.147  35.133   2.020  1.00  0.00     0.183 HD
HETATM   10  N6  UNL     1      -6.363  33.692   4.650  1.00  0.00    -0.176 N 
HETATM   11  C11 UNL     1      -5.565  34.209   5.610  1.00  0.00     0.125 A 
ATOM     12  H6  UNL     1      -7.094  33.034   4.922  1.00  0.00     0.186 HD
BRANCH   8  13
HETATM   13  N2  UNL     1      -6.959  33.541   2.452  1.00  0.00    -0.219 N 
ATOM     14  H2  UNL     1      -7.122  32.538   2.535  1.00  0.00     0.178 HD
BRANCH  13  15
HETATM   15  C4  UNL     1      -7.604  34.141   1.332  1.00  0.00     0.127 C 
HETATM   16  C3  UNL     1      -8.639  33.163   0.839  1.00  0.00     0.049 C 
HETATM   17  C2  UNL     1      -8.053  32.109  -0.066  1.00  0.00     0.151 C 
HETATM   18  N1  UNL     1      -7.117  32.652  -0.995  1.00  0.00    -0.298 N 
HETATM   19  C1  UNL     1      -7.675  33.152  -2.210  1.00  0.00     0.178 C 
HETATM   20  O1  UNL     1      -6.162  33.382  -0.446  1.00  0.00    -0.281 OA
HETATM   21  C17 UNL     1      -6.580  34.479   0.278  1.00  0.00     0.226 C 
ENDBRANCH  13  15
ENDBRANCH   8  13
BRANCH  11  22
HETATM   22  N5  UNL     1      -5.652  33.936   6.854  1.00  0.00    -0.371 N 
ATOM     23  H5  UNL     1      -6.201  34.545   7.461  1.00  0.00     0.161 HD
BRANCH  22  24
HETATM   24  C12 UNL     1      -5.005  32.807   7.410  1.00  0.00     0.083 C 
HETATM   25  C13 UNL     1      -4.526  33.031   8.834  1.00  0.00     0.025 C 
HETATM   26  C14 UNL     1      -4.128  31.618   9.239  1.00  0.00     0.002 C 
HETATM   27  C15 UNL     1      -4.983  30.695   8.393  1.00  0.00     0.002 C 
HETATM   28  C16 UNL     1      -5.913  31.616   7.622  1.00  0.00     0.025 C 
ENDBRANCH  22  24
ENDBRANCH  11  22
ENDBRANCH   4   5
ENDBRANCH   1   4
TORSDOF 6
ENDMDL
