MODEL 1
REMARK VINA RESULT: -6.508188872      0.000      0.000
REMARK  5 active torsions:
REMARK  status: ('A' for Active; 'I' for Inactive)
REMARK    1  A    between atoms: C3_3  and  N1_4 
REMARK    2  A    between atoms: N2_7  and  C6_8 
REMARK    3  A    between atoms: C6_8  and  C7_9 
REMARK    4  A    between atoms: C7_9  and  N3_11 
REMARK    5  A    between atoms: N3_11  and  C9_13 
ROOT
HETATM    1  C1  UNL     1      -4.766  30.452   8.883  1.00  0.00     0.013 C 
HETATM    2  C2  UNL     1      -4.568  31.647   8.808  1.00  0.00    -0.087 C 
HETATM    3  C3  UNL     1      -4.346  33.103   8.696  1.00  0.00     0.365 C 
ENDROOT
BRANCH   3   4
HETATM    4  N1  UNL     1      -4.244  33.422   7.294  1.00  0.00     0.102 N 
HETATM    5  C4  UNL     1      -3.391  34.580   7.147  1.00  0.00     0.303 C 
HETATM    6  C5  UNL     1      -3.206  34.749   5.654  1.00  0.00     0.302 C 
HETATM    7  N2  UNL     1      -4.456  35.198   5.104  1.00  0.00     0.093 N 
HETATM    8  C16 UNL     1      -5.562  34.352   5.420  1.00  0.00     0.302 C 
HETATM    9  C17 UNL     1      -5.516  33.593   6.680  1.00  0.00     0.303 C 
BRANCH   7  10
HETATM   10  C6  UNL     1      -4.372  35.542   3.714  1.00  0.00     0.297 C 
BRANCH  10  11
HETATM   11  C7  UNL     1      -5.648  35.464   2.944  1.00  0.00     0.107 C 
HETATM   12  C8  UNL     1      -6.265  36.828   2.737  1.00  0.00     0.034 C 
BRANCH  11  13
HETATM   13  N3  UNL     1      -5.455  34.716   1.730  1.00  0.00    -0.368 N 
ATOM     14  H3  UNL     1      -4.502  34.699   1.367  1.00  0.00     0.161 HD
BRANCH  13  15
HETATM   15  C9  UNL     1      -6.314  34.076   1.051  1.00  0.00     0.134 A 
HETATM   16  N4  UNL     1      -7.122  33.101   1.491  1.00  0.00    -0.331 N 
HETATM   17  C10 UNL     1      -8.025  32.440   0.752  1.00  0.00     0.079 A 
ATOM     18  H4  UNL     1      -7.043  32.839   2.474  1.00  0.00     0.168 HD
HETATM   19  C11 UNL     1      -8.888  31.365   1.318  1.00  0.00     0.089 C 
HETATM   20  N5  UNL     1      -8.155  32.764  -0.549  1.00  0.00    -0.343 N 
HETATM   21  C12 UNL     1      -7.375  33.744  -1.081  1.00  0.00     0.089 A 
ATOM     22  H5  UNL     1      -8.834  32.276  -1.132  1.00  0.00     0.167 HD
HETATM   23  C13 UNL     1      -7.328  34.242  -2.366  1.00  0.00     0.051 A 
HETATM   24  C15 UNL     1      -6.454  34.408  -0.304  1.00  0.00     0.120 A 
HETATM   25  C14 UNL     1      -8.141  33.826  -3.534  1.00  0.00     0.072 C 
HETATM   26  N6  UNL     1      -6.379  35.203  -2.349  1.00  0.00    -0.302 N 
HETATM   27  N7  UNL     1      -5.872  35.284  -1.114  1.00  0.00    -0.295 N 
ATOM     28  H6  UNL     1      -6.095  35.772  -3.147  1.00  0.00     0.186 HD
ATOM     29  H7  UNL     1      -5.137  35.932  -0.832  1.00  0.00     0.187 HD
ENDBRANCH  13  15
ENDBRANCH  11  13
ENDBRANCH  10  11
ENDBRANCH   7  10
ENDBRANCH   3   4
TORSDOF 5
ENDMDL
MODEL 2
REMARK VINA RESULT: -6.472041408      1.093      1.134
REMARK  5 active torsions:
REMARK  status: ('A' for Active; 'I' for Inactive)
REMARK    1  A    between atoms: C3_3  and  N1_4 
REMARK    2  A    between atoms: N2_7  and  C6_8 
REMARK    3  A    between atoms: C6_8  and  C7_9 
REMARK    4  A    between atoms: C7_9  and  N3_11 
REMARK    5  A    between atoms: N3_11  and  C9_13 
ROOT
HETATM    1  C1  UNL     1      -4.777  30.829   8.922  1.00  0.00     0.013 C 
HETATM    2  C2  UNL     1      -4.448  31.970   8.668  1.00  0.00    -0.087 C 
HETATM    3  C3  UNL     1      -4.071  33.360   8.344  1.00  0.00     0.365 C 
ENDROOT
BRANCH   3   4
HETATM    4  N1  UNL     1      -4.262  33.544   6.927  1.00  0.00     0.102 N 
HETATM    5  C4  UNL     1      -3.582  34.755   6.524  1.00  0.00     0.303 C 
HETATM    6  C5  UNL     1      -3.693  34.788   5.014  1.00  0.00     0.302 C 
HETATM    7  N2  UNL     1      -5.063  35.064   4.680  1.00  0.00     0.093 N 
HETATM    8  C16 UNL     1      -5.995  34.157   5.272  1.00  0.00     0.302 C 
HETATM    9  C17 UNL     1      -5.636  33.537   6.557  1.00  0.00     0.303 C 
BRANCH   7  10
HETATM   10  C6  UNL     1      -5.273  35.272   3.277  1.00  0.00     0.297 C 
BRANCH  10  11
HETATM   11  C7  UNL     1      -6.155  36.420   2.912  1.00  0.00     0.107 C 
HETATM   12  C8  UNL     1      -5.357  37.651   2.549  1.00  0.00     0.034 C 
BRANCH  11  13
HETATM   13  N3  UNL     1      -7.108  36.021   1.911  1.00  0.00    -0.368 N 
ATOM     14  H3  UNL     1      -7.860  36.685   1.727  1.00  0.00     0.161 HD
BRANCH  13  15
HETATM   15  C9  UNL     1      -7.135  34.953   1.227  1.00  0.00     0.134 A 
HETATM   16  N4  UNL     1      -7.805  33.829   1.517  1.00  0.00    -0.331 N 
HETATM   17  C10 UNL     1      -7.819  32.713   0.774  1.00  0.00     0.079 A 
ATOM     18  H4  UNL     1      -8.351  33.822   2.378  1.00  0.00     0.168 HD
HETATM   19  C11 UNL     1      -8.591  31.501   1.168  1.00  0.00     0.089 C 
HETATM   20  N5  UNL     1      -7.108  32.691  -0.370  1.00  0.00    -0.343 N 
HETATM   21  C12 UNL     1      -6.398  33.789  -0.744  1.00  0.00     0.089 A 
ATOM     22  H5  UNL     1      -7.102  31.854  -0.953  1.00  0.00     0.167 HD
HETATM   23  C13 UNL     1      -5.608  34.000  -1.854  1.00  0.00     0.051 A 
HETATM   24  C15 UNL     1      -6.397  34.924   0.035  1.00  0.00     0.120 A 
HETATM   25  C14 UNL     1      -5.321  33.057  -2.960  1.00  0.00     0.072 C 
HETATM   26  N6  UNL     1      -5.139  35.262  -1.733  1.00  0.00    -0.302 N 
HETATM   27  N7  UNL     1      -5.621  35.792  -0.603  1.00  0.00    -0.295 N 
ATOM     28  H6  UNL     1      -4.521  35.732  -2.394  1.00  0.00     0.186 HD
ATOM     29  H7  UNL     1      -5.418  36.736  -0.275  1.00  0.00     0.187 HD
ENDBRANCH  13  15
ENDBRANCH  11  13
ENDBRANCH  10  11
ENDBRANCH   7  10
ENDBRANCH   3   4
TORSDOF 5
ENDMDL
MODEL 3
REMARK VINA RESULT: -6.305626149      0.942      1.448
REMARK  5 active torsions:
REMARK  status: ('A' for Active; 'I' for Inactive)
REMARK    1  A    between atoms: C3_3  and  N1_4 
REMARK    2  A    between atoms: N2_7  and  C6_8 
REMARK    3  A    between atoms: C6_8  and  C7_9 
REMARK    4  A    between atoms: C7_9  and  N3_11 
REMARK    5  A    between atoms: N3_11  and  C9_13 
ROOT
HETATM    1  C1  UNL     1      -3.731  31.997  10.735  1.00  0.00     0.013 C 
HETATM    2  C2  UNL     1      -4.269  31.804   9.663  1.00  0.00    -0.087 C 
HETATM    3  C3  UNL     1      -4.903  31.585   8.348  1.00  0.00     0.365 C 
ENDROOT
BRANCH   3   4
HETATM    4  N1  UNL     1      -4.994  32.864   7.690  1.00  0.00     0.102 N 
HETATM    5  C4  UNL     1      -5.889  32.738   6.561  1.00  0.00     0.303 C 
HETATM    6  C5  UNL     1      -6.054  34.146   6.028  1.00  0.00     0.302 C 
HETATM    7  N2  UNL     1      -4.814  34.531   5.413  1.00  0.00     0.093 N 
HETATM    8  C16 UNL     1      -3.680  34.408   6.273  1.00  0.00     0.302 C 
HETATM    9  C17 UNL     1      -3.719  33.381   7.326  1.00  0.00     0.303 C 
BRANCH   7  10
HETATM   10  C6  UNL     1      -4.887  35.792   4.732  1.00  0.00     0.297 C 
BRANCH  10  11
HETATM   11  C7  UNL     1      -5.885  35.880   3.626  1.00  0.00     0.107 C 
HETATM   12  C8  UNL     1      -6.160  37.311   3.227  1.00  0.00     0.034 C 
BRANCH  11  13
HETATM   13  N3  UNL     1      -5.497  35.029   2.532  1.00  0.00    -0.368 N 
ATOM     14  H3  UNL     1      -4.494  34.879   2.423  1.00  0.00     0.161 HD
BRANCH  13  15
HETATM   15  C9  UNL     1      -6.237  34.441   1.687  1.00  0.00     0.134 A 
HETATM   16  N4  UNL     1      -7.010  33.368   1.904  1.00  0.00    -0.331 N 
HETATM   17  C10 UNL     1      -7.787  32.766   0.992  1.00  0.00     0.079 A 
ATOM     18  H4  UNL     1      -7.008  32.975   2.845  1.00  0.00     0.168 HD
HETATM   19  C11 UNL     1      -8.620  31.573   1.313  1.00  0.00     0.089 C 
HETATM   20  N5  UNL     1      -7.813  33.261  -0.261  1.00  0.00    -0.343 N 
HETATM   21  C12 UNL     1      -7.059  34.350  -0.571  1.00  0.00     0.089 A 
ATOM     22  H5  UNL     1      -8.395  32.821  -0.973  1.00  0.00     0.167 HD
HETATM   23  C13 UNL     1      -6.924  35.026  -1.765  1.00  0.00     0.051 A 
HETATM   24  C15 UNL     1      -6.268  34.952   0.381  1.00  0.00     0.120 A 
HETATM   25  C14 UNL     1      -7.587  34.732  -3.058  1.00  0.00     0.072 C 
HETATM   26  N6  UNL     1      -6.054  36.030  -1.520  1.00  0.00    -0.302 N 
HETATM   27  N7  UNL     1      -5.676  35.966  -0.238  1.00  0.00    -0.295 N 
ATOM     28  H6  UNL     1      -5.736  36.721  -2.200  1.00  0.00     0.186 HD
ATOM     29  H7  UNL     1      -5.021  36.610   0.205  1.00  0.00     0.187 HD
ENDBRANCH  13  15
ENDBRANCH  11  13
ENDBRANCH  10  11
ENDBRANCH   7  10
ENDBRANCH   3   4
TORSDOF 5
ENDMDL
MODEL 4
REMARK VINA RESULT: -6.268888561      1.676      3.101
REMARK  5 active torsions:
REMARK  status: ('A' for Active; 'I' for Inactive)
REMARK    1  A    between atoms: C3_3  and  N1_4 
REMARK    2  A    between atoms: N2_7  and  C6_8 
REMARK    3  A    between atoms: C6_8  and  C7_9 
REMARK    4  A    between atoms: C7_9  and  N3_11 
REMARK    5  A    between atoms: N3_11  and  C9_13 
ROOT
HETATM    1  C1  UNL     1      -4.134  31.498  10.667  1.00  0.00     0.013 C 
HETATM    2  C2  UNL     1      -4.497  31.535   9.509  1.00  0.00    -0.087 C 
HETATM    3  C3  UNL     1      -4.919  31.598   8.095  1.00  0.00     0.365 C 
ENDROOT
BRANCH   3   4
HETATM    4  N1  UNL     1      -4.985  32.990   7.723  1.00  0.00     0.102 N 
HETATM    5  C4  UNL     1      -5.846  33.116   6.568  1.00  0.00     0.303 C 
HETATM    6  C5  UNL     1      -5.992  34.606   6.344  1.00  0.00     0.302 C 
HETATM    7  N2  UNL     1      -4.733  35.103   5.862  1.00  0.00     0.093 N 
HETATM    8  C16 UNL     1      -3.626  34.789   6.708  1.00  0.00     0.302 C 
HETATM    9  C17 UNL     1      -3.699  33.561   7.515  1.00  0.00     0.303 C 
BRANCH   7  10
HETATM   10  C6  UNL     1      -4.782  36.480   5.465  1.00  0.00     0.297 C 
BRANCH  10  11
HETATM   11  C7  UNL     1      -5.615  36.784   4.263  1.00  0.00     0.107 C 
HETATM   12  C8  UNL     1      -5.847  38.268   4.099  1.00  0.00     0.034 C 
BRANCH  11  13
HETATM   13  N3  UNL     1      -5.065  36.144   3.098  1.00  0.00    -0.368 N 
ATOM     14  H3  UNL     1      -4.064  35.953   3.129  1.00  0.00     0.161 HD
BRANCH  13  15
HETATM   15  C9  UNL     1      -5.662  35.785   2.038  1.00  0.00     0.134 A 
HETATM   16  N4  UNL     1      -5.669  36.429   0.862  1.00  0.00    -0.331 N 
HETATM   17  C10 UNL     1      -6.307  36.026  -0.246  1.00  0.00     0.079 A 
ATOM     18  H4  UNL     1      -5.143  37.301   0.806  1.00  0.00     0.168 HD
HETATM   19  C11 UNL     1      -6.266  36.801  -1.518  1.00  0.00     0.089 C 
HETATM   20  N5  UNL     1      -7.010  34.878  -0.205  1.00  0.00    -0.343 N 
HETATM   21  C12 UNL     1      -7.057  34.158   0.949  1.00  0.00     0.089 A 
ATOM     22  H5  UNL     1      -7.504  34.550  -1.034  1.00  0.00     0.167 HD
HETATM   23  C13 UNL     1      -7.701  32.971   1.229  1.00  0.00     0.051 A 
HETATM   24  C15 UNL     1      -6.395  34.590   2.075  1.00  0.00     0.120 A 
HETATM   25  C14 UNL     1      -8.530  32.148   0.317  1.00  0.00     0.072 C 
HETATM   26  N6  UNL     1      -7.418  32.700   2.522  1.00  0.00    -0.302 N 
HETATM   27  N7  UNL     1      -6.642  33.676   3.005  1.00  0.00    -0.295 N 
ATOM     28  H6  UNL     1      -7.744  31.886   3.043  1.00  0.00     0.186 HD
ATOM     29  H7  UNL     1      -6.286  33.713   3.960  1.00  0.00     0.187 HD
ENDBRANCH  13  15
ENDBRANCH  11  13
ENDBRANCH  10  11
ENDBRANCH   7  10
ENDBRANCH   3   4
TORSDOF 5
ENDMDL
MODEL 5
REMARK VINA RESULT: -6.257228967      1.459      2.876
REMARK  5 active torsions:
REMARK  status: ('A' for Active; 'I' for Inactive)
REMARK    1  A    between atoms: C3_3  and  N1_4 
REMARK    2  A    between atoms: N2_7  and  C6_8 
REMARK    3  A    between atoms: C6_8  and  C7_9 
REMARK    4  A    between atoms: C7_9  and  N3_11 
REMARK    5  A    between atoms: N3_11  and  C9_13 
ROOT
HETATM    1  C1  UNL     1      -5.882  31.217   7.684  1.00  0.00     0.013 C 
HETATM    2  C2  UNL     1      -5.095  32.133   7.820  1.00  0.00    -0.087 C 
HETATM    3  C3  UNL     1      -4.159  33.263   7.976  1.00  0.00     0.365 C 
ENDROOT
BRANCH   3   4
HETATM    4  N1  UNL     1      -4.266  34.084   6.796  1.00  0.00     0.102 N 
HETATM    5  C4  UNL     1      -3.122  34.967   6.745  1.00  0.00     0.303 C 
HETATM    6  C5  UNL     1      -3.226  35.672   5.409  1.00  0.00     0.302 C 
HETATM    7  N2  UNL     1      -4.333  36.585   5.478  1.00  0.00     0.093 N 
HETATM    8  C16 UNL     1      -5.564  35.971   5.863  1.00  0.00     0.302 C 
HETATM    9  C17 UNL     1      -5.503  34.783   6.729  1.00  0.00     0.303 C 
BRANCH   7  10
HETATM   10  C6  UNL     1      -4.445  37.428   4.323  1.00  0.00     0.297 C 
BRANCH  10  11
HETATM   11  C7  UNL     1      -5.565  37.110   3.389  1.00  0.00     0.107 C 
HETATM   12  C8  UNL     1      -6.266  38.358   2.904  1.00  0.00     0.034 C 
BRANCH  11  13
HETATM   13  N3  UNL     1      -5.108  36.246   2.334  1.00  0.00    -0.368 N 
ATOM     14  H3  UNL     1      -4.097  36.124   2.269  1.00  0.00     0.161 HD
BRANCH  13  15
HETATM   15  C9  UNL     1      -5.796  35.616   1.474  1.00  0.00     0.134 A 
HETATM   16  N4  UNL     1      -5.917  35.908   0.171  1.00  0.00    -0.331 N 
HETATM   17  C10 UNL     1      -6.650  35.223  -0.719  1.00  0.00     0.079 A 
ATOM     18  H4  UNL     1      -5.407  36.721  -0.173  1.00  0.00     0.168 HD
HETATM   19  C11 UNL     1      -6.734  35.613  -2.154  1.00  0.00     0.089 C 
HETATM   20  N5  UNL     1      -7.334  34.142  -0.295  1.00  0.00    -0.343 N 
HETATM   21  C12 UNL     1      -7.268  33.772   1.012  1.00  0.00     0.089 A 
ATOM     22  H5  UNL     1      -7.899  33.605  -0.952  1.00  0.00     0.167 HD
HETATM   23  C13 UNL     1      -7.871  32.720   1.669  1.00  0.00     0.051 A 
HETATM   24  C15 UNL     1      -6.510  34.490   1.909  1.00  0.00     0.120 A 
HETATM   25  C14 UNL     1      -8.772  31.689   1.102  1.00  0.00     0.072 C 
HETATM   26  N6  UNL     1      -7.469  32.815   2.955  1.00  0.00    -0.302 N 
HETATM   27  N7  UNL     1      -6.661  33.875   3.075  1.00  0.00    -0.295 N 
ATOM     28  H6  UNL     1      -7.737  32.183   3.710  1.00  0.00     0.186 HD
ATOM     29  H7  UNL     1      -6.220  34.170   3.946  1.00  0.00     0.187 HD
ENDBRANCH  13  15
ENDBRANCH  11  13
ENDBRANCH  10  11
ENDBRANCH   7  10
ENDBRANCH   3   4
TORSDOF 5
ENDMDL
