MODEL 1
REMARK VINA RESULT: -6.205291564      0.000      0.000
REMARK  4 active torsions:
REMARK  status: ('A' for Active; 'I' for Inactive)
REMARK    1  A    between atoms: N1_1  and  S1_4 
REMARK    2  A    between atoms: S1_4  and  C1_7 
REMARK    3  A    between atoms: C4_10  and  C5_11 
REMARK    4  A    between atoms: C5_11  and  N2_12 
ROOT
HETATM    1  C1  UNL     1      -7.883  33.145  -0.031  1.00  0.00     0.079 A 
HETATM    2  C2  UNL     1      -8.198  32.651  -1.279  1.00  0.00     0.026 A 
HETATM    3  C3  UNL     1      -7.921  33.374  -2.446  1.00  0.00     0.010 A 
HETATM    4  C4  UNL     1      -7.322  34.606  -2.356  1.00  0.00    -0.040 A 
HETATM    5  C10 UNL     1      -7.002  35.115  -1.116  1.00  0.00     0.010 A 
HETATM    6  C11 UNL     1      -7.276  34.398   0.051  1.00  0.00     0.026 A 
ENDROOT
BRANCH   4   7
HETATM    7  C5  UNL     1      -7.014  35.389  -3.566  1.00  0.00     0.171 C 
BRANCH   7   8
HETATM    8  N2  UNL     1      -8.074  36.286  -3.976  1.00  0.00    -0.305 N 
HETATM    9  C6  UNL     1      -9.245  35.777  -4.461  1.00  0.00     0.101 A 
HETATM   10  C7  UNL     1     -10.286  36.587  -4.861  1.00  0.00     0.092 A 
HETATM   11  C8  UNL     1     -10.158  37.945  -4.775  1.00  0.00     0.250 A 
HETATM   12  O3  UNL     1     -11.082  38.743  -5.129  1.00  0.00    -0.268 OA
HETATM   13  N3  UNL     1      -9.005  38.436  -4.298  1.00  0.00    -0.275 N 
HETATM   14  C9  UNL     1      -7.996  37.619  -3.911  1.00  0.00     0.329 A 
ATOM     15  H3  UNL     1      -8.884  39.446  -4.224  1.00  0.00     0.173 HD
HETATM   16  O4  UNL     1      -6.932  38.125  -3.469  1.00  0.00    -0.246 OA
ENDBRANCH   7   8
ENDBRANCH   4   7
BRANCH   1  17
HETATM   17  S1  UNL     1      -8.251  32.202   1.395  1.00  0.00     0.256 S 
HETATM   18  O1  UNL     1      -9.709  31.782   1.402  1.00  0.00    -0.201 OA
HETATM   19  O2  UNL     1      -7.453  30.919   1.409  1.00  0.00    -0.201 OA
BRANCH  17  20
HETATM   20  N1  UNL     1      -7.874  33.055   2.840  1.00  0.00    -0.324 N 
ATOM     21  H12 UNL     1      -8.544  33.620   3.363  1.00  0.00     0.169 HD
ATOM     22  H11 UNL     1      -6.895  32.911   3.088  1.00  0.00     0.169 HD
ENDBRANCH  17  20
ENDBRANCH   1  17
TORSDOF 4
ENDMDL
MODEL 2
REMARK VINA RESULT: -6.007552262      1.492      1.727
REMARK  4 active torsions:
REMARK  status: ('A' for Active; 'I' for Inactive)
REMARK    1  A    between atoms: N1_1  and  S1_4 
REMARK    2  A    between atoms: S1_4  and  C1_7 
REMARK    3  A    between atoms: C4_10  and  C5_11 
REMARK    4  A    between atoms: C5_11  and  N2_12 
ROOT
HETATM    1  C1  UNL     1      -7.695  33.170   0.039  1.00  0.00     0.079 A 
HETATM    2  C2  UNL     1      -7.782  32.662  -1.239  1.00  0.00     0.026 A 
HETATM    3  C3  UNL     1      -7.308  33.376  -2.346  1.00  0.00     0.010 A 
HETATM    4  C4  UNL     1      -6.741  34.613  -2.165  1.00  0.00    -0.040 A 
HETATM    5  C10 UNL     1      -6.648  35.137  -0.894  1.00  0.00     0.010 A 
HETATM    6  C11 UNL     1      -7.119  34.429   0.215  1.00  0.00     0.026 A 
ENDROOT
BRANCH   4   7
HETATM    7  C5  UNL     1      -6.230  35.388  -3.310  1.00  0.00     0.171 C 
BRANCH   7   8
HETATM    8  N2  UNL     1      -7.169  35.515  -4.406  1.00  0.00    -0.305 N 
HETATM    9  C6  UNL     1      -7.111  34.642  -5.455  1.00  0.00     0.101 A 
HETATM   10  C7  UNL     1      -7.984  34.718  -6.519  1.00  0.00     0.092 A 
HETATM   11  C8  UNL     1      -8.944  35.692  -6.540  1.00  0.00     0.250 A 
HETATM   12  O3  UNL     1      -9.775  35.812  -7.493  1.00  0.00    -0.268 OA
HETATM   13  N3  UNL     1      -8.992  36.544  -5.505  1.00  0.00    -0.275 N 
HETATM   14  C9  UNL     1      -8.123  36.449  -4.471  1.00  0.00     0.329 A 
ATOM     15  H3  UNL     1      -9.698  37.280  -5.497  1.00  0.00     0.173 HD
HETATM   16  O4  UNL     1      -8.208  37.272  -3.521  1.00  0.00    -0.246 OA
ENDBRANCH   7   8
ENDBRANCH   4   7
BRANCH   1  17
HETATM   17  S1  UNL     1      -8.303  32.237   1.388  1.00  0.00     0.256 S 
HETATM   18  O1  UNL     1      -9.794  31.994   1.247  1.00  0.00    -0.201 OA
HETATM   19  O2  UNL     1      -7.663  30.869   1.424  1.00  0.00    -0.201 OA
BRANCH  17  20
HETATM   20  N1  UNL     1      -7.967  32.998   2.894  1.00  0.00    -0.324 N 
ATOM     21  H12 UNL     1      -7.883  32.500   3.781  1.00  0.00     0.169 HD
ATOM     22  H11 UNL     1      -7.867  34.005   2.765  1.00  0.00     0.169 HD
ENDBRANCH  17  20
ENDBRANCH   1  17
TORSDOF 4
ENDMDL
MODEL 3
REMARK VINA RESULT: -5.991183284      1.722      2.002
REMARK  4 active torsions:
REMARK  status: ('A' for Active; 'I' for Inactive)
REMARK    1  A    between atoms: N1_1  and  S1_4 
REMARK    2  A    between atoms: S1_4  and  C1_7 
REMARK    3  A    between atoms: C4_10  and  C5_11 
REMARK    4  A    between atoms: C5_11  and  N2_12 
ROOT
HETATM    1  C1  UNL     1      -7.806  33.146   0.129  1.00  0.00     0.079 A 
HETATM    2  C2  UNL     1      -7.935  32.721  -1.176  1.00  0.00     0.026 A 
HETATM    3  C3  UNL     1      -7.489  33.502  -2.250  1.00  0.00     0.010 A 
HETATM    4  C4  UNL     1      -6.907  34.722  -2.007  1.00  0.00    -0.040 A 
HETATM    5  C10 UNL     1      -6.771  35.162  -0.708  1.00  0.00     0.010 A 
HETATM    6  C11 UNL     1      -7.214  34.387   0.366  1.00  0.00     0.026 A 
ENDROOT
BRANCH   4   7
HETATM    7  C5  UNL     1      -6.424  35.564  -3.116  1.00  0.00     0.171 C 
BRANCH   7   8
HETATM    8  N2  UNL     1      -7.311  35.603  -4.260  1.00  0.00    -0.305 N 
HETATM    9  C6  UNL     1      -8.494  36.282  -4.180  1.00  0.00     0.101 A 
HETATM   10  C7  UNL     1      -9.371  36.353  -5.241  1.00  0.00     0.092 A 
HETATM   11  C8  UNL     1      -9.062  35.728  -6.417  1.00  0.00     0.250 A 
HETATM   12  O3  UNL     1      -9.830  35.757  -7.428  1.00  0.00    -0.268 OA
HETATM   13  N3  UNL     1      -7.899  35.064  -6.486  1.00  0.00    -0.275 N 
HETATM   14  C9  UNL     1      -7.053  35.009  -5.429  1.00  0.00     0.329 A 
ATOM     15  H3  UNL     1      -7.646  34.589  -7.352  1.00  0.00     0.173 HD
HETATM   16  O4  UNL     1      -5.973  34.373  -5.541  1.00  0.00    -0.246 OA
ENDBRANCH   7   8
ENDBRANCH   4   7
BRANCH   1  17
HETATM   17  S1  UNL     1      -8.380  32.132   1.433  1.00  0.00     0.256 S 
HETATM   18  O1  UNL     1      -9.844  31.783   1.240  1.00  0.00    -0.201 OA
HETATM   19  O2  UNL     1      -7.641  30.815   1.453  1.00  0.00    -0.201 OA
BRANCH  17  20
HETATM   20  N1  UNL     1      -8.146  32.873   2.969  1.00  0.00    -0.324 N 
ATOM     21  H12 UNL     1      -7.266  32.852   3.486  1.00  0.00     0.169 HD
ATOM     22  H11 UNL     1      -9.006  33.327   3.275  1.00  0.00     0.169 HD
ENDBRANCH  17  20
ENDBRANCH   1  17
TORSDOF 4
ENDMDL
MODEL 4
REMARK VINA RESULT: -5.933912095      2.774      6.676
REMARK  4 active torsions:
REMARK  status: ('A' for Active; 'I' for Inactive)
REMARK    1  A    between atoms: N1_1  and  S1_4 
REMARK    2  A    between atoms: S1_4  and  C1_7 
REMARK    3  A    between atoms: C4_10  and  C5_11 
REMARK    4  A    between atoms: C5_11  and  N2_12 
ROOT
HETATM    1  C1  UNL     1      -9.049  35.393  -4.180  1.00  0.00     0.079 A 
HETATM    2  C2  UNL     1      -9.154  34.042  -3.924  1.00  0.00     0.026 A 
HETATM    3  C3  UNL     1      -8.299  33.397  -3.022  1.00  0.00     0.010 A 
HETATM    4  C4  UNL     1      -7.328  34.118  -2.371  1.00  0.00    -0.040 A 
HETATM    5  C10 UNL     1      -7.209  35.469  -2.617  1.00  0.00     0.010 A 
HETATM    6  C11 UNL     1      -8.059  36.118  -3.515  1.00  0.00     0.026 A 
ENDROOT
BRANCH   4   7
HETATM    7  C5  UNL     1      -6.416  33.469  -1.414  1.00  0.00     0.171 C 
BRANCH   7   8
HETATM    8  N2  UNL     1      -7.021  33.160  -0.135  1.00  0.00    -0.305 N 
HETATM    9  C6  UNL     1      -7.711  31.991   0.025  1.00  0.00     0.101 A 
HETATM   10  C7  UNL     1      -8.302  31.648   1.222  1.00  0.00     0.092 A 
HETATM   11  C8  UNL     1      -8.204  32.494   2.292  1.00  0.00     0.250 A 
HETATM   12  O3  UNL     1      -8.728  32.233   3.419  1.00  0.00    -0.268 OA
HETATM   13  N3  UNL     1      -7.525  33.638   2.125  1.00  0.00    -0.275 N 
HETATM   14  C9  UNL     1      -6.953  33.953   0.938  1.00  0.00     0.329 A 
ATOM     15  H3  UNL     1      -7.439  34.286   2.908  1.00  0.00     0.173 HD
HETATM   16  O4  UNL     1      -6.326  35.039   0.829  1.00  0.00    -0.246 OA
ENDBRANCH   7   8
ENDBRANCH   4   7
BRANCH   1  17
HETATM   17  S1  UNL     1     -10.142  36.150  -5.316  1.00  0.00     0.256 S 
HETATM   18  O1  UNL     1      -9.693  35.900  -6.744  1.00  0.00    -0.201 OA
HETATM   19  O2  UNL     1     -11.525  35.551  -5.209  1.00  0.00    -0.201 OA
BRANCH  17  20
HETATM   20  N1  UNL     1     -10.293  37.839  -5.029  1.00  0.00    -0.324 N 
ATOM     21  H12 UNL     1      -9.871  38.559  -5.617  1.00  0.00     0.169 HD
ATOM     22  H11 UNL     1     -10.858  38.005  -4.197  1.00  0.00     0.169 HD
ENDBRANCH  17  20
ENDBRANCH   1  17
TORSDOF 4
ENDMDL
MODEL 5
REMARK VINA RESULT: -5.801770160      1.270      1.581
REMARK  4 active torsions:
REMARK  status: ('A' for Active; 'I' for Inactive)
REMARK    1  A    between atoms: N1_1  and  S1_4 
REMARK    2  A    between atoms: S1_4  and  C1_7 
REMARK    3  A    between atoms: C4_10  and  C5_11 
REMARK    4  A    between atoms: C5_11  and  N2_12 
ROOT
HETATM    1  C1  UNL     1      -7.722  33.294  -0.175  1.00  0.00     0.079 A 
HETATM    2  C2  UNL     1      -8.159  32.655  -1.316  1.00  0.00     0.026 A 
HETATM    3  C3  UNL     1      -7.999  33.228  -2.584  1.00  0.00     0.010 A 
HETATM    4  C4  UNL     1      -7.395  34.454  -2.704  1.00  0.00    -0.040 A 
HETATM    5  C10 UNL     1      -6.953  35.107  -1.573  1.00  0.00     0.010 A 
HETATM    6  C11 UNL     1      -7.109  34.540  -0.306  1.00  0.00     0.026 A 
ENDROOT
BRANCH   4   7
HETATM    7  C5  UNL     1      -7.209  35.081  -4.025  1.00  0.00     0.171 C 
BRANCH   7   8
HETATM    8  N2  UNL     1      -8.215  36.068  -4.359  1.00  0.00    -0.305 N 
HETATM    9  C6  UNL     1      -7.980  37.390  -4.104  1.00  0.00     0.101 A 
HETATM   10  C7  UNL     1      -8.902  38.369  -4.405  1.00  0.00     0.092 A 
HETATM   11  C8  UNL     1     -10.094  38.022  -4.978  1.00  0.00     0.250 A 
HETATM   12  O3  UNL     1     -10.983  38.879  -5.278  1.00  0.00    -0.268 OA
HETATM   13  N3  UNL     1     -10.315  36.723  -5.224  1.00  0.00    -0.275 N 
HETATM   14  C9  UNL     1      -9.393  35.779  -4.919  1.00  0.00     0.329 A 
ATOM     15  H3  UNL     1     -11.197  36.439  -5.651  1.00  0.00     0.173 HD
HETATM   16  O4  UNL     1      -9.646  34.571  -5.168  1.00  0.00    -0.246 OA
ENDBRANCH   7   8
ENDBRANCH   4   7
BRANCH   1  17
HETATM   17  S1  UNL     1      -7.946  32.534   1.385  1.00  0.00     0.256 S 
HETATM   18  O1  UNL     1      -9.415  32.506   1.765  1.00  0.00    -0.201 OA
HETATM   19  O2  UNL     1      -7.502  31.091   1.348  1.00  0.00    -0.201 OA
BRANCH  17  20
HETATM   20  N1  UNL     1      -7.032  33.319   2.614  1.00  0.00    -0.324 N 
ATOM     21  H12 UNL     1      -7.366  34.119   3.153  1.00  0.00     0.169 HD
ATOM     22  H11 UNL     1      -6.123  32.868   2.719  1.00  0.00     0.169 HD
ENDBRANCH  17  20
ENDBRANCH   1  17
TORSDOF 4
ENDMDL
