MODEL 1
REMARK VINA RESULT: -5.688487168      0.000      0.000
REMARK  7 active torsions:
REMARK  status: ('A' for Active; 'I' for Inactive)
REMARK    1  A    between atoms: C2_2  and  C3_3 
REMARK    2  A    between atoms: C3_3  and  C4_4 
REMARK    3  A    between atoms: C4_4  and  C5_5 
REMARK    4  A    between atoms: C5_5  and  C6_6 
REMARK    5  A    between atoms: C8_11  and  C9_12 
REMARK    6  A    between atoms: C12_17  and  O2_18 
REMARK    7  A    between atoms: C14_20  and  O3_21 
ROOT
HETATM    1  C9  UNL     1      -9.910  37.530  -5.383  1.00  0.00     0.143 C 
HETATM    2  C10 UNL     1      -9.646  37.729  -6.793  1.00  0.00     0.112 C 
HETATM    3  N2  UNL     1      -9.486  37.919  -7.946  1.00  0.00    -0.191 NA
HETATM    4  C11 UNL     1     -10.839  38.544  -4.844  1.00  0.00     0.112 C 
HETATM    5  N3  UNL     1     -11.580  39.369  -4.458  1.00  0.00    -0.191 NA
ENDROOT
BRANCH   1   6
HETATM    6  C8  UNL     1      -9.414  36.589  -4.656  1.00  0.00     0.099 A 
HETATM    7  C7  UNL     1     -10.126  35.394  -4.555  1.00  0.00     0.261 A 
HETATM    8  N1  UNL     1      -9.649  34.320  -3.859  1.00  0.00    -0.320 N 
HETATM    9  O1  UNL     1     -11.233  35.264  -5.099  1.00  0.00    -0.267 OA
HETATM   10  C6  UNL     1      -8.477  34.307  -3.222  1.00  0.00     0.071 A 
ATOM     11  H1  UNL     1     -10.222  33.477  -3.826  1.00  0.00     0.169 HD
HETATM   12  C14 UNL     1      -7.750  35.508  -3.314  1.00  0.00     0.127 A 
HETATM   13  C12 UNL     1      -8.227  36.615  -4.018  1.00  0.00     0.121 A 
BRANCH  10  14
HETATM   14  C5  UNL     1      -7.959  33.317  -2.541  1.00  0.00     0.032 C 
BRANCH  14  15
HETATM   15  C4  UNL     1      -8.227  32.755  -1.268  1.00  0.00     0.002 C 
BRANCH  15  16
HETATM   16  C3  UNL     1      -7.513  32.222  -0.349  1.00  0.00    -0.001 C 
BRANCH  16  17
HETATM   17  C2  UNL     1      -8.211  31.615   0.826  1.00  0.00    -0.010 C 
HETATM   18  C1  UNL     1      -8.519  32.315   1.898  1.00  0.00     0.011 C 
ENDBRANCH  16  17
ENDBRANCH  15  16
ENDBRANCH  14  15
ENDBRANCH  10  14
BRANCH  12  19
HETATM   19  O3  UNL     1      -6.520  35.603  -2.694  1.00  0.00    -0.356 OA
ATOM     20  H3  UNL     1      -5.737  35.351  -3.171  1.00  0.00     0.218 HD
ENDBRANCH  12  19
BRANCH  13  21
HETATM   21  O2  UNL     1      -7.427  37.770  -4.021  1.00  0.00    -0.352 OA
HETATM   22  C13 UNL     1      -6.408  37.880  -5.040  1.00  0.00     0.210 C 
ENDBRANCH  13  21
ENDBRANCH   1   6
TORSDOF 7
ENDMDL
MODEL 2
REMARK VINA RESULT: -5.638635552      0.963      1.842
REMARK  7 active torsions:
REMARK  status: ('A' for Active; 'I' for Inactive)
REMARK    1  A    between atoms: C2_2  and  C3_3 
REMARK    2  A    between atoms: C3_3  and  C4_4 
REMARK    3  A    between atoms: C4_4  and  C5_5 
REMARK    4  A    between atoms: C5_5  and  C6_6 
REMARK    5  A    between atoms: C8_11  and  C9_12 
REMARK    6  A    between atoms: C12_17  and  O2_18 
REMARK    7  A    between atoms: C14_20  and  O3_21 
ROOT
HETATM    1  C9  UNL     1      -9.659  36.518  -5.298  1.00  0.00     0.143 C 
HETATM    2  C10 UNL     1     -10.470  37.676  -4.982  1.00  0.00     0.112 C 
HETATM    3  N2  UNL     1     -11.116  38.641  -4.781  1.00  0.00    -0.191 NA
HETATM    4  C11 UNL     1      -9.604  36.259  -6.751  1.00  0.00     0.112 C 
HETATM    5  N3  UNL     1      -9.588  36.091  -7.913  1.00  0.00    -0.191 NA
ENDROOT
BRANCH   1   6
HETATM    6  C8  UNL     1      -9.043  35.781  -4.439  1.00  0.00     0.099 A 
HETATM    7  C7  UNL     1      -9.650  34.590  -4.041  1.00  0.00     0.261 A 
HETATM    8  N1  UNL     1      -9.044  33.716  -3.184  1.00  0.00    -0.320 N 
HETATM    9  O1  UNL     1     -10.777  34.280  -4.456  1.00  0.00    -0.267 OA
HETATM   10  C6  UNL     1      -7.836  33.910  -2.654  1.00  0.00     0.071 A 
ATOM     11  H1  UNL     1      -9.546  32.863  -2.936  1.00  0.00     0.169 HD
HETATM   12  C14 UNL     1      -7.213  35.110  -3.046  1.00  0.00     0.127 A 
HETATM   13  C12 UNL     1      -7.822  36.015  -3.918  1.00  0.00     0.121 A 
BRANCH  10  14
HETATM   14  C5  UNL     1      -7.197  33.117  -1.833  1.00  0.00     0.032 C 
BRANCH  14  15
HETATM   15  C4  UNL     1      -7.447  32.664  -0.513  1.00  0.00     0.002 C 
BRANCH  15  16
HETATM   16  C3  UNL     1      -8.314  31.893   0.026  1.00  0.00    -0.001 C 
BRANCH  16  17
HETATM   17  C2  UNL     1      -8.192  31.605   1.488  1.00  0.00    -0.010 C 
HETATM   18  C1  UNL     1      -7.817  32.523   2.355  1.00  0.00     0.011 C 
ENDBRANCH  16  17
ENDBRANCH  15  16
ENDBRANCH  14  15
ENDBRANCH  10  14
BRANCH  12  19
HETATM   19  O3  UNL     1      -5.956  35.409  -2.560  1.00  0.00    -0.356 OA
ATOM     20  H3  UNL     1      -5.851  36.136  -1.957  1.00  0.00     0.218 HD
ENDBRANCH  12  19
BRANCH  13  21
HETATM   21  O2  UNL     1      -7.118  37.192  -4.218  1.00  0.00    -0.352 OA
HETATM   22  C13 UNL     1      -6.243  37.179  -5.368  1.00  0.00     0.210 C 
ENDBRANCH  13  21
ENDBRANCH   1   6
TORSDOF 7
ENDMDL
MODEL 3
REMARK VINA RESULT: -5.595698376      1.069      1.131
REMARK  7 active torsions:
REMARK  status: ('A' for Active; 'I' for Inactive)
REMARK    1  A    between atoms: C2_2  and  C3_3 
REMARK    2  A    between atoms: C3_3  and  C4_4 
REMARK    3  A    between atoms: C4_4  and  C5_5 
REMARK    4  A    between atoms: C5_5  and  C6_6 
REMARK    5  A    between atoms: C8_11  and  C9_12 
REMARK    6  A    between atoms: C12_17  and  O2_18 
REMARK    7  A    between atoms: C14_20  and  O3_21 
ROOT
HETATM    1  C9  UNL     1      -9.627  36.403  -5.397  1.00  0.00     0.143 C 
HETATM    2  C10 UNL     1      -9.632  36.173  -6.826  1.00  0.00     0.112 C 
HETATM    3  N2  UNL     1      -9.691  36.014  -7.993  1.00  0.00    -0.191 NA
HETATM    4  C11 UNL     1     -10.429  37.586  -5.022  1.00  0.00     0.112 C 
HETATM    5  N3  UNL     1     -11.077  38.532  -4.770  1.00  0.00    -0.191 NA
ENDROOT
BRANCH   1   6
HETATM    6  C8  UNL     1      -9.011  35.681  -4.526  1.00  0.00     0.099 A 
HETATM    7  C7  UNL     1      -9.648  34.531  -4.057  1.00  0.00     0.261 A 
HETATM    8  N1  UNL     1      -9.047  33.672  -3.183  1.00  0.00    -0.320 N 
HETATM    9  O1  UNL     1     -10.798  34.248  -4.423  1.00  0.00    -0.267 OA
HETATM   10  C6  UNL     1      -7.815  33.842  -2.701  1.00  0.00     0.071 A 
ATOM     11  H1  UNL     1      -9.571  32.850  -2.882  1.00  0.00     0.169 HD
HETATM   12  C14 UNL     1      -7.162  34.999  -3.163  1.00  0.00     0.127 A 
HETATM   13  C12 UNL     1      -7.766  35.889  -4.054  1.00  0.00     0.121 A 
BRANCH  10  14
HETATM   14  C5  UNL     1      -7.179  33.061  -1.865  1.00  0.00     0.032 C 
BRANCH  14  15
HETATM   15  C4  UNL     1      -7.418  32.649  -0.530  1.00  0.00     0.002 C 
BRANCH  15  16
HETATM   16  C3  UNL     1      -8.260  31.869   0.035  1.00  0.00    -0.001 C 
BRANCH  16  17
HETATM   17  C2  UNL     1      -8.126  31.631   1.505  1.00  0.00    -0.010 C 
HETATM   18  C1  UNL     1      -7.805  32.592   2.346  1.00  0.00     0.011 C 
ENDBRANCH  16  17
ENDBRANCH  15  16
ENDBRANCH  14  15
ENDBRANCH  10  14
BRANCH  12  19
HETATM   19  O3  UNL     1      -5.879  35.270  -2.731  1.00  0.00    -0.356 OA
ATOM     20  H3  UNL     1      -5.700  36.095  -2.294  1.00  0.00     0.218 HD
ENDBRANCH  12  19
BRANCH  13  21
HETATM   21  O2  UNL     1      -7.028  37.025  -4.428  1.00  0.00    -0.352 OA
HETATM   22  C13 UNL     1      -7.126  38.197  -3.588  1.00  0.00     0.210 C 
ENDBRANCH  13  21
ENDBRANCH   1   6
TORSDOF 7
ENDMDL
MODEL 4
REMARK VINA RESULT: -5.502357799      5.841      9.210
REMARK  7 active torsions:
REMARK  status: ('A' for Active; 'I' for Inactive)
REMARK    1  A    between atoms: C2_2  and  C3_3 
REMARK    2  A    between atoms: C3_3  and  C4_4 
REMARK    3  A    between atoms: C4_4  and  C5_5 
REMARK    4  A    between atoms: C5_5  and  C6_6 
REMARK    5  A    between atoms: C8_11  and  C9_12 
REMARK    6  A    between atoms: C12_17  and  O2_18 
REMARK    7  A    between atoms: C14_20  and  O3_21 
ROOT
HETATM    1  C9  UNL     1      -5.402  34.642   5.630  1.00  0.00     0.143 C 
HETATM    2  C10 UNL     1      -4.152  34.118   6.139  1.00  0.00     0.112 C 
HETATM    3  N2  UNL     1      -3.125  33.745   6.582  1.00  0.00    -0.191 NA
HETATM    4  C11 UNL     1      -5.958  35.697   6.502  1.00  0.00     0.112 C 
HETATM    5  N3  UNL     1      -6.363  36.530   7.224  1.00  0.00    -0.191 NA
ENDROOT
BRANCH   1   6
HETATM    6  C8  UNL     1      -5.986  34.260   4.546  1.00  0.00     0.099 A 
HETATM    7  C7  UNL     1      -6.893  33.204   4.628  1.00  0.00     0.261 A 
HETATM    8  N1  UNL     1      -7.606  32.772   3.545  1.00  0.00    -0.320 N 
HETATM    9  O1  UNL     1      -7.086  32.612   5.700  1.00  0.00    -0.267 OA
HETATM   10  C6  UNL     1      -7.507  33.308   2.328  1.00  0.00     0.071 A 
ATOM     11  H1  UNL     1      -8.252  31.994   3.676  1.00  0.00     0.169 HD
HETATM   12  C14 UNL     1      -6.593  34.374   2.231  1.00  0.00     0.127 A 
HETATM   13  C12 UNL     1      -5.855  34.823   3.329  1.00  0.00     0.121 A 
BRANCH  10  14
HETATM   14  C5  UNL     1      -8.158  32.948   1.251  1.00  0.00     0.032 C 
BRANCH  14  15
HETATM   15  C4  UNL     1      -7.862  32.081   0.169  1.00  0.00     0.002 C 
BRANCH  15  16
HETATM   16  C3  UNL     1      -7.408  32.242  -1.016  1.00  0.00    -0.001 C 
BRANCH  16  17
HETATM   17  C2  UNL     1      -7.860  33.438  -1.790  1.00  0.00    -0.010 C 
HETATM   18  C1  UNL     1      -8.238  33.358  -3.049  1.00  0.00     0.011 C 
ENDBRANCH  16  17
ENDBRANCH  15  16
ENDBRANCH  14  15
ENDBRANCH  10  14
BRANCH  12  19
HETATM   19  O3  UNL     1      -6.416  35.005   1.017  1.00  0.00    -0.356 OA
ATOM     20  H3  UNL     1      -7.103  35.570   0.681  1.00  0.00     0.218 HD
ENDBRANCH  12  19
BRANCH  13  21
HETATM   21  O2  UNL     1      -4.953  35.877   3.109  1.00  0.00    -0.352 OA
HETATM   22  C13 UNL     1      -3.600  35.538   2.731  1.00  0.00     0.210 C 
ENDBRANCH  13  21
ENDBRANCH   1   6
TORSDOF 7
ENDMDL
MODEL 5
REMARK VINA RESULT: -5.355367301      0.604      1.678
REMARK  7 active torsions:
REMARK  status: ('A' for Active; 'I' for Inactive)
REMARK    1  A    between atoms: C2_2  and  C3_3 
REMARK    2  A    between atoms: C3_3  and  C4_4 
REMARK    3  A    between atoms: C4_4  and  C5_5 
REMARK    4  A    between atoms: C5_5  and  C6_6 
REMARK    5  A    between atoms: C8_11  and  C9_12 
REMARK    6  A    between atoms: C12_17  and  O2_18 
REMARK    7  A    between atoms: C14_20  and  O3_21 
ROOT
HETATM    1  C9  UNL     1      -9.821  37.463  -5.441  1.00  0.00     0.143 C 
HETATM    2  C10 UNL     1     -10.690  38.474  -4.877  1.00  0.00     0.112 C 
HETATM    3  N2  UNL     1     -11.380  39.336  -4.463  1.00  0.00    -0.191 NA
HETATM    4  C11 UNL     1      -9.622  37.649  -6.893  1.00  0.00     0.112 C 
HETATM    5  N3  UNL     1      -9.491  37.836  -8.045  1.00  0.00    -0.191 NA
ENDROOT
BRANCH   1   6
HETATM    6  C8  UNL     1      -9.268  36.502  -4.784  1.00  0.00     0.099 A 
HETATM    7  C7  UNL     1     -10.016  35.346  -4.558  1.00  0.00     0.261 A 
HETATM    8  N1  UNL     1      -9.494  34.254  -3.927  1.00  0.00    -0.320 N 
HETATM    9  O1  UNL     1     -11.198  35.271  -4.926  1.00  0.00    -0.267 OA
HETATM   10  C6  UNL     1      -8.241  34.185  -3.474  1.00  0.00     0.071 A 
ATOM     11  H1  UNL     1     -10.097  33.442  -3.794  1.00  0.00     0.169 HD
HETATM   12  C14 UNL     1      -7.476  35.345  -3.694  1.00  0.00     0.127 A 
HETATM   13  C12 UNL     1      -7.999  36.471  -4.334  1.00  0.00     0.121 A 
BRANCH  10  14
HETATM   14  C5  UNL     1      -7.676  33.174  -2.865  1.00  0.00     0.032 C 
BRANCH  14  15
HETATM   15  C4  UNL     1      -7.522  32.809  -1.503  1.00  0.00     0.002 C 
BRANCH  15  16
HETATM   16  C3  UNL     1      -8.253  32.902  -0.458  1.00  0.00    -0.001 C 
BRANCH  16  17
HETATM   17  C2  UNL     1      -8.180  31.804   0.555  1.00  0.00    -0.010 C 
HETATM   18  C1  UNL     1      -8.321  32.029   1.845  1.00  0.00     0.011 C 
ENDBRANCH  16  17
ENDBRANCH  15  16
ENDBRANCH  14  15
ENDBRANCH  10  14
BRANCH  12  19
HETATM   19  O3  UNL     1      -6.163  35.380  -3.269  1.00  0.00    -0.356 OA
ATOM     20  H3  UNL     1      -5.761  34.588  -2.932  1.00  0.00     0.218 HD
ENDBRANCH  12  19
BRANCH  13  21
HETATM   21  O2  UNL     1      -7.151  37.582  -4.475  1.00  0.00    -0.352 OA
HETATM   22  C13 UNL     1      -7.147  38.565  -3.416  1.00  0.00     0.210 C 
ENDBRANCH  13  21
ENDBRANCH   1   6
TORSDOF 7
ENDMDL
