MODEL 1
REMARK VINA RESULT: -5.997699748      0.000      0.000
REMARK  4 active torsions:
REMARK  status: ('A' for Active; 'I' for Inactive)
REMARK    1  A    between atoms: C1_2  and  C2_3 
REMARK    2  A    between atoms: C5_6  and  N1_7 
REMARK    3  A    between atoms: N1_7  and  S1_9 
REMARK    4  A    between atoms: S1_9  and  C6_11 
ROOT
HETATM    1  N1  UNL     1      -5.756  34.965  -1.365  1.00  0.00    -0.286 N 
ATOM      2  H1  UNL     1      -5.167  35.661  -0.909  1.00  0.00     0.178 HD
ENDROOT
BRANCH   1   3
HETATM    3  C5  UNL     1      -6.429  34.103  -0.652  1.00  0.00     0.127 A 
HETATM    4  C4  UNL     1      -7.165  34.502   0.444  1.00  0.00     0.053 A 
HETATM    5  C3  UNL     1      -7.886  33.582   1.211  1.00  0.00     0.038 A 
HETATM    6  C2  UNL     1      -7.849  32.255   0.848  1.00  0.00     0.085 A 
HETATM    7  N4  UNL     1      -7.115  31.907  -0.234  1.00  0.00    -0.296 N 
HETATM    8  N3  UNL     1      -6.438  32.792  -0.948  1.00  0.00    -0.285 N 
ATOM      9  H4  UNL     1      -7.082  30.927  -0.510  1.00  0.00     0.187 HD
ATOM     10  H3  UNL     1      -5.902  32.468  -1.754  1.00  0.00     0.188 HD
BRANCH   6  11
HETATM   11  C1  UNL     1      -8.572  31.218   1.588  1.00  0.00     0.289 C 
HETATM   12  O1  UNL     1      -9.776  31.004   1.236  1.00  0.00    -0.300 OA
ENDBRANCH   6  11
ENDBRANCH   1   3
BRANCH   1  13
HETATM   13  S1  UNL     1      -5.873  34.916  -3.108  1.00  0.00     0.153 S 
HETATM   14  O2  UNL     1      -5.286  33.579  -3.560  1.00  0.00    -0.230 OA
BRANCH  13  15
HETATM   15  C6  UNL     1      -7.545  35.114  -3.619  1.00  0.00     0.068 A 
HETATM   16  C7  UNL     1      -8.444  34.048  -3.634  1.00  0.00     0.029 A 
HETATM   17  C8  UNL     1      -9.755  34.198  -4.034  1.00  0.00     0.076 A 
HETATM   18  C9  UNL     1     -10.204  35.446  -4.435  1.00  0.00     0.245 A 
HETATM   19  O3  UNL     1     -11.398  35.590  -4.801  1.00  0.00    -0.268 OA
HETATM   20  N2  UNL     1      -9.333  36.468  -4.418  1.00  0.00    -0.332 N 
HETATM   21  C10 UNL     1      -8.045  36.338  -4.030  1.00  0.00     0.114 A 
ATOM     22  H2  UNL     1      -9.660  37.388  -4.713  1.00  0.00     0.168 HD
ENDBRANCH  13  15
ENDBRANCH   1  13
TORSDOF 4
ENDMDL
MODEL 2
REMARK VINA RESULT: -5.965795983      1.675      5.412
REMARK  4 active torsions:
REMARK  status: ('A' for Active; 'I' for Inactive)
REMARK    1  A    between atoms: C1_2  and  C2_3 
REMARK    2  A    between atoms: C5_6  and  N1_7 
REMARK    3  A    between atoms: N1_7  and  S1_9 
REMARK    4  A    between atoms: S1_9  and  C6_11 
ROOT
HETATM    1  N1  UNL     1      -5.722  34.904  -2.662  1.00  0.00    -0.286 N 
ATOM      2  H1  UNL     1      -4.921  34.725  -3.267  1.00  0.00     0.178 HD
ENDROOT
BRANCH   1   3
HETATM    3  C5  UNL     1      -6.901  35.126  -3.179  1.00  0.00     0.127 A 
HETATM    4  C4  UNL     1      -7.645  34.102  -3.726  1.00  0.00     0.053 A 
HETATM    5  C3  UNL     1      -8.907  34.335  -4.281  1.00  0.00     0.038 A 
HETATM    6  C2  UNL     1      -9.400  35.620  -4.270  1.00  0.00     0.085 A 
HETATM    7  N4  UNL     1      -8.636  36.594  -3.723  1.00  0.00    -0.296 N 
HETATM    8  N3  UNL     1      -7.443  36.355  -3.202  1.00  0.00    -0.285 N 
ATOM      9  H4  UNL     1      -8.994  37.549  -3.711  1.00  0.00     0.187 HD
ATOM     10  H3  UNL     1      -6.915  37.132  -2.805  1.00  0.00     0.188 HD
BRANCH   6  11
HETATM   11  C1  UNL     1     -10.711  35.963  -4.826  1.00  0.00     0.289 C 
HETATM   12  O1  UNL     1     -11.601  35.055  -4.783  1.00  0.00    -0.300 OA
ENDBRANCH   6  11
ENDBRANCH   1   3
BRANCH   1  13
HETATM   13  S1  UNL     1      -5.528  34.918  -0.925  1.00  0.00     0.153 S 
HETATM   14  O2  UNL     1      -5.605  36.378  -0.477  1.00  0.00    -0.230 OA
BRANCH  13  15
HETATM   15  C6  UNL     1      -6.760  33.922  -0.160  1.00  0.00     0.068 A 
HETATM   16  C7  UNL     1      -7.059  32.638  -0.615  1.00  0.00     0.029 A 
HETATM   17  C8  UNL     1      -8.024  31.853  -0.019  1.00  0.00     0.076 A 
HETATM   18  C9  UNL     1      -8.726  32.349   1.068  1.00  0.00     0.245 A 
HETATM   19  O3  UNL     1      -9.607  31.640   1.616  1.00  0.00    -0.268 OA
HETATM   20  N2  UNL     1      -8.433  33.587   1.501  1.00  0.00    -0.332 N 
HETATM   21  C10 UNL     1      -7.491  34.368   0.928  1.00  0.00     0.114 A 
ATOM     22  H2  UNL     1      -8.948  33.955   2.300  1.00  0.00     0.168 HD
ENDBRANCH  13  15
ENDBRANCH   1  13
TORSDOF 4
ENDMDL
MODEL 3
REMARK VINA RESULT: -5.941124316      0.676      1.122
REMARK  4 active torsions:
REMARK  status: ('A' for Active; 'I' for Inactive)
REMARK    1  A    between atoms: C1_2  and  C2_3 
REMARK    2  A    between atoms: C5_6  and  N1_7 
REMARK    3  A    between atoms: N1_7  and  S1_9 
REMARK    4  A    between atoms: S1_9  and  C6_11 
ROOT
HETATM    1  N1  UNL     1      -5.867  35.068  -1.441  1.00  0.00    -0.286 N 
ATOM      2  H1  UNL     1      -5.280  35.770  -0.991  1.00  0.00     0.178 HD
ENDROOT
BRANCH   1   3
HETATM    3  C5  UNL     1      -6.505  34.185  -0.722  1.00  0.00     0.127 A 
HETATM    4  C4  UNL     1      -7.252  34.561   0.374  1.00  0.00     0.053 A 
HETATM    5  C3  UNL     1      -7.936  33.618   1.148  1.00  0.00     0.038 A 
HETATM    6  C2  UNL     1      -7.850  32.291   0.792  1.00  0.00     0.085 A 
HETATM    7  N4  UNL     1      -7.105  31.967  -0.291  1.00  0.00    -0.296 N 
HETATM    8  N3  UNL     1      -6.464  32.873  -1.011  1.00  0.00    -0.285 N 
ATOM      9  H4  UNL     1      -7.035  30.986  -0.562  1.00  0.00     0.187 HD
ATOM     10  H3  UNL     1      -5.918  32.565  -1.816  1.00  0.00     0.188 HD
BRANCH   6  11
HETATM   11  C1  UNL     1      -8.531  31.231   1.539  1.00  0.00     0.289 C 
HETATM   12  O1  UNL     1      -9.730  30.978   1.199  1.00  0.00    -0.300 OA
ENDBRANCH   6  11
ENDBRANCH   1   3
BRANCH   1  13
HETATM   13  S1  UNL     1      -6.026  35.037  -3.181  1.00  0.00     0.153 S 
HETATM   14  O2  UNL     1      -5.361  33.750  -3.670  1.00  0.00    -0.230 OA
BRANCH  13  15
HETATM   15  C6  UNL     1      -7.721  35.126  -3.645  1.00  0.00     0.068 A 
HETATM   16  C7  UNL     1      -8.322  36.328  -4.019  1.00  0.00     0.029 A 
HETATM   17  C8  UNL     1      -9.650  36.403  -4.383  1.00  0.00     0.076 A 
HETATM   18  C9  UNL     1     -10.421  35.252  -4.381  1.00  0.00     0.245 A 
HETATM   19  O3  UNL     1     -11.632  35.313  -4.712  1.00  0.00    -0.268 OA
HETATM   20  N2  UNL     1      -9.836  34.098  -4.020  1.00  0.00    -0.332 N 
HETATM   21  C10 UNL     1      -8.537  34.007  -3.660  1.00  0.00     0.114 A 
ATOM     22  H2  UNL     1     -10.401  33.249  -4.017  1.00  0.00     0.168 HD
ENDBRANCH  13  15
ENDBRANCH   1  13
TORSDOF 4
ENDMDL
MODEL 4
REMARK VINA RESULT: -5.719990302      5.720      9.232
REMARK  4 active torsions:
REMARK  status: ('A' for Active; 'I' for Inactive)
REMARK    1  A    between atoms: C1_2  and  C2_3 
REMARK    2  A    between atoms: C5_6  and  N1_7 
REMARK    3  A    between atoms: N1_7  and  S1_9 
REMARK    4  A    between atoms: S1_9  and  C6_11 
ROOT
HETATM    1  N1  UNL     1      -7.464  33.017   4.337  1.00  0.00    -0.286 N 
ATOM      2  H1  UNL     1      -8.197  32.524   4.846  1.00  0.00     0.178 HD
ENDROOT
BRANCH   1   3
HETATM    3  C5  UNL     1      -7.428  32.979   3.033  1.00  0.00     0.127 A 
HETATM    4  C4  UNL     1      -8.233  32.114   2.321  1.00  0.00     0.053 A 
HETATM    5  C3  UNL     1      -8.197  32.070   0.924  1.00  0.00     0.038 A 
HETATM    6  C2  UNL     1      -7.333  32.914   0.263  1.00  0.00     0.085 A 
HETATM    7  N4  UNL     1      -6.562  33.745   1.001  1.00  0.00    -0.296 N 
HETATM    8  N3  UNL     1      -6.609  33.774   2.324  1.00  0.00    -0.285 N 
ATOM      9  H4  UNL     1      -5.919  34.374   0.521  1.00  0.00     0.187 HD
ATOM     10  H3  UNL     1      -6.001  34.423   2.824  1.00  0.00     0.188 HD
BRANCH   6  11
HETATM   11  C1  UNL     1      -7.225  32.941  -1.197  1.00  0.00     0.289 C 
HETATM   12  O1  UNL     1      -8.252  33.332  -1.836  1.00  0.00    -0.300 OA
ENDBRANCH   6  11
ENDBRANCH   1   3
BRANCH   1  13
HETATM   13  S1  UNL     1      -6.246  33.921   5.205  1.00  0.00     0.153 S 
HETATM   14  O2  UNL     1      -6.914  35.197   5.717  1.00  0.00    -0.230 OA
BRANCH  13  15
HETATM   15  C6  UNL     1      -5.575  32.952   6.512  1.00  0.00     0.068 A 
HETATM   16  C7  UNL     1      -6.092  31.701   6.844  1.00  0.00     0.029 A 
HETATM   17  C8  UNL     1      -5.571  30.937   7.868  1.00  0.00     0.076 A 
HETATM   18  C9  UNL     1      -4.497  31.422   8.596  1.00  0.00     0.245 A 
HETATM   19  O3  UNL     1      -4.016  30.733   9.530  1.00  0.00    -0.268 OA
HETATM   20  N2  UNL     1      -4.003  32.628   8.271  1.00  0.00    -0.332 N 
HETATM   21  C10 UNL     1      -4.503  33.389   7.272  1.00  0.00     0.114 A 
ATOM     22  H2  UNL     1      -3.213  32.988   8.805  1.00  0.00     0.168 HD
ENDBRANCH  13  15
ENDBRANCH   1  13
TORSDOF 4
ENDMDL
MODEL 5
REMARK VINA RESULT: -5.681936005      3.393      4.562
REMARK  4 active torsions:
REMARK  status: ('A' for Active; 'I' for Inactive)
REMARK    1  A    between atoms: C1_2  and  C2_3 
REMARK    2  A    between atoms: C5_6  and  N1_7 
REMARK    3  A    between atoms: N1_7  and  S1_9 
REMARK    4  A    between atoms: S1_9  and  C6_11 
ROOT
HETATM    1  N1  UNL     1      -5.168  34.206  -1.968  1.00  0.00    -0.286 N 
ATOM      2  H1  UNL     1      -5.316  35.128  -2.380  1.00  0.00     0.178 HD
ENDROOT
BRANCH   1   3
HETATM    3  C5  UNL     1      -6.058  33.697  -1.159  1.00  0.00     0.127 A 
HETATM    4  C4  UNL     1      -7.167  33.036  -1.642  1.00  0.00     0.053 A 
HETATM    5  C3  UNL     1      -8.122  32.489  -0.779  1.00  0.00     0.038 A 
HETATM    6  C2  UNL     1      -7.933  32.624   0.578  1.00  0.00     0.085 A 
HETATM    7  N4  UNL     1      -6.830  33.281   1.008  1.00  0.00    -0.296 N 
HETATM    8  N3  UNL     1      -5.937  33.792   0.176  1.00  0.00    -0.285 N 
ATOM      9  H4  UNL     1      -6.682  33.385   2.011  1.00  0.00     0.187 HD
ATOM     10  H3  UNL     1      -5.126  34.276   0.562  1.00  0.00     0.188 HD
BRANCH   6  11
HETATM   11  C1  UNL     1      -8.876  32.086   1.560  1.00  0.00     0.289 C 
HETATM   12  O1  UNL     1      -9.600  31.113   1.177  1.00  0.00    -0.300 OA
ENDBRANCH   6  11
ENDBRANCH   1   3
BRANCH   1  13
HETATM   13  S1  UNL     1      -3.723  33.297  -2.340  1.00  0.00     0.153 S 
HETATM   14  O2  UNL     1      -3.304  32.576  -1.059  1.00  0.00    -0.230 OA
BRANCH  13  15
HETATM   15  C6  UNL     1      -4.025  32.178  -3.664  1.00  0.00     0.068 A 
HETATM   16  C7  UNL     1      -5.057  32.378  -4.580  1.00  0.00     0.029 A 
HETATM   17  C8  UNL     1      -5.297  31.504  -5.620  1.00  0.00     0.076 A 
HETATM   18  C9  UNL     1      -4.492  30.387  -5.767  1.00  0.00     0.245 A 
HETATM   19  O3  UNL     1      -4.705  29.585  -6.711  1.00  0.00    -0.268 OA
HETATM   20  N2  UNL     1      -3.500  30.199  -4.881  1.00  0.00    -0.332 N 
HETATM   21  C10 UNL     1      -3.251  31.045  -3.857  1.00  0.00     0.114 A 
ATOM     22  H2  UNL     1      -2.905  29.377  -4.986  1.00  0.00     0.168 HD
ENDBRANCH  13  15
ENDBRANCH   1  13
TORSDOF 4
ENDMDL
