MODEL 1
REMARK VINA RESULT: -5.371309297      0.000      0.000
REMARK  4 active torsions:
REMARK  status: ('A' for Active; 'I' for Inactive)
REMARK    1  A    between atoms: C5_6  and  O2_7 
REMARK    2  A    between atoms: O2_7  and  C6_8 
REMARK    3  A    between atoms: C6_8  and  S2_10 
REMARK    4  A    between atoms: C13_17  and  O3_18 
ROOT
HETATM    1  C1  UNL     1      16.712   6.879  36.109  1.00  0.00     0.049 C 
HETATM    2  C2  UNL     1      15.510   6.378  35.875  1.00  0.00     0.068 C 
HETATM    3  O1  UNL     1      14.347   7.139  35.933  1.00  0.00    -0.340 OA
HETATM    4  C3  UNL     1      13.286   6.465  35.301  1.00  0.00     0.096 C 
HETATM    5  C4  UNL     1      13.632   5.023  35.584  1.00  0.00     0.080 C 
HETATM    6  C5  UNL     1      15.147   4.988  35.519  1.00  0.00     0.189 C 
HETATM    7  C8  UNL     1      13.280   6.654  33.808  1.00  0.00     0.046 C 
HETATM    8  C9  UNL     1      12.854   8.018  33.380  1.00  0.00    -0.007 A 
HETATM    9  C10 UNL     1      13.314   9.257  34.008  1.00  0.00     0.010 A 
HETATM   10  C11 UNL     1      11.869   8.720  34.165  1.00  0.00    -0.007 A 
HETATM   11  C12 UNL     1      11.489   8.204  35.501  1.00  0.00     0.040 C 
HETATM   12  C13 UNL     1      11.939   6.807  35.807  1.00  0.00     0.156 C 
ENDROOT
BRANCH  12  13
HETATM   13  O3  UNL     1      11.929   6.660  37.190  1.00  0.00    -0.388 OA
HETATM   14  C14 UNL     1      11.491   7.762  37.880  1.00  0.00     0.202 C 
ENDBRANCH  12  13
BRANCH   6  15
HETATM   15  O2  UNL     1      15.668   4.674  34.272  1.00  0.00    -0.323 OA
BRANCH  15  16
HETATM   16  C6  UNL     1      16.737   3.862  34.007  1.00  0.00     0.175 C 
HETATM   17  S1  UNL     1      17.759   3.294  35.138  1.00  0.00    -0.045 SA
BRANCH  16  18
HETATM   18  S2  UNL     1      17.016   3.400  32.283  1.00  0.00    -0.098 SA
HETATM   19  C7  UNL     1      17.320   1.624  32.127  1.00  0.00     0.098 C 
ENDBRANCH  16  18
ENDBRANCH  15  16
ENDBRANCH   6  15
TORSDOF 4
ENDMDL
MODEL 2
REMARK VINA RESULT: -5.323881593      3.102      6.108
REMARK  4 active torsions:
REMARK  status: ('A' for Active; 'I' for Inactive)
REMARK    1  A    between atoms: C5_6  and  O2_7 
REMARK    2  A    between atoms: O2_7  and  C6_8 
REMARK    3  A    between atoms: C6_8  and  S2_10 
REMARK    4  A    between atoms: C13_17  and  O3_18 
ROOT
HETATM    1  C1  UNL     1      14.789   8.707  33.662  1.00  0.00     0.049 C 
HETATM    2  C2  UNL     1      14.467   7.424  33.600  1.00  0.00     0.068 C 
HETATM    3  O1  UNL     1      15.402   6.417  33.382  1.00  0.00    -0.340 OA
HETATM    4  C3  UNL     1      14.862   5.163  33.721  1.00  0.00     0.096 C 
HETATM    5  C4  UNL     1      13.405   5.358  33.377  1.00  0.00     0.080 C 
HETATM    6  C5  UNL     1      13.131   6.804  33.741  1.00  0.00     0.189 C 
HETATM    7  C8  UNL     1      14.953   4.866  35.193  1.00  0.00     0.046 C 
HETATM    8  C9  UNL     1      16.337   4.551  35.655  1.00  0.00    -0.007 A 
HETATM    9  C10 UNL     1      17.527   5.303  35.253  1.00  0.00     0.010 A 
HETATM   10  C11 UNL     1      17.232   3.864  34.758  1.00  0.00    -0.007 A 
HETATM   11  C12 UNL     1      16.869   3.709  33.330  1.00  0.00     0.040 C 
HETATM   12  C13 UNL     1      15.442   4.016  32.989  1.00  0.00     0.156 C 
ENDROOT
BRANCH  12  13
HETATM   13  O3  UNL     1      15.387   4.280  31.625  1.00  0.00    -0.388 OA
HETATM   14  C14 UNL     1      16.420   3.748  30.897  1.00  0.00     0.202 C 
ENDBRANCH  12  13
BRANCH   6  15
HETATM   15  O2  UNL     1      12.660   6.999  35.032  1.00  0.00    -0.323 OA
BRANCH  15  16
HETATM   16  C6  UNL     1      11.686   7.875  35.430  1.00  0.00     0.175 C 
HETATM   17  S1  UNL     1      10.966   8.953  34.448  1.00  0.00    -0.045 SA
BRANCH  16  18
HETATM   18  S2  UNL     1      11.181   7.815  37.164  1.00  0.00    -0.098 SA
HETATM   19  C7  UNL     1      12.618   7.881  38.261  1.00  0.00     0.098 C 
ENDBRANCH  16  18
ENDBRANCH  15  16
ENDBRANCH   6  15
TORSDOF 4
ENDMDL
MODEL 3
REMARK VINA RESULT: -5.034890088      2.919      6.053
REMARK  4 active torsions:
REMARK  status: ('A' for Active; 'I' for Inactive)
REMARK    1  A    between atoms: C5_6  and  O2_7 
REMARK    2  A    between atoms: O2_7  and  C6_8 
REMARK    3  A    between atoms: C6_8  and  S2_10 
REMARK    4  A    between atoms: C13_17  and  O3_18 
ROOT
HETATM    1  C1  UNL     1      12.776   4.755  35.424  1.00  0.00     0.049 C 
HETATM    2  C2  UNL     1      14.073   5.022  35.415  1.00  0.00     0.068 C 
HETATM    3  O1  UNL     1      15.015   4.182  34.830  1.00  0.00    -0.340 OA
HETATM    4  C3  UNL     1      16.233   4.862  34.646  1.00  0.00     0.096 C 
HETATM    5  C4  UNL     1      16.232   5.808  35.823  1.00  0.00     0.080 C 
HETATM    6  C5  UNL     1      14.775   6.193  35.984  1.00  0.00     0.189 C 
HETATM    7  C8  UNL     1      16.256   5.689  33.388  1.00  0.00     0.046 C 
HETATM    8  C9  UNL     1      16.360   4.878  32.141  1.00  0.00    -0.007 A 
HETATM    9  C10 UNL     1      15.588   3.660  31.888  1.00  0.00     0.010 A 
HETATM   10  C11 UNL     1      17.112   3.648  32.169  1.00  0.00    -0.007 A 
HETATM   11  C12 UNL     1      17.548   3.080  33.467  1.00  0.00     0.040 C 
HETATM   12  C13 UNL     1      17.435   4.000  34.644  1.00  0.00     0.156 C 
ENDROOT
BRANCH  12  13
HETATM   13  O3  UNL     1      17.422   3.211  35.789  1.00  0.00    -0.388 OA
HETATM   14  C14 UNL     1      18.194   2.080  35.714  1.00  0.00     0.202 C 
ENDBRANCH  12  13
BRANCH   6  15
HETATM   15  O2  UNL     1      14.398   7.341  35.301  1.00  0.00    -0.323 OA
BRANCH  15  16
HETATM   16  C6  UNL     1      13.390   8.204  35.634  1.00  0.00     0.175 C 
HETATM   17  S1  UNL     1      12.704   9.257  34.601  1.00  0.00    -0.045 SA
BRANCH  16  18
HETATM   18  S2  UNL     1      12.795   8.159  37.340  1.00  0.00    -0.098 SA
HETATM   19  C7  UNL     1      11.020   7.817  37.399  1.00  0.00     0.098 C 
ENDBRANCH  16  18
ENDBRANCH  15  16
ENDBRANCH   6  15
TORSDOF 4
ENDMDL
MODEL 4
REMARK VINA RESULT: -4.925865503      1.670      2.909
REMARK  4 active torsions:
REMARK  status: ('A' for Active; 'I' for Inactive)
REMARK    1  A    between atoms: C5_6  and  O2_7 
REMARK    2  A    between atoms: O2_7  and  C6_8 
REMARK    3  A    between atoms: C6_8  and  S2_10 
REMARK    4  A    between atoms: C13_17  and  O3_18 
ROOT
HETATM    1  C1  UNL     1      13.381   4.008  33.629  1.00  0.00     0.049 C 
HETATM    2  C2  UNL     1      13.744   5.279  33.688  1.00  0.00     0.068 C 
HETATM    3  O1  UNL     1      12.873   6.301  34.053  1.00  0.00    -0.340 OA
HETATM    4  C3  UNL     1      13.590   7.466  34.380  1.00  0.00     0.096 C 
HETATM    5  C4  UNL     1      14.780   7.358  33.456  1.00  0.00     0.080 C 
HETATM    6  C5  UNL     1      15.070   5.871  33.402  1.00  0.00     0.189 C 
HETATM    7  C8  UNL     1      14.102   7.460  35.795  1.00  0.00     0.046 C 
HETATM    8  C9  UNL     1      13.035   7.661  36.818  1.00  0.00    -0.007 A 
HETATM    9  C10 UNL     1      11.732   6.995  36.787  1.00  0.00     0.010 A 
HETATM   10  C11 UNL     1      11.912   8.507  36.496  1.00  0.00    -0.007 A 
HETATM   11  C12 UNL     1      11.699   8.950  35.099  1.00  0.00     0.040 C 
HETATM   12  C13 UNL     1      12.854   8.732  34.169  1.00  0.00     0.156 C 
ENDROOT
BRANCH  12  13
HETATM   13  O3  UNL     1      12.353   8.748  32.872  1.00  0.00    -0.388 OA
HETATM   14  C14 UNL     1      10.991   8.882  32.786  1.00  0.00     0.202 C 
ENDBRANCH  12  13
BRANCH   6  15
HETATM   15  O2  UNL     1      15.992   5.425  34.338  1.00  0.00    -0.323 OA
BRANCH  15  16
HETATM   16  C6  UNL     1      16.908   4.420  34.178  1.00  0.00     0.175 C 
HETATM   17  S1  UNL     1      17.494   3.511  35.393  1.00  0.00    -0.045 SA
BRANCH  16  18
HETATM   18  S2  UNL     1      17.491   4.095  32.499  1.00  0.00    -0.098 SA
HETATM   19  C7  UNL     1      16.440   2.878  31.671  1.00  0.00     0.098 C 
ENDBRANCH  16  18
ENDBRANCH  15  16
ENDBRANCH   6  15
TORSDOF 4
ENDMDL
MODEL 5
REMARK VINA RESULT: -4.838259406      2.919      6.051
REMARK  4 active torsions:
REMARK  status: ('A' for Active; 'I' for Inactive)
REMARK    1  A    between atoms: C5_6  and  O2_7 
REMARK    2  A    between atoms: O2_7  and  C6_8 
REMARK    3  A    between atoms: C6_8  and  S2_10 
REMARK    4  A    between atoms: C13_17  and  O3_18 
ROOT
HETATM    1  C1  UNL     1      12.863   4.746  34.882  1.00  0.00     0.049 C 
HETATM    2  C2  UNL     1      14.155   4.987  35.042  1.00  0.00     0.068 C 
HETATM    3  O1  UNL     1      15.147   4.095  34.650  1.00  0.00    -0.340 OA
HETATM    4  C3  UNL     1      16.397   4.739  34.601  1.00  0.00     0.096 C 
HETATM    5  C4  UNL     1      16.256   5.758  35.707  1.00  0.00     0.080 C 
HETATM    6  C5  UNL     1      14.801   6.179  35.635  1.00  0.00     0.189 C 
HETATM    7  C8  UNL     1      16.621   5.484  33.312  1.00  0.00     0.046 C 
HETATM    8  C9  UNL     1      16.878   4.593  32.144  1.00  0.00    -0.007 A 
HETATM    9  C10 UNL     1      16.117   3.376  31.856  1.00  0.00     0.010 A 
HETATM   10  C11 UNL     1      17.585   3.354  32.353  1.00  0.00    -0.007 A 
HETATM   11  C12 UNL     1      17.817   2.862  33.732  1.00  0.00     0.040 C 
HETATM   12  C13 UNL     1      17.564   3.857  34.824  1.00  0.00     0.156 C 
ENDROOT
BRANCH  12  13
HETATM   13  O3  UNL     1      17.366   3.142  36.000  1.00  0.00    -0.388 OA
HETATM   14  C14 UNL     1      18.142   2.018  36.124  1.00  0.00     0.202 C 
ENDBRANCH  12  13
BRANCH   6  15
HETATM   15  O2  UNL     1      14.556   7.288  34.836  1.00  0.00    -0.323 OA
BRANCH  15  16
HETATM   16  C6  UNL     1      13.688   8.314  35.095  1.00  0.00     0.175 C 
HETATM   17  S1  UNL     1      13.748   9.253  36.421  1.00  0.00    -0.045 SA
BRANCH  16  18
HETATM   18  S2  UNL     1      12.397   8.631  33.871  1.00  0.00    -0.098 SA
HETATM   19  C7  UNL     1      10.813   8.974  34.673  1.00  0.00     0.098 C 
ENDBRANCH  16  18
ENDBRANCH  15  16
ENDBRANCH   6  15
TORSDOF 4
ENDMDL
