MODEL 1
REMARK VINA RESULT: -7.479822988      0.000      0.000
REMARK  2 active torsions:
REMARK  status: ('A' for Active; 'I' for Inactive)
REMARK    1  A    between atoms: C6_8  and  C7_9 
REMARK    2  A    between atoms: C8_10  and  C9_11 
ROOT
HETATM    1  C7  UNL     1       7.255  -1.249  34.341  1.00  0.00     0.034 C 
HETATM    2  C8  UNL     1       8.454  -1.721  34.526  1.00  0.00     0.008 C 
ENDROOT
BRANCH   1   3
HETATM    3  C6  UNL     1       6.432  -0.748  35.498  1.00  0.00     0.294 C 
HETATM    4  O2  UNL     1       5.195  -1.440  35.565  1.00  0.00    -0.286 OA
HETATM    5  C5  UNL     1       4.007  -0.911  35.109  1.00  0.00     0.264 C 
HETATM    6  C4  UNL     1       3.947   0.582  34.973  1.00  0.00     0.148 C 
HETATM    7  O1  UNL     1       3.008  -1.610  34.815  1.00  0.00    -0.265 OA
HETATM    8  C2  UNL     1       5.097   1.120  35.813  1.00  0.00     0.066 C 
HETATM    9  C1  UNL     1       5.128   2.628  35.599  1.00  0.00     0.046 C 
HETATM   10  C3  UNL     1       4.797   0.771  37.255  1.00  0.00     0.046 C 
HETATM   11  O3  UNL     1       6.290   0.612  35.363  1.00  0.00    -0.347 OA
ENDBRANCH   1   3
BRANCH   2  12
HETATM   12  C9  UNL     1       9.356  -2.234  33.512  1.00  0.00    -0.051 C 
HETATM   13  C10 UNL     1       9.433  -3.553  33.272  1.00  0.00     0.001 C 
HETATM   14  C11 UNL     1      10.300  -4.179  32.281  1.00  0.00     0.029 C 
HETATM   15  C12 UNL     1      10.288  -5.696  32.529  1.00  0.00     0.032 C 
HETATM   16  C13 UNL     1       9.868  -3.988  30.856  1.00  0.00     0.032 C 
HETATM   17  S1  UNL     1      12.072  -3.738  32.504  1.00  0.00    -0.084 SA
HETATM   18  S2  UNL     1      11.980  -1.643  33.007  1.00  0.00    -0.092 SA
HETATM   19  C14 UNL     1      10.188  -1.315  32.739  1.00  0.00     0.124 C 
ENDBRANCH   2  12
TORSDOF 2
ENDMDL
MODEL 2
REMARK VINA RESULT: -7.256948802      3.491      7.124
REMARK  2 active torsions:
REMARK  status: ('A' for Active; 'I' for Inactive)
REMARK    1  A    between atoms: C6_8  and  C7_9 
REMARK    2  A    between atoms: C8_10  and  C9_11 
ROOT
HETATM    1  C7  UNL     1       8.159  -2.156  33.740  1.00  0.00     0.034 C 
HETATM    2  C8  UNL     1       7.687  -0.950  33.602  1.00  0.00     0.008 C 
ENDROOT
BRANCH   1   3
HETATM    3  C6  UNL     1       8.776  -2.886  32.577  1.00  0.00     0.294 C 
HETATM    4  O2  UNL     1       8.271  -4.209  32.496  1.00  0.00    -0.286 OA
HETATM    5  C5  UNL     1       8.966  -5.312  32.942  1.00  0.00     0.264 C 
HETATM    6  C4  UNL     1      10.452  -5.157  33.081  1.00  0.00     0.148 C 
HETATM    7  O1  UNL     1       8.419  -6.405  33.224  1.00  0.00    -0.265 OA
HETATM    8  C2  UNL     1      10.818  -3.932  32.254  1.00  0.00     0.066 C 
HETATM    9  C1  UNL     1      12.306  -3.684  32.472  1.00  0.00     0.046 C 
HETATM   10  C3  UNL     1      10.517  -4.265  30.808  1.00  0.00     0.046 C 
HETATM   11  O3  UNL     1      10.142  -2.830  32.715  1.00  0.00    -0.347 OA
ENDBRANCH   1   3
BRANCH   2  12
HETATM   12  C9  UNL     1       7.071  -0.131  34.629  1.00  0.00    -0.051 C 
HETATM   13  C10 UNL     1       5.747  -0.190  34.843  1.00  0.00     0.001 C 
HETATM   14  C11 UNL     1       5.021   0.585  35.843  1.00  0.00     0.029 C 
HETATM   15  C12 UNL     1       3.517   0.432  35.565  1.00  0.00     0.032 C 
HETATM   16  C13 UNL     1       5.228   0.133  37.261  1.00  0.00     0.032 C 
HETATM   17  S1  UNL     1       5.290   2.397  35.676  1.00  0.00    -0.084 SA
HETATM   18  S2  UNL     1       7.393   2.523  35.214  1.00  0.00    -0.092 SA
HETATM   19  C14 UNL     1       7.890   0.765  35.441  1.00  0.00     0.124 C 
ENDBRANCH   2  12
TORSDOF 2
ENDMDL
MODEL 3
REMARK VINA RESULT: -6.751013913      1.259      1.480
REMARK  2 active torsions:
REMARK  status: ('A' for Active; 'I' for Inactive)
REMARK    1  A    between atoms: C6_8  and  C7_9 
REMARK    2  A    between atoms: C8_10  and  C9_11 
ROOT
HETATM    1  C7  UNL     1       7.915   0.209  34.133  1.00  0.00     0.034 C 
HETATM    2  C8  UNL     1       8.636  -0.832  34.436  1.00  0.00     0.008 C 
ENDROOT
BRANCH   1   3
HETATM    3  C6  UNL     1       7.247   1.029  35.204  1.00  0.00     0.294 C 
HETATM    4  O2  UNL     1       6.811   0.198  36.267  1.00  0.00    -0.286 OA
HETATM    5  C5  UNL     1       5.502  -0.203  36.426  1.00  0.00     0.264 C 
HETATM    6  C4  UNL     1       4.458   0.627  35.737  1.00  0.00     0.148 C 
HETATM    7  O1  UNL     1       5.163  -1.202  37.104  1.00  0.00    -0.265 OA
HETATM    8  C2  UNL     1       5.133   1.954  35.416  1.00  0.00     0.066 C 
HETATM    9  C1  UNL     1       4.129   2.773  34.613  1.00  0.00     0.046 C 
HETATM   10  C3  UNL     1       5.461   2.618  36.736  1.00  0.00     0.046 C 
HETATM   11  O3  UNL     1       6.231   1.746  34.620  1.00  0.00    -0.347 OA
ENDBRANCH   1   3
BRANCH   2  12
HETATM   12  C9  UNL     1       9.334  -1.709  33.515  1.00  0.00    -0.051 C 
HETATM   13  C10 UNL     1       8.980  -2.998  33.401  1.00  0.00     0.001 C 
HETATM   14  C11 UNL     1       9.609  -3.968  32.511  1.00  0.00     0.029 C 
HETATM   15  C12 UNL     1       9.100  -5.367  32.896  1.00  0.00     0.032 C 
HETATM   16  C13 UNL     1       9.280  -3.793  31.056  1.00  0.00     0.032 C 
HETATM   17  S1  UNL     1      11.425  -4.104  32.772  1.00  0.00    -0.084 SA
HETATM   18  S2  UNL     1      12.014  -2.052  33.077  1.00  0.00    -0.092 SA
HETATM   19  C14 UNL     1      10.430  -1.191  32.700  1.00  0.00     0.124 C 
ENDBRANCH   2  12
TORSDOF 2
ENDMDL
MODEL 4
REMARK VINA RESULT: -6.668402527      1.472      2.628
REMARK  2 active torsions:
REMARK  status: ('A' for Active; 'I' for Inactive)
REMARK    1  A    between atoms: C6_8  and  C7_9 
REMARK    2  A    between atoms: C8_10  and  C9_11 
ROOT
HETATM    1  C7  UNL     1       7.495  -0.497  33.102  1.00  0.00     0.034 C 
HETATM    2  C8  UNL     1       8.640  -0.904  33.571  1.00  0.00     0.008 C 
ENDROOT
BRANCH   1   3
HETATM    3  C6  UNL     1       6.658   0.500  33.857  1.00  0.00     0.294 C 
HETATM    4  O2  UNL     1       7.451   1.596  34.282  1.00  0.00    -0.286 OA
HETATM    5  C5  UNL     1       7.922   1.734  35.570  1.00  0.00     0.264 C 
HETATM    6  C4  UNL     1       7.198   0.962  36.634  1.00  0.00     0.148 C 
HETATM    7  O1  UNL     1       8.900   2.458  35.874  1.00  0.00    -0.265 OA
HETATM    8  C2  UNL     1       5.853   0.585  36.028  1.00  0.00     0.066 C 
HETATM    9  C1  UNL     1       5.145  -0.298  37.048  1.00  0.00     0.046 C 
HETATM   10  C3  UNL     1       5.096   1.874  35.790  1.00  0.00     0.046 C 
HETATM   11  O3  UNL     1       6.038  -0.160  34.891  1.00  0.00    -0.347 OA
ENDBRANCH   1   3
BRANCH   2  12
HETATM   12  C9  UNL     1       9.547  -1.855  32.955  1.00  0.00    -0.051 C 
HETATM   13  C10 UNL     1       9.267  -3.167  32.963  1.00  0.00     0.001 C 
HETATM   14  C11 UNL     1      10.102  -4.210  32.378  1.00  0.00     0.029 C 
HETATM   15  C12 UNL     1       9.567  -5.571  32.852  1.00  0.00     0.032 C 
HETATM   16  C13 UNL     1      10.088  -4.259  30.877  1.00  0.00     0.032 C 
HETATM   17  S1  UNL     1      11.823  -4.194  33.027  1.00  0.00    -0.084 SA
HETATM   18  S2  UNL     1      12.267  -2.087  33.139  1.00  0.00    -0.092 SA
HETATM   19  C14 UNL     1      10.775  -1.387  32.318  1.00  0.00     0.124 C 
ENDBRANCH   2  12
TORSDOF 2
ENDMDL
MODEL 5
REMARK VINA RESULT: -6.544785451      3.793      7.165
REMARK  2 active torsions:
REMARK  status: ('A' for Active; 'I' for Inactive)
REMARK    1  A    between atoms: C6_8  and  C7_9 
REMARK    2  A    between atoms: C8_10  and  C9_11 
ROOT
HETATM    1  C7  UNL     1       9.525  -1.546  34.159  1.00  0.00     0.034 C 
HETATM    2  C8  UNL     1       8.709  -0.566  33.897  1.00  0.00     0.008 C 
ENDROOT
BRANCH   1   3
HETATM    3  C6  UNL     1      10.560  -1.983  33.157  1.00  0.00     0.294 C 
HETATM    4  O2  UNL     1       9.950  -2.298  31.916  1.00  0.00    -0.286 OA
HETATM    5  C5  UNL     1       9.698  -3.588  31.503  1.00  0.00     0.264 C 
HETATM    6  C4  UNL     1      10.499  -4.672  32.164  1.00  0.00     0.148 C 
HETATM    7  O1  UNL     1       8.852  -3.879  30.624  1.00  0.00    -0.265 OA
HETATM    8  C2  UNL     1      11.693  -3.972  32.799  1.00  0.00     0.066 C 
HETATM    9  C1  UNL     1      12.461  -5.035  33.575  1.00  0.00     0.046 C 
HETATM   10  C3  UNL     1      12.525  -3.398  31.673  1.00  0.00     0.046 C 
HETATM   11  O3  UNL     1      11.265  -3.030  33.700  1.00  0.00    -0.347 OA
ENDBRANCH   1   3
BRANCH   2  12
HETATM   12  C9  UNL     1       7.670  -0.041  34.763  1.00  0.00    -0.051 C 
HETATM   13  C10 UNL     1       6.448  -0.596  34.774  1.00  0.00     0.001 C 
HETATM   14  C11 UNL     1       5.329  -0.154  35.599  1.00  0.00     0.029 C 
HETATM   15  C12 UNL     1       4.060  -0.865  35.102  1.00  0.00     0.032 C 
HETATM   16  C13 UNL     1       5.450  -0.494  37.057  1.00  0.00     0.032 C 
HETATM   17  S1  UNL     1       4.927   1.625  35.361  1.00  0.00    -0.084 SA
HETATM   18  S2  UNL     1       6.876   2.537  35.222  1.00  0.00    -0.092 SA
HETATM   19  C14 UNL     1       7.948   1.098  35.634  1.00  0.00     0.124 C 
ENDBRANCH   2  12
TORSDOF 2
ENDMDL
