MODEL 1
REMARK VINA RESULT: -8.088309870      0.000      0.000
REMARK  2 active torsions:
REMARK  status: ('A' for Active; 'I' for Inactive)
REMARK    1  A    between atoms: C2_2  and  C3_3 
REMARK    2  A    between atoms: C13_14  and  C15_17 
ROOT
HETATM    1  C1  UNL     1       6.913  -3.986  34.257  1.00  0.00     0.049 C 
HETATM    2  C2  UNL     1       7.701  -2.784  33.996  1.00  0.00    -0.041 C 
HETATM    3  C13 UNL     1       8.848  -2.964  33.322  1.00  0.00     0.079 C 
HETATM    4  C14 UNL     1       9.600  -1.684  33.090  1.00  0.00     0.099 C 
HETATM    5  N1  UNL     1      10.209  -0.711  32.891  1.00  0.00    -0.192 NA
ENDROOT
BRANCH   3   6
HETATM    6  C15 UNL     1       9.502  -4.133  32.789  1.00  0.00     0.261 C 
HETATM    7  C16 UNL     1       9.107  -5.449  33.069  1.00  0.00     0.106 C 
HETATM    8  N2  UNL     1       8.818  -6.564  33.281  1.00  0.00    -0.194 NA
HETATM    9  C17 UNL     1      10.984  -3.958  33.104  1.00  0.00     0.106 C 
HETATM   10  N3  UNL     1      12.096  -3.828  33.362  1.00  0.00    -0.194 NA
HETATM   11  C18 UNL     1       9.531  -4.029  31.272  1.00  0.00     0.106 C 
HETATM   12  N4  UNL     1       9.532  -3.949  30.119  1.00  0.00    -0.194 NA
ENDBRANCH   3   6
BRANCH   2  13
HETATM   13  C3  UNL     1       7.291  -1.457  34.416  1.00  0.00     0.015 C 
HETATM   14  C4  UNL     1       6.196  -0.882  34.741  1.00  0.00    -0.051 C 
HETATM   15  C5  UNL     1       4.866  -1.487  34.788  1.00  0.00     0.039 C 
HETATM   16  C9  UNL     1       6.281   0.568  35.094  1.00  0.00    -0.042 C 
HETATM   17  C6  UNL     1       3.772  -0.536  35.281  1.00  0.00     0.009 C 
HETATM   18  C7  UNL     1       4.325   0.242  36.461  1.00  0.00     0.043 C 
HETATM   19  C8  UNL     1       5.409   1.103  35.899  1.00  0.00    -0.005 C 
HETATM   20  C12 UNL     1       5.680   2.544  36.100  1.00  0.00     0.156 C 
HETATM   21  C11 UNL     1       6.474   2.897  34.874  1.00  0.00     0.088 C 
HETATM   22  O1  UNL     1       5.339   3.284  37.047  1.00  0.00    -0.293 OA
HETATM   23  C10 UNL     1       7.248   1.620  34.677  1.00  0.00     0.047 C 
ENDBRANCH   2  13
TORSDOF 2
ENDMDL
MODEL 2
REMARK VINA RESULT: -7.901507997      3.763      6.985
REMARK  2 active torsions:
REMARK  status: ('A' for Active; 'I' for Inactive)
REMARK    1  A    between atoms: C2_2  and  C3_3 
REMARK    2  A    between atoms: C13_14  and  C15_17 
ROOT
HETATM    1  C1  UNL     1       5.499  -2.816  33.955  1.00  0.00     0.049 C 
HETATM    2  C2  UNL     1       6.599  -1.884  34.190  1.00  0.00    -0.041 C 
HETATM    3  C13 UNL     1       6.285  -0.750  34.837  1.00  0.00     0.079 C 
HETATM    4  C14 UNL     1       7.467   0.154  35.044  1.00  0.00     0.099 C 
HETATM    5  N1  UNL     1       8.361   0.879  35.223  1.00  0.00    -0.192 NA
ENDROOT
BRANCH   3   6
HETATM    6  C15 UNL     1       5.049  -0.228  35.362  1.00  0.00     0.261 C 
HETATM    7  C16 UNL     1       3.781  -0.731  35.032  1.00  0.00     0.106 C 
HETATM    8  N2  UNL     1       2.703  -1.113  34.779  1.00  0.00    -0.194 NA
HETATM    9  C17 UNL     1       5.092   1.275  35.105  1.00  0.00     0.106 C 
HETATM   10  N3  UNL     1       5.125   2.403  34.890  1.00  0.00    -0.194 NA
HETATM   11  C18 UNL     1       5.113  -0.248  36.881  1.00  0.00     0.106 C 
HETATM   12  N4  UNL     1       5.165  -0.284  38.035  1.00  0.00    -0.194 NA
ENDBRANCH   3   6
BRANCH   2  13
HETATM   13  C3  UNL     1       7.964  -2.143  33.772  1.00  0.00     0.015 C 
HETATM   14  C4  UNL     1       8.657  -3.166  33.441  1.00  0.00    -0.051 C 
HETATM   15  C5  UNL     1       8.200  -4.553  33.380  1.00  0.00     0.039 C 
HETATM   16  C9  UNL     1      10.090  -2.920  33.094  1.00  0.00    -0.042 C 
HETATM   17  C6  UNL     1       9.267  -5.533  32.882  1.00  0.00     0.009 C 
HETATM   18  C7  UNL     1       9.983  -4.888  31.711  1.00  0.00     0.043 C 
HETATM   19  C8  UNL     1      10.720  -3.721  32.284  1.00  0.00    -0.005 C 
HETATM   20  C12 UNL     1      12.123  -3.292  32.092  1.00  0.00     0.156 C 
HETATM   21  C11 UNL     1      12.383  -2.476  33.326  1.00  0.00     0.088 C 
HETATM   22  O1  UNL     1      12.899  -3.542  31.146  1.00  0.00    -0.293 OA
HETATM   23  C10 UNL     1      11.029  -1.848  33.524  1.00  0.00     0.047 C 
ENDBRANCH   2  13
TORSDOF 2
ENDMDL
MODEL 3
REMARK VINA RESULT: -7.556454612      1.338      3.249
REMARK  2 active torsions:
REMARK  status: ('A' for Active; 'I' for Inactive)
REMARK    1  A    between atoms: C2_2  and  C3_3 
REMARK    2  A    between atoms: C13_14  and  C15_17 
ROOT
HETATM    1  C1  UNL     1      10.460  -1.198  32.890  1.00  0.00     0.049 C 
HETATM    2  C2  UNL     1       9.192  -1.672  33.439  1.00  0.00    -0.041 C 
HETATM    3  C13 UNL     1       8.937  -2.982  33.292  1.00  0.00     0.079 C 
HETATM    4  C14 UNL     1       7.619  -3.393  33.884  1.00  0.00     0.099 C 
HETATM    5  N1  UNL     1       6.604  -3.748  34.332  1.00  0.00    -0.192 NA
ENDROOT
BRANCH   3   6
HETATM    6  C15 UNL     1       9.666  -4.062  32.677  1.00  0.00     0.261 C 
HETATM    7  C16 UNL     1      11.039  -4.286  32.861  1.00  0.00     0.106 C 
HETATM    8  N2  UNL     1      12.183  -4.507  32.978  1.00  0.00    -0.194 NA
HETATM    9  C17 UNL     1       9.350  -3.980  31.188  1.00  0.00     0.106 C 
HETATM   10  N3  UNL     1       9.121  -3.900  30.065  1.00  0.00    -0.194 NA
HETATM   11  C18 UNL     1       8.987  -5.376  33.030  1.00  0.00     0.106 C 
HETATM   12  N4  UNL     1       8.474  -6.371  33.319  1.00  0.00    -0.194 NA
ENDBRANCH   3   6
BRANCH   2  13
HETATM   13  C3  UNL     1       8.246  -0.806  34.120  1.00  0.00     0.015 C 
HETATM   14  C4  UNL     1       8.268   0.355  34.655  1.00  0.00    -0.051 C 
HETATM   15  C5  UNL     1       9.411   1.261  34.740  1.00  0.00     0.039 C 
HETATM   16  C9  UNL     1       6.992   0.830  35.274  1.00  0.00    -0.042 C 
HETATM   17  C6  UNL     1       9.083   2.609  35.391  1.00  0.00     0.009 C 
HETATM   18  C7  UNL     1       7.746   3.076  34.849  1.00  0.00     0.043 C 
HETATM   19  C8  UNL     1       6.739   2.103  35.369  1.00  0.00    -0.005 C 
HETATM   20  C12 UNL     1       5.432   2.340  36.020  1.00  0.00     0.156 C 
HETATM   21  C11 UNL     1       5.220   1.071  36.795  1.00  0.00     0.088 C 
HETATM   22  O1  UNL     1       4.687   3.341  35.947  1.00  0.00    -0.293 OA
HETATM   23  C10 UNL     1       5.849   0.075  35.856  1.00  0.00     0.047 C 
ENDBRANCH   2  13
TORSDOF 2
ENDMDL
MODEL 4
REMARK VINA RESULT: -7.528287275      0.280      1.737
REMARK  2 active torsions:
REMARK  status: ('A' for Active; 'I' for Inactive)
REMARK    1  A    between atoms: C2_2  and  C3_3 
REMARK    2  A    between atoms: C13_14  and  C15_17 
ROOT
HETATM    1  C1  UNL     1       7.064  -3.908  33.937  1.00  0.00     0.049 C 
HETATM    2  C2  UNL     1       7.864  -2.690  33.831  1.00  0.00    -0.041 C 
HETATM    3  C13 UNL     1       9.068  -2.822  33.252  1.00  0.00     0.079 C 
HETATM    4  C14 UNL     1       9.829  -1.529  33.176  1.00  0.00     0.099 C 
HETATM    5  N1  UNL     1      10.447  -0.545  33.100  1.00  0.00    -0.192 NA
ENDROOT
BRANCH   3   6
HETATM    6  C15 UNL     1       9.774  -3.951  32.699  1.00  0.00     0.261 C 
HETATM    7  C16 UNL     1      11.135  -4.210  32.920  1.00  0.00     0.106 C 
HETATM    8  N2  UNL     1      12.270  -4.460  33.070  1.00  0.00    -0.194 NA
HETATM    9  C17 UNL     1       9.489  -3.924  31.201  1.00  0.00     0.106 C 
HETATM   10  N3  UNL     1       9.284  -3.885  30.071  1.00  0.00    -0.194 NA
HETATM   11  C18 UNL     1       9.047  -5.227  33.094  1.00  0.00     0.106 C 
HETATM   12  N4  UNL     1       8.496  -6.191  33.414  1.00  0.00    -0.194 NA
ENDBRANCH   3   6
BRANCH   2  13
HETATM   13  C3  UNL     1       7.409  -1.395  34.303  1.00  0.00     0.015 C 
HETATM   14  C4  UNL     1       6.300  -0.878  34.673  1.00  0.00    -0.051 C 
HETATM   15  C5  UNL     1       4.999  -1.541  34.733  1.00  0.00     0.039 C 
HETATM   16  C9  UNL     1       6.333   0.563  35.071  1.00  0.00    -0.042 C 
HETATM   17  C6  UNL     1       3.878  -0.654  35.283  1.00  0.00     0.009 C 
HETATM   18  C7  UNL     1       4.428   0.110  36.473  1.00  0.00     0.043 C 
HETATM   19  C8  UNL     1       5.460   1.034  35.914  1.00  0.00    -0.005 C 
HETATM   20  C12 UNL     1       5.676   2.478  36.154  1.00  0.00     0.156 C 
HETATM   21  C11 UNL     1       6.422   2.903  34.922  1.00  0.00     0.088 C 
HETATM   22  O1  UNL     1       5.328   3.173  37.132  1.00  0.00    -0.293 OA
HETATM   23  C10 UNL     1       7.244   1.668  34.665  1.00  0.00     0.047 C 
ENDBRANCH   2  13
TORSDOF 2
ENDMDL
MODEL 5
REMARK VINA RESULT: -7.480610695      3.936      7.235
REMARK  2 active torsions:
REMARK  status: ('A' for Active; 'I' for Inactive)
REMARK    1  A    between atoms: C2_2  and  C3_3 
REMARK    2  A    between atoms: C13_14  and  C15_17 
ROOT
HETATM    1  C1  UNL     1       7.854   1.067  35.177  1.00  0.00     0.049 C 
HETATM    2  C2  UNL     1       7.534  -0.263  34.663  1.00  0.00    -0.041 C 
HETATM    3  C13 UNL     1       6.267  -0.673  34.834  1.00  0.00     0.079 C 
HETATM    4  C14 UNL     1       6.015  -2.045  34.278  1.00  0.00     0.099 C 
HETATM    5  N1  UNL     1       5.783  -3.107  33.857  1.00  0.00    -0.192 NA
ENDROOT
BRANCH   3   6
HETATM    6  C15 UNL     1       5.112  -0.067  35.446  1.00  0.00     0.261 C 
HETATM    7  C16 UNL     1       4.766   1.285  35.303  1.00  0.00     0.106 C 
HETATM    8  N2  UNL     1       4.444   2.408  35.218  1.00  0.00    -0.194 NA
HETATM    9  C17 UNL     1       5.191  -0.427  36.925  1.00  0.00     0.106 C 
HETATM   10  N3  UNL     1       5.268  -0.688  38.042  1.00  0.00    -0.194 NA
HETATM   11  C18 UNL     1       3.873  -0.850  35.039  1.00  0.00     0.106 C 
HETATM   12  N4  UNL     1       2.937  -1.441  34.709  1.00  0.00    -0.194 NA
ENDBRANCH   3   6
BRANCH   2  13
HETATM   13  C3  UNL     1       8.502  -1.111  33.993  1.00  0.00     0.015 C 
HETATM   14  C4  UNL     1       9.682  -0.979  33.518  1.00  0.00    -0.051 C 
HETATM   15  C5  UNL     1      10.500   0.232  33.521  1.00  0.00     0.039 C 
HETATM   16  C9  UNL     1      10.285  -2.189  32.877  1.00  0.00    -0.042 C 
HETATM   17  C6  UNL     1      11.899   0.034  32.928  1.00  0.00     0.009 C 
HETATM   18  C7  UNL     1      12.443  -1.284  33.444  1.00  0.00     0.043 C 
HETATM   19  C8  UNL     1      11.577  -2.340  32.838  1.00  0.00    -0.005 C 
HETATM   20  C12 UNL     1      11.946  -3.598  32.152  1.00  0.00     0.156 C 
HETATM   21  C11 UNL     1      10.736  -3.874  31.307  1.00  0.00     0.088 C 
HETATM   22  O1  UNL     1      12.998  -4.266  32.248  1.00  0.00    -0.293 OA
HETATM   23  C10 UNL     1       9.650  -3.362  32.216  1.00  0.00     0.047 C 
ENDBRANCH   2  13
TORSDOF 2
ENDMDL
