MODEL 1
REMARK VINA RESULT: -7.864449476      0.000      0.000
REMARK  2 active torsions:
REMARK  status: ('A' for Active; 'I' for Inactive)
REMARK    1  A    between atoms: C2_2  and  C3_4 
REMARK    2  A    between atoms: C5_6  and  C6_7 
ROOT
HETATM    1  C6  UNL     1       7.356  -1.226  33.818  1.00  0.00     0.012 C 
HETATM    2  C7  UNL     1       6.550  -0.235  34.642  1.00  0.00     0.009 C 
HETATM    3  C8  UNL     1       5.915  -0.814  35.851  1.00  0.00     0.005 C 
HETATM    4  C9  UNL     1       4.625  -1.521  35.642  1.00  0.00    -0.011 C 
HETATM    5  C10 UNL     1       3.610  -0.696  34.896  1.00  0.00     0.010 C 
HETATM    6  C11 UNL     1       4.751  -2.917  35.074  1.00  0.00     0.034 C 
HETATM    7  C12 UNL     1       5.121  -3.886  36.161  1.00  0.00     0.037 C 
HETATM    8  C13 UNL     1       5.134  -5.300  35.662  1.00  0.00     0.210 C 
HETATM    9  O2  UNL     1       5.942  -5.371  34.537  1.00  0.00    -0.238 OA
HETATM   10  O3  UNL     1       5.123  -5.288  33.489  1.00  0.00    -0.202 OA
HETATM   11  C14 UNL     1       5.333  -4.064  32.915  1.00  0.00     0.371 C 
HETATM   12  O4  UNL     1       4.242  -3.291  32.608  1.00  0.00    -0.201 OA
HETATM   13  O5  UNL     1       5.023  -2.227  32.822  1.00  0.00    -0.221 OA
HETATM   14  C15 UNL     1       5.592  -2.955  33.865  1.00  0.00     0.156 C 
HETATM   15  C16 UNL     1       7.059  -2.627  34.137  1.00  0.00     0.055 C 
ENDROOT
BRANCH   1  16
HETATM   16  C5  UNL     1       8.762  -0.889  33.753  1.00  0.00    -0.012 C 
HETATM   17  C3  UNL     1       9.788  -1.256  33.099  1.00  0.00    -0.020 C 
HETATM   18  C4  UNL     1       9.841  -2.281  32.057  1.00  0.00     0.052 C 
BRANCH  17  19
HETATM   19  C2  UNL     1      11.084  -0.588  33.395  1.00  0.00     0.151 C 
HETATM   20  C1  UNL     1      12.370  -1.324  33.284  1.00  0.00     0.096 C 
HETATM   21  O1  UNL     1      11.124   0.610  33.746  1.00  0.00    -0.293 OA
ENDBRANCH  17  19
ENDBRANCH   1  16
TORSDOF 2
ENDMDL
MODEL 2
REMARK VINA RESULT: -7.240038114      1.865      4.032
REMARK  2 active torsions:
REMARK  status: ('A' for Active; 'I' for Inactive)
REMARK    1  A    between atoms: C2_2  and  C3_4 
REMARK    2  A    between atoms: C5_6  and  C6_7 
ROOT
HETATM    1  C6  UNL     1       8.246  -1.933  34.360  1.00  0.00     0.012 C 
HETATM    2  C7  UNL     1       9.353  -2.562  33.528  1.00  0.00     0.009 C 
HETATM    3  C8  UNL     1       8.887  -3.226  32.286  1.00  0.00     0.005 C 
HETATM    4  C9  UNL     1       8.364  -4.609  32.436  1.00  0.00    -0.011 C 
HETATM    5  C10 UNL     1       9.312  -5.526  33.162  1.00  0.00     0.010 C 
HETATM    6  C11 UNL     1       6.956  -4.700  32.979  1.00  0.00     0.034 C 
HETATM    7  C12 UNL     1       5.962  -4.428  31.886  1.00  0.00     0.037 C 
HETATM    8  C13 UNL     1       4.552  -4.632  32.357  1.00  0.00     0.210 C 
HETATM    9  O2  UNL     1       4.351  -3.884  33.508  1.00  0.00    -0.238 OA
HETATM   10  O3  UNL     1       4.532  -4.722  34.528  1.00  0.00    -0.202 OA
HETATM   11  C14 UNL     1       5.706  -4.365  35.133  1.00  0.00     0.371 C 
HETATM   12  O4  UNL     1       6.620  -5.348  35.418  1.00  0.00    -0.201 OA
HETATM   13  O5  UNL     1       7.567  -4.419  35.253  1.00  0.00    -0.221 OA
HETATM   14  C15 UNL     1       6.782  -3.919  34.216  1.00  0.00     0.156 C 
HETATM   15  C16 UNL     1       6.906  -2.411  34.002  1.00  0.00     0.055 C 
ENDROOT
BRANCH   1  16
HETATM   16  C5  UNL     1       8.381  -0.497  34.480  1.00  0.00    -0.012 C 
HETATM   17  C3  UNL     1       7.870   0.441  35.168  1.00  0.00    -0.020 C 
HETATM   18  C4  UNL     1       6.841   0.310  36.198  1.00  0.00     0.052 C 
BRANCH  17  19
HETATM   19  C2  UNL     1       8.351   1.828  34.927  1.00  0.00     0.151 C 
HETATM   20  C1  UNL     1       7.438   2.992  35.066  1.00  0.00     0.096 C 
HETATM   21  O1  UNL     1       9.536   2.050  34.602  1.00  0.00    -0.293 OA
ENDBRANCH  17  19
ENDBRANCH   1  16
TORSDOF 2
ENDMDL
MODEL 3
REMARK VINA RESULT: -6.546058095      1.122      1.200
REMARK  2 active torsions:
REMARK  status: ('A' for Active; 'I' for Inactive)
REMARK    1  A    between atoms: C2_2  and  C3_4 
REMARK    2  A    between atoms: C5_6  and  C6_7 
ROOT
HETATM    1  C6  UNL     1       7.890  -1.854  33.639  1.00  0.00     0.012 C 
HETATM    2  C7  UNL     1       7.433  -0.651  34.448  1.00  0.00     0.009 C 
HETATM    3  C8  UNL     1       6.738  -0.989  35.714  1.00  0.00     0.005 C 
HETATM    4  C9  UNL     1       5.294  -1.324  35.603  1.00  0.00    -0.011 C 
HETATM    5  C10 UNL     1       4.499  -0.281  34.863  1.00  0.00     0.010 C 
HETATM    6  C11 UNL     1       5.003  -2.721  35.103  1.00  0.00     0.034 C 
HETATM    7  C12 UNL     1       5.161  -3.713  36.220  1.00  0.00     0.037 C 
HETATM    8  C13 UNL     1       4.760  -5.094  35.795  1.00  0.00     0.210 C 
HETATM    9  O2  UNL     1       5.451  -5.426  34.638  1.00  0.00    -0.238 OA
HETATM   10  O3  UNL     1       4.624  -5.161  33.628  1.00  0.00    -0.202 OA
HETATM   11  C14 UNL     1       5.123  -4.063  32.981  1.00  0.00     0.371 C 
HETATM   12  O4  UNL     1       4.266  -3.033  32.686  1.00  0.00    -0.201 OA
HETATM   13  O5  UNL     1       5.318  -2.216  32.808  1.00  0.00    -0.221 OA
HETATM   14  C15 UNL     1       5.729  -3.032  33.859  1.00  0.00     0.156 C 
HETATM   15  C16 UNL     1       7.244  -3.108  34.044  1.00  0.00     0.055 C 
ENDROOT
BRANCH   1  16
HETATM   16  C5  UNL     1       9.328  -1.918  33.491  1.00  0.00    -0.012 C 
HETATM   17  C3  UNL     1      10.171  -2.499  32.739  1.00  0.00    -0.020 C 
HETATM   18  C4  UNL     1       9.876  -3.407  31.631  1.00  0.00     0.052 C 
BRANCH  17  19
HETATM   19  C2  UNL     1      11.617  -2.245  32.980  1.00  0.00     0.151 C 
HETATM   20  C1  UNL     1      12.107  -0.895  33.358  1.00  0.00     0.096 C 
HETATM   21  O1  UNL     1      12.458  -3.162  32.869  1.00  0.00    -0.293 OA
ENDBRANCH  17  19
ENDBRANCH   1  16
TORSDOF 2
ENDMDL
MODEL 4
REMARK VINA RESULT: -6.113660384      1.835      3.774
REMARK  2 active torsions:
REMARK  status: ('A' for Active; 'I' for Inactive)
REMARK    1  A    between atoms: C2_2  and  C3_4 
REMARK    2  A    between atoms: C5_6  and  C6_7 
ROOT
HETATM    1  C6  UNL     1       8.298  -2.049  34.404  1.00  0.00     0.012 C 
HETATM    2  C7  UNL     1       9.382  -2.681  33.546  1.00  0.00     0.009 C 
HETATM    3  C8  UNL     1       8.890  -3.295  32.288  1.00  0.00     0.005 C 
HETATM    4  C9  UNL     1       8.332  -4.668  32.400  1.00  0.00    -0.011 C 
HETATM    5  C10 UNL     1       9.260  -5.630  33.092  1.00  0.00     0.010 C 
HETATM    6  C11 UNL     1       6.925  -4.738  32.951  1.00  0.00     0.034 C 
HETATM    7  C12 UNL     1       5.932  -4.407  31.873  1.00  0.00     0.037 C 
HETATM    8  C13 UNL     1       4.521  -4.588  32.348  1.00  0.00     0.210 C 
HETATM    9  O2  UNL     1       4.347  -3.869  33.522  1.00  0.00    -0.238 OA
HETATM   10  O3  UNL     1       4.512  -4.743  34.515  1.00  0.00    -0.202 OA
HETATM   11  C14 UNL     1       5.699  -4.435  35.123  1.00  0.00     0.371 C 
HETATM   12  O4  UNL     1       6.588  -5.450  35.371  1.00  0.00    -0.201 OA
HETATM   13  O5  UNL     1       7.558  -4.542  35.227  1.00  0.00    -0.221 OA
HETATM   14  C15 UNL     1       6.781  -3.990  34.212  1.00  0.00     0.156 C 
HETATM   15  C16 UNL     1       6.943  -2.480  34.042  1.00  0.00     0.055 C 
ENDROOT
BRANCH   1  16
HETATM   16  C5  UNL     1       8.472  -0.621  34.567  1.00  0.00    -0.012 C 
HETATM   17  C3  UNL     1       9.336   0.261  34.268  1.00  0.00    -0.020 C 
HETATM   18  C4  UNL     1      10.595   0.046  33.556  1.00  0.00     0.052 C 
BRANCH  17  19
HETATM   19  C2  UNL     1       9.065   1.670  34.663  1.00  0.00     0.151 C 
HETATM   20  C1  UNL     1       7.697   2.115  35.029  1.00  0.00     0.096 C 
HETATM   21  O1  UNL     1       9.984   2.515  34.697  1.00  0.00    -0.293 OA
ENDBRANCH  17  19
ENDBRANCH   1  16
TORSDOF 2
ENDMDL
MODEL 5
REMARK VINA RESULT: -5.852901902     10.849     13.024
REMARK  2 active torsions:
REMARK  status: ('A' for Active; 'I' for Inactive)
REMARK    1  A    between atoms: C2_2  and  C3_4 
REMARK    2  A    between atoms: C5_6  and  C6_7 
ROOT
HETATM    1  C6  UNL     1      13.471   7.173  35.508  1.00  0.00     0.012 C 
HETATM    2  C7  UNL     1      14.410   8.121  36.238  1.00  0.00     0.009 C 
HETATM    3  C8  UNL     1      15.509   8.662  35.400  1.00  0.00     0.005 C 
HETATM    4  C9  UNL     1      16.699   7.787  35.233  1.00  0.00    -0.011 C 
HETATM    5  C10 UNL     1      17.265   7.298  36.539  1.00  0.00     0.010 C 
HETATM    6  C11 UNL     1      16.527   6.666  34.232  1.00  0.00     0.034 C 
HETATM    7  C12 UNL     1      16.697   7.191  32.834  1.00  0.00     0.037 C 
HETATM    8  C13 UNL     1      16.657   6.086  31.821  1.00  0.00     0.210 C 
HETATM    9  O2  UNL     1      15.502   5.342  32.012  1.00  0.00    -0.238 OA
HETATM   10  O3  UNL     1      15.859   4.293  32.752  1.00  0.00    -0.202 OA
HETATM   11  C14 UNL     1      15.316   4.478  33.994  1.00  0.00     0.371 C 
HETATM   12  O4  UNL     1      16.121   4.305  35.091  1.00  0.00    -0.201 OA
HETATM   13  O5  UNL     1      15.363   5.219  35.705  1.00  0.00    -0.221 OA
HETATM   14  C15 UNL     1      15.307   5.879  34.480  1.00  0.00     0.156 C 
HETATM   15  C16 UNL     1      14.019   6.667  34.245  1.00  0.00     0.055 C 
ENDROOT
BRANCH   1  16
HETATM   16  C5  UNL     1      12.113   7.671  35.440  1.00  0.00    -0.012 C 
HETATM   17  C3  UNL     1      11.170   7.942  36.247  1.00  0.00    -0.020 C 
HETATM   18  C4  UNL     1      11.199   7.814  37.703  1.00  0.00     0.052 C 
BRANCH  17  19
HETATM   19  C2  UNL     1       9.891   8.453  35.683  1.00  0.00     0.151 C 
HETATM   20  C1  UNL     1       8.586   8.096  36.295  1.00  0.00     0.096 C 
HETATM   21  O1  UNL     1       9.883   9.196  34.679  1.00  0.00    -0.293 OA
ENDBRANCH  17  19
ENDBRANCH   1  16
TORSDOF 2
ENDMDL
