MODEL 1
REMARK VINA RESULT: -5.964321911      0.000      0.000
REMARK  10 active torsions:
REMARK  status: ('A' for Active; 'I' for Inactive)
REMARK    1  A    between atoms: C9_12  and  C10_13 
REMARK    2  A    between atoms: C10_13  and  C11_14 
REMARK    3  A    between atoms: C10_13  and  C15_24 
REMARK    4  A    between atoms: C11_14  and  C12_15 
REMARK    5  A    between atoms: C14_18  and  N2_19 
REMARK    6  A    between atoms: C15_24  and  C16_25 
REMARK    7  A    between atoms: C16_25  and  C17_28 
REMARK    8  A    between atoms: C22_39  and  N7_40 
REMARK    9  A    between atoms: N7_40  and  C23_42 
REMARK   10  A    between atoms: C25_44  and  C26_45 
ROOT
HETATM    1  C1  UNL     1     -10.213  10.984  51.297  1.00  0.00     0.048 C 
HETATM    2  C2  UNL     1      -8.948  11.619  51.760  1.00  0.00    -0.056 A 
HETATM    3  C3  UNL     1      -7.694  11.069  51.575  1.00  0.00     0.037 A 
HETATM    4  C4  UNL     1      -6.548  11.649  52.085  1.00  0.00     0.045 A 
HETATM    5  C5  UNL     1      -5.269  10.976  52.005  1.00  0.00     0.004 A 
HETATM    6  C6  UNL     1      -4.641  10.627  53.213  1.00  0.00     0.031 A 
HETATM    7  C7  UNL     1      -3.448   9.990  53.223  1.00  0.00     0.092 A 
HETATM    8  N1  UNL     1      -2.866   9.695  52.058  1.00  0.00    -0.333 N 
ATOM      9  H1  UNL     1      -1.968   9.213  52.056  1.00  0.00     0.168 HD
HETATM   10  C8  UNL     1      -3.449  10.028  50.869  1.00  0.00     0.253 A 
HETATM   11  O1  UNL     1      -2.766   9.696  49.888  1.00  0.00    -0.268 OA
HETATM   12  C9  UNL     1      -4.674  10.679  50.779  1.00  0.00     0.030 A 
HETATM   13  N6  UNL     1      -6.670  12.779  52.774  1.00  0.00    -0.342 N 
ATOM     14  H6  UNL     1      -5.835  13.221  53.159  1.00  0.00     0.167 HD
HETATM   15  C22 UNL     1      -7.903  13.368  52.979  1.00  0.00     0.107 A 
HETATM   16  C29 UNL     1      -9.034  12.789  52.475  1.00  0.00     0.055 A 
ENDROOT
BRANCH  12  17
HETATM   17  C10 UNL     1      -5.154  11.321  49.513  1.00  0.00     0.056 C 
BRANCH  17  18
HETATM   18  C11 UNL     1      -5.339  10.411  48.411  1.00  0.00     0.013 C 
BRANCH  18  19
HETATM   19  C12 UNL     1      -6.561   9.734  47.949  1.00  0.00     0.037 A 
HETATM   20  C13 UNL     1      -7.114   8.729  48.780  1.00  0.00     0.082 A 
HETATM   21  S1  UNL     1      -8.479   8.232  47.921  1.00  0.00    -0.064 SA
HETATM   22  C14 UNL     1      -8.323   9.265  46.579  1.00  0.00     0.142 A 
HETATM   23  N3  UNL     1      -7.225   9.958  46.843  1.00  0.00    -0.337 N 
ATOM     24  H3  UNL     1      -6.898  10.665  46.185  1.00  0.00     0.168 HD
BRANCH  22  25
HETATM   25  N2  UNL     1      -9.112   9.338  45.507  1.00  0.00    -0.380 N 
ATOM     26  H22 UNL     1      -8.844   9.381  44.523  1.00  0.00     0.158 HD
ATOM     27  H21 UNL     1     -10.132   9.349  45.479  1.00  0.00     0.158 HD
ENDBRANCH  22  25
ENDBRANCH  18  19
ENDBRANCH  17  18
BRANCH  17  28
HETATM   28  C15 UNL     1      -4.337  12.585  49.293  1.00  0.00     0.099 C 
BRANCH  28  29
HETATM   29  C16 UNL     1      -4.777  13.566  48.295  1.00  0.00     0.287 C 
HETATM   30  F1  UNL     1      -4.243  14.821  48.280  1.00  0.00    -0.199 F 
HETATM   31  F2  UNL     1      -4.583  13.063  46.994  1.00  0.00    -0.199 F 
BRANCH  29  32
HETATM   32  C17 UNL     1      -6.250  13.848  48.518  1.00  0.00     0.097 A 
HETATM   33  C18 UNL     1      -7.254  13.374  47.744  1.00  0.00     0.034 A 
HETATM   34  C19 UNL     1      -8.599  13.642  48.034  1.00  0.00     0.028 A 
HETATM   35  C20 UNL     1      -8.881  14.407  49.131  1.00  0.00     0.022 A 
HETATM   36  C21 UNL     1     -10.298  14.735  49.508  1.00  0.00     0.069 C 
HETATM   37  N4  UNL     1      -7.843  14.863  49.876  1.00  0.00    -0.305 N 
HETATM   38  N5  UNL     1      -6.577  14.609  49.603  1.00  0.00    -0.299 N 
ATOM     39  H4  UNL     1      -8.053  15.437  50.693  1.00  0.00     0.186 HD
ATOM     40  H5  UNL     1      -5.842  14.981  50.205  1.00  0.00     0.186 HD
ENDBRANCH  29  32
ENDBRANCH  28  29
ENDBRANCH  17  28
ENDBRANCH  12  17
BRANCH  15  41
HETATM   41  N7  UNL     1      -7.942  14.466  53.624  1.00  0.00    -0.329 N 
ATOM     42  H7  UNL     1      -7.966  14.360  54.639  1.00  0.00     0.169 HD
BRANCH  41  43
HETATM   43  C23 UNL     1      -7.959  15.778  53.181  1.00  0.00     0.107 A 
HETATM   44  C24 UNL     1      -6.696  16.422  53.197  1.00  0.00     0.061 A 
HETATM   45  C25 UNL     1      -6.478  17.684  52.766  1.00  0.00     0.010 A 
HETATM   46  C27 UNL     1      -7.542  18.412  52.276  1.00  0.00     0.029 A 
HETATM   47  C28 UNL     1      -8.782  17.758  52.271  1.00  0.00     0.090 A 
HETATM   48  N8  UNL     1      -8.955  16.506  52.704  1.00  0.00    -0.352 N 
ATOM     49  H8  UNL     1      -9.889  16.096  52.667  1.00  0.00     0.166 HD
BRANCH  45  50
HETATM   50  C26 UNL     1      -5.135  18.321  52.780  1.00  0.00     0.386 C 
HETATM   51  F3  UNL     1      -4.492  18.293  51.583  1.00  0.00    -0.209 F 
HETATM   52  F4  UNL     1      -4.402  17.632  53.754  1.00  0.00    -0.209 F 
ENDBRANCH  45  50
ENDBRANCH  41  43
ENDBRANCH  15  41
TORSDOF 10
ENDMDL
MODEL 2
REMARK VINA RESULT: -5.806987409      1.816      2.060
REMARK  10 active torsions:
REMARK  status: ('A' for Active; 'I' for Inactive)
REMARK    1  A    between atoms: C9_12  and  C10_13 
REMARK    2  A    between atoms: C10_13  and  C11_14 
REMARK    3  A    between atoms: C10_13  and  C15_24 
REMARK    4  A    between atoms: C11_14  and  C12_15 
REMARK    5  A    between atoms: C14_18  and  N2_19 
REMARK    6  A    between atoms: C15_24  and  C16_25 
REMARK    7  A    between atoms: C16_25  and  C17_28 
REMARK    8  A    between atoms: C22_39  and  N7_40 
REMARK    9  A    between atoms: N7_40  and  C23_42 
REMARK   10  A    between atoms: C25_44  and  C26_45 
ROOT
HETATM    1  C1  UNL     1     -10.614  11.803  51.391  1.00  0.00     0.048 C 
HETATM    2  C2  UNL     1      -9.280  12.461  51.320  1.00  0.00    -0.056 A 
HETATM    3  C3  UNL     1      -8.079  11.777  51.326  1.00  0.00     0.037 A 
HETATM    4  C4  UNL     1      -6.858  12.425  51.336  1.00  0.00     0.045 A 
HETATM    5  C5  UNL     1      -5.622  11.688  51.493  1.00  0.00     0.004 A 
HETATM    6  C6  UNL     1      -4.845  11.957  52.633  1.00  0.00     0.031 A 
HETATM    7  C7  UNL     1      -3.681  11.305  52.856  1.00  0.00     0.092 A 
HETATM    8  N1  UNL     1      -3.272  10.396  51.968  1.00  0.00    -0.333 N 
ATOM      9  H1  UNL     1      -2.397   9.898  52.130  1.00  0.00     0.168 HD
HETATM   10  C8  UNL     1      -4.003  10.119  50.849  1.00  0.00     0.253 A 
HETATM   11  O1  UNL     1      -3.470   9.263  50.125  1.00  0.00    -0.268 OA
HETATM   12  C9  UNL     1      -5.209  10.743  50.553  1.00  0.00     0.030 A 
HETATM   13  N6  UNL     1      -6.852  13.753  51.335  1.00  0.00    -0.342 N 
ATOM     14  H6  UNL     1      -5.960  14.249  51.344  1.00  0.00     0.167 HD
HETATM   15  C22 UNL     1      -8.028  14.479  51.323  1.00  0.00     0.107 A 
HETATM   16  C29 UNL     1      -9.234  13.835  51.317  1.00  0.00     0.055 A 
ENDROOT
BRANCH  12  17
HETATM   17  C10 UNL     1      -5.838  10.679  49.195  1.00  0.00     0.056 C 
BRANCH  17  18
HETATM   18  C11 UNL     1      -6.362   9.385  48.836  1.00  0.00     0.013 C 
BRANCH  18  19
HETATM   19  C12 UNL     1      -6.997   8.946  47.584  1.00  0.00     0.037 A 
HETATM   20  C13 UNL     1      -8.385   8.670  47.608  1.00  0.00     0.082 A 
HETATM   21  S1  UNL     1      -8.715   8.227  46.013  1.00  0.00    -0.064 SA
HETATM   22  C14 UNL     1      -7.146   8.392  45.376  1.00  0.00     0.142 A 
HETATM   23  N3  UNL     1      -6.425   8.785  46.416  1.00  0.00    -0.337 N 
ATOM     24  H3  UNL     1      -5.427   8.961  46.307  1.00  0.00     0.168 HD
BRANCH  22  25
HETATM   25  N2  UNL     1      -6.741   8.158  44.128  1.00  0.00    -0.380 N 
ATOM     26  H22 UNL     1      -5.999   8.622  43.604  1.00  0.00     0.158 HD
ATOM     27  H21 UNL     1      -7.095   7.456  43.476  1.00  0.00     0.158 HD
ENDBRANCH  22  25
ENDBRANCH  18  19
ENDBRANCH  17  18
BRANCH  17  28
HETATM   28  C15 UNL     1      -4.917  11.396  48.220  1.00  0.00     0.099 C 
BRANCH  28  29
HETATM   29  C16 UNL     1      -5.008  12.853  48.078  1.00  0.00     0.287 C 
HETATM   30  F1  UNL     1      -4.656  13.670  49.113  1.00  0.00    -0.199 F 
HETATM   31  F2  UNL     1      -4.237  13.288  46.981  1.00  0.00    -0.199 F 
BRANCH  29  32
HETATM   32  C17 UNL     1      -6.462  13.223  47.858  1.00  0.00     0.097 A 
HETATM   33  C18 UNL     1      -7.460  12.337  47.636  1.00  0.00     0.034 A 
HETATM   34  C19 UNL     1      -8.791  12.748  47.481  1.00  0.00     0.028 A 
HETATM   35  C20 UNL     1      -9.065  14.085  47.558  1.00  0.00     0.022 A 
HETATM   36  C21 UNL     1     -10.467  14.603  47.406  1.00  0.00     0.069 C 
HETATM   37  N4  UNL     1      -8.033  14.937  47.778  1.00  0.00    -0.305 N 
HETATM   38  N5  UNL     1      -6.780  14.549  47.926  1.00  0.00    -0.299 N 
ATOM     39  H4  UNL     1      -8.236  15.936  47.833  1.00  0.00     0.186 HD
ATOM     40  H5  UNL     1      -6.048  15.241  48.091  1.00  0.00     0.186 HD
ENDBRANCH  29  32
ENDBRANCH  28  29
ENDBRANCH  17  28
ENDBRANCH  12  17
BRANCH  15  41
HETATM   41  N7  UNL     1      -7.947  15.750  51.295  1.00  0.00    -0.329 N 
ATOM     42  H7  UNL     1      -8.204  16.171  50.403  1.00  0.00     0.169 HD
BRANCH  41  43
HETATM   43  C23 UNL     1      -7.570  16.656  52.273  1.00  0.00     0.107 A 
HETATM   44  C24 UNL     1      -8.369  17.826  52.334  1.00  0.00     0.061 A 
HETATM   45  C25 UNL     1      -8.204  18.816  53.239  1.00  0.00     0.010 A 
HETATM   46  C27 UNL     1      -7.197  18.701  54.174  1.00  0.00     0.029 A 
HETATM   47  C28 UNL     1      -6.417  17.538  54.095  1.00  0.00     0.090 A 
HETATM   48  N8  UNL     1      -6.615  16.580  53.185  1.00  0.00    -0.352 N 
ATOM     49  H8  UNL     1      -6.007  15.761  53.193  1.00  0.00     0.166 HD
BRANCH  45  50
HETATM   50  C26 UNL     1      -9.074  20.020  53.284  1.00  0.00     0.386 C 
HETATM   51  F3  UNL     1      -9.575  20.393  52.077  1.00  0.00    -0.209 F 
HETATM   52  F4  UNL     1      -8.280  21.037  53.829  1.00  0.00    -0.209 F 
ENDBRANCH  45  50
ENDBRANCH  41  43
ENDBRANCH  15  41
TORSDOF 10
ENDMDL
MODEL 3
REMARK VINA RESULT: -5.735068885      3.625      6.917
REMARK  10 active torsions:
REMARK  status: ('A' for Active; 'I' for Inactive)
REMARK    1  A    between atoms: C9_12  and  C10_13 
REMARK    2  A    between atoms: C10_13  and  C11_14 
REMARK    3  A    between atoms: C10_13  and  C15_24 
REMARK    4  A    between atoms: C11_14  and  C12_15 
REMARK    5  A    between atoms: C14_18  and  N2_19 
REMARK    6  A    between atoms: C15_24  and  C16_25 
REMARK    7  A    between atoms: C16_25  and  C17_28 
REMARK    8  A    between atoms: C22_39  and  N7_40 
REMARK    9  A    between atoms: N7_40  and  C23_42 
REMARK   10  A    between atoms: C25_44  and  C26_45 
ROOT
HETATM    1  C1  UNL     1     -12.166  11.631  48.876  1.00  0.00     0.048 C 
HETATM    2  C2  UNL     1     -11.411  12.909  48.763  1.00  0.00    -0.056 A 
HETATM    3  C3  UNL     1     -10.547  13.386  49.731  1.00  0.00     0.037 A 
HETATM    4  C4  UNL     1      -9.921  14.614  49.625  1.00  0.00     0.045 A 
HETATM    5  C5  UNL     1      -9.142  15.153  50.719  1.00  0.00     0.004 A 
HETATM    6  C6  UNL     1      -9.584  16.352  51.304  1.00  0.00     0.031 A 
HETATM    7  C7  UNL     1      -8.914  16.915  52.336  1.00  0.00     0.092 A 
HETATM    8  N1  UNL     1      -7.815  16.314  52.794  1.00  0.00    -0.333 N 
ATOM      9  H1  UNL     1      -7.305  16.730  53.573  1.00  0.00     0.168 HD
HETATM   10  C8  UNL     1      -7.358  15.152  52.242  1.00  0.00     0.253 A 
HETATM   11  O1  UNL     1      -6.317  14.740  52.776  1.00  0.00    -0.268 OA
HETATM   12  C9  UNL     1      -7.993  14.512  51.184  1.00  0.00     0.030 A 
HETATM   13  N6  UNL     1     -10.164  15.352  48.547  1.00  0.00    -0.342 N 
ATOM     14  H6  UNL     1      -9.713  16.261  48.452  1.00  0.00     0.167 HD
HETATM   15  C22 UNL     1     -11.016  14.913  47.551  1.00  0.00     0.107 A 
HETATM   16  C29 UNL     1     -11.636  13.699  47.661  1.00  0.00     0.055 A 
ENDROOT
BRANCH  12  17
HETATM   17  C10 UNL     1      -7.331  13.435  50.379  1.00  0.00     0.056 C 
BRANCH  17  18
HETATM   18  C11 UNL     1      -7.003  12.245  51.124  1.00  0.00     0.013 C 
BRANCH  18  19
HETATM   19  C12 UNL     1      -6.023  11.190  50.820  1.00  0.00     0.037 A 
HETATM   20  C13 UNL     1      -6.514   9.945  50.358  1.00  0.00     0.082 A 
HETATM   21  S1  UNL     1      -5.106   9.046  50.115  1.00  0.00    -0.064 SA
HETATM   22  C14 UNL     1      -3.971  10.221  50.589  1.00  0.00     0.142 A 
HETATM   23  N3  UNL     1      -4.718  11.265  50.915  1.00  0.00    -0.337 N 
ATOM     24  H3  UNL     1      -4.279  12.126  51.240  1.00  0.00     0.168 HD
BRANCH  22  25
HETATM   25  N2  UNL     1      -2.644  10.103  50.639  1.00  0.00    -0.380 N 
ATOM     26  H22 UNL     1      -1.936  10.783  50.359  1.00  0.00     0.158 HD
ATOM     27  H21 UNL     1      -2.098   9.313  50.983  1.00  0.00     0.158 HD
ENDBRANCH  22  25
ENDBRANCH  18  19
ENDBRANCH  17  18
BRANCH  17  28
HETATM   28  C15 UNL     1      -6.256  14.087  49.523  1.00  0.00     0.099 C 
BRANCH  28  29
HETATM   29  C16 UNL     1      -6.409  14.110  48.064  1.00  0.00     0.287 C 
HETATM   30  F1  UNL     1      -7.353  14.904  47.483  1.00  0.00    -0.199 F 
HETATM   31  F2  UNL     1      -5.192  14.466  47.449  1.00  0.00    -0.199 F 
BRANCH  29  32
HETATM   32  C17 UNL     1      -6.827  12.726  47.605  1.00  0.00     0.097 A 
HETATM   33  C18 UNL     1      -8.107  12.315  47.454  1.00  0.00     0.034 A 
HETATM   34  C19 UNL     1      -8.420  11.032  46.984  1.00  0.00     0.028 A 
HETATM   35  C20 UNL     1      -7.389  10.189  46.680  1.00  0.00     0.022 A 
HETATM   36  C21 UNL     1      -7.644   8.799  46.169  1.00  0.00     0.069 C 
HETATM   37  N4  UNL     1      -6.121  10.642  46.851  1.00  0.00    -0.305 N 
HETATM   38  N5  UNL     1      -5.827  11.851  47.290  1.00  0.00    -0.299 N 
ATOM     39  H4  UNL     1      -5.351  10.011  46.627  1.00  0.00     0.186 HD
ATOM     40  H5  UNL     1      -4.852  12.131  47.395  1.00  0.00     0.186 HD
ENDBRANCH  29  32
ENDBRANCH  28  29
ENDBRANCH  17  28
ENDBRANCH  12  17
BRANCH  15  41
HETATM   41  N7  UNL     1     -11.181  15.660  46.532  1.00  0.00    -0.329 N 
ATOM     42  H7  UNL     1     -10.696  16.555  46.581  1.00  0.00     0.169 HD
BRANCH  41  43
HETATM   43  C23 UNL     1     -11.908  15.460  45.370  1.00  0.00     0.107 A 
HETATM   44  C24 UNL     1     -11.157  14.946  44.284  1.00  0.00     0.061 A 
HETATM   45  C25 UNL     1     -11.676  14.637  43.075  1.00  0.00     0.010 A 
HETATM   46  C27 UNL     1     -13.025  14.828  42.863  1.00  0.00     0.029 A 
HETATM   47  C28 UNL     1     -13.750  15.339  43.949  1.00  0.00     0.090 A 
HETATM   48  N8  UNL     1     -13.198  15.630  45.130  1.00  0.00    -0.352 N 
ATOM     49  H8  UNL     1     -13.793  15.997  45.874  1.00  0.00     0.166 HD
BRANCH  45  50
HETATM   50  C26 UNL     1     -10.859  14.080  41.965  1.00  0.00     0.386 C 
HETATM   51  F3  UNL     1     -10.531  12.771  42.115  1.00  0.00    -0.209 F 
HETATM   52  F4  UNL     1      -9.710  14.878  41.907  1.00  0.00    -0.209 F 
ENDBRANCH  45  50
ENDBRANCH  41  43
ENDBRANCH  15  41
TORSDOF 10
ENDMDL
MODEL 4
REMARK VINA RESULT: -5.697748261      3.550      5.760
REMARK  10 active torsions:
REMARK  status: ('A' for Active; 'I' for Inactive)
REMARK    1  A    between atoms: C9_12  and  C10_13 
REMARK    2  A    between atoms: C10_13  and  C11_14 
REMARK    3  A    between atoms: C10_13  and  C15_24 
REMARK    4  A    between atoms: C11_14  and  C12_15 
REMARK    5  A    between atoms: C14_18  and  N2_19 
REMARK    6  A    between atoms: C15_24  and  C16_25 
REMARK    7  A    between atoms: C16_25  and  C17_28 
REMARK    8  A    between atoms: C22_39  and  N7_40 
REMARK    9  A    between atoms: N7_40  and  C23_42 
REMARK   10  A    between atoms: C25_44  and  C26_45 
ROOT
HETATM    1  C1  UNL     1     -12.267  12.261  48.768  1.00  0.00     0.048 C 
HETATM    2  C2  UNL     1     -11.371  13.450  48.816  1.00  0.00    -0.056 A 
HETATM    3  C3  UNL     1     -10.464  13.693  49.830  1.00  0.00     0.037 A 
HETATM    4  C4  UNL     1      -9.702  14.845  49.881  1.00  0.00     0.045 A 
HETATM    5  C5  UNL     1      -8.871  15.142  51.028  1.00  0.00     0.004 A 
HETATM    6  C6  UNL     1      -9.176  16.295  51.772  1.00  0.00     0.031 A 
HETATM    7  C7  UNL     1      -8.451  16.637  52.861  1.00  0.00     0.092 A 
HETATM    8  N1  UNL     1      -7.429  15.860  53.224  1.00  0.00    -0.333 N 
ATOM      9  H1  UNL     1      -6.879  16.109  54.046  1.00  0.00     0.168 HD
HETATM   10  C8  UNL     1      -7.105  14.738  52.517  1.00  0.00     0.253 A 
HETATM   11  O1  UNL     1      -6.120  14.144  52.982  1.00  0.00    -0.268 OA
HETATM   12  C9  UNL     1      -7.804  14.320  51.391  1.00  0.00     0.030 A 
HETATM   13  N6  UNL     1      -9.855  15.742  48.913  1.00  0.00    -0.342 N 
ATOM     14  H6  UNL     1      -9.302  16.599  48.934  1.00  0.00     0.167 HD
HETATM   15  C22 UNL     1     -10.746  15.539  47.877  1.00  0.00     0.107 A 
HETATM   16  C29 UNL     1     -11.501  14.400  47.832  1.00  0.00     0.055 A 
ENDROOT
BRANCH  12  17
HETATM   17  C10 UNL     1      -7.265  13.291  50.444  1.00  0.00     0.056 C 
BRANCH  17  18
HETATM   18  C11 UNL     1      -6.976  12.014  51.045  1.00  0.00     0.013 C 
BRANCH  18  19
HETATM   19  C12 UNL     1      -5.971  11.007  50.670  1.00  0.00     0.037 A 
HETATM   20  C13 UNL     1      -6.433   9.749  50.216  1.00  0.00     0.082 A 
HETATM   21  S1  UNL     1      -5.004   8.916  49.880  1.00  0.00    -0.064 SA
HETATM   22  C14 UNL     1      -3.895  10.132  50.310  1.00  0.00     0.142 A 
HETATM   23  N3  UNL     1      -4.667  11.138  50.694  1.00  0.00    -0.337 N 
ATOM     24  H3  UNL     1      -4.248  12.012  51.009  1.00  0.00     0.168 HD
BRANCH  22  25
HETATM   25  N2  UNL     1      -2.564  10.072  50.284  1.00  0.00    -0.380 N 
ATOM     26  H22 UNL     1      -1.957   9.768  49.522  1.00  0.00     0.158 HD
ATOM     27  H21 UNL     1      -1.911  10.337  51.022  1.00  0.00     0.158 HD
ENDBRANCH  22  25
ENDBRANCH  18  19
ENDBRANCH  17  18
BRANCH  17  28
HETATM   28  C15 UNL     1      -6.200  13.959  49.588  1.00  0.00     0.099 C 
BRANCH  28  29
HETATM   29  C16 UNL     1      -6.381  14.032  48.134  1.00  0.00     0.287 C 
HETATM   30  F1  UNL     1      -7.303  14.883  47.597  1.00  0.00    -0.199 F 
HETATM   31  F2  UNL     1      -5.164  14.355  47.503  1.00  0.00    -0.199 F 
BRANCH  29  32
HETATM   32  C17 UNL     1      -6.867  12.683  47.643  1.00  0.00     0.097 A 
HETATM   33  C18 UNL     1      -8.167  12.324  47.527  1.00  0.00     0.034 A 
HETATM   34  C19 UNL     1      -8.545  11.071  47.026  1.00  0.00     0.028 A 
HETATM   35  C20 UNL     1      -7.558  10.202  46.654  1.00  0.00     0.022 A 
HETATM   36  C21 UNL     1      -7.884   8.842  46.105  1.00  0.00     0.069 C 
HETATM   37  N4  UNL     1      -6.269  10.602  46.792  1.00  0.00    -0.305 N 
HETATM   38  N5  UNL     1      -5.914  11.783  47.262  1.00  0.00    -0.299 N 
ATOM     39  H4  UNL     1      -5.532   9.952  46.517  1.00  0.00     0.186 HD
ATOM     40  H5  UNL     1      -4.925  12.024  47.339  1.00  0.00     0.186 HD
ENDBRANCH  29  32
ENDBRANCH  28  29
ENDBRANCH  17  28
ENDBRANCH  12  17
BRANCH  15  41
HETATM   41  N7  UNL     1     -10.821  16.428  46.968  1.00  0.00    -0.329 N 
ATOM     42  H7  UNL     1     -11.083  16.073  46.048  1.00  0.00     0.169 HD
BRANCH  41  43
HETATM   43  C23 UNL     1     -10.608  17.796  47.018  1.00  0.00     0.107 A 
HETATM   44  C24 UNL     1     -11.678  18.541  47.576  1.00  0.00     0.061 A 
HETATM   45  C25 UNL     1     -11.661  19.879  47.759  1.00  0.00     0.010 A 
HETATM   46  C27 UNL     1     -10.538  20.588  47.385  1.00  0.00     0.029 A 
HETATM   47  C28 UNL     1      -9.493  19.833  46.835  1.00  0.00     0.090 A 
HETATM   48  N8  UNL     1      -9.548  18.509  46.671  1.00  0.00    -0.352 N 
ATOM     49  H8  UNL     1      -8.745  18.028  46.265  1.00  0.00     0.166 HD
BRANCH  45  50
HETATM   50  C26 UNL     1     -12.795  20.625  48.366  1.00  0.00     0.386 C 
HETATM   51  F3  UNL     1     -12.508  21.913  48.687  1.00  0.00    -0.209 F 
HETATM   52  F4  UNL     1     -13.157  19.896  49.506  1.00  0.00    -0.209 F 
ENDBRANCH  45  50
ENDBRANCH  41  43
ENDBRANCH  15  41
TORSDOF 10
ENDMDL
MODEL 5
REMARK VINA RESULT: -5.670498230      3.157      5.858
REMARK  10 active torsions:
REMARK  status: ('A' for Active; 'I' for Inactive)
REMARK    1  A    between atoms: C9_12  and  C10_13 
REMARK    2  A    between atoms: C10_13  and  C11_14 
REMARK    3  A    between atoms: C10_13  and  C15_24 
REMARK    4  A    between atoms: C11_14  and  C12_15 
REMARK    5  A    between atoms: C14_18  and  N2_19 
REMARK    6  A    between atoms: C15_24  and  C16_25 
REMARK    7  A    between atoms: C16_25  and  C17_28 
REMARK    8  A    between atoms: C22_39  and  N7_40 
REMARK    9  A    between atoms: N7_40  and  C23_42 
REMARK   10  A    between atoms: C25_44  and  C26_45 
ROOT
HETATM    1  C1  UNL     1      -4.483  14.564  48.037  1.00  0.00     0.048 C 
HETATM    2  C2  UNL     1      -5.726  13.748  47.963  1.00  0.00    -0.056 A 
HETATM    3  C3  UNL     1      -5.744  12.366  47.939  1.00  0.00     0.037 A 
HETATM    4  C4  UNL     1      -6.912  11.642  47.794  1.00  0.00     0.045 A 
HETATM    5  C5  UNL     1      -6.886  10.205  47.622  1.00  0.00     0.004 A 
HETATM    6  C6  UNL     1      -7.384   9.685  46.416  1.00  0.00     0.031 A 
HETATM    7  C7  UNL     1      -7.387   8.354  46.176  1.00  0.00     0.092 A 
HETATM    8  N1  UNL     1      -6.909   7.530  47.112  1.00  0.00    -0.333 N 
ATOM      9  H1  UNL     1      -6.905   6.526  46.938  1.00  0.00     0.168 HD
HETATM   10  C8  UNL     1      -6.425   8.006  48.296  1.00  0.00     0.253 A 
HETATM   11  O1  UNL     1      -6.038   7.105  49.055  1.00  0.00    -0.268 OA
HETATM   12  C9  UNL     1      -6.385   9.359  48.613  1.00  0.00     0.030 A 
HETATM   13  N6  UNL     1      -8.054  12.311  47.678  1.00  0.00    -0.342 N 
ATOM     14  H6  UNL     1      -8.927  11.794  47.568  1.00  0.00     0.167 HD
HETATM   15  C22 UNL     1      -8.085  13.692  47.702  1.00  0.00     0.107 A 
HETATM   16  C29 UNL     1      -6.927  14.405  47.842  1.00  0.00     0.055 A 
ENDROOT
BRANCH  12  17
HETATM   17  C10 UNL     1      -6.160   9.854  50.009  1.00  0.00     0.056 C 
BRANCH  17  18
HETATM   18  C11 UNL     1      -4.827   9.642  50.514  1.00  0.00     0.013 C 
BRANCH  18  19
HETATM   19  C12 UNL     1      -4.240  10.037  51.804  1.00  0.00     0.037 A 
HETATM   20  C13 UNL     1      -4.276   9.096  52.862  1.00  0.00     0.082 A 
HETATM   21  S1  UNL     1      -3.505   9.910  54.123  1.00  0.00    -0.064 SA
HETATM   22  C14 UNL     1      -3.171  11.369  53.315  1.00  0.00     0.142 A 
HETATM   23  N3  UNL     1      -3.663  11.175  52.101  1.00  0.00    -0.337 N 
ATOM     24  H3  UNL     1      -3.593  11.910  51.398  1.00  0.00     0.168 HD
BRANCH  22  25
HETATM   25  N2  UNL     1      -2.572  12.456  53.803  1.00  0.00    -0.380 N 
ATOM     26  H22 UNL     1      -2.837  13.016  54.614  1.00  0.00     0.158 HD
ATOM     27  H21 UNL     1      -1.729  12.914  53.457  1.00  0.00     0.158 HD
ENDBRANCH  22  25
ENDBRANCH  18  19
ENDBRANCH  17  18
BRANCH  17  28
HETATM   28  C15 UNL     1      -7.346   9.415  50.855  1.00  0.00     0.099 C 
BRANCH  28  29
HETATM   29  C16 UNL     1      -8.346  10.405  51.269  1.00  0.00     0.287 C 
HETATM   30  F1  UNL     1      -9.035  11.120  50.333  1.00  0.00    -0.199 F 
HETATM   31  F2  UNL     1      -9.329   9.801  52.076  1.00  0.00    -0.199 F 
BRANCH  29  32
HETATM   32  C17 UNL     1      -7.643  11.497  52.052  1.00  0.00     0.097 A 
HETATM   33  C18 UNL     1      -7.390  12.742  51.587  1.00  0.00     0.034 A 
HETATM   34  C19 UNL     1      -6.772  13.716  52.383  1.00  0.00     0.028 A 
HETATM   35  C20 UNL     1      -6.420  13.376  53.659  1.00  0.00     0.022 A 
HETATM   36  C21 UNL     1      -5.756  14.366  54.574  1.00  0.00     0.069 C 
HETATM   37  N4  UNL     1      -6.688  12.115  54.081  1.00  0.00    -0.305 N 
HETATM   38  N5  UNL     1      -7.273  11.199  53.332  1.00  0.00    -0.299 N 
ATOM     39  H4  UNL     1      -6.423  11.860  55.033  1.00  0.00     0.186 HD
ATOM     40  H5  UNL     1      -7.449  10.268  53.710  1.00  0.00     0.186 HD
ENDBRANCH  29  32
ENDBRANCH  28  29
ENDBRANCH  17  28
ENDBRANCH  12  17
BRANCH  15  41
HETATM   41  N7  UNL     1      -9.219  14.267  47.614  1.00  0.00    -0.329 N 
ATOM     42  H7  UNL     1      -9.678  14.162  46.709  1.00  0.00     0.169 HD
BRANCH  41  43
HETATM   43  C23 UNL     1      -9.933  15.011  48.539  1.00  0.00     0.107 A 
HETATM   44  C24 UNL     1     -10.081  14.393  49.806  1.00  0.00     0.061 A 
HETATM   45  C25 UNL     1     -10.702  14.960  50.863  1.00  0.00     0.010 A 
HETATM   46  C27 UNL     1     -11.235  16.224  50.722  1.00  0.00     0.029 A 
HETATM   47  C28 UNL     1     -11.079  16.818  49.461  1.00  0.00     0.090 A 
HETATM   48  N8  UNL     1     -10.456  16.223  48.440  1.00  0.00    -0.352 N 
ATOM     49  H8  UNL     1     -10.380  16.720  47.553  1.00  0.00     0.166 HD
BRANCH  45  50
HETATM   50  C26 UNL     1     -10.822  14.288  52.184  1.00  0.00     0.386 C 
HETATM   51  F3  UNL     1      -9.874  14.656  53.085  1.00  0.00    -0.209 F 
HETATM   52  F4  UNL     1     -10.748  12.916  51.916  1.00  0.00    -0.209 F 
ENDBRANCH  45  50
ENDBRANCH  41  43
ENDBRANCH  15  41
TORSDOF 10
ENDMDL
