MODEL 1
REMARK VINA RESULT: -5.631231641      0.000      0.000
REMARK  13 active torsions:
REMARK  status: ('A' for Active; 'I' for Inactive)
REMARK    1  A    between atoms: C6_8  and  C7_9 
REMARK    2  A    between atoms: C10_12  and  C11_13 
REMARK    3  A    between atoms: C11_13  and  C12_14 
REMARK    4  A    between atoms: C11_13  and  C24_35 
REMARK    5  A    between atoms: C16_20  and  O1_21 
REMARK    6  A    between atoms: O1_21  and  C17_22 
REMARK    7  A    between atoms: C19_24  and  C20_25 
REMARK    8  A    between atoms: C20_25  and  O2_26 
REMARK    9  A    between atoms: C21_29  and  C22_30 
REMARK   10  A    between atoms: C22_30  and  O4_31 
REMARK   11  A    between atoms: C24_35  and  O5_36 
REMARK   12  A    between atoms: C24_35  and  C25_38 
REMARK   13  A    between atoms: C25_38  and  O6_39 
ROOT
HETATM    1  N1  UNL     1      -3.794  14.322  47.829  1.00  0.00    -0.191 NA
HETATM    2  C1  UNL     1      -4.900  14.286  48.169  1.00  0.00     0.099 C 
HETATM    3  C2  UNL     1      -6.289  14.247  48.575  1.00  0.00     0.048 A 
HETATM    4  C3  UNL     1      -6.568  14.203  49.922  1.00  0.00     0.065 A 
HETATM    5  C4  UNL     1      -7.878  14.166  50.317  1.00  0.00     0.118 A 
HETATM    6  F1  UNL     1      -8.146  14.123  51.648  1.00  0.00    -0.206 F 
HETATM    7  C5  UNL     1      -8.879  14.174  49.364  1.00  0.00     0.054 A 
HETATM    8  C6  UNL     1      -8.601  14.219  48.004  1.00  0.00    -0.020 A 
HETATM    9  C28 UNL     1      -7.287  14.256  47.594  1.00  0.00     0.035 A 
ENDROOT
BRANCH   8  10
HETATM   10  C7  UNL     1      -9.685  14.233  47.040  1.00  0.00    -0.004 A 
HETATM   11  C8  UNL     1     -10.200  15.427  46.571  1.00  0.00     0.015 A 
HETATM   12  C9  UNL     1     -11.224  15.395  45.648  1.00  0.00     0.013 A 
HETATM   13  C10 UNL     1     -11.782  14.243  45.151  1.00  0.00    -0.025 A 
HETATM   14  C26 UNL     1     -11.264  13.050  45.622  1.00  0.00     0.036 A 
HETATM   15  C27 UNL     1     -10.227  13.060  46.557  1.00  0.00     0.045 A 
HETATM   16 CL3  UNL     1      -9.669  11.482  47.080  1.00  0.00    -0.083 Cl
BRANCH  13  17
HETATM   17  C11 UNL     1     -12.866  14.312  44.148  1.00  0.00    -0.002 C 
BRANCH  17  18
HETATM   18  C12 UNL     1     -12.458  14.409  42.757  1.00  0.00     0.037 A 
HETATM   19  C13 UNL     1     -12.506  15.683  42.134  1.00  0.00     0.049 A 
HETATM   20 CL1  UNL     1     -13.036  17.066  43.080  1.00  0.00    -0.083 Cl
HETATM   21  C14 UNL     1     -12.157  15.857  40.819  1.00  0.00     0.051 A 
HETATM   22  C15 UNL     1     -11.744  14.759  40.074  1.00  0.00     0.072 A 
HETATM   23 CL2  UNL     1     -11.292  15.037  38.384  1.00  0.00    -0.081 Cl
HETATM   24  C16 UNL     1     -11.676  13.495  40.620  1.00  0.00     0.130 A 
HETATM   25  C23 UNL     1     -12.048  13.376  41.970  1.00  0.00     0.164 A 
HETATM   26  F2  UNL     1     -12.058  12.141  42.454  1.00  0.00    -0.202 F 
BRANCH  24  27
HETATM   27  O1  UNL     1     -11.283  12.413  39.916  1.00  0.00    -0.338 OA
BRANCH  27  28
HETATM   28  C17 UNL     1     -11.935  11.342  39.362  1.00  0.00     0.162 C 
HETATM   29  C18 UNL     1     -11.827  11.416  37.814  1.00  0.00     0.069 C 
HETATM   30  C19 UNL     1     -10.412  10.966  37.667  1.00  0.00     0.148 C 
HETATM   31  O3  UNL     1     -10.224   9.943  38.593  1.00  0.00    -0.374 OA
HETATM   32  C21 UNL     1     -11.263  10.002  39.524  1.00  0.00     0.175 C 
BRANCH  30  33
HETATM   33  C20 UNL     1     -10.080  10.522  36.260  1.00  0.00     0.196 C 
BRANCH  33  34
HETATM   34  O2  UNL     1      -9.119   9.524  36.235  1.00  0.00    -0.398 OA
ATOM     35  H2  UNL     1      -8.647   9.498  35.411  1.00  0.00     0.209 HD
ENDBRANCH  33  34
ENDBRANCH  30  33
BRANCH  32  36
HETATM   36  C22 UNL     1     -10.770   9.682  40.887  1.00  0.00     0.198 C 
BRANCH  36  37
HETATM   37  O4  UNL     1      -9.594  10.430  41.100  1.00  0.00    -0.398 OA
ATOM     38  H4  UNL     1      -8.874   9.952  40.705  1.00  0.00     0.209 HD
ENDBRANCH  36  37
ENDBRANCH  32  36
ENDBRANCH  27  28
ENDBRANCH  24  27
ENDBRANCH  17  18
BRANCH  17  39
HETATM   39  C24 UNL     1     -14.094  13.586  44.533  1.00  0.00     0.176 C 
BRANCH  39  40
HETATM   40  O5  UNL     1     -15.096  13.805  43.495  1.00  0.00    -0.389 OA
ATOM     41  H5  UNL     1     -15.503  14.649  43.651  1.00  0.00     0.210 HD
ENDBRANCH  39  40
BRANCH  39  42
HETATM   42  C25 UNL     1     -14.857  14.173  45.729  1.00  0.00     0.200 C 
BRANCH  42  43
HETATM   43  O6  UNL     1     -15.040  15.543  45.630  1.00  0.00    -0.398 OA
ATOM     44  H6  UNL     1     -14.626  16.022  46.338  1.00  0.00     0.209 HD
ENDBRANCH  42  43
ENDBRANCH  39  42
ENDBRANCH  17  39
ENDBRANCH  13  17
ENDBRANCH   8  10
TORSDOF 13
ENDMDL
MODEL 2
REMARK VINA RESULT: -5.435282798      4.817      9.469
REMARK  13 active torsions:
REMARK  status: ('A' for Active; 'I' for Inactive)
REMARK    1  A    between atoms: C6_8  and  C7_9 
REMARK    2  A    between atoms: C10_12  and  C11_13 
REMARK    3  A    between atoms: C11_13  and  C12_14 
REMARK    4  A    between atoms: C11_13  and  C24_35 
REMARK    5  A    between atoms: C16_20  and  O1_21 
REMARK    6  A    between atoms: O1_21  and  C17_22 
REMARK    7  A    between atoms: C19_24  and  C20_25 
REMARK    8  A    between atoms: C20_25  and  O2_26 
REMARK    9  A    between atoms: C21_29  and  C22_30 
REMARK   10  A    between atoms: C22_30  and  O4_31 
REMARK   11  A    between atoms: C24_35  and  O5_36 
REMARK   12  A    between atoms: C24_35  and  C25_38 
REMARK   13  A    between atoms: C25_38  and  O6_39 
ROOT
HETATM    1  N1  UNL     1     -15.489  18.491  40.575  1.00  0.00    -0.191 NA
HETATM    2  C1  UNL     1     -14.566  17.797  40.635  1.00  0.00     0.099 C 
HETATM    3  C2  UNL     1     -13.413  16.925  40.730  1.00  0.00     0.048 A 
HETATM    4  C3  UNL     1     -12.517  16.922  39.685  1.00  0.00     0.065 A 
HETATM    5  C4  UNL     1     -11.424  16.102  39.764  1.00  0.00     0.118 A 
HETATM    6  F1  UNL     1     -10.544  16.104  38.730  1.00  0.00    -0.206 F 
HETATM    7  C5  UNL     1     -11.248  15.304  40.880  1.00  0.00     0.054 A 
HETATM    8  C6  UNL     1     -12.151  15.305  41.935  1.00  0.00    -0.020 A 
HETATM    9  C28 UNL     1     -13.254  16.126  41.867  1.00  0.00     0.035 A 
ENDROOT
BRANCH   8  10
HETATM   10  C7  UNL     1     -11.921  14.457  43.089  1.00  0.00    -0.004 A 
HETATM   11  C8  UNL     1     -11.472  14.991  44.282  1.00  0.00     0.015 A 
HETATM   12  C9  UNL     1     -11.274  14.149  45.358  1.00  0.00     0.013 A 
HETATM   13  C10 UNL     1     -11.495  12.795  45.330  1.00  0.00    -0.025 A 
HETATM   14  C26 UNL     1     -11.944  12.263  44.134  1.00  0.00     0.036 A 
HETATM   15  C27 UNL     1     -12.151  13.098  43.034  1.00  0.00     0.045 A 
HETATM   16 CL3  UNL     1     -12.711  12.298  41.577  1.00  0.00    -0.083 Cl
BRANCH  13  17
HETATM   17  C11 UNL     1     -11.272  11.978  46.542  1.00  0.00    -0.002 C 
BRANCH  17  18
HETATM   18  C12 UNL     1      -9.936  11.437  46.724  1.00  0.00     0.037 A 
HETATM   19  C13 UNL     1      -9.711  10.081  46.374  1.00  0.00     0.049 A 
HETATM   20 CL1  UNL     1     -11.049   9.142  45.729  1.00  0.00    -0.083 Cl
HETATM   21  C14 UNL     1      -8.484   9.488  46.534  1.00  0.00     0.051 A 
HETATM   22  C15 UNL     1      -7.431  10.233  47.050  1.00  0.00     0.072 A 
HETATM   23 CL2  UNL     1      -5.864   9.427  47.226  1.00  0.00    -0.081 Cl
HETATM   24  C16 UNL     1      -7.585  11.555  47.410  1.00  0.00     0.130 A 
HETATM   25  C23 UNL     1      -8.864  12.109  47.226  1.00  0.00     0.164 A 
HETATM   26  F2  UNL     1      -9.015  13.355  47.656  1.00  0.00    -0.202 F 
BRANCH  24  27
HETATM   27  O1  UNL     1      -6.579  12.298  47.917  1.00  0.00    -0.338 OA
BRANCH  27  28
HETATM   28  C17 UNL     1      -6.345  12.893  49.130  1.00  0.00     0.162 C 
HETATM   29  C18 UNL     1      -5.740  11.851  50.109  1.00  0.00     0.069 C 
HETATM   30  C19 UNL     1      -4.351  11.813  49.563  1.00  0.00     0.148 C 
HETATM   31  O3  UNL     1      -4.019  13.124  49.235  1.00  0.00    -0.374 OA
HETATM   32  C21 UNL     1      -5.198  13.870  49.176  1.00  0.00     0.175 C 
BRANCH  30  33
HETATM   33  C20 UNL     1      -3.359  11.203  50.528  1.00  0.00     0.196 C 
BRANCH  33  34
HETATM   34  O2  UNL     1      -3.009  12.077  51.546  1.00  0.00    -0.398 OA
ATOM     35  H2  UNL     1      -2.884  11.632  52.376  1.00  0.00     0.209 HD
ENDBRANCH  33  34
ENDBRANCH  30  33
BRANCH  32  36
HETATM   36  C22 UNL     1      -5.141  14.862  48.074  1.00  0.00     0.198 C 
BRANCH  36  37
HETATM   37  O4  UNL     1      -3.785  15.040  47.732  1.00  0.00    -0.398 OA
ATOM     38  H4  UNL     1      -3.567  15.951  47.889  1.00  0.00     0.209 HD
ENDBRANCH  36  37
ENDBRANCH  32  36
ENDBRANCH  27  28
ENDBRANCH  24  27
ENDBRANCH  17  18
BRANCH  17  39
HETATM   39  C24 UNL     1     -12.097  12.377  47.702  1.00  0.00     0.176 C 
BRANCH  39  40
HETATM   40  O5  UNL     1     -11.831  11.445  48.792  1.00  0.00    -0.389 OA
ATOM     41  H5  UNL     1     -12.102  11.854  49.605  1.00  0.00     0.210 HD
ENDBRANCH  39  40
BRANCH  39  42
HETATM   42  C25 UNL     1     -13.606  12.139  47.549  1.00  0.00     0.200 C 
BRANCH  42  43
HETATM   43  O6  UNL     1     -13.906  10.863  47.099  1.00  0.00    -0.398 OA
ATOM     44  H6  UNL     1     -14.692  10.835  46.565  1.00  0.00     0.209 HD
ENDBRANCH  42  43
ENDBRANCH  39  42
ENDBRANCH  17  39
ENDBRANCH  13  17
ENDBRANCH   8  10
TORSDOF 13
ENDMDL
MODEL 3
REMARK VINA RESULT: -5.373535562      3.025      3.785
REMARK  13 active torsions:
REMARK  status: ('A' for Active; 'I' for Inactive)
REMARK    1  A    between atoms: C6_8  and  C7_9 
REMARK    2  A    between atoms: C10_12  and  C11_13 
REMARK    3  A    between atoms: C11_13  and  C12_14 
REMARK    4  A    between atoms: C11_13  and  C24_35 
REMARK    5  A    between atoms: C16_20  and  O1_21 
REMARK    6  A    between atoms: O1_21  and  C17_22 
REMARK    7  A    between atoms: C19_24  and  C20_25 
REMARK    8  A    between atoms: C20_25  and  O2_26 
REMARK    9  A    between atoms: C21_29  and  C22_30 
REMARK   10  A    between atoms: C22_30  and  O4_31 
REMARK   11  A    between atoms: C24_35  and  O5_36 
REMARK   12  A    between atoms: C24_35  and  C25_38 
REMARK   13  A    between atoms: C25_38  and  O6_39 
ROOT
HETATM    1  N1  UNL     1      -2.793   9.893  50.734  1.00  0.00    -0.191 NA
HETATM    2  C1  UNL     1      -3.402  10.616  50.068  1.00  0.00     0.099 C 
HETATM    3  C2  UNL     1      -4.178  11.508  49.231  1.00  0.00     0.048 A 
HETATM    4  C3  UNL     1      -3.624  12.721  48.891  1.00  0.00     0.065 A 
HETATM    5  C4  UNL     1      -4.348  13.571  48.099  1.00  0.00     0.118 A 
HETATM    6  F1  UNL     1      -3.796  14.766  47.767  1.00  0.00    -0.206 F 
HETATM    7  C5  UNL     1      -5.606  13.194  47.665  1.00  0.00     0.054 A 
HETATM    8  C6  UNL     1      -6.166  11.971  48.006  1.00  0.00    -0.020 A 
HETATM    9  C28 UNL     1      -5.448  11.107  48.802  1.00  0.00     0.035 A 
ENDROOT
BRANCH   8  10
HETATM   10  C7  UNL     1      -7.487  11.615  47.520  1.00  0.00    -0.004 A 
HETATM   11  C8  UNL     1      -8.577  12.423  47.777  1.00  0.00     0.015 A 
HETATM   12  C9  UNL     1      -9.813  12.052  47.289  1.00  0.00     0.013 A 
HETATM   13  C10 UNL     1     -10.045  10.917  46.553  1.00  0.00    -0.025 A 
HETATM   14  C26 UNL     1      -8.950  10.109  46.298  1.00  0.00     0.036 A 
HETATM   15  C27 UNL     1      -7.691  10.467  46.782  1.00  0.00     0.045 A 
HETATM   16 CL3  UNL     1      -6.392   9.354  46.398  1.00  0.00    -0.083 Cl
BRANCH  13  17
HETATM   17  C11 UNL     1     -11.404  10.614  46.057  1.00  0.00    -0.002 C 
BRANCH  17  18
HETATM   18  C12 UNL     1     -11.760  11.168  44.762  1.00  0.00     0.037 A 
HETATM   19  C13 UNL     1     -12.660  12.264  44.729  1.00  0.00     0.049 A 
HETATM   20 CL1  UNL     1     -13.275  12.898  46.248  1.00  0.00    -0.083 Cl
HETATM   21  C14 UNL     1     -13.063  12.832  43.547  1.00  0.00     0.051 A 
HETATM   22  C15 UNL     1     -12.579  12.323  42.348  1.00  0.00     0.072 A 
HETATM   23 CL2  UNL     1     -13.119  13.098  40.850  1.00  0.00    -0.081 Cl
HETATM   24  C16 UNL     1     -11.703  11.260  42.312  1.00  0.00     0.130 A 
HETATM   25  C23 UNL     1     -11.326  10.716  43.552  1.00  0.00     0.164 A 
HETATM   26  F2  UNL     1     -10.552   9.641  43.495  1.00  0.00    -0.202 F 
BRANCH  24  27
HETATM   27  O1  UNL     1     -11.222  10.744  41.161  1.00  0.00    -0.338 OA
BRANCH  27  28
HETATM   28  C17 UNL     1     -11.654   9.778  40.290  1.00  0.00     0.162 C 
HETATM   29  C18 UNL     1     -12.048  10.437  38.940  1.00  0.00     0.069 C 
HETATM   30  C19 UNL     1     -10.677  10.682  38.402  1.00  0.00     0.148 C 
HETATM   31  O3  UNL     1      -9.916   9.565  38.736  1.00  0.00    -0.374 OA
HETATM   32  C21 UNL     1     -10.590   8.863  39.738  1.00  0.00     0.175 C 
BRANCH  30  33
HETATM   33  C20 UNL     1     -10.670  10.946  36.914  1.00  0.00     0.196 C 
BRANCH  33  34
HETATM   34  O2  UNL     1      -9.523  11.606  36.501  1.00  0.00    -0.398 OA
ATOM     35  H2  UNL     1      -9.693  12.219  35.795  1.00  0.00     0.209 HD
ENDBRANCH  33  34
ENDBRANCH  30  33
BRANCH  32  36
HETATM   36  C22 UNL     1      -9.634   8.305  40.726  1.00  0.00     0.198 C 
BRANCH  36  37
HETATM   37  O4  UNL     1      -8.672   9.300  40.996  1.00  0.00    -0.398 OA
ATOM     38  H4  UNL     1      -7.814   8.904  40.897  1.00  0.00     0.209 HD
ENDBRANCH  36  37
ENDBRANCH  32  36
ENDBRANCH  27  28
ENDBRANCH  24  27
ENDBRANCH  17  18
BRANCH  17  39
HETATM   39  C24 UNL     1     -11.932   9.306  46.498  1.00  0.00     0.176 C 
BRANCH  39  40
HETATM   40  O5  UNL     1     -13.265   9.139  45.929  1.00  0.00    -0.389 OA
ATOM     41  H5  UNL     1     -13.605   8.298  46.213  1.00  0.00     0.210 HD
ENDBRANCH  39  40
BRANCH  39  42
HETATM   42  C25 UNL     1     -12.295   9.212  47.987  1.00  0.00     0.200 C 
BRANCH  42  43
HETATM   43  O6  UNL     1     -13.076  10.274  48.418  1.00  0.00    -0.398 OA
ATOM     44  H6  UNL     1     -13.663  10.036  49.126  1.00  0.00     0.209 HD
ENDBRANCH  42  43
ENDBRANCH  39  42
ENDBRANCH  17  39
ENDBRANCH  13  17
ENDBRANCH   8  10
TORSDOF 13
ENDMDL
MODEL 4
REMARK VINA RESULT: -5.363424013      4.698      9.744
REMARK  13 active torsions:
REMARK  status: ('A' for Active; 'I' for Inactive)
REMARK    1  A    between atoms: C6_8  and  C7_9 
REMARK    2  A    between atoms: C10_12  and  C11_13 
REMARK    3  A    between atoms: C11_13  and  C12_14 
REMARK    4  A    between atoms: C11_13  and  C24_35 
REMARK    5  A    between atoms: C16_20  and  O1_21 
REMARK    6  A    between atoms: O1_21  and  C17_22 
REMARK    7  A    between atoms: C19_24  and  C20_25 
REMARK    8  A    between atoms: C20_25  and  O2_26 
REMARK    9  A    between atoms: C21_29  and  C22_30 
REMARK   10  A    between atoms: C22_30  and  O4_31 
REMARK   11  A    between atoms: C24_35  and  O5_36 
REMARK   12  A    between atoms: C24_35  and  C25_38 
REMARK   13  A    between atoms: C25_38  and  O6_39 
ROOT
HETATM    1  N1  UNL     1      -9.769  11.218  36.823  1.00  0.00    -0.191 NA
HETATM    2  C1  UNL     1     -10.390  11.748  37.643  1.00  0.00     0.099 C 
HETATM    3  C2  UNL     1     -11.162  12.398  38.682  1.00  0.00     0.048 A 
HETATM    4  C3  UNL     1     -12.053  13.379  38.308  1.00  0.00     0.065 A 
HETATM    5  C4  UNL     1     -12.787  13.999  39.283  1.00  0.00     0.118 A 
HETATM    6  F1  UNL     1     -13.665  14.966  38.907  1.00  0.00    -0.206 F 
HETATM    7  C5  UNL     1     -12.619  13.630  40.604  1.00  0.00     0.054 A 
HETATM    8  C6  UNL     1     -11.722  12.641  40.984  1.00  0.00    -0.020 A 
HETATM    9  C28 UNL     1     -10.977  12.010  40.014  1.00  0.00     0.035 A 
ENDROOT
BRANCH   8  10
HETATM   10  C7  UNL     1     -11.585  12.281  42.383  1.00  0.00    -0.004 A 
HETATM   11  C8  UNL     1     -11.667  10.961  42.786  1.00  0.00     0.015 A 
HETATM   12  C9  UNL     1     -11.522  10.662  44.125  1.00  0.00     0.013 A 
HETATM   13  C10 UNL     1     -11.299  11.596  45.106  1.00  0.00    -0.025 A 
HETATM   14  C26 UNL     1     -11.218  12.916  44.699  1.00  0.00     0.036 A 
HETATM   15  C27 UNL     1     -11.361  13.240  43.349  1.00  0.00     0.045 A 
HETATM   16 CL3  UNL     1     -11.247  14.948  42.968  1.00  0.00    -0.083 Cl
BRANCH  13  17
HETATM   17  C11 UNL     1     -11.138  11.174  46.513  1.00  0.00    -0.002 C 
BRANCH  17  18
HETATM   18  C12 UNL     1      -9.806  10.761  46.919  1.00  0.00     0.037 A 
HETATM   19  C13 UNL     1      -9.533   9.372  47.002  1.00  0.00     0.049 A 
HETATM   20 CL1  UNL     1     -10.809   8.235  46.595  1.00  0.00    -0.083 Cl
HETATM   21  C14 UNL     1      -8.307   8.899  47.397  1.00  0.00     0.051 A 
HETATM   22  C15 UNL     1      -7.303   9.802  47.723  1.00  0.00     0.072 A 
HETATM   23 CL2  UNL     1      -5.734   9.143  48.215  1.00  0.00    -0.081 Cl
HETATM   24  C16 UNL     1      -7.504  11.164  47.664  1.00  0.00     0.130 A 
HETATM   25  C23 UNL     1      -8.780  11.592  47.256  1.00  0.00     0.164 A 
HETATM   26  F2  UNL     1      -8.981  12.902  47.286  1.00  0.00    -0.202 F 
BRANCH  24  27
HETATM   27  O1  UNL     1      -6.547  12.061  47.980  1.00  0.00    -0.338 OA
BRANCH  27  28
HETATM   28  C17 UNL     1      -6.418  13.024  48.948  1.00  0.00     0.162 C 
HETATM   29  C18 UNL     1      -6.307  12.346  50.340  1.00  0.00     0.069 C 
HETATM   30  C19 UNL     1      -4.893  11.876  50.248  1.00  0.00     0.148 C 
HETATM   31  O3  UNL     1      -4.180  12.892  49.618  1.00  0.00    -0.374 OA
HETATM   32  C21 UNL     1      -5.093  13.743  48.993  1.00  0.00     0.175 C 
BRANCH  30  33
HETATM   33  C20 UNL     1      -4.304  11.523  51.595  1.00  0.00     0.196 C 
BRANCH  33  34
HETATM   34  O2  UNL     1      -3.047  12.078  51.782  1.00  0.00    -0.398 OA
ATOM     35  H2  UNL     1      -3.090  12.961  52.131  1.00  0.00     0.209 HD
ENDBRANCH  33  34
ENDBRANCH  30  33
BRANCH  32  36
HETATM   36  C22 UNL     1      -4.566  14.219  47.690  1.00  0.00     0.198 C 
BRANCH  36  37
HETATM   37  O4  UNL     1      -3.853  13.152  47.104  1.00  0.00    -0.398 OA
ATOM     38  H4  UNL     1      -3.917  12.408  47.691  1.00  0.00     0.209 HD
ENDBRANCH  36  37
ENDBRANCH  32  36
ENDBRANCH  27  28
ENDBRANCH  24  27
ENDBRANCH  17  18
BRANCH  17  39
HETATM   39  C24 UNL     1     -12.045  11.860  47.458  1.00  0.00     0.176 C 
BRANCH  39  40
HETATM   40  O5  UNL     1     -11.795  11.328  48.794  1.00  0.00    -0.389 OA
ATOM     41  H5  UNL     1     -11.002  11.730  49.129  1.00  0.00     0.210 HD
ENDBRANCH  39  40
BRANCH  39  42
HETATM   42  C25 UNL     1     -13.529  11.492  47.329  1.00  0.00     0.200 C 
BRANCH  42  43
HETATM   43  O6  UNL     1     -13.731  10.139  47.110  1.00  0.00    -0.398 OA
ATOM     44  H6  UNL     1     -14.184   9.712  47.828  1.00  0.00     0.209 HD
ENDBRANCH  42  43
ENDBRANCH  39  42
ENDBRANCH  17  39
ENDBRANCH  13  17
ENDBRANCH   8  10
TORSDOF 13
ENDMDL
MODEL 5
REMARK VINA RESULT: -5.294552471      1.944      2.469
REMARK  13 active torsions:
REMARK  status: ('A' for Active; 'I' for Inactive)
REMARK    1  A    between atoms: C6_8  and  C7_9 
REMARK    2  A    between atoms: C10_12  and  C11_13 
REMARK    3  A    between atoms: C11_13  and  C12_14 
REMARK    4  A    between atoms: C11_13  and  C24_35 
REMARK    5  A    between atoms: C16_20  and  O1_21 
REMARK    6  A    between atoms: O1_21  and  C17_22 
REMARK    7  A    between atoms: C19_24  and  C20_25 
REMARK    8  A    between atoms: C20_25  and  O2_26 
REMARK    9  A    between atoms: C21_29  and  C22_30 
REMARK   10  A    between atoms: C22_30  and  O4_31 
REMARK   11  A    between atoms: C24_35  and  O5_36 
REMARK   12  A    between atoms: C24_35  and  C25_38 
REMARK   13  A    between atoms: C25_38  and  O6_39 
ROOT
HETATM    1  N1  UNL     1      -3.912  14.629  48.105  1.00  0.00    -0.191 NA
HETATM    2  C1  UNL     1      -5.016  14.422  48.380  1.00  0.00     0.099 C 
HETATM    3  C2  UNL     1      -6.404  14.163  48.705  1.00  0.00     0.048 A 
HETATM    4  C3  UNL     1      -6.797  14.302  50.017  1.00  0.00     0.065 A 
HETATM    5  C4  UNL     1      -8.107  14.059  50.334  1.00  0.00     0.118 A 
HETATM    6  F1  UNL     1      -8.489  14.199  51.630  1.00  0.00    -0.206 F 
HETATM    7  C5  UNL     1      -8.993  13.685  49.341  1.00  0.00     0.054 A 
HETATM    8  C6  UNL     1      -8.598  13.544  48.018  1.00  0.00    -0.020 A 
HETATM    9  C28 UNL     1      -7.284  13.785  47.685  1.00  0.00     0.035 A 
ENDROOT
BRANCH   8  10
HETATM   10  C7  UNL     1      -9.565  13.157  47.008  1.00  0.00    -0.004 A 
HETATM   11  C8  UNL     1      -9.753  11.827  46.680  1.00  0.00     0.015 A 
HETATM   12  C9  UNL     1     -10.689  11.502  45.721  1.00  0.00     0.013 A 
HETATM   13  C10 UNL     1     -11.463  12.418  45.053  1.00  0.00    -0.025 A 
HETATM   14  C26 UNL     1     -11.272  13.748  45.383  1.00  0.00     0.036 A 
HETATM   15  C27 UNL     1     -10.330  14.099  46.352  1.00  0.00     0.045 A 
HETATM   16 CL3  UNL     1     -10.179  15.817  46.669  1.00  0.00    -0.083 Cl
BRANCH  13  17
HETATM   17  C11 UNL     1     -12.454  11.970  44.053  1.00  0.00    -0.002 C 
BRANCH  17  18
HETATM   18  C12 UNL     1     -12.009  11.934  42.670  1.00  0.00     0.037 A 
HETATM   19  C13 UNL     1     -12.418  12.984  41.809  1.00  0.00     0.049 A 
HETATM   20 CL1  UNL     1     -13.418  14.272  42.464  1.00  0.00    -0.083 Cl
HETATM   21  C14 UNL     1     -12.059  13.015  40.486  1.00  0.00     0.051 A 
HETATM   22  C15 UNL     1     -11.272  11.991  39.971  1.00  0.00     0.072 A 
HETATM   23 CL2  UNL     1     -10.825  12.081  38.260  1.00  0.00    -0.081 Cl
HETATM   24  C16 UNL     1     -10.844  10.941  40.754  1.00  0.00     0.130 A 
HETATM   25  C23 UNL     1     -11.244  10.961  42.102  1.00  0.00     0.164 A 
HETATM   26  F2  UNL     1     -10.894   9.902  42.818  1.00  0.00    -0.202 F 
BRANCH  24  27
HETATM   27  O1  UNL     1     -10.084   9.933  40.277  1.00  0.00    -0.338 OA
BRANCH  27  28
HETATM   28  C17 UNL     1     -10.308   8.608  40.012  1.00  0.00     0.162 C 
HETATM   29  C18 UNL     1     -10.535   8.416  38.487  1.00  0.00     0.069 C 
HETATM   30  C19 UNL     1      -9.118   8.539  38.033  1.00  0.00     0.148 C 
HETATM   31  O3  UNL     1      -8.342   7.871  38.977  1.00  0.00    -0.374 OA
HETATM   32  C21 UNL     1      -9.111   7.698  40.129  1.00  0.00     0.175 C 
BRANCH  30  33
HETATM   33  C20 UNL     1      -8.901   7.998  36.638  1.00  0.00     0.196 C 
BRANCH  33  34
HETATM   34  O2  UNL     1      -7.762   8.518  36.043  1.00  0.00    -0.398 OA
ATOM     35  H2  UNL     1      -7.017   7.934  36.117  1.00  0.00     0.209 HD
ENDBRANCH  33  34
ENDBRANCH  30  33
BRANCH  32  36
HETATM   36  C22 UNL     1      -8.282   7.867  41.348  1.00  0.00     0.198 C 
BRANCH  36  37
HETATM   37  O4  UNL     1      -7.460   8.996  41.150  1.00  0.00    -0.398 OA
ATOM     38  H4  UNL     1      -8.024   9.758  41.111  1.00  0.00     0.209 HD
ENDBRANCH  36  37
ENDBRANCH  32  36
ENDBRANCH  27  28
ENDBRANCH  24  27
ENDBRANCH  17  18
BRANCH  17  39
HETATM   39  C24 UNL     1     -13.430  10.985  44.566  1.00  0.00     0.176 C 
BRANCH  39  40
HETATM   40  O5  UNL     1     -14.404  10.720  43.513  1.00  0.00    -0.389 OA
ATOM     41  H5  UNL     1     -15.233  10.502  43.924  1.00  0.00     0.210 HD
ENDBRANCH  39  40
BRANCH  39  42
HETATM   42  C25 UNL     1     -14.385  11.508  45.648  1.00  0.00     0.200 C 
BRANCH  42  43
HETATM   43  O6  UNL     1     -15.004  12.695  45.290  1.00  0.00    -0.398 OA
ATOM     44  H6  UNL     1     -14.470  13.231  44.715  1.00  0.00     0.209 HD
ENDBRANCH  42  43
ENDBRANCH  39  42
ENDBRANCH  17  39
ENDBRANCH  13  17
ENDBRANCH   8  10
TORSDOF 13
ENDMDL
