MODEL 1
REMARK VINA RESULT: -6.776753116      0.000      0.000
REMARK  11 active torsions:
REMARK  status: ('A' for Active; 'I' for Inactive)
REMARK    1  A    between atoms: S1_2  and  N1_4 
REMARK    2  A    between atoms: S1_2  and  C21_39 
REMARK    3  A    between atoms: N1_4  and  C1_6 
REMARK    4  A    between atoms: C3_8  and  C4_9 
REMARK    5  A    between atoms: C4_9  and  O3_10 
REMARK    6  A    between atoms: C4_9  and  C5_12 
REMARK    7  A    between atoms: C5_12  and  N2_13 
REMARK    8  A    between atoms: N2_13  and  C6_16 
REMARK    9  A    between atoms: C9_19  and  C10_21 
REMARK   10  A    between atoms: C11_26  and  C12_27 
REMARK   11  A    between atoms: C24_42  and  C25_43 
ROOT
HETATM    1  C4  UNL     1      -3.867  15.224  55.938  1.00  0.00     0.178 C 
ENDROOT
BRANCH   1   2
HETATM    2  C3  UNL     1      -3.064  14.163  55.304  1.00  0.00    -0.009 A 
HETATM    3  C2  UNL     1      -3.634  12.963  54.874  1.00  0.00     0.060 A 
HETATM    4  C1  UNL     1      -2.618  12.215  54.340  1.00  0.00     0.115 A 
HETATM    5  N5  UNL     1      -1.436  12.923  54.429  1.00  0.00    -0.351 N 
HETATM    6  C20 UNL     1      -1.741  14.085  55.012  1.00  0.00     0.099 A 
ATOM      7  H5  UNL     1      -0.515  12.619  54.115  1.00  0.00     0.166 HD
BRANCH   4   8
HETATM    8  N1  UNL     1      -2.677  10.939  53.750  1.00  0.00    -0.266 N 
ATOM      9  H1  UNL     1      -1.873  10.325  53.884  1.00  0.00     0.180 HD
BRANCH   8  10
HETATM   10  S1  UNL     1      -3.978  10.331  52.828  1.00  0.00     0.264 S 
HETATM   11  O1  UNL     1      -3.732   8.888  52.427  1.00  0.00    -0.200 OA
HETATM   12  O2  UNL     1      -5.238  10.264  53.687  1.00  0.00    -0.200 OA
BRANCH  10  13
HETATM   13  C21 UNL     1      -4.308  11.323  51.464  1.00  0.00     0.082 A 
HETATM   14  C22 UNL     1      -5.487  11.960  51.207  1.00  0.00     0.026 A 
HETATM   15  C23 UNL     1      -5.701  12.740  50.094  1.00  0.00     0.021 A 
HETATM   16  C24 UNL     1      -4.709  12.914  49.170  1.00  0.00     0.086 A 
HETATM   17  C26 UNL     1      -3.506  12.280  49.406  1.00  0.00     0.133 A 
HETATM   18  F5  UNL     1      -2.541  12.487  48.455  1.00  0.00    -0.205 F 
HETATM   19  C27 UNL     1      -3.304  11.517  50.503  1.00  0.00     0.068 A 
BRANCH  16  20
HETATM   20  C25 UNL     1      -4.913  13.757  47.946  1.00  0.00     0.420 C 
HETATM   21  F2  UNL     1      -4.015  14.816  47.963  1.00  0.00    -0.166 F 
HETATM   22  F3  UNL     1      -6.218  14.223  48.007  1.00  0.00    -0.166 F 
HETATM   23  F4  UNL     1      -4.774  12.952  46.854  1.00  0.00    -0.166 F 
ENDBRANCH  16  20
ENDBRANCH  10  13
ENDBRANCH   8  10
ENDBRANCH   4   8
ENDBRANCH   1   2
BRANCH   1  24
HETATM   24  O3  UNL     1      -5.000  14.681  56.559  1.00  0.00    -0.389 OA
ATOM     25  H3  UNL     1      -4.757  14.216  57.351  1.00  0.00     0.210 HD
ENDBRANCH   1  24
BRANCH   1  26
HETATM   26  C5  UNL     1      -4.323  16.286  54.991  1.00  0.00     0.269 C 
BRANCH  26  27
HETATM   27  N2  UNL     1      -5.443  17.047  55.496  1.00  0.00    -0.068 N 
ATOM     28  H22 UNL     1      -5.725  16.754  56.432  1.00  0.00     0.277 HD
ATOM     29  H21 UNL     1      -5.194  18.010  55.720  1.00  0.00     0.277 HD
BRANCH  27  30
HETATM   30  C6  UNL     1      -6.541  16.960  54.523  1.00  0.00     0.186 C 
HETATM   31  C7  UNL     1      -7.741  17.616  55.112  1.00  0.00     0.036 C 
HETATM   32  C8  UNL     1      -8.721  18.116  54.072  1.00  0.00     0.054 C 
HETATM   33  C9  UNL     1      -8.106  19.019  53.057  1.00  0.00     0.169 C 
HETATM   34  F1  UNL     1      -8.277  20.336  53.516  1.00  0.00    -0.234 F 
HETATM   35  C18 UNL     1      -6.678  18.758  52.757  1.00  0.00     0.054 C 
HETATM   36  C19 UNL     1      -6.154  17.422  53.162  1.00  0.00     0.036 C 
BRANCH  33  37
HETATM   37  C10 UNL     1      -8.996  18.940  51.840  1.00  0.00     0.180 A 
HETATM   38  N3  UNL     1      -9.409  17.790  51.267  1.00  0.00    -0.279 N 
HETATM   39  N4  UNL     1     -10.167  18.111  50.226  1.00  0.00    -0.281 N 
ATOM     40  H3  UNL     1      -9.181  16.846  51.579  1.00  0.00     0.189 HD
HETATM   41  C11 UNL     1     -10.219  19.453  50.157  1.00  0.00     0.144 A 
ATOM     42  H4  UNL     1     -10.626  17.458  49.592  1.00  0.00     0.189 HD
HETATM   43  O4  UNL     1      -9.499  19.911  51.150  1.00  0.00    -0.278 OA
BRANCH  41  44
HETATM   44  C12 UNL     1     -10.964  20.259  49.126  1.00  0.00     0.062 C 
HETATM   45  C13 UNL     1     -11.502  19.430  48.013  1.00  0.00     0.013 C 
HETATM   46  C14 UNL     1     -11.041  20.057  46.706  1.00  0.00     0.001 C 
HETATM   47  C15 UNL     1      -9.535  19.877  46.636  1.00  0.00     0.000 C 
HETATM   48  C16 UNL     1      -8.927  20.714  47.746  1.00  0.00     0.001 C 
HETATM   49  C17 UNL     1      -9.963  21.304  48.653  1.00  0.00     0.013 C 
ENDBRANCH  41  44
ENDBRANCH  33  37
ENDBRANCH  27  30
ENDBRANCH  26  27
ENDBRANCH   1  26
TORSDOF 11
ENDMDL
MODEL 2
REMARK VINA RESULT: -6.706698013      4.619      6.977
REMARK  11 active torsions:
REMARK  status: ('A' for Active; 'I' for Inactive)
REMARK    1  A    between atoms: S1_2  and  N1_4 
REMARK    2  A    between atoms: S1_2  and  C21_39 
REMARK    3  A    between atoms: N1_4  and  C1_6 
REMARK    4  A    between atoms: C3_8  and  C4_9 
REMARK    5  A    between atoms: C4_9  and  O3_10 
REMARK    6  A    between atoms: C4_9  and  C5_12 
REMARK    7  A    between atoms: C5_12  and  N2_13 
REMARK    8  A    between atoms: N2_13  and  C6_16 
REMARK    9  A    between atoms: C9_19  and  C10_21 
REMARK   10  A    between atoms: C11_26  and  C12_27 
REMARK   11  A    between atoms: C24_42  and  C25_43 
ROOT
HETATM    1  C4  UNL     1      -9.724   9.830  47.525  1.00  0.00     0.178 C 
ENDROOT
BRANCH   1   2
HETATM    2  C3  UNL     1      -8.317  10.141  47.217  1.00  0.00    -0.009 A 
HETATM    3  C2  UNL     1      -7.792  11.425  47.379  1.00  0.00     0.060 A 
HETATM    4  C1  UNL     1      -6.475  11.360  47.006  1.00  0.00     0.115 A 
HETATM    5  N5  UNL     1      -6.174  10.069  46.618  1.00  0.00    -0.351 N 
HETATM    6  C20 UNL     1      -7.301   9.367  46.758  1.00  0.00     0.099 A 
ATOM      7  H5  UNL     1      -5.273   9.723  46.290  1.00  0.00     0.166 HD
BRANCH   4   8
HETATM    8  N1  UNL     1      -5.505  12.379  47.011  1.00  0.00    -0.266 N 
ATOM      9  H1  UNL     1      -5.292  12.824  46.118  1.00  0.00     0.180 HD
BRANCH   8  10
HETATM   10  S1  UNL     1      -4.656  12.935  48.382  1.00  0.00     0.264 S 
HETATM   11  O1  UNL     1      -3.475  12.032  48.693  1.00  0.00    -0.200 OA
HETATM   12  O2  UNL     1      -4.015  14.288  48.086  1.00  0.00    -0.200 OA
BRANCH  10  13
HETATM   13  C21 UNL     1      -5.692  13.115  49.742  1.00  0.00     0.082 A 
HETATM   14  C22 UNL     1      -5.952  12.159  50.680  1.00  0.00     0.026 A 
HETATM   15  C23 UNL     1      -6.797  12.354  51.748  1.00  0.00     0.021 A 
HETATM   16  C24 UNL     1      -7.430  13.552  51.919  1.00  0.00     0.086 A 
HETATM   17  C26 UNL     1      -7.185  14.538  50.984  1.00  0.00     0.133 A 
HETATM   18  F5  UNL     1      -7.838  15.723  51.200  1.00  0.00    -0.205 F 
HETATM   19  C27 UNL     1      -6.352  14.338  49.938  1.00  0.00     0.068 A 
BRANCH  16  20
HETATM   20  C25 UNL     1      -8.357  13.795  53.073  1.00  0.00     0.420 C 
HETATM   21  F2  UNL     1      -8.444  12.643  53.844  1.00  0.00    -0.166 F 
HETATM   22  F3  UNL     1      -9.592  14.108  52.522  1.00  0.00    -0.166 F 
HETATM   23  F4  UNL     1      -7.889  14.872  53.767  1.00  0.00    -0.166 F 
ENDBRANCH  16  20
ENDBRANCH  10  13
ENDBRANCH   8  10
ENDBRANCH   4   8
ENDBRANCH   1   2
BRANCH   1  24
HETATM   24  O3  UNL     1     -10.530  10.015  46.393  1.00  0.00    -0.389 OA
ATOM     25  H3  UNL     1     -11.306   9.469  46.441  1.00  0.00     0.210 HD
ENDBRANCH   1  24
BRANCH   1  26
HETATM   26  C5  UNL     1     -10.296  10.647  48.638  1.00  0.00     0.269 C 
BRANCH  26  27
HETATM   27  N2  UNL     1     -11.646  11.090  48.374  1.00  0.00    -0.068 N 
ATOM     28  H22 UNL     1     -12.010  10.733  47.490  1.00  0.00     0.277 HD
ATOM     29  H21 UNL     1     -12.329  10.654  48.993  1.00  0.00     0.277 HD
BRANCH  27  30
HETATM   30  C6  UNL     1     -11.675  12.558  48.445  1.00  0.00     0.186 C 
HETATM   31  C7  UNL     1     -10.528  13.008  49.282  1.00  0.00     0.036 C 
HETATM   32  C8  UNL     1     -10.087  14.424  48.982  1.00  0.00     0.054 C 
HETATM   33  C9  UNL     1      -9.778  14.660  47.542  1.00  0.00     0.169 C 
HETATM   34  F1  UNL     1      -8.400  14.442  47.373  1.00  0.00    -0.234 F 
HETATM   35  C18 UNL     1     -10.553  13.839  46.582  1.00  0.00     0.054 C 
HETATM   36  C19 UNL     1     -11.795  13.206  47.112  1.00  0.00     0.036 C 
BRANCH  33  37
HETATM   37  C10 UNL     1      -9.939  16.146  47.321  1.00  0.00     0.180 A 
HETATM   38  N3  UNL     1      -9.118  16.900  46.562  1.00  0.00    -0.279 N 
HETATM   39  N4  UNL     1      -9.566  18.149  46.606  1.00  0.00    -0.281 N 
ATOM     40  H3  UNL     1      -8.301  16.571  46.047  1.00  0.00     0.189 HD
HETATM   41  C11 UNL     1     -10.659  18.163  47.390  1.00  0.00     0.144 A 
ATOM     42  H4  UNL     1      -9.156  18.953  46.132  1.00  0.00     0.189 HD
HETATM   43  O4  UNL     1     -10.846  16.933  47.799  1.00  0.00    -0.278 OA
BRANCH  41  44
HETATM   44  C12 UNL     1     -11.493  19.370  47.726  1.00  0.00     0.062 C 
HETATM   45  C13 UNL     1     -11.183  20.551  46.874  1.00  0.00     0.013 C 
HETATM   46  C14 UNL     1     -10.913  21.729  47.797  1.00  0.00     0.001 C 
HETATM   47  C15 UNL     1      -9.619  21.428  48.533  1.00  0.00     0.000 C 
HETATM   48  C16 UNL     1      -9.879  20.234  49.433  1.00  0.00     0.001 C 
HETATM   49  C17 UNL     1     -11.228  19.625  49.204  1.00  0.00     0.013 C 
ENDBRANCH  41  44
ENDBRANCH  33  37
ENDBRANCH  27  30
ENDBRANCH  26  27
ENDBRANCH   1  26
TORSDOF 11
ENDMDL
MODEL 3
REMARK VINA RESULT: -6.702360720      3.998      5.971
REMARK  11 active torsions:
REMARK  status: ('A' for Active; 'I' for Inactive)
REMARK    1  A    between atoms: S1_2  and  N1_4 
REMARK    2  A    between atoms: S1_2  and  C21_39 
REMARK    3  A    between atoms: N1_4  and  C1_6 
REMARK    4  A    between atoms: C3_8  and  C4_9 
REMARK    5  A    between atoms: C4_9  and  O3_10 
REMARK    6  A    between atoms: C4_9  and  C5_12 
REMARK    7  A    between atoms: C5_12  and  N2_13 
REMARK    8  A    between atoms: N2_13  and  C6_16 
REMARK    9  A    between atoms: C9_19  and  C10_21 
REMARK   10  A    between atoms: C11_26  and  C12_27 
REMARK   11  A    between atoms: C24_42  and  C25_43 
ROOT
HETATM    1  C4  UNL     1      -6.592   9.049  52.082  1.00  0.00     0.178 C 
ENDROOT
BRANCH   1   2
HETATM    2  C3  UNL     1      -5.678   9.628  51.082  1.00  0.00    -0.009 A 
HETATM    3  C2  UNL     1      -5.428  11.000  51.016  1.00  0.00     0.060 A 
HETATM    4  C1  UNL     1      -4.544  11.190  49.986  1.00  0.00     0.115 A 
HETATM    5  N5  UNL     1      -4.243   9.969  49.415  1.00  0.00    -0.351 N 
HETATM    6  C20 UNL     1      -4.939   9.056  50.097  1.00  0.00     0.099 A 
ATOM      7  H5  UNL     1      -3.615   9.799  48.630  1.00  0.00     0.166 HD
BRANCH   4   8
HETATM    8  N1  UNL     1      -3.963  12.387  49.530  1.00  0.00    -0.266 N 
ATOM      9  H1  UNL     1      -3.123  12.709  50.010  1.00  0.00     0.180 HD
BRANCH   8  10
HETATM   10  S1  UNL     1      -4.544  13.345  48.244  1.00  0.00     0.264 S 
HETATM   11  O1  UNL     1      -4.277  14.817  48.498  1.00  0.00    -0.200 OA
HETATM   12  O2  UNL     1      -3.756  13.043  46.972  1.00  0.00    -0.200 OA
BRANCH  10  13
HETATM   13  C21 UNL     1      -6.207  13.046  47.930  1.00  0.00     0.082 A 
HETATM   14  C22 UNL     1      -6.752  11.841  47.592  1.00  0.00     0.026 A 
HETATM   15  C23 UNL     1      -8.093  11.657  47.346  1.00  0.00     0.021 A 
HETATM   16  C24 UNL     1      -8.962  12.708  47.432  1.00  0.00     0.086 A 
HETATM   17  C26 UNL     1      -8.438  13.938  47.772  1.00  0.00     0.133 A 
HETATM   18  F5  UNL     1      -9.348  14.959  47.851  1.00  0.00    -0.205 F 
HETATM   19  C27 UNL     1      -7.119  14.110  48.014  1.00  0.00     0.068 A 
BRANCH  16  20
HETATM   20  C25 UNL     1     -10.430  12.539  47.168  1.00  0.00     0.420 C 
HETATM   21  F2  UNL     1     -10.812  13.385  46.135  1.00  0.00    -0.166 F 
HETATM   22  F3  UNL     1     -11.079  12.882  48.346  1.00  0.00    -0.166 F 
HETATM   23  F4  UNL     1     -10.658  11.222  46.897  1.00  0.00    -0.166 F 
ENDBRANCH  16  20
ENDBRANCH  10  13
ENDBRANCH   8  10
ENDBRANCH   4   8
ENDBRANCH   1   2
BRANCH   1  24
HETATM   24  O3  UNL     1      -7.762   8.579  51.468  1.00  0.00    -0.389 OA
ATOM     25  H3  UNL     1      -8.517   9.073  51.765  1.00  0.00     0.210 HD
ENDBRANCH   1  24
BRANCH   1  26
HETATM   26  C5  UNL     1      -6.988  10.001  53.164  1.00  0.00     0.269 C 
BRANCH  26  27
HETATM   27  N2  UNL     1      -8.419  10.164  53.274  1.00  0.00    -0.068 N 
ATOM     28  H22 UNL     1      -8.926   9.706  52.515  1.00  0.00     0.277 HD
ATOM     29  H21 UNL     1      -8.816   9.632  54.048  1.00  0.00     0.277 HD
BRANCH  27  30
HETATM   30  C6  UNL     1      -8.718  11.600  53.365  1.00  0.00     0.186 C 
HETATM   31  C7  UNL     1      -7.465  12.315  53.738  1.00  0.00     0.036 C 
HETATM   32  C8  UNL     1      -7.455  13.767  53.313  1.00  0.00     0.054 C 
HETATM   33  C9  UNL     1      -7.730  13.966  51.860  1.00  0.00     0.169 C 
HETATM   34  F1  UNL     1      -6.487  14.006  51.205  1.00  0.00    -0.234 F 
HETATM   35  C18 UNL     1      -8.611  12.951  51.236  1.00  0.00     0.054 C 
HETATM   36  C19 UNL     1      -9.430  12.127  52.171  1.00  0.00     0.036 C 
BRANCH  33  37
HETATM   37  C10 UNL     1      -8.255  15.376  51.728  1.00  0.00     0.180 A 
HETATM   38  N3  UNL     1      -9.255  15.744  50.899  1.00  0.00    -0.279 N 
HETATM   39  N4  UNL     1      -9.438  17.050  51.050  1.00  0.00    -0.281 N 
ATOM     40  H3  UNL     1      -9.775  15.131  50.272  1.00  0.00     0.189 HD
HETATM   41  C11 UNL     1      -8.555  17.483  51.967  1.00  0.00     0.144 A 
ATOM     42  H4  UNL     1     -10.125  17.622  50.559  1.00  0.00     0.189 HD
HETATM   43  O4  UNL     1      -7.863  16.439  52.348  1.00  0.00    -0.278 OA
BRANCH  41  44
HETATM   44  C12 UNL     1      -8.401  18.902  52.448  1.00  0.00     0.062 C 
HETATM   45  C13 UNL     1      -7.265  19.079  53.394  1.00  0.00     0.013 C 
HETATM   46  C14 UNL     1      -7.800  19.780  54.632  1.00  0.00     0.001 C 
HETATM   47  C15 UNL     1      -8.737  18.804  55.324  1.00  0.00     0.000 C 
HETATM   48  C16 UNL     1      -9.928  18.594  54.407  1.00  0.00     0.001 C 
HETATM   49  C17 UNL     1      -9.747  19.249  53.072  1.00  0.00     0.013 C 
ENDBRANCH  41  44
ENDBRANCH  33  37
ENDBRANCH  27  30
ENDBRANCH  26  27
ENDBRANCH   1  26
TORSDOF 11
ENDMDL
MODEL 4
REMARK VINA RESULT: -6.696220429      4.318      5.815
REMARK  11 active torsions:
REMARK  status: ('A' for Active; 'I' for Inactive)
REMARK    1  A    between atoms: S1_2  and  N1_4 
REMARK    2  A    between atoms: S1_2  and  C21_39 
REMARK    3  A    between atoms: N1_4  and  C1_6 
REMARK    4  A    between atoms: C3_8  and  C4_9 
REMARK    5  A    between atoms: C4_9  and  O3_10 
REMARK    6  A    between atoms: C4_9  and  C5_12 
REMARK    7  A    between atoms: C5_12  and  N2_13 
REMARK    8  A    between atoms: N2_13  and  C6_16 
REMARK    9  A    between atoms: C9_19  and  C10_21 
REMARK   10  A    between atoms: C11_26  and  C12_27 
REMARK   11  A    between atoms: C24_42  and  C25_43 
ROOT
HETATM    1  C4  UNL     1      -6.537   8.918  51.931  1.00  0.00     0.178 C 
ENDROOT
BRANCH   1   2
HETATM    2  C3  UNL     1      -5.649   9.551  50.939  1.00  0.00    -0.009 A 
HETATM    3  C2  UNL     1      -5.404  10.926  50.939  1.00  0.00     0.060 A 
HETATM    4  C1  UNL     1      -4.548  11.171  49.897  1.00  0.00     0.115 A 
HETATM    5  N5  UNL     1      -4.259   9.982  49.255  1.00  0.00    -0.351 N 
HETATM    6  C20 UNL     1      -4.936   9.033  49.907  1.00  0.00     0.099 A 
ATOM      7  H5  UNL     1      -3.651   9.856  48.447  1.00  0.00     0.166 HD
BRANCH   4   8
HETATM    8  N1  UNL     1      -3.980  12.392  49.489  1.00  0.00    -0.266 N 
ATOM      9  H1  UNL     1      -3.163  12.721  50.003  1.00  0.00     0.180 HD
BRANCH   8  10
HETATM   10  S1  UNL     1      -4.543  13.368  48.209  1.00  0.00     0.264 S 
HETATM   11  O1  UNL     1      -4.237  14.832  48.466  1.00  0.00    -0.200 OA
HETATM   12  O2  UNL     1      -3.770  13.050  46.932  1.00  0.00    -0.200 OA
BRANCH  10  13
HETATM   13  C21 UNL     1      -6.216  13.114  47.903  1.00  0.00     0.082 A 
HETATM   14  C22 UNL     1      -6.797  11.920  47.589  1.00  0.00     0.026 A 
HETATM   15  C23 UNL     1      -8.143  11.771  47.348  1.00  0.00     0.021 A 
HETATM   16  C24 UNL     1      -8.981  12.849  47.415  1.00  0.00     0.086 A 
HETATM   17  C26 UNL     1      -8.418  14.069  47.731  1.00  0.00     0.133 A 
HETATM   18  F5  UNL     1      -9.297  15.119  47.791  1.00  0.00    -0.205 F 
HETATM   19  C27 UNL     1      -7.095  14.206  47.968  1.00  0.00     0.068 A 
BRANCH  16  20
HETATM   20  C25 UNL     1     -10.453  12.719  47.157  1.00  0.00     0.420 C 
HETATM   21  F2  UNL     1     -10.805  13.529  46.085  1.00  0.00    -0.166 F 
HETATM   22  F3  UNL     1     -11.090  13.140  48.316  1.00  0.00    -0.166 F 
HETATM   23  F4  UNL     1     -10.727  11.400  46.947  1.00  0.00    -0.166 F 
ENDBRANCH  16  20
ENDBRANCH  10  13
ENDBRANCH   8  10
ENDBRANCH   4   8
ENDBRANCH   1   2
BRANCH   1  24
HETATM   24  O3  UNL     1      -7.670   8.379  51.307  1.00  0.00    -0.389 OA
ATOM     25  H3  UNL     1      -7.823   7.489  51.602  1.00  0.00     0.210 HD
ENDBRANCH   1  24
BRANCH   1  26
HETATM   26  C5  UNL     1      -6.998   9.844  53.009  1.00  0.00     0.269 C 
BRANCH  26  27
HETATM   27  N2  UNL     1      -8.410   9.720  53.290  1.00  0.00    -0.068 N 
ATOM     28  H22 UNL     1      -8.869   9.027  52.698  1.00  0.00     0.277 HD
ATOM     29  H21 UNL     1      -8.593   9.277  54.191  1.00  0.00     0.277 HD
BRANCH  27  30
HETATM   30  C6  UNL     1      -9.024  11.051  53.182  1.00  0.00     0.186 C 
HETATM   31  C7  UNL     1      -8.023  12.064  53.617  1.00  0.00     0.036 C 
HETATM   32  C8  UNL     1      -8.270  13.439  53.033  1.00  0.00     0.054 C 
HETATM   33  C9  UNL     1      -8.374  13.446  51.545  1.00  0.00     0.169 C 
HETATM   34  F1  UNL     1      -7.090  13.717  51.041  1.00  0.00    -0.234 F 
HETATM   35  C18 UNL     1      -8.916  12.206  50.940  1.00  0.00     0.054 C 
HETATM   36  C19 UNL     1      -9.659  11.297  51.859  1.00  0.00     0.036 C 
BRANCH  33  37
HETATM   37  C10 UNL     1      -9.170  14.679  51.192  1.00  0.00     0.180 A 
HETATM   38  N3  UNL     1      -8.651  15.921  51.086  1.00  0.00    -0.279 N 
HETATM   39  N4  UNL     1      -9.642  16.743  50.768  1.00  0.00    -0.281 N 
ATOM     40  H3  UNL     1      -7.674  16.179  51.226  1.00  0.00     0.189 HD
HETATM   41  C11 UNL     1     -10.767  16.012  50.677  1.00  0.00     0.144 A 
ATOM     42  H4  UNL     1      -9.565  17.749  50.618  1.00  0.00     0.189 HD
HETATM   43  O4  UNL     1     -10.434  14.773  50.941  1.00  0.00    -0.278 OA
BRANCH  41  44
HETATM   44  C12 UNL     1     -12.139  16.534  50.342  1.00  0.00     0.062 C 
HETATM   45  C13 UNL     1     -13.045  15.487  49.794  1.00  0.00     0.013 C 
HETATM   46  C14 UNL     1     -13.625  16.015  48.491  1.00  0.00     0.001 C 
HETATM   47  C15 UNL     1     -12.479  16.099  47.497  1.00  0.00     0.000 C 
HETATM   48  C16 UNL     1     -11.523  17.166  48.000  1.00  0.00     0.001 C 
HETATM   49  C17 UNL     1     -11.892  17.672  49.360  1.00  0.00     0.013 C 
ENDBRANCH  41  44
ENDBRANCH  33  37
ENDBRANCH  27  30
ENDBRANCH  26  27
ENDBRANCH   1  26
TORSDOF 11
ENDMDL
MODEL 5
REMARK VINA RESULT: -6.690501778      4.903      7.225
REMARK  11 active torsions:
REMARK  status: ('A' for Active; 'I' for Inactive)
REMARK    1  A    between atoms: S1_2  and  N1_4 
REMARK    2  A    between atoms: S1_2  and  C21_39 
REMARK    3  A    between atoms: N1_4  and  C1_6 
REMARK    4  A    between atoms: C3_8  and  C4_9 
REMARK    5  A    between atoms: C4_9  and  O3_10 
REMARK    6  A    between atoms: C4_9  and  C5_12 
REMARK    7  A    between atoms: C5_12  and  N2_13 
REMARK    8  A    between atoms: N2_13  and  C6_16 
REMARK    9  A    between atoms: C9_19  and  C10_21 
REMARK   10  A    between atoms: C11_26  and  C12_27 
REMARK   11  A    between atoms: C24_42  and  C25_43 
ROOT
HETATM    1  C4  UNL     1     -10.319  10.620  47.048  1.00  0.00     0.178 C 
ENDROOT
BRANCH   1   2
HETATM    2  C3  UNL     1      -8.916  11.070  47.088  1.00  0.00    -0.009 A 
HETATM    3  C2  UNL     1      -8.569  12.375  47.443  1.00  0.00     0.060 A 
HETATM    4  C1  UNL     1      -7.202  12.449  47.377  1.00  0.00     0.115 A 
HETATM    5  N5  UNL     1      -6.697  11.223  46.991  1.00  0.00    -0.351 N 
HETATM    6  C20 UNL     1      -7.753  10.421  46.827  1.00  0.00     0.099 A 
ATOM      7  H5  UNL     1      -5.716  10.979  46.857  1.00  0.00     0.166 HD
BRANCH   4   8
HETATM    8  N1  UNL     1      -6.362  13.541  47.664  1.00  0.00    -0.266 N 
ATOM      9  H1  UNL     1      -6.749  14.475  47.531  1.00  0.00     0.180 HD
BRANCH   8  10
HETATM   10  S1  UNL     1      -4.751  13.435  48.215  1.00  0.00     0.264 S 
HETATM   11  O1  UNL     1      -3.824  12.980  47.103  1.00  0.00    -0.200 OA
HETATM   12  O2  UNL     1      -4.233  14.823  48.580  1.00  0.00    -0.200 OA
BRANCH  10  13
HETATM   13  C21 UNL     1      -4.620  12.429  49.603  1.00  0.00     0.082 A 
HETATM   14  C22 UNL     1      -5.444  12.456  50.690  1.00  0.00     0.026 A 
HETATM   15  C23 UNL     1      -5.291  11.631  51.780  1.00  0.00     0.021 A 
HETATM   16  C24 UNL     1      -4.274  10.720  51.820  1.00  0.00     0.086 A 
HETATM   17  C26 UNL     1      -3.424  10.671  50.733  1.00  0.00     0.133 A 
HETATM   18  F5  UNL     1      -2.423   9.739  50.816  1.00  0.00    -0.205 F 
HETATM   19  C27 UNL     1      -3.583  11.485  49.665  1.00  0.00     0.068 A 
BRANCH  16  20
HETATM   20  C25 UNL     1      -4.080   9.807  52.994  1.00  0.00     0.420 C 
HETATM   21  F2  UNL     1      -2.820  10.016  53.538  1.00  0.00    -0.166 F 
HETATM   22  F3  UNL     1      -4.192   8.513  52.504  1.00  0.00    -0.166 F 
HETATM   23  F4  UNL     1      -5.092  10.041  53.878  1.00  0.00    -0.166 F 
ENDBRANCH  16  20
ENDBRANCH  10  13
ENDBRANCH   8  10
ENDBRANCH   4   8
ENDBRANCH   1   2
BRANCH   1  24
HETATM   24  O3  UNL     1     -10.768  10.522  45.723  1.00  0.00    -0.389 OA
ATOM     25  H3  UNL     1     -11.692  10.305  45.698  1.00  0.00     0.210 HD
ENDBRANCH   1  24
BRANCH   1  26
HETATM   26  C5  UNL     1     -11.262  11.509  47.791  1.00  0.00     0.269 C 
BRANCH  26  27
HETATM   27  N2  UNL     1     -12.397  11.916  46.995  1.00  0.00    -0.068 N 
ATOM     28  H22 UNL     1     -12.355  11.558  46.040  1.00  0.00     0.277 HD
ATOM     29  H21 UNL     1     -13.261  11.455  47.279  1.00  0.00     0.277 HD
BRANCH  27  30
HETATM   30  C6  UNL     1     -12.498  13.382  47.044  1.00  0.00     0.186 C 
HETATM   31  C7  UNL     1     -11.718  13.864  48.218  1.00  0.00     0.036 C 
HETATM   32  C8  UNL     1     -11.249  15.296  48.077  1.00  0.00     0.054 C 
HETATM   33  C9  UNL     1     -10.477  15.552  46.826  1.00  0.00     0.169 C 
HETATM   34  F1  UNL     1      -9.117  15.381  47.135  1.00  0.00    -0.234 F 
HETATM   35  C18 UNL     1     -10.854  14.711  45.665  1.00  0.00     0.054 C 
HETATM   36  C19 UNL     1     -12.180  14.035  45.745  1.00  0.00     0.036 C 
BRANCH  33  37
HETATM   37  C10 UNL     1     -10.604  17.032  46.557  1.00  0.00     0.180 A 
HETATM   38  N3  UNL     1     -11.589  17.595  45.824  1.00  0.00    -0.279 N 
HETATM   39  N4  UNL     1     -11.372  18.904  45.802  1.00  0.00    -0.281 N 
ATOM     40  H3  UNL     1     -12.359  17.104  45.371  1.00  0.00     0.189 HD
HETATM   41  C11 UNL     1     -10.260  19.147  46.517  1.00  0.00     0.144 A 
ATOM     42  H4  UNL     1     -11.946  19.601  45.328  1.00  0.00     0.189 HD
HETATM   43  O4  UNL     1      -9.831  17.989  46.953  1.00  0.00    -0.278 OA
BRANCH  41  44
HETATM   44  C12 UNL     1      -9.637  20.496  46.756  1.00  0.00     0.062 C 
HETATM   45  C13 UNL     1      -9.027  20.628  48.108  1.00  0.00     0.013 C 
HETATM   46  C14 UNL     1      -9.586  21.891  48.746  1.00  0.00     0.001 C 
HETATM   47  C15 UNL     1     -11.062  21.640  49.004  1.00  0.00     0.000 C 
HETATM   48  C16 UNL     1     -11.742  21.510  47.654  1.00  0.00     0.001 C 
HETATM   49  C17 UNL     1     -10.765  21.492  46.519  1.00  0.00     0.013 C 
ENDBRANCH  41  44
ENDBRANCH  33  37
ENDBRANCH  27  30
ENDBRANCH  26  27
ENDBRANCH   1  26
TORSDOF 11
ENDMDL
