MODEL 1
REMARK VINA RESULT: -7.698730939      0.000      0.000
REMARK  4 active torsions:
REMARK  status: ('A' for Active; 'I' for Inactive)
REMARK    1  A    between atoms: C4_5  and  N1_6 
REMARK    2  A    between atoms: N1_6  and  N2_8 
REMARK    3  A    between atoms: C5_10  and  N3_12 
REMARK    4  A    between atoms: N4_14  and  C6_16 
ROOT
HETATM    1  N2  UNL     1       2.351  11.907  24.525  1.00  0.00    -0.274 N 
ATOM      2  H2  UNL     1       3.136  11.264  24.433  1.00  0.00     0.189 HD
HETATM    3  C5  UNL     1       1.175  11.441  24.559  1.00  0.00     0.208 C 
HETATM    4 CL1  UNL     1       0.786   9.764  24.462  1.00  0.00    -0.042 Cl
ENDROOT
BRANCH   1   5
HETATM    5  N1  UNL     1       2.606  13.279  24.611  1.00  0.00    -0.299 N 
ATOM      6  H1  UNL     1       1.860  13.968  24.513  1.00  0.00     0.187 HD
BRANCH   5   7
HETATM    7  C4  UNL     1       3.941  13.666  24.839  1.00  0.00     0.048 A 
HETATM    8  C3  UNL     1       5.010  12.884  24.535  1.00  0.00     0.034 A 
HETATM    9  C2  UNL     1       6.293  13.285  24.729  1.00  0.00     0.044 A 
HETATM   10  C1  UNL     1       6.523  14.544  25.260  1.00  0.00     0.116 A 
HETATM   11  F1  UNL     1       7.776  14.971  25.454  1.00  0.00    -0.206 F 
HETATM   12  C12 UNL     1       5.426  15.343  25.572  1.00  0.00     0.044 A 
HETATM   13  C11 UNL     1       4.146  14.950  25.380  1.00  0.00     0.034 A 
ENDBRANCH   5   7
ENDBRANCH   1   5
BRANCH   3  14
HETATM   14  N3  UNL     1       0.148  12.443  24.712  1.00  0.00    -0.279 N 
HETATM   15  N4  UNL     1      -0.634  12.799  23.888  1.00  0.00    -0.329 N 
ATOM     16  H4  UNL     1      -1.279  13.524  24.202  1.00  0.00     0.180 HD
ATOM     17  H3  UNL     1       0.085  12.894  25.625  1.00  0.00     0.189 HD
BRANCH  15  18
HETATM   18  C6  UNL     1      -0.822  12.388  22.546  1.00  0.00     0.099 C 
HETATM   19  C7  UNL     1      -2.253  12.716  22.137  1.00  0.00     0.026 C 
HETATM   20  C8  UNL     1      -2.208  13.791  21.126  1.00  0.00     0.002 C 
HETATM   21  C9  UNL     1      -0.775  14.000  20.798  1.00  0.00     0.002 C 
HETATM   22  C10 UNL     1       0.093  13.123  21.602  1.00  0.00     0.026 C 
ENDBRANCH  15  18
ENDBRANCH   3  14
TORSDOF 4
ENDMDL
MODEL 2
REMARK VINA RESULT: -7.656475218      4.525      5.222
REMARK  4 active torsions:
REMARK  status: ('A' for Active; 'I' for Inactive)
REMARK    1  A    between atoms: C4_5  and  N1_6 
REMARK    2  A    between atoms: N1_6  and  N2_8 
REMARK    3  A    between atoms: C5_10  and  N3_12 
REMARK    4  A    between atoms: N4_14  and  C6_16 
ROOT
HETATM    1  N2  UNL     1       7.123  11.215  22.931  1.00  0.00    -0.274 N 
ATOM      2  H2  UNL     1       7.445  11.839  22.192  1.00  0.00     0.189 HD
HETATM    3  C5  UNL     1       6.658  10.081  22.617  1.00  0.00     0.208 C 
HETATM    4 CL1  UNL     1       6.526   9.492  21.002  1.00  0.00    -0.042 Cl
ENDROOT
BRANCH   1   5
HETATM    5  N1  UNL     1       7.208  11.637  24.260  1.00  0.00    -0.299 N 
ATOM      6  H1  UNL     1       7.776  11.138  24.944  1.00  0.00     0.187 HD
BRANCH   5   7
HETATM    7  C4  UNL     1       6.471  12.786  24.612  1.00  0.00     0.048 A 
HETATM    8  C3  UNL     1       5.116  12.857  24.543  1.00  0.00     0.034 A 
HETATM    9  C2  UNL     1       4.418  13.960  24.919  1.00  0.00     0.044 A 
HETATM   10  C1  UNL     1       5.116  15.060  25.391  1.00  0.00     0.116 A 
HETATM   11  F1  UNL     1       4.455  16.158  25.776  1.00  0.00    -0.206 F 
HETATM   12  C12 UNL     1       6.505  14.986  25.459  1.00  0.00     0.044 A 
HETATM   13  C11 UNL     1       7.206  13.890  25.087  1.00  0.00     0.034 A 
ENDBRANCH   5   7
ENDBRANCH   1   5
BRANCH   3  14
HETATM   14  N3  UNL     1       6.253   9.276  23.745  1.00  0.00    -0.279 N 
HETATM   15  N4  UNL     1       5.157   8.877  23.984  1.00  0.00    -0.329 N 
ATOM     16  H4  UNL     1       5.085   8.324  24.837  1.00  0.00     0.180 HD
ATOM     17  H3  UNL     1       6.985   9.023  24.409  1.00  0.00     0.189 HD
BRANCH  15  18
HETATM   18  C6  UNL     1       3.936   9.040  23.285  1.00  0.00     0.099 C 
HETATM   19  C7  UNL     1       3.283   7.672  23.132  1.00  0.00     0.026 C 
HETATM   20  C8  UNL     1       2.062   7.649  23.962  1.00  0.00     0.002 C 
HETATM   21  C9  UNL     1       1.880   9.029  24.480  1.00  0.00     0.002 C 
HETATM   22  C10 UNL     1       2.971   9.915  24.040  1.00  0.00     0.026 C 
ENDBRANCH  15  18
ENDBRANCH   3  14
TORSDOF 4
ENDMDL
MODEL 3
REMARK VINA RESULT: -7.603763632      5.026      6.766
REMARK  4 active torsions:
REMARK  status: ('A' for Active; 'I' for Inactive)
REMARK    1  A    between atoms: C4_5  and  N1_6 
REMARK    2  A    between atoms: N1_6  and  N2_8 
REMARK    3  A    between atoms: C5_10  and  N3_12 
REMARK    4  A    between atoms: N4_14  and  C6_16 
ROOT
HETATM    1  N2  UNL     1       7.066  11.454  22.977  1.00  0.00    -0.274 N 
ATOM      2  H2  UNL     1       6.824  12.100  22.227  1.00  0.00     0.189 HD
HETATM    3  C5  UNL     1       7.126  10.216  22.725  1.00  0.00     0.208 C 
HETATM    4 CL1  UNL     1       6.826   9.518  21.178  1.00  0.00    -0.042 Cl
ENDROOT
BRANCH   1   5
HETATM    5  N1  UNL     1       7.322  11.962  24.254  1.00  0.00    -0.299 N 
ATOM      6  H1  UNL     1       8.097  11.618  24.820  1.00  0.00     0.187 HD
BRANCH   5   7
HETATM    7  C4  UNL     1       6.460  12.974  24.721  1.00  0.00     0.048 A 
HETATM    8  C3  UNL     1       6.897  14.117  25.312  1.00  0.00     0.034 A 
HETATM    9  C2  UNL     1       6.054  15.099  25.726  1.00  0.00     0.044 A 
HETATM   10  C1  UNL     1       4.691  14.928  25.540  1.00  0.00     0.116 A 
HETATM   11  F1  UNL     1       3.838  15.882  25.929  1.00  0.00    -0.206 F 
HETATM   12  C12 UNL     1       4.246  13.755  24.935  1.00  0.00     0.044 A 
HETATM   13  C11 UNL     1       5.080  12.775  24.520  1.00  0.00     0.034 A 
ENDBRANCH   5   7
ENDBRANCH   1   5
BRANCH   3  14
HETATM   14  N3  UNL     1       7.498   9.401  23.857  1.00  0.00    -0.279 N 
HETATM   15  N4  UNL     1       7.010   8.366  24.186  1.00  0.00    -0.329 N 
ATOM     16  H4  UNL     1       7.422   7.951  25.022  1.00  0.00     0.180 HD
ATOM     17  H3  UNL     1       8.261   9.750  24.438  1.00  0.00     0.189 HD
BRANCH  15  18
HETATM   18  C6  UNL     1       5.956   7.612  23.614  1.00  0.00     0.099 C 
HETATM   19  C7  UNL     1       6.397   6.156  23.526  1.00  0.00     0.026 C 
HETATM   20  C8  UNL     1       5.584   5.370  24.476  1.00  0.00     0.002 C 
HETATM   21  C9  UNL     1       4.552   6.295  25.012  1.00  0.00     0.002 C 
HETATM   22  C10 UNL     1       4.714   7.653  24.465  1.00  0.00     0.026 C 
ENDBRANCH  15  18
ENDBRANCH   3  14
TORSDOF 4
ENDMDL
MODEL 4
REMARK VINA RESULT: -7.586728016      5.022      6.472
REMARK  4 active torsions:
REMARK  status: ('A' for Active; 'I' for Inactive)
REMARK    1  A    between atoms: C4_5  and  N1_6 
REMARK    2  A    between atoms: N1_6  and  N2_8 
REMARK    3  A    between atoms: C5_10  and  N3_12 
REMARK    4  A    between atoms: N4_14  and  C6_16 
ROOT
HETATM    1  N2  UNL     1       7.123  11.453  23.033  1.00  0.00    -0.274 N 
ATOM      2  H2  UNL     1       6.952  12.087  22.253  1.00  0.00     0.189 HD
HETATM    3  C5  UNL     1       7.177  10.209  22.814  1.00  0.00     0.208 C 
HETATM    4 CL1  UNL     1       6.984   9.481  21.263  1.00  0.00    -0.042 Cl
ENDROOT
BRANCH   1   5
HETATM    5  N1  UNL     1       7.290  11.987  24.314  1.00  0.00    -0.299 N 
ATOM      6  H1  UNL     1       8.032  11.663  24.935  1.00  0.00     0.187 HD
BRANCH   5   7
HETATM    7  C4  UNL     1       6.385  12.993  24.709  1.00  0.00     0.048 A 
HETATM    8  C3  UNL     1       5.039  12.890  24.559  1.00  0.00     0.034 A 
HETATM    9  C2  UNL     1       4.177  13.854  24.976  1.00  0.00     0.044 A 
HETATM   10  C1  UNL     1       4.693  14.991  25.578  1.00  0.00     0.116 A 
HETATM   11  F1  UNL     1       3.869  15.954  26.007  1.00  0.00    -0.206 F 
HETATM   12  C12 UNL     1       6.073  15.095  25.729  1.00  0.00     0.044 A 
HETATM   13  C11 UNL     1       6.936  14.138  25.317  1.00  0.00     0.034 A 
ENDBRANCH   5   7
ENDBRANCH   1   5
BRANCH   3  14
HETATM   14  N3  UNL     1       7.444   9.414  23.988  1.00  0.00    -0.279 N 
HETATM   15  N4  UNL     1       6.902   8.404  24.309  1.00  0.00    -0.329 N 
ATOM     16  H4  UNL     1       7.241   7.999  25.181  1.00  0.00     0.180 HD
ATOM     17  H3  UNL     1       8.177   9.754  24.611  1.00  0.00     0.189 HD
BRANCH  15  18
HETATM   18  C6  UNL     1       5.864   7.668  23.685  1.00  0.00     0.099 C 
HETATM   19  C7  UNL     1       5.891   6.244  24.226  1.00  0.00     0.026 C 
HETATM   20  C8  UNL     1       4.675   6.038  25.039  1.00  0.00     0.002 C 
HETATM   21  C9  UNL     1       3.839   7.253  24.861  1.00  0.00     0.002 C 
HETATM   22  C10 UNL     1       4.506   8.241  23.997  1.00  0.00     0.026 C 
ENDBRANCH  15  18
ENDBRANCH   3  14
TORSDOF 4
ENDMDL
MODEL 5
REMARK VINA RESULT: -7.547375244      4.563      5.268
REMARK  4 active torsions:
REMARK  status: ('A' for Active; 'I' for Inactive)
REMARK    1  A    between atoms: C4_5  and  N1_6 
REMARK    2  A    between atoms: N1_6  and  N2_8 
REMARK    3  A    between atoms: C5_10  and  N3_12 
REMARK    4  A    between atoms: N4_14  and  C6_16 
ROOT
HETATM    1  N2  UNL     1       7.100  11.147  22.916  1.00  0.00    -0.274 N 
ATOM      2  H2  UNL     1       7.404  11.793  22.188  1.00  0.00     0.189 HD
HETATM    3  C5  UNL     1       6.619  10.026  22.581  1.00  0.00     0.208 C 
HETATM    4 CL1  UNL     1       6.437   9.488  20.953  1.00  0.00    -0.042 Cl
ENDROOT
BRANCH   1   5
HETATM    5  N1  UNL     1       7.226  11.527  24.255  1.00  0.00    -0.299 N 
ATOM      6  H1  UNL     1       7.769  10.975  24.918  1.00  0.00     0.187 HD
BRANCH   5   7
HETATM    7  C4  UNL     1       6.568  12.711  24.646  1.00  0.00     0.048 A 
HETATM    8  C3  UNL     1       7.217  13.810  25.110  1.00  0.00     0.034 A 
HETATM    9  C2  UNL     1       6.571  14.956  25.450  1.00  0.00     0.044 A 
HETATM   10  C1  UNL     1       5.192  15.006  25.319  1.00  0.00     0.116 A 
HETATM   11  F1  UNL     1       4.529  16.124  25.637  1.00  0.00    -0.206 F 
HETATM   12  C12 UNL     1       4.529  13.877  24.844  1.00  0.00     0.044 A 
HETATM   13  C11 UNL     1       5.166  12.734  24.503  1.00  0.00     0.034 A 
ENDBRANCH   5   7
ENDBRANCH   1   5
BRANCH   3  14
HETATM   14  N3  UNL     1       6.243   9.189  23.695  1.00  0.00    -0.279 N 
HETATM   15  N4  UNL     1       5.155   8.775  23.945  1.00  0.00    -0.329 N 
ATOM     16  H4  UNL     1       5.104   8.198  24.784  1.00  0.00     0.180 HD
ATOM     17  H3  UNL     1       6.990   8.923  24.337  1.00  0.00     0.189 HD
BRANCH  15  18
HETATM   18  C6  UNL     1       3.919   8.947  23.274  1.00  0.00     0.099 C 
HETATM   19  C7  UNL     1       3.256   7.583  23.131  1.00  0.00     0.026 C 
HETATM   20  C8  UNL     1       2.054   7.562  23.989  1.00  0.00     0.002 C 
HETATM   21  C9  UNL     1       1.891   8.941  24.516  1.00  0.00     0.002 C 
HETATM   22  C10 UNL     1       2.976   9.824  24.055  1.00  0.00     0.026 C 
ENDBRANCH  15  18
ENDBRANCH   3  14
TORSDOF 4
ENDMDL
