MODEL 1
REMARK VINA RESULT: -6.125952060      0.000      0.000
REMARK  4 active torsions:
REMARK  status: ('A' for Active; 'I' for Inactive)
REMARK    1  A    between atoms: C2_2  and  N1_4 
REMARK    2  A    between atoms: N1_4  and  C4_6 
REMARK    3  A    between atoms: C4_6  and  N2_8 
REMARK    4  A    between atoms: N2_8  and  C5_10 
ROOT
HETATM    1  N2  UNL     1       7.628  13.800  24.719  1.00  0.00    -0.331 N 
ATOM      2  H2  UNL     1       7.950  14.306  23.894  1.00  0.00     0.168 HD
ENDROOT
BRANCH   1   3
HETATM    3  C4  UNL     1       8.503  13.798  25.782  1.00  0.00     0.172 C 
HETATM    4  S1  UNL     1       7.851  14.371  27.226  1.00  0.00    -0.041 SA
BRANCH   3   5
HETATM    5  N1  UNL     1       9.833  13.388  25.790  1.00  0.00    -0.363 N 
ATOM      6  H1  UNL     1      10.051  12.414  25.579  1.00  0.00     0.162 HD
BRANCH   5   7
HETATM    7  C2  UNL     1      10.936  14.315  26.091  1.00  0.00     0.075 C 
HETATM    8  C1  UNL     1      12.092  13.916  25.216  1.00  0.00     0.032 C 
HETATM    9  C3  UNL     1      11.350  14.212  27.528  1.00  0.00     0.032 C 
ENDBRANCH   5   7
ENDBRANCH   3   5
ENDBRANCH   1   3
BRANCH   1  10
HETATM   10  C5  UNL     1       6.314  13.189  24.592  1.00  0.00     0.065 A 
HETATM   11  C6  UNL     1       6.132  11.899  24.189  1.00  0.00     0.082 A 
HETATM   12  S2  UNL     1       4.431  11.727  24.099  1.00  0.00    -0.086 SA
HETATM   13  C7  UNL     1       3.987  13.293  24.572  1.00  0.00     0.098 A 
HETATM   14 CL1  UNL     1       2.352  13.986  24.751  1.00  0.00    -0.074 Cl
HETATM   15  C8  UNL     1       5.177  13.921  24.793  1.00  0.00     0.089 A 
HETATM   16 CL2  UNL     1       5.175  15.640  25.337  1.00  0.00    -0.080 Cl
ENDBRANCH   1  10
TORSDOF 4
ENDMDL
MODEL 2
REMARK VINA RESULT: -6.064387771      4.094      7.626
REMARK  4 active torsions:
REMARK  status: ('A' for Active; 'I' for Inactive)
REMARK    1  A    between atoms: C2_2  and  N1_4 
REMARK    2  A    between atoms: N1_4  and  C4_6 
REMARK    3  A    between atoms: C4_6  and  N2_8 
REMARK    4  A    between atoms: N2_8  and  C5_10 
ROOT
HETATM    1  N2  UNL     1       3.071  12.514  24.052  1.00  0.00    -0.331 N 
ATOM      2  H2  UNL     1       3.597  11.822  23.516  1.00  0.00     0.168 HD
ENDROOT
BRANCH   1   3
HETATM    3  C4  UNL     1       1.704  12.342  24.044  1.00  0.00     0.172 C 
HETATM    4  S1  UNL     1       1.169  10.956  24.838  1.00  0.00    -0.041 SA
BRANCH   3   5
HETATM    5  N1  UNL     1       0.746  13.169  23.465  1.00  0.00    -0.363 N 
ATOM      6  H1  UNL     1       0.791  14.173  23.635  1.00  0.00     0.162 HD
BRANCH   5   7
HETATM    7  C2  UNL     1      -0.331  12.639  22.612  1.00  0.00     0.075 C 
HETATM    8  C1  UNL     1      -0.203  13.316  21.276  1.00  0.00     0.032 C 
HETATM    9  C3  UNL     1      -1.679  12.947  23.192  1.00  0.00     0.032 C 
ENDBRANCH   5   7
ENDBRANCH   3   5
ENDBRANCH   1   3
BRANCH   1  10
HETATM   10  C5  UNL     1       3.879  13.529  24.706  1.00  0.00     0.065 A 
HETATM   11  C6  UNL     1       3.346  14.643  25.285  1.00  0.00     0.082 A 
HETATM   12  S2  UNL     1       4.710  15.543  25.793  1.00  0.00    -0.086 SA
HETATM   13  C7  UNL     1       5.927  14.492  25.260  1.00  0.00     0.098 A 
HETATM   14 CL1  UNL     1       7.698  14.671  25.393  1.00  0.00    -0.074 Cl
HETATM   15  C8  UNL     1       5.245  13.455  24.695  1.00  0.00     0.089 A 
HETATM   16 CL2  UNL     1       6.167  12.073  23.996  1.00  0.00    -0.080 Cl
ENDBRANCH   1  10
TORSDOF 4
ENDMDL
MODEL 3
REMARK VINA RESULT: -6.038226592      3.769      7.387
REMARK  4 active torsions:
REMARK  status: ('A' for Active; 'I' for Inactive)
REMARK    1  A    between atoms: C2_2  and  N1_4 
REMARK    2  A    between atoms: N1_4  and  C4_6 
REMARK    3  A    between atoms: C4_6  and  N2_8 
REMARK    4  A    between atoms: N2_8  and  C5_10 
ROOT
HETATM    1  N2  UNL     1       2.783  13.466  24.818  1.00  0.00    -0.331 N 
ATOM      2  H2  UNL     1       2.601  14.200  25.503  1.00  0.00     0.168 HD
ENDROOT
BRANCH   1   3
HETATM    3  C4  UNL     1       1.660  12.905  24.250  1.00  0.00     0.172 C 
HETATM    4  S1  UNL     1       1.406  11.289  24.651  1.00  0.00    -0.041 SA
BRANCH   3   5
HETATM    5  N1  UNL     1       0.740  13.515  23.402  1.00  0.00    -0.363 N 
ATOM      6  H1  UNL     1       0.739  14.532  23.323  1.00  0.00     0.162 HD
BRANCH   5   7
HETATM    7  C2  UNL     1      -0.232  12.739  22.614  1.00  0.00     0.075 C 
HETATM    8  C1  UNL     1      -0.190  13.282  21.212  1.00  0.00     0.032 C 
HETATM    9  C3  UNL     1      -1.618  12.896  23.161  1.00  0.00     0.032 C 
ENDBRANCH   5   7
ENDBRANCH   3   5
ENDBRANCH   1   3
BRANCH   1  10
HETATM   10  C5  UNL     1       4.188  13.171  24.590  1.00  0.00     0.065 A 
HETATM   11  C6  UNL     1       4.626  11.975  24.104  1.00  0.00     0.082 A 
HETATM   12  S2  UNL     1       6.332  12.110  24.139  1.00  0.00    -0.086 SA
HETATM   13  C7  UNL     1       6.455  13.677  24.771  1.00  0.00     0.098 A 
HETATM   14 CL1  UNL     1       7.923  14.624  25.138  1.00  0.00    -0.074 Cl
HETATM   15  C8  UNL     1       5.160  14.067  24.943  1.00  0.00     0.089 A 
HETATM   16 CL2  UNL     1       4.816  15.711  25.596  1.00  0.00    -0.080 Cl
ENDBRANCH   1  10
TORSDOF 4
ENDMDL
MODEL 4
REMARK VINA RESULT: -5.972051741      4.374      7.515
REMARK  4 active torsions:
REMARK  status: ('A' for Active; 'I' for Inactive)
REMARK    1  A    between atoms: C2_2  and  N1_4 
REMARK    2  A    between atoms: N1_4  and  C4_6 
REMARK    3  A    between atoms: C4_6  and  N2_8 
REMARK    4  A    between atoms: N2_8  and  C5_10 
ROOT
HETATM    1  N2  UNL     1       2.702  11.473  23.580  1.00  0.00    -0.331 N 
ATOM      2  H2  UNL     1       2.561  11.460  22.569  1.00  0.00     0.168 HD
ENDROOT
BRANCH   1   3
HETATM    3  C4  UNL     1       1.782  10.750  24.307  1.00  0.00     0.172 C 
HETATM    4  S1  UNL     1       2.099   9.098  24.391  1.00  0.00    -0.041 SA
BRANCH   3   5
HETATM    5  N1  UNL     1       0.648  11.227  24.960  1.00  0.00    -0.363 N 
ATOM      6  H1  UNL     1       0.746  11.615  25.899  1.00  0.00     0.162 HD
BRANCH   5   7
HETATM    7  C2  UNL     1      -0.686  11.189  24.340  1.00  0.00     0.075 C 
HETATM    8  C1  UNL     1      -0.805  12.422  23.487  1.00  0.00     0.032 C 
HETATM    9  C3  UNL     1      -1.765  11.205  25.380  1.00  0.00     0.032 C 
ENDBRANCH   5   7
ENDBRANCH   3   5
ENDBRANCH   1   3
BRANCH   1  10
HETATM   10  C5  UNL     1       3.842  12.252  24.032  1.00  0.00     0.065 A 
HETATM   11  C6  UNL     1       5.115  11.763  24.049  1.00  0.00     0.082 A 
HETATM   12  S2  UNL     1       6.035  13.017  24.764  1.00  0.00    -0.086 SA
HETATM   13  C7  UNL     1       4.788  14.134  25.028  1.00  0.00     0.098 A 
HETATM   14 CL1  UNL     1       4.879  15.761  25.757  1.00  0.00    -0.074 Cl
HETATM   15  C8  UNL     1       3.675  13.506  24.552  1.00  0.00     0.089 A 
HETATM   16 CL2  UNL     1       2.088  14.357  24.622  1.00  0.00    -0.080 Cl
ENDBRANCH   1  10
TORSDOF 4
ENDMDL
MODEL 5
REMARK VINA RESULT: -5.912947490      4.194      7.769
REMARK  4 active torsions:
REMARK  status: ('A' for Active; 'I' for Inactive)
REMARK    1  A    between atoms: C2_2  and  N1_4 
REMARK    2  A    between atoms: N1_4  and  C4_6 
REMARK    3  A    between atoms: C4_6  and  N2_8 
REMARK    4  A    between atoms: N2_8  and  C5_10 
ROOT
HETATM    1  N2  UNL     1       2.751  12.562  23.951  1.00  0.00    -0.331 N 
ATOM      2  H2  UNL     1       2.985  12.383  22.974  1.00  0.00     0.168 HD
ENDROOT
BRANCH   1   3
HETATM    3  C4  UNL     1       1.652  11.878  24.423  1.00  0.00     0.172 C 
HETATM    4  S1  UNL     1       1.974  10.306  24.936  1.00  0.00    -0.041 SA
BRANCH   3   5
HETATM    5  N1  UNL     1       0.340  12.334  24.516  1.00  0.00    -0.363 N 
ATOM      6  H1  UNL     1       0.170  13.289  24.830  1.00  0.00     0.162 HD
BRANCH   5   7
HETATM    7  C2  UNL     1      -0.811  11.481  24.174  1.00  0.00     0.075 C 
HETATM    8  C1  UNL     1      -1.602  12.216  23.128  1.00  0.00     0.032 C 
HETATM    9  C3  UNL     1      -1.680  11.244  25.372  1.00  0.00     0.032 C 
ENDBRANCH   5   7
ENDBRANCH   3   5
ENDBRANCH   1   3
BRANCH   1  10
HETATM   10  C5  UNL     1       3.626  13.501  24.632  1.00  0.00     0.065 A 
HETATM   11  C6  UNL     1       3.176  14.653  25.206  1.00  0.00     0.082 A 
HETATM   12  S2  UNL     1       4.600  15.430  25.754  1.00  0.00    -0.086 SA
HETATM   13  C7  UNL     1       5.735  14.281  25.242  1.00  0.00     0.098 A 
HETATM   14 CL1  UNL     1       7.511  14.307  25.419  1.00  0.00    -0.074 Cl
HETATM   15  C8  UNL     1       4.981  13.310  24.653  1.00  0.00     0.089 A 
HETATM   16 CL2  UNL     1       5.798  11.858  23.966  1.00  0.00    -0.080 Cl
ENDBRANCH   1  10
TORSDOF 4
ENDMDL
