MODEL 1
REMARK VINA RESULT: -7.180044621      0.000      0.000
REMARK  6 active torsions:
REMARK  status: ('A' for Active; 'I' for Inactive)
REMARK    1  A    between atoms: C3_6  and  C4_7 
REMARK       I    between atoms: C4_7  and  N2_9 
REMARK    2  A    between atoms: C9_14  and  O2_15 
REMARK    3  A    between atoms: O2_15  and  C10_16 
REMARK    4  A    between atoms: C10_16  and  S1_18 
REMARK    5  A    between atoms: S1_18  and  C11_19 
REMARK    6  A    between atoms: C18_26  and  C19_27 
ROOT
HETATM    1  C4  UNL     1      -8.930  38.818   9.189  1.00  0.00     0.251 C 
HETATM    2  O1  UNL     1      -8.597  39.881   8.616  1.00  0.00    -0.271 OA
HETATM    3  N2  UNL     1      -9.759  37.913   8.510  1.00  0.00    -0.338 N 
HETATM    4  C5  UNL     1     -10.176  36.544   8.769  1.00  0.00     0.090 C 
HETATM    5  C6  UNL     1     -11.660  36.579   8.637  1.00  0.00     0.028 C 
HETATM    6  C7  UNL     1     -11.877  37.693   7.633  1.00  0.00     0.030 C 
HETATM    7  C8  UNL     1     -10.491  38.154   7.295  1.00  0.00     0.117 C 
HETATM    8  C9  UNL     1      -9.897  37.008   6.425  1.00  0.00     0.157 C 
HETATM    9  C15 UNL     1      -9.660  35.944   7.442  1.00  0.00     0.060 C 
ENDROOT
BRANCH   1  10
HETATM   10  C3  UNL     1      -8.408  38.582  10.558  1.00  0.00     0.277 C 
HETATM   11  N1  UNL     1      -6.957  38.549  10.590  1.00  0.00    -0.058 N 
HETATM   12  C2  UNL     1      -6.572  38.072  11.902  1.00  0.00     0.195 C 
ATOM     13  H12 UNL     1      -6.530  39.444  10.348  1.00  0.00     0.278 HD
ATOM     14  H11 UNL     1      -6.552  38.002   9.830  1.00  0.00     0.278 HD
HETATM   15  C1  UNL     1      -7.016  36.638  12.059  1.00  0.00     0.041 C 
HETATM   16  C18 UNL     1      -7.095  38.953  12.992  1.00  0.00     0.105 C 
HETATM   17  C17 UNL     1      -7.838  40.138  12.484  1.00  0.00     0.018 C 
HETATM   18  C16 UNL     1      -8.652  39.952  11.253  1.00  0.00     0.043 C 
BRANCH  16  19
HETATM   19  C19 UNL     1      -5.944  39.434  13.786  1.00  0.00     0.237 C 
HETATM   20  N3  UNL     1      -5.029  40.440  13.381  1.00  0.00    -0.062 NA
HETATM   21  O4  UNL     1      -5.753  38.910  14.907  1.00  0.00    -0.276 OA
ENDBRANCH  16  19
ENDBRANCH   1  10
BRANCH   8  22
HETATM   22  O2  UNL     1     -10.867  36.694   5.475  1.00  0.00    -0.305 OA
BRANCH  22  23
HETATM   23  C10 UNL     1     -10.463  36.580   4.120  1.00  0.00     0.323 C 
HETATM   24  O3  UNL     1      -9.255  36.837   3.851  1.00  0.00    -0.252 OA
BRANCH  23  25
HETATM   25  S1  UNL     1     -11.618  36.128   2.872  1.00  0.00    -0.053 SA
BRANCH  25  26
HETATM   26  C11 UNL     1     -11.298  36.818   1.266  1.00  0.00     0.007 C 
HETATM   27  C12 UNL     1     -12.058  38.116   1.039  1.00  0.00     0.026 C 
HETATM   28  C13 UNL     1     -11.986  35.855   0.250  1.00  0.00     0.026 C 
HETATM   29  C14 UNL     1      -9.894  36.940   0.842  1.00  0.00     0.026 C 
ENDBRANCH  25  26
ENDBRANCH  23  25
ENDBRANCH  22  23
ENDBRANCH   8  22
TORSDOF 6
ENDMDL
MODEL 2
REMARK VINA RESULT: -7.059002114      4.189      9.057
REMARK  6 active torsions:
REMARK  status: ('A' for Active; 'I' for Inactive)
REMARK    1  A    between atoms: C3_6  and  C4_7 
REMARK       I    between atoms: C4_7  and  N2_9 
REMARK    2  A    between atoms: C9_14  and  O2_15 
REMARK    3  A    between atoms: O2_15  and  C10_16 
REMARK    4  A    between atoms: C10_16  and  S1_18 
REMARK    5  A    between atoms: S1_18  and  C11_19 
REMARK    6  A    between atoms: C18_26  and  C19_27 
ROOT
HETATM    1  C4  UNL     1     -13.164  36.967   8.279  1.00  0.00     0.251 C 
HETATM    2  O1  UNL     1     -13.617  37.757   9.140  1.00  0.00    -0.271 OA
HETATM    3  N2  UNL     1     -11.808  37.046   7.933  1.00  0.00    -0.338 N 
HETATM    4  C5  UNL     1     -10.920  36.200   7.151  1.00  0.00     0.090 C 
HETATM    5  C6  UNL     1     -10.269  37.137   6.192  1.00  0.00     0.028 C 
HETATM    6  C7  UNL     1     -10.256  38.443   6.960  1.00  0.00     0.030 C 
HETATM    7  C8  UNL     1     -10.887  38.097   8.276  1.00  0.00     0.117 C 
HETATM    8  C9  UNL     1      -9.812  37.245   9.014  1.00  0.00     0.157 C 
HETATM    9  C15 UNL     1      -9.874  35.959   8.263  1.00  0.00     0.060 C 
ENDROOT
BRANCH   1  10
HETATM   10  C3  UNL     1     -14.105  35.984   7.686  1.00  0.00     0.277 C 
HETATM   11  N1  UNL     1     -14.014  34.686   8.330  1.00  0.00    -0.058 N 
HETATM   12  C2  UNL     1     -14.778  33.757   7.522  1.00  0.00     0.195 C 
ATOM     13  H12 UNL     1     -14.307  34.703   9.307  1.00  0.00     0.278 HD
ATOM     14  H11 UNL     1     -13.053  34.384   8.487  1.00  0.00     0.278 HD
HETATM   15  C1  UNL     1     -14.104  33.595   6.181  1.00  0.00     0.041 C 
HETATM   16  C18 UNL     1     -16.209  34.175   7.395  1.00  0.00     0.105 C 
HETATM   17  C17 UNL     1     -16.533  35.407   8.163  1.00  0.00     0.018 C 
HETATM   18  C16 UNL     1     -15.480  36.455   8.241  1.00  0.00     0.043 C 
BRANCH  16  19
HETATM   19  C19 UNL     1     -17.055  33.075   7.905  1.00  0.00     0.237 C 
HETATM   20  N3  UNL     1     -16.630  32.056   8.796  1.00  0.00    -0.062 NA
HETATM   21  O4  UNL     1     -18.246  33.031   7.517  1.00  0.00    -0.276 OA
ENDBRANCH  16  19
ENDBRANCH   1  10
BRANCH   8  22
HETATM   22  O2  UNL     1      -8.609  37.935   8.884  1.00  0.00    -0.305 OA
BRANCH  22  23
HETATM   23  C10 UNL     1      -8.402  39.077   9.699  1.00  0.00     0.323 C 
HETATM   24  O3  UNL     1      -8.124  40.164   9.116  1.00  0.00    -0.252 OA
BRANCH  23  25
HETATM   25  S1  UNL     1      -8.501  38.961  11.452  1.00  0.00    -0.053 SA
BRANCH  25  26
HETATM   26  C11 UNL     1      -7.172  38.067  12.223  1.00  0.00     0.007 C 
HETATM   27  C12 UNL     1      -7.126  36.614  11.775  1.00  0.00     0.026 C 
HETATM   28  C13 UNL     1      -7.569  37.934  13.725  1.00  0.00     0.026 C 
HETATM   29  C14 UNL     1      -5.833  38.677  12.196  1.00  0.00     0.026 C 
ENDBRANCH  25  26
ENDBRANCH  23  25
ENDBRANCH  22  23
ENDBRANCH   8  22
TORSDOF 6
ENDMDL
MODEL 3
REMARK VINA RESULT: -6.961109573      4.261      9.119
REMARK  6 active torsions:
REMARK  status: ('A' for Active; 'I' for Inactive)
REMARK    1  A    between atoms: C3_6  and  C4_7 
REMARK       I    between atoms: C4_7  and  N2_9 
REMARK    2  A    between atoms: C9_14  and  O2_15 
REMARK    3  A    between atoms: O2_15  and  C10_16 
REMARK    4  A    between atoms: C10_16  and  S1_18 
REMARK    5  A    between atoms: S1_18  and  C11_19 
REMARK    6  A    between atoms: C18_26  and  C19_27 
ROOT
HETATM    1  C4  UNL     1     -13.215  36.972   8.300  1.00  0.00     0.251 C 
HETATM    2  O1  UNL     1     -13.696  37.700   9.201  1.00  0.00    -0.271 OA
HETATM    3  N2  UNL     1     -11.857  37.102   7.977  1.00  0.00    -0.338 N 
HETATM    4  C5  UNL     1     -10.941  36.324   7.159  1.00  0.00     0.090 C 
HETATM    5  C6  UNL     1     -10.301  37.330   6.264  1.00  0.00     0.028 C 
HETATM    6  C7  UNL     1     -10.327  38.588   7.108  1.00  0.00     0.030 C 
HETATM    7  C8  UNL     1     -10.965  38.151   8.393  1.00  0.00     0.117 C 
HETATM    8  C9  UNL     1      -9.879  37.282   9.093  1.00  0.00     0.157 C 
HETATM    9  C15 UNL     1      -9.903  36.041   8.267  1.00  0.00     0.060 C 
ENDROOT
BRANCH   1  10
HETATM   10  C3  UNL     1     -14.126  36.006   7.638  1.00  0.00     0.277 C 
HETATM   11  N1  UNL     1     -14.044  34.684   8.234  1.00  0.00    -0.058 N 
HETATM   12  C2  UNL     1     -14.771  33.781   7.366  1.00  0.00     0.195 C 
ATOM     13  H12 UNL     1     -14.369  34.660   9.201  1.00  0.00     0.278 HD
ATOM     14  H11 UNL     1     -13.085  34.384   8.411  1.00  0.00     0.278 HD
HETATM   15  C1  UNL     1     -14.052  33.678   6.043  1.00  0.00     0.041 C 
HETATM   16  C18 UNL     1     -16.201  34.191   7.207  1.00  0.00     0.105 C 
HETATM   17  C17 UNL     1     -16.563  35.389   8.012  1.00  0.00     0.018 C 
HETATM   18  C16 UNL     1     -15.523  36.442   8.165  1.00  0.00     0.043 C 
BRANCH  16  19
HETATM   19  C19 UNL     1     -17.053  33.065   7.646  1.00  0.00     0.237 C 
HETATM   20  N3  UNL     1     -16.624  31.972   8.442  1.00  0.00    -0.062 NA
HETATM   21  O4  UNL     1     -18.252  33.068   7.282  1.00  0.00    -0.276 OA
ENDBRANCH  16  19
ENDBRANCH   1  10
BRANCH   8  22
HETATM   22  O2  UNL     1      -8.691  38.005   9.020  1.00  0.00    -0.305 OA
BRANCH  22  23
HETATM   23  C10 UNL     1      -8.312  38.784  10.142  1.00  0.00     0.323 C 
HETATM   24  O3  UNL     1      -8.767  39.961  10.212  1.00  0.00    -0.252 OA
BRANCH  23  25
HETATM   25  S1  UNL     1      -7.226  38.133  11.365  1.00  0.00    -0.053 SA
BRANCH  25  26
HETATM   26  C11 UNL     1      -7.958  36.947  12.467  1.00  0.00     0.007 C 
HETATM   27  C12 UNL     1      -8.441  37.590  13.759  1.00  0.00     0.026 C 
HETATM   28  C13 UNL     1      -6.783  36.053  12.966  1.00  0.00     0.026 C 
HETATM   29  C14 UNL     1      -8.972  36.035  11.914  1.00  0.00     0.026 C 
ENDBRANCH  25  26
ENDBRANCH  23  25
ENDBRANCH  22  23
ENDBRANCH   8  22
TORSDOF 6
ENDMDL
MODEL 4
REMARK VINA RESULT: -6.884483220      2.633      3.325
REMARK  6 active torsions:
REMARK  status: ('A' for Active; 'I' for Inactive)
REMARK    1  A    between atoms: C3_6  and  C4_7 
REMARK       I    between atoms: C4_7  and  N2_9 
REMARK    2  A    between atoms: C9_14  and  O2_15 
REMARK    3  A    between atoms: O2_15  and  C10_16 
REMARK    4  A    between atoms: C10_16  and  S1_18 
REMARK    5  A    between atoms: S1_18  and  C11_19 
REMARK    6  A    between atoms: C18_26  and  C19_27 
ROOT
HETATM    1  C4  UNL     1      -8.748  36.618   9.777  1.00  0.00     0.251 C 
HETATM    2  O1  UNL     1      -8.122  35.534   9.711  1.00  0.00    -0.271 OA
HETATM    3  N2  UNL     1      -9.607  36.969   8.726  1.00  0.00    -0.338 N 
HETATM    4  C5  UNL     1     -10.607  38.011   8.551  1.00  0.00     0.090 C 
HETATM    5  C6  UNL     1     -10.256  38.643   7.248  1.00  0.00     0.028 C 
HETATM    6  C7  UNL     1      -9.620  37.499   6.485  1.00  0.00     0.030 C 
HETATM    7  C8  UNL     1      -9.696  36.341   7.434  1.00  0.00     0.117 C 
HETATM    8  C9  UNL     1     -11.204  35.952   7.458  1.00  0.00     0.157 C 
HETATM    9  C15 UNL     1     -11.795  37.072   8.245  1.00  0.00     0.060 C 
ENDROOT
BRANCH   1  10
HETATM   10  C3  UNL     1      -8.540  37.461  10.981  1.00  0.00     0.277 C 
HETATM   11  N1  UNL     1      -7.403  37.017  11.767  1.00  0.00    -0.058 N 
HETATM   12  C2  UNL     1      -7.446  37.740  13.022  1.00  0.00     0.195 C 
ATOM     13  H12 UNL     1      -6.513  37.118  11.277  1.00  0.00     0.278 HD
ATOM     14  H11 UNL     1      -7.371  36.005  11.888  1.00  0.00     0.278 HD
HETATM   15  C1  UNL     1      -8.669  37.314  13.797  1.00  0.00     0.041 C 
HETATM   16  C18 UNL     1      -7.389  39.220  12.815  1.00  0.00     0.105 C 
HETATM   17  C17 UNL     1      -7.246  39.610  11.387  1.00  0.00     0.018 C 
HETATM   18  C16 UNL     1      -7.947  38.768  10.380  1.00  0.00     0.043 C 
BRANCH  16  19
HETATM   19  C19 UNL     1      -6.220  39.742  13.556  1.00  0.00     0.237 C 
HETATM   20  N3  UNL     1      -5.627  41.016  13.362  1.00  0.00    -0.062 NA
HETATM   21  O4  UNL     1      -5.705  39.001  14.424  1.00  0.00    -0.276 OA
ENDBRANCH  16  19
ENDBRANCH   1  10
BRANCH   8  22
HETATM   22  O2  UNL     1     -11.615  35.898   6.128  1.00  0.00    -0.305 OA
BRANCH  22  23
HETATM   23  C10 UNL     1     -12.545  34.893   5.758  1.00  0.00     0.323 C 
HETATM   24  O3  UNL     1     -13.465  34.621   6.580  1.00  0.00    -0.252 OA
BRANCH  23  25
HETATM   25  S1  UNL     1     -12.389  34.046   4.223  1.00  0.00    -0.053 SA
BRANCH  25  26
HETATM   26  C11 UNL     1     -12.757  32.308   4.282  1.00  0.00     0.007 C 
HETATM   27  C12 UNL     1     -11.813  31.556   5.208  1.00  0.00     0.026 C 
HETATM   28  C13 UNL     1     -12.359  31.746   2.883  1.00  0.00     0.026 C 
HETATM   29  C14 UNL     1     -14.156  31.913   4.510  1.00  0.00     0.026 C 
ENDBRANCH  25  26
ENDBRANCH  23  25
ENDBRANCH  22  23
ENDBRANCH   8  22
TORSDOF 6
ENDMDL
MODEL 5
REMARK VINA RESULT: -6.827566436      2.288      2.826
REMARK  6 active torsions:
REMARK  status: ('A' for Active; 'I' for Inactive)
REMARK    1  A    between atoms: C3_6  and  C4_7 
REMARK       I    between atoms: C4_7  and  N2_9 
REMARK    2  A    between atoms: C9_14  and  O2_15 
REMARK    3  A    between atoms: O2_15  and  C10_16 
REMARK    4  A    between atoms: C10_16  and  S1_18 
REMARK    5  A    between atoms: S1_18  and  C11_19 
REMARK    6  A    between atoms: C18_26  and  C19_27 
ROOT
HETATM    1  C4  UNL     1      -8.835  36.583   9.859  1.00  0.00     0.251 C 
HETATM    2  O1  UNL     1      -8.230  35.486   9.821  1.00  0.00    -0.271 OA
HETATM    3  N2  UNL     1      -9.694  36.919   8.803  1.00  0.00    -0.338 N 
HETATM    4  C5  UNL     1     -10.675  37.973   8.603  1.00  0.00     0.090 C 
HETATM    5  C6  UNL     1     -10.321  38.561   7.280  1.00  0.00     0.028 C 
HETATM    6  C7  UNL     1      -9.712  37.383   6.547  1.00  0.00     0.030 C 
HETATM    7  C8  UNL     1      -9.803  36.255   7.531  1.00  0.00     0.117 C 
HETATM    8  C9  UNL     1     -11.318  35.896   7.575  1.00  0.00     0.157 C 
HETATM    9  C15 UNL     1     -11.883  37.049   8.332  1.00  0.00     0.060 C 
ENDROOT
BRANCH   1  10
HETATM   10  C3  UNL     1      -8.604  37.457  11.036  1.00  0.00     0.277 C 
HETATM   11  N1  UNL     1      -7.468  37.016  11.826  1.00  0.00    -0.058 N 
HETATM   12  C2  UNL     1      -7.490  37.775  13.060  1.00  0.00     0.195 C 
ATOM     13  H12 UNL     1      -6.581  37.088  11.327  1.00  0.00     0.278 HD
ATOM     14  H11 UNL     1      -7.452  36.008  11.976  1.00  0.00     0.278 HD
HETATM   15  C1  UNL     1      -8.713  37.393  13.856  1.00  0.00     0.041 C 
HETATM   16  C18 UNL     1      -7.409  39.248  12.810  1.00  0.00     0.105 C 
HETATM   17  C17 UNL     1      -7.270  39.594  11.370  1.00  0.00     0.018 C 
HETATM   18  C16 UNL     1      -7.993  38.735  10.394  1.00  0.00     0.043 C 
BRANCH  16  19
HETATM   19  C19 UNL     1      -6.226  39.771  13.527  1.00  0.00     0.237 C 
HETATM   20  N3  UNL     1      -5.629  41.040  13.310  1.00  0.00    -0.062 NA
HETATM   21  O4  UNL     1      -5.701  39.036  14.395  1.00  0.00    -0.276 OA
ENDBRANCH  16  19
ENDBRANCH   1  10
BRANCH   8  22
HETATM   22  O2  UNL     1     -11.739  35.810   6.250  1.00  0.00    -0.305 OA
BRANCH  22  23
HETATM   23  C10 UNL     1     -12.689  34.812   5.914  1.00  0.00     0.323 C 
HETATM   24  O3  UNL     1     -13.806  34.851   6.506  1.00  0.00    -0.252 OA
BRANCH  23  25
HETATM   25  S1  UNL     1     -12.302  33.559   4.741  1.00  0.00    -0.053 SA
BRANCH  25  26
HETATM   26  C11 UNL     1     -13.118  33.721   3.171  1.00  0.00     0.007 C 
HETATM   27  C12 UNL     1     -14.623  33.531   3.286  1.00  0.00     0.026 C 
HETATM   28  C13 UNL     1     -12.693  32.469   2.344  1.00  0.00     0.026 C 
HETATM   29  C14 UNL     1     -12.789  34.896   2.348  1.00  0.00     0.026 C 
ENDBRANCH  25  26
ENDBRANCH  23  25
ENDBRANCH  22  23
ENDBRANCH   8  22
TORSDOF 6
ENDMDL
