MODEL 1
REMARK VINA RESULT: -4.491695135      0.000      0.000
REMARK  4 active torsions:
REMARK  status: ('A' for Active; 'I' for Inactive)
REMARK    1  A    between atoms: C2_2  and  C3_3 
REMARK    2  A    between atoms: C8_11  and  C9_12 
REMARK    3  A    between atoms: C13_18  and  O3_19 
REMARK    4  A    between atoms: N2_23  and  O4_25 
ROOT
HETATM    1  C3  UNL     1     -13.884  31.658   6.120  1.00  0.00     0.019 C 
HETATM    2  N1  UNL     1     -14.293  32.265   7.168  1.00  0.00    -0.382 N 
ATOM      3  H1  UNL     1     -14.162  31.917   8.118  1.00  0.00     0.160 HD
HETATM    4  C4  UNL     1     -14.958  33.499   6.848  1.00  0.00     0.045 C 
HETATM    5  C5  UNL     1     -15.342  33.330   5.410  1.00  0.00     0.054 C 
HETATM    6  C6  UNL     1     -14.232  32.434   4.901  1.00  0.00     0.109 C 
HETATM    7 BR1  UNL     1     -14.814  31.285   3.475  1.00  0.00    -0.085 Br
HETATM    8  C7  UNL     1     -13.986  34.621   6.982  1.00  0.00     0.048 C 
HETATM    9  C8  UNL     1     -14.683  35.737   7.699  1.00  0.00     0.098 C 
HETATM   10  C10 UNL     1     -16.056  35.237   8.120  1.00  0.00    -0.013 C 
HETATM   11  C11 UNL     1     -16.202  35.465   9.613  1.00  0.00     0.017 C 
HETATM   12  C12 UNL     1     -17.056  36.120   7.445  1.00  0.00     0.043 C 
HETATM   13  C13 UNL     1     -18.415  35.563   7.258  1.00  0.00     0.124 C 
HETATM   14  C14 UNL     1     -18.323  34.298   6.440  1.00  0.00     0.087 C 
HETATM   15  C15 UNL     1     -17.413  33.372   7.154  1.00  0.00     0.024 C 
HETATM   16  N2  UNL     1     -17.786  32.138   7.241  1.00  0.00    -0.275 N 
ATOM     17  H2  UNL     1     -17.174  31.483   7.728  1.00  0.00     0.193 HD
HETATM   18  C17 UNL     1     -16.130  33.797   7.754  1.00  0.00     0.030 C 
HETATM   19  C18 UNL     1     -15.934  32.923   8.988  1.00  0.00     0.025 C 
ENDROOT
BRANCH   1  20
HETATM   20  C2  UNL     1     -13.173  30.379   6.150  1.00  0.00     0.015 C 
HETATM   21  C1  UNL     1     -11.873  30.308   5.916  1.00  0.00     0.013 C 
ENDBRANCH   1  20
BRANCH   9  22
HETATM   22  C9  UNL     1     -13.857  36.224   8.812  1.00  0.00     0.177 C 
HETATM   23  O1  UNL     1     -13.162  35.429   9.529  1.00  0.00    -0.648 OA
HETATM   24  O2  UNL     1     -13.754  37.562   9.179  1.00  0.00    -0.648 OA
ENDBRANCH   9  22
BRANCH  16  25
HETATM   25  O4  UNL     1     -18.952  31.665   6.717  1.00  0.00    -0.285 OA
HETATM   26  C16 UNL     1     -19.599  30.533   7.269  1.00  0.00     0.237 C 
ENDBRANCH  16  25
BRANCH  13  27
HETATM   27  O3  UNL     1     -19.181  35.429   8.387  1.00  0.00    -0.395 OA
ATOM     28  H3  UNL     1     -18.734  35.127   9.169  1.00  0.00     0.210 HD
ENDBRANCH  13  27
TORSDOF 4
ENDMDL
MODEL 2
REMARK VINA RESULT: -4.035428449      3.458      5.528
REMARK  4 active torsions:
REMARK  status: ('A' for Active; 'I' for Inactive)
REMARK    1  A    between atoms: C2_2  and  C3_3 
REMARK    2  A    between atoms: C8_11  and  C9_12 
REMARK    3  A    between atoms: C13_18  and  O3_19 
REMARK    4  A    between atoms: N2_23  and  O4_25 
ROOT
HETATM    1  C3  UNL     1     -16.196  30.217  10.173  1.00  0.00     0.019 C 
HETATM    2  N1  UNL     1     -15.518  30.763   9.238  1.00  0.00    -0.382 N 
ATOM      3  H1  UNL     1     -14.843  31.514   9.384  1.00  0.00     0.160 HD
HETATM    4  C4  UNL     1     -15.819  30.190   7.953  1.00  0.00     0.045 C 
HETATM    5  C5  UNL     1     -17.153  29.542   8.160  1.00  0.00     0.054 C 
HETATM    6  C6  UNL     1     -17.082  29.157   9.624  1.00  0.00     0.109 C 
HETATM    7 BR1  UNL     1     -18.807  29.171  10.469  1.00  0.00    -0.085 Br
HETATM    8  C7  UNL     1     -14.798  29.153   7.635  1.00  0.00     0.048 C 
HETATM    9  C8  UNL     1     -14.397  29.340   6.204  1.00  0.00     0.098 C 
HETATM   10  C10 UNL     1     -15.090  30.589   5.683  1.00  0.00    -0.013 C 
HETATM   11  C11 UNL     1     -14.030  31.508   5.103  1.00  0.00     0.017 C 
HETATM   12  C12 UNL     1     -15.957  30.153   4.546  1.00  0.00     0.043 C 
HETATM   13  C13 UNL     1     -17.100  31.031   4.208  1.00  0.00     0.124 C 
HETATM   14  C14 UNL     1     -17.995  31.168   5.416  1.00  0.00     0.087 C 
HETATM   15  C15 UNL     1     -17.167  31.699   6.524  1.00  0.00     0.024 C 
HETATM   16  N2  UNL     1     -17.684  32.642   7.239  1.00  0.00    -0.275 N 
ATOM     17  H2  UNL     1     -17.133  33.023   8.008  1.00  0.00     0.193 HD
HETATM   18  C17 UNL     1     -15.809  31.203   6.832  1.00  0.00     0.030 C 
HETATM   19  C18 UNL     1     -15.034  32.404   7.364  1.00  0.00     0.025 C 
ENDROOT
BRANCH   1  20
HETATM   20  C2  UNL     1     -16.090  30.602  11.582  1.00  0.00     0.015 C 
HETATM   21  C1  UNL     1     -15.820  31.847  11.937  1.00  0.00     0.013 C 
ENDBRANCH   1  20
BRANCH   9  22
HETATM   22  C9  UNL     1     -12.934  29.373   6.082  1.00  0.00     0.177 C 
HETATM   23  O1  UNL     1     -12.192  29.786   7.036  1.00  0.00    -0.648 OA
HETATM   24  O2  UNL     1     -12.235  28.969   4.949  1.00  0.00    -0.648 OA
ENDBRANCH   9  22
BRANCH  16  25
HETATM   25  O4  UNL     1     -18.928  33.156   7.022  1.00  0.00    -0.285 OA
HETATM   26  C16 UNL     1     -19.223  34.512   7.306  1.00  0.00     0.237 C 
ENDBRANCH  16  25
BRANCH  13  27
HETATM   27  O3  UNL     1     -16.796  32.230   3.616  1.00  0.00    -0.395 OA
ATOM     28  H3  UNL     1     -16.866  32.265   2.669  1.00  0.00     0.210 HD
ENDBRANCH  13  27
TORSDOF 4
ENDMDL
MODEL 3
REMARK VINA RESULT: -3.996023769      3.709      6.447
REMARK  4 active torsions:
REMARK  status: ('A' for Active; 'I' for Inactive)
REMARK    1  A    between atoms: C2_2  and  C3_3 
REMARK    2  A    between atoms: C8_11  and  C9_12 
REMARK    3  A    between atoms: C13_18  and  O3_19 
REMARK    4  A    between atoms: N2_23  and  O4_25 
ROOT
HETATM    1  C3  UNL     1     -12.817  32.199   1.211  1.00  0.00     0.019 C 
HETATM    2  N1  UNL     1     -12.984  32.553   2.428  1.00  0.00    -0.382 N 
ATOM      3  H1  UNL     1     -12.649  33.434   2.818  1.00  0.00     0.160 HD
HETATM    4  C4  UNL     1     -13.702  31.560   3.181  1.00  0.00     0.045 C 
HETATM    5  C5  UNL     1     -13.527  30.311   2.375  1.00  0.00     0.054 C 
HETATM    6  C6  UNL     1     -13.427  30.865   0.969  1.00  0.00     0.109 C 
HETATM    7 BR1  UNL     1     -12.323  29.781  -0.170  1.00  0.00    -0.085 Br
HETATM    8  C7  UNL     1     -15.144  31.936   3.222  1.00  0.00     0.048 C 
HETATM    9  C8  UNL     1     -15.624  31.725   4.626  1.00  0.00     0.098 C 
HETATM   10  C10 UNL     1     -14.424  31.339   5.477  1.00  0.00    -0.013 C 
HETATM   11  C11 UNL     1     -14.361  32.290   6.659  1.00  0.00     0.017 C 
HETATM   12  C12 UNL     1     -14.712  29.980   6.029  1.00  0.00     0.043 C 
HETATM   13  C13 UNL     1     -13.544  29.170   6.442  1.00  0.00     0.124 C 
HETATM   14  C14 UNL     1     -12.629  28.978   5.257  1.00  0.00     0.087 C 
HETATM   15  C15 UNL     1     -12.253  30.325   4.764  1.00  0.00     0.024 C 
HETATM   16  N2  UNL     1     -11.010  30.511   4.465  1.00  0.00    -0.275 N 
ATOM     17  H2  UNL     1     -10.728  31.429   4.124  1.00  0.00     0.193 HD
HETATM   18  C17 UNL     1     -13.221  31.431   4.607  1.00  0.00     0.030 C 
HETATM   19  C18 UNL     1     -12.446  32.711   4.902  1.00  0.00     0.025 C 
ENDROOT
BRANCH   1  20
HETATM   20  C2  UNL     1     -12.120  33.018   0.218  1.00  0.00     0.015 C 
HETATM   21  C1  UNL     1     -12.217  34.337   0.221  1.00  0.00     0.013 C 
ENDBRANCH   1  20
BRANCH   9  22
HETATM   22  C9  UNL     1     -16.340  32.914   5.106  1.00  0.00     0.177 C 
HETATM   23  O1  UNL     1     -16.014  34.090   4.730  1.00  0.00    -0.648 OA
HETATM   24  O2  UNL     1     -17.413  32.875   5.991  1.00  0.00    -0.648 OA
ENDBRANCH   9  22
BRANCH  16  25
HETATM   25  O4  UNL     1     -10.054  29.545   4.581  1.00  0.00    -0.285 OA
HETATM   26  C16 UNL     1      -9.145  29.281   3.529  1.00  0.00     0.237 C 
ENDBRANCH  16  25
BRANCH  13  27
HETATM   27  O3  UNL     1     -12.889  29.575   7.577  1.00  0.00    -0.395 OA
ATOM     28  H3  UNL     1     -12.508  28.890   8.113  1.00  0.00     0.210 HD
ENDBRANCH  13  27
TORSDOF 4
ENDMDL
MODEL 4
REMARK VINA RESULT: -3.843147664      2.790      4.933
REMARK  4 active torsions:
REMARK  status: ('A' for Active; 'I' for Inactive)
REMARK    1  A    between atoms: C2_2  and  C3_3 
REMARK    2  A    between atoms: C8_11  and  C9_12 
REMARK    3  A    between atoms: C13_18  and  O3_19 
REMARK    4  A    between atoms: N2_23  and  O4_25 
ROOT
HETATM    1  C3  UNL     1     -13.448  29.410   4.234  1.00  0.00     0.019 C 
HETATM    2  N1  UNL     1     -14.529  29.984   4.602  1.00  0.00    -0.382 N 
ATOM      3  H1  UNL     1     -15.420  29.894   4.112  1.00  0.00     0.160 HD
HETATM    4  C4  UNL     1     -14.340  30.772   5.790  1.00  0.00     0.045 C 
HETATM    5  C5  UNL     1     -12.860  31.003   5.829  1.00  0.00     0.054 C 
HETATM    6  C6  UNL     1     -12.338  29.745   5.163  1.00  0.00     0.109 C 
HETATM    7 BR1  UNL     1     -10.693  30.046   4.218  1.00  0.00    -0.085 Br
HETATM    8  C7  UNL     1     -14.756  29.968   6.974  1.00  0.00     0.048 C 
HETATM    9  C8  UNL     1     -15.561  30.864   7.865  1.00  0.00     0.098 C 
HETATM   10  C10 UNL     1     -15.746  32.193   7.149  1.00  0.00    -0.013 C 
HETATM   11  C11 UNL     1     -17.232  32.498   7.100  1.00  0.00     0.017 C 
HETATM   12  C12 UNL     1     -15.116  33.235   8.017  1.00  0.00     0.043 C 
HETATM   13  C13 UNL     1     -14.696  34.488   7.352  1.00  0.00     0.124 C 
HETATM   14  C14 UNL     1     -13.701  34.163   6.264  1.00  0.00     0.087 C 
HETATM   15  C15 UNL     1     -14.353  33.207   5.337  1.00  0.00     0.024 C 
HETATM   16  N2  UNL     1     -14.201  33.424   4.073  1.00  0.00    -0.275 N 
ATOM     17  H2  UNL     1     -14.641  32.779   3.416  1.00  0.00     0.193 HD
HETATM   18  C17 UNL     1     -15.149  32.048   5.795  1.00  0.00     0.030 C 
HETATM   19  C18 UNL     1     -16.241  31.851   4.749  1.00  0.00     0.025 C 
ENDROOT
BRANCH   1  20
HETATM   20  C2  UNL     1     -13.351  28.545   3.057  1.00  0.00     0.015 C 
HETATM   21  C1  UNL     1     -13.895  28.890   1.902  1.00  0.00     0.013 C 
ENDBRANCH   1  20
BRANCH   9  22
HETATM   22  C9  UNL     1     -16.821  30.209   8.244  1.00  0.00     0.177 C 
HETATM   23  O1  UNL     1     -17.406  29.383   7.467  1.00  0.00    -0.648 OA
HETATM   24  O2  UNL     1     -17.477  30.420   9.452  1.00  0.00    -0.648 OA
ENDBRANCH   9  22
BRANCH  16  25
HETATM   25  O4  UNL     1     -13.485  34.469   3.568  1.00  0.00    -0.285 OA
HETATM   26  C16 UNL     1     -12.957  34.432   2.255  1.00  0.00     0.237 C 
ENDBRANCH  16  25
BRANCH  13  27
HETATM   27  O3  UNL     1     -15.699  35.328   6.940  1.00  0.00    -0.395 OA
ATOM     28  H3  UNL     1     -15.640  36.232   7.227  1.00  0.00     0.210 HD
ENDBRANCH  13  27
TORSDOF 4
ENDMDL
MODEL 5
REMARK VINA RESULT: -3.837089052      3.858      6.794
REMARK  4 active torsions:
REMARK  status: ('A' for Active; 'I' for Inactive)
REMARK    1  A    between atoms: C2_2  and  C3_3 
REMARK    2  A    between atoms: C8_11  and  C9_12 
REMARK    3  A    between atoms: C13_18  and  O3_19 
REMARK    4  A    between atoms: N2_23  and  O4_25 
ROOT
HETATM    1  C3  UNL     1     -16.076  33.063   5.799  1.00  0.00     0.019 C 
HETATM    2  N1  UNL     1     -15.762  32.173   4.937  1.00  0.00    -0.382 N 
ATOM      3  H1  UNL     1     -16.426  31.522   4.519  1.00  0.00     0.160 HD
HETATM    4  C4  UNL     1     -14.358  32.201   4.626  1.00  0.00     0.045 C 
HETATM    5  C5  UNL     1     -13.752  32.916   5.794  1.00  0.00     0.054 C 
HETATM    6  C6  UNL     1     -14.878  33.844   6.202  1.00  0.00     0.109 C 
HETATM    7 BR1  UNL     1     -14.877  34.213   8.087  1.00  0.00    -0.085 Br
HETATM    8  C7  UNL     1     -14.154  33.000   3.385  1.00  0.00     0.048 C 
HETATM    9  C8  UNL     1     -13.182  32.253   2.523  1.00  0.00     0.098 C 
HETATM   10  C10 UNL     1     -12.892  30.920   3.194  1.00  0.00    -0.013 C 
HETATM   11  C11 UNL     1     -13.164  29.817   2.187  1.00  0.00     0.017 C 
HETATM   12  C12 UNL     1     -11.424  30.897   3.478  1.00  0.00     0.043 C 
HETATM   13  C13 UNL     1     -10.970  29.989   4.555  1.00  0.00     0.124 C 
HETATM   14  C14 UNL     1     -11.661  30.364   5.844  1.00  0.00     0.087 C 
HETATM   15  C15 UNL     1     -13.122  30.290   5.603  1.00  0.00     0.024 C 
HETATM   16  N2  UNL     1     -13.836  29.720   6.516  1.00  0.00    -0.275 N 
ATOM     17  H2  UNL     1     -14.844  29.658   6.372  1.00  0.00     0.193 HD
HETATM   18  C17 UNL     1     -13.772  30.829   4.390  1.00  0.00     0.030 C 
HETATM   19  C18 UNL     1     -14.959  29.913   4.109  1.00  0.00     0.025 C 
ENDROOT
BRANCH   1  20
HETATM   20  C2  UNL     1     -17.438  33.261   6.298  1.00  0.00     0.015 C 
HETATM   21  C1  UNL     1     -18.049  32.336   7.020  1.00  0.00     0.013 C 
ENDBRANCH   1  20
BRANCH   9  22
HETATM   22  C9  UNL     1     -13.700  32.133   1.154  1.00  0.00     0.177 C 
HETATM   23  O1  UNL     1     -12.924  32.158   0.140  1.00  0.00    -0.648 OA
HETATM   24  O2  UNL     1     -15.047  31.982   0.839  1.00  0.00    -0.648 OA
ENDBRANCH   9  22
BRANCH  16  25
HETATM   25  O4  UNL     1     -13.315  29.197   7.663  1.00  0.00    -0.285 OA
HETATM   26  C16 UNL     1     -14.150  28.802   8.736  1.00  0.00     0.237 C 
ENDBRANCH  16  25
BRANCH  13  27
HETATM   27  O3  UNL     1     -11.016  28.646   4.284  1.00  0.00    -0.395 OA
ATOM     28  H3  UNL     1     -11.369  28.087   4.966  1.00  0.00     0.210 HD
ENDBRANCH  13  27
TORSDOF 4
ENDMDL
