MODEL 1
REMARK VINA RESULT: -6.362339689      0.000      0.000
REMARK  5 active torsions:
REMARK  status: ('A' for Active; 'I' for Inactive)
REMARK    1  A    between atoms: C5_9  and  C6_10 
REMARK    2  A    between atoms: C9_14  and  N4_15 
REMARK       I    between atoms: N4_15  and  C10_17 
REMARK    3  A    between atoms: C10_17  and  O2_19 
REMARK    4  A    between atoms: O2_19  and  C11_20 
REMARK    5  A    between atoms: C17_26  and  C19_28 
ROOT
HETATM    1  C6  UNL     1     -12.938  36.057   7.425  1.00  0.00     0.096 C 
HETATM    2  N3  UNL     1     -11.707  36.577   7.589  1.00  0.00    -0.381 N 
HETATM    3  C7  UNL     1     -11.334  37.901   7.678  1.00  0.00     0.086 C 
HETATM    4  C8  UNL     1     -10.313  38.111   8.775  1.00  0.00     0.050 C 
HETATM    5  C9  UNL     1     -10.044  36.757   9.444  1.00  0.00     0.090 C 
HETATM    6  C15 UNL     1      -9.572  35.824   8.364  1.00  0.00     0.051 C 
HETATM    7  C16 UNL     1     -10.548  35.836   7.213  1.00  0.00     0.095 C 
HETATM    8  C17 UNL     1     -10.011  36.656   6.082  1.00  0.00    -0.009 C 
HETATM    9  C18 UNL     1      -8.504  36.607   5.981  1.00  0.00     0.018 C 
HETATM   10  C20 UNL     1     -10.521  38.041   6.367  1.00  0.00     0.037 C 
ENDROOT
BRANCH   1  11
HETATM   11  C5  UNL     1     -13.915  36.157   8.525  1.00  0.00     0.286 C 
HETATM   12  N1  UNL     1     -13.839  35.020   9.434  1.00  0.00     0.097 N 
HETATM   13  C1  UNL     1     -13.678  35.370  10.805  1.00  0.00     0.310 C 
HETATM   14  C2  UNL     1     -14.958  34.154   9.272  1.00  0.00     0.300 C 
HETATM   15  C3  UNL     1     -16.268  34.833   9.629  1.00  0.00     0.262 C 
HETATM   16  N2  UNL     1     -16.255  36.211   9.173  1.00  0.00    -0.071 N 
HETATM   17  C4  UNL     1     -15.325  36.356   8.046  1.00  0.00     0.273 C 
ATOM     18  H22 UNL     1     -17.190  36.547   8.944  1.00  0.00     0.277 HD
ATOM     19  H21 UNL     1     -16.044  36.862   9.930  1.00  0.00     0.277 HD
ENDBRANCH   1  11
BRANCH   8  20
HETATM   20  C19 UNL     1     -10.659  36.174   4.796  1.00  0.00     0.126 C 
HETATM   21 CL1  UNL     1      -9.730  36.804   3.409  1.00  0.00    -0.130 Cl
ENDBRANCH   8  20
BRANCH   5  22
HETATM   22  N4  UNL     1      -9.187  36.875  10.567  1.00  0.00    -0.332 N 
HETATM   23  C10 UNL     1      -7.983  37.653  10.588  1.00  0.00     0.361 C 
HETATM   24  O1  UNL     1      -7.596  38.306   9.585  1.00  0.00    -0.238 OA
ATOM     25  H4  UNL     1      -9.443  36.372  11.417  1.00  0.00     0.165 HD
BRANCH  23  26
HETATM   26  O2  UNL     1      -7.185  37.724  11.722  1.00  0.00    -0.294 OA
BRANCH  26  27
HETATM   27  C11 UNL     1      -7.480  38.556  12.839  1.00  0.00     0.061 C 
HETATM   28  C12 UNL     1      -8.310  39.752  12.488  1.00  0.00     0.046 C 
HETATM   29  C13 UNL     1      -8.266  37.705  13.816  1.00  0.00     0.046 C 
HETATM   30  C14 UNL     1      -6.202  38.987  13.540  1.00  0.00     0.046 C 
ENDBRANCH  26  27
ENDBRANCH  23  26
ENDBRANCH   5  22
TORSDOF 5
ENDMDL
MODEL 2
REMARK VINA RESULT: -5.509559911      3.840      6.109
REMARK  5 active torsions:
REMARK  status: ('A' for Active; 'I' for Inactive)
REMARK    1  A    between atoms: C5_9  and  C6_10 
REMARK    2  A    between atoms: C9_14  and  N4_15 
REMARK       I    between atoms: N4_15  and  C10_17 
REMARK    3  A    between atoms: C10_17  and  O2_19 
REMARK    4  A    between atoms: O2_19  and  C11_20 
REMARK    5  A    between atoms: C17_26  and  C19_28 
ROOT
HETATM    1  C6  UNL     1     -15.483  32.603   6.844  1.00  0.00     0.096 C 
HETATM    2  N3  UNL     1     -15.453  33.689   7.640  1.00  0.00    -0.381 N 
HETATM    3  C7  UNL     1     -15.652  33.768   9.001  1.00  0.00     0.086 C 
HETATM    4  C8  UNL     1     -14.641  34.687   9.652  1.00  0.00     0.050 C 
HETATM    5  C9  UNL     1     -13.704  35.218   8.558  1.00  0.00     0.090 C 
HETATM    6  C15 UNL     1     -14.569  35.911   7.543  1.00  0.00     0.051 C 
HETATM    7  C16 UNL     1     -15.682  34.990   7.102  1.00  0.00     0.095 C 
HETATM    8  C17 UNL     1     -16.968  35.373   7.762  1.00  0.00    -0.009 C 
HETATM    9  C18 UNL     1     -17.081  36.859   8.018  1.00  0.00     0.018 C 
HETATM   10  C20 UNL     1     -16.976  34.572   9.033  1.00  0.00     0.037 C 
ENDROOT
BRANCH   1  11
HETATM   11  C5  UNL     1     -14.414  31.593   6.962  1.00  0.00     0.286 C 
HETATM   12  N1  UNL     1     -13.861  31.225   5.664  1.00  0.00     0.097 N 
HETATM   13  C1  UNL     1     -12.444  31.341   5.572  1.00  0.00     0.310 C 
HETATM   14  C2  UNL     1     -14.277  29.919   5.278  1.00  0.00     0.300 C 
HETATM   15  C3  UNL     1     -13.763  28.847   6.222  1.00  0.00     0.262 C 
HETATM   16  N2  UNL     1     -13.812  29.327   7.592  1.00  0.00    -0.071 N 
HETATM   17  C4  UNL     1     -14.839  30.368   7.721  1.00  0.00     0.273 C 
ATOM     18  H22 UNL     1     -13.951  28.567   8.258  1.00  0.00     0.277 HD
ATOM     19  H21 UNL     1     -12.900  29.645   7.919  1.00  0.00     0.277 HD
ENDBRANCH   1  11
BRANCH   8  20
HETATM   20  C19 UNL     1     -18.113  34.883   6.893  1.00  0.00     0.126 C 
HETATM   21 CL1  UNL     1     -19.658  35.345   7.655  1.00  0.00    -0.130 Cl
ENDBRANCH   8  20
BRANCH   5  22
HETATM   22  N4  UNL     1     -12.645  35.996   9.091  1.00  0.00    -0.332 N 
HETATM   23  C10 UNL     1     -11.566  36.533   8.315  1.00  0.00     0.361 C 
HETATM   24  O1  UNL     1     -11.484  36.348   7.074  1.00  0.00    -0.238 OA
ATOM     25  H4  UNL     1     -12.652  36.187  10.093  1.00  0.00     0.165 HD
BRANCH  23  26
HETATM   26  O2  UNL     1     -10.557  37.285   8.900  1.00  0.00    -0.294 OA
BRANCH  26  27
HETATM   27  C11 UNL     1      -9.267  36.765   9.208  1.00  0.00     0.061 C 
HETATM   28  C12 UNL     1      -8.650  35.998   8.080  1.00  0.00     0.046 C 
HETATM   29  C13 UNL     1      -8.382  37.957   9.509  1.00  0.00     0.046 C 
HETATM   30  C14 UNL     1      -9.319  35.909  10.462  1.00  0.00     0.046 C 
ENDBRANCH  26  27
ENDBRANCH  23  26
ENDBRANCH   5  22
TORSDOF 5
ENDMDL
MODEL 3
REMARK VINA RESULT: -5.419177089      3.964      6.669
REMARK  5 active torsions:
REMARK  status: ('A' for Active; 'I' for Inactive)
REMARK    1  A    between atoms: C5_9  and  C6_10 
REMARK    2  A    between atoms: C9_14  and  N4_15 
REMARK       I    between atoms: N4_15  and  C10_17 
REMARK    3  A    between atoms: C10_17  and  O2_19 
REMARK    4  A    between atoms: O2_19  and  C11_20 
REMARK    5  A    between atoms: C17_26  and  C19_28 
ROOT
HETATM    1  C6  UNL     1     -18.063  34.952   6.796  1.00  0.00     0.096 C 
HETATM    2  N3  UNL     1     -16.914  34.287   7.022  1.00  0.00    -0.381 N 
HETATM    3  C7  UNL     1     -16.008  33.794   6.108  1.00  0.00     0.086 C 
HETATM    4  C8  UNL     1     -14.585  34.075   6.538  1.00  0.00     0.050 C 
HETATM    5  C9  UNL     1     -14.630  34.848   7.863  1.00  0.00     0.090 C 
HETATM    6  C15 UNL     1     -15.386  33.991   8.840  1.00  0.00     0.051 C 
HETATM    7  C16 UNL     1     -16.711  33.580   8.243  1.00  0.00     0.095 C 
HETATM    8  C17 UNL     1     -16.652  32.162   7.771  1.00  0.00    -0.009 C 
HETATM    9  C18 UNL     1     -15.738  31.298   8.610  1.00  0.00     0.018 C 
HETATM   10  C20 UNL     1     -16.186  32.274   6.347  1.00  0.00     0.037 C 
ENDROOT
BRANCH   1  11
HETATM   11  C5  UNL     1     -18.010  36.322   6.254  1.00  0.00     0.286 C 
HETATM   12  N1  UNL     1     -17.959  37.328   7.309  1.00  0.00     0.097 N 
HETATM   13  C1  UNL     1     -16.881  38.251   7.192  1.00  0.00     0.310 C 
HETATM   14  C2  UNL     1     -19.197  38.024   7.418  1.00  0.00     0.300 C 
HETATM   15  C3  UNL     1     -19.528  38.811   6.163  1.00  0.00     0.262 C 
HETATM   16  N2  UNL     1     -19.140  38.057   4.985  1.00  0.00    -0.071 N 
HETATM   17  C4  UNL     1     -19.125  36.621   5.293  1.00  0.00     0.273 C 
ATOM     18  H22 UNL     1     -19.731  38.270   4.182  1.00  0.00     0.277 HD
ATOM     19  H21 UNL     1     -18.250  38.375   4.603  1.00  0.00     0.277 HD
ENDBRANCH   1  11
BRANCH   8  20
HETATM   20  C19 UNL     1     -18.065  31.606   7.759  1.00  0.00     0.126 C 
HETATM   21 CL1  UNL     1     -18.161  30.242   8.904  1.00  0.00    -0.130 Cl
ENDBRANCH   8  20
BRANCH   5  22
HETATM   22  N4  UNL     1     -13.341  35.263   8.285  1.00  0.00    -0.332 N 
HETATM   23  C10 UNL     1     -12.906  36.628   8.332  1.00  0.00     0.361 C 
HETATM   24  O1  UNL     1     -13.659  37.577   7.996  1.00  0.00    -0.238 OA
ATOM     25  H4  UNL     1     -12.680  34.543   8.575  1.00  0.00     0.165 HD
BRANCH  23  26
HETATM   26  O2  UNL     1     -11.627  36.967   8.753  1.00  0.00    -0.294 OA
BRANCH  26  27
HETATM   27  C11 UNL     1     -10.498  36.999   7.886  1.00  0.00     0.061 C 
HETATM   28  C12 UNL     1     -10.840  36.733   6.452  1.00  0.00     0.046 C 
HETATM   29  C13 UNL     1      -9.920  38.396   7.982  1.00  0.00     0.046 C 
HETATM   30  C14 UNL     1      -9.427  36.032   8.361  1.00  0.00     0.046 C 
ENDBRANCH  26  27
ENDBRANCH  23  26
ENDBRANCH   5  22
TORSDOF 5
ENDMDL
MODEL 4
REMARK VINA RESULT: -5.407071666      2.747      6.976
REMARK  5 active torsions:
REMARK  status: ('A' for Active; 'I' for Inactive)
REMARK    1  A    between atoms: C5_9  and  C6_10 
REMARK    2  A    between atoms: C9_14  and  N4_15 
REMARK       I    between atoms: N4_15  and  C10_17 
REMARK    3  A    between atoms: C10_17  and  O2_19 
REMARK    4  A    between atoms: O2_19  and  C11_20 
REMARK    5  A    between atoms: C17_26  and  C19_28 
ROOT
HETATM    1  C6  UNL     1      -8.185  37.874  10.457  1.00  0.00     0.096 C 
HETATM    2  N3  UNL     1      -8.985  37.324   9.524  1.00  0.00    -0.381 N 
HETATM    3  C7  UNL     1      -8.843  36.121   8.865  1.00  0.00     0.086 C 
HETATM    4  C8  UNL     1     -10.163  35.387   8.773  1.00  0.00     0.050 C 
HETATM    5  C9  UNL     1     -11.232  36.236   9.474  1.00  0.00     0.090 C 
HETATM    6  C15 UNL     1     -11.248  37.572   8.785  1.00  0.00     0.051 C 
HETATM    7  C16 UNL     1      -9.849  38.139   8.735  1.00  0.00     0.095 C 
HETATM    8  C17 UNL     1      -9.267  37.972   7.367  1.00  0.00    -0.009 C 
HETATM    9  C18 UNL     1     -10.305  38.044   6.271  1.00  0.00     0.018 C 
HETATM   10  C20 UNL     1      -8.588  36.632   7.425  1.00  0.00     0.037 C 
ENDROOT
BRANCH   1  11
HETATM   11  C5  UNL     1      -8.110  37.259  11.796  1.00  0.00     0.286 C 
HETATM   12  N1  UNL     1      -8.238  38.247  12.861  1.00  0.00     0.097 N 
HETATM   13  C1  UNL     1      -9.250  37.954  13.818  1.00  0.00     0.310 C 
HETATM   14  C2  UNL     1      -6.990  38.467  13.512  1.00  0.00     0.300 C 
HETATM   15  C3  UNL     1      -6.477  37.222  14.213  1.00  0.00     0.262 C 
HETATM   16  N2  UNL     1      -6.759  36.047  13.409  1.00  0.00    -0.071 N 
HETATM   17  C4  UNL     1      -6.877  36.424  11.995  1.00  0.00     0.273 C 
ATOM     18  H22 UNL     1      -6.069  35.311  13.552  1.00  0.00     0.277 HD
ATOM     19  H21 UNL     1      -7.583  35.545  13.741  1.00  0.00     0.277 HD
ENDBRANCH   1  11
BRANCH   8  20
HETATM   20  C19 UNL     1      -8.196  39.030   7.174  1.00  0.00     0.126 C 
HETATM   21 CL1  UNL     1      -8.573  40.432   8.212  1.00  0.00    -0.130 Cl
ENDBRANCH   8  20
BRANCH   5  22
HETATM   22  N4  UNL     1     -12.483  35.571   9.544  1.00  0.00    -0.332 N 
HETATM   23  C10 UNL     1     -13.754  36.233   9.501  1.00  0.00     0.361 C 
HETATM   24  O1  UNL     1     -13.850  37.481   9.392  1.00  0.00    -0.238 OA
ATOM     25  H4  UNL     1     -12.479  34.555   9.630  1.00  0.00     0.165 HD
BRANCH  23  26
HETATM   26  O2  UNL     1     -14.944  35.521   9.578  1.00  0.00    -0.294 OA
BRANCH  26  27
HETATM   27  C11 UNL     1     -15.644  35.035   8.436  1.00  0.00     0.061 C 
HETATM   28  C12 UNL     1     -14.752  34.757   7.266  1.00  0.00     0.046 C 
HETATM   29  C13 UNL     1     -16.296  33.733   8.853  1.00  0.00     0.046 C 
HETATM   30  C14 UNL     1     -16.754  35.992   8.039  1.00  0.00     0.046 C 
ENDBRANCH  26  27
ENDBRANCH  23  26
ENDBRANCH   5  22
TORSDOF 5
ENDMDL
MODEL 5
REMARK VINA RESULT: -5.357153492      3.254      6.559
REMARK  5 active torsions:
REMARK  status: ('A' for Active; 'I' for Inactive)
REMARK    1  A    between atoms: C5_9  and  C6_10 
REMARK    2  A    between atoms: C9_14  and  N4_15 
REMARK       I    between atoms: N4_15  and  C10_17 
REMARK    3  A    between atoms: C10_17  and  O2_19 
REMARK    4  A    between atoms: O2_19  and  C11_20 
REMARK    5  A    between atoms: C17_26  and  C19_28 
ROOT
HETATM    1  C6  UNL     1     -11.631  36.617   9.507  1.00  0.00     0.096 C 
HETATM    2  N3  UNL     1     -10.613  36.808   8.646  1.00  0.00    -0.381 N 
HETATM    3  C7  UNL     1      -9.686  35.896   8.191  1.00  0.00     0.086 C 
HETATM    4  C8  UNL     1      -9.452  36.045   6.703  1.00  0.00     0.050 C 
HETATM    5  C9  UNL     1     -10.359  37.171   6.189  1.00  0.00     0.090 C 
HETATM    6  C15 UNL     1     -10.007  38.406   6.971  1.00  0.00     0.051 C 
HETATM    7  C16 UNL     1     -10.060  38.108   8.450  1.00  0.00     0.095 C 
HETATM    8  C17 UNL     1      -8.679  37.940   8.999  1.00  0.00    -0.009 C 
HETATM    9  C18 UNL     1      -7.655  38.799   8.293  1.00  0.00     0.018 C 
HETATM   10  C20 UNL     1      -8.402  36.472   8.839  1.00  0.00     0.037 C 
ENDROOT
BRANCH   1  11
HETATM   11  C5  UNL     1     -12.785  35.798   9.089  1.00  0.00     0.286 C 
HETATM   12  N1  UNL     1     -13.376  36.276   7.845  1.00  0.00     0.097 N 
HETATM   13  C1  UNL     1     -13.506  35.281   6.834  1.00  0.00     0.310 C 
HETATM   14  C2  UNL     1     -14.630  36.909   8.080  1.00  0.00     0.300 C 
HETATM   15  C3  UNL     1     -15.664  35.950   8.644  1.00  0.00     0.262 C 
HETATM   16  N2  UNL     1     -15.038  35.046   9.592  1.00  0.00    -0.071 N 
HETATM   17  C4  UNL     1     -13.834  35.668  10.157  1.00  0.00     0.273 C 
ATOM     18  H22 UNL     1     -15.688  34.742  10.317  1.00  0.00     0.277 HD
ATOM     19  H21 UNL     1     -14.841  34.135   9.178  1.00  0.00     0.277 HD
ENDBRANCH   1  11
BRANCH   8  20
HETATM   20  C19 UNL     1      -8.717  38.250  10.485  1.00  0.00     0.126 C 
HETATM   21 CL1  UNL     1      -8.061  36.855  11.384  1.00  0.00    -0.130 Cl
ENDBRANCH   8  20
BRANCH   5  22
HETATM   22  N4  UNL     1     -10.298  37.305   4.778  1.00  0.00    -0.332 N 
HETATM   23  C10 UNL     1     -10.842  36.356   3.851  1.00  0.00     0.361 C 
HETATM   24  O1  UNL     1     -11.428  35.313   4.236  1.00  0.00    -0.238 OA
ATOM     25  H4  UNL     1      -9.837  38.132   4.397  1.00  0.00     0.165 HD
BRANCH  23  26
HETATM   26  O2  UNL     1     -10.745  36.546   2.479  1.00  0.00    -0.294 OA
BRANCH  26  27
HETATM   27  C11 UNL     1     -11.841  36.380   1.584  1.00  0.00     0.061 C 
HETATM   28  C12 UNL     1     -12.599  37.646   1.330  1.00  0.00     0.046 C 
HETATM   29  C13 UNL     1     -11.256  35.907   0.269  1.00  0.00     0.046 C 
HETATM   30  C14 UNL     1     -12.779  35.293   2.080  1.00  0.00     0.046 C 
ENDBRANCH  26  27
ENDBRANCH  23  26
ENDBRANCH   5  22
TORSDOF 5
ENDMDL
