MODEL 1
REMARK VINA RESULT: -6.565944309      0.000      0.000
REMARK  6 active torsions:
REMARK  status: ('A' for Active; 'I' for Inactive)
REMARK    1  A    between atoms: N1_4  and  C4_5 
REMARK    2  A    between atoms: C8_9  and  N2_10 
REMARK    3  A    between atoms: N2_10  and  C9_12 
REMARK    4  A    between atoms: C12_20  and  N5_21 
REMARK    5  A    between atoms: C15_24  and  O1_25 
REMARK    6  A    between atoms: C15_24  and  C16_27 
ROOT
HETATM    1  C9  UNL     1      -9.232  39.130   9.063  1.00  0.00     0.132 A 
HETATM    2  N3  UNL     1      -8.085  39.623   8.554  1.00  0.00    -0.337 N 
ATOM      3  H3  UNL     1      -7.446  40.124   9.173  1.00  0.00     0.168 HD
HETATM    4  C10 UNL     1      -7.754  39.478   7.256  1.00  0.00     0.183 A 
HETATM    5  N4  UNL     1      -8.556  38.831   6.393  1.00  0.00    -0.341 N 
ATOM      6  H4  UNL     1      -8.305  38.722   5.410  1.00  0.00     0.167 HD
HETATM    7  C11 UNL     1      -9.710  38.331   6.884  1.00  0.00     0.135 A 
HETATM    8 CL1  UNL     1     -10.790  37.477   5.795  1.00  0.00    -0.062 Cl
HETATM    9  C12 UNL     1     -10.087  38.455   8.203  1.00  0.00     0.113 A 
ENDROOT
BRANCH   9  10
HETATM   10  N5  UNL     1     -11.317  37.898   8.634  1.00  0.00    -0.375 N 
HETATM   11  C13 UNL     1     -11.338  36.500   9.010  1.00  0.00     0.126 C 
HETATM   12  C14 UNL     1     -12.534  35.784   8.397  1.00  0.00     0.058 C 
HETATM   13  C15 UNL     1     -13.764  36.520   8.874  1.00  0.00     0.067 C 
HETATM   14  C20 UNL     1     -13.753  37.894   8.261  1.00  0.00     0.058 C 
HETATM   15  C21 UNL     1     -12.527  38.670   8.708  1.00  0.00     0.126 C 
BRANCH  13  16
HETATM   16  O1  UNL     1     -13.699  36.554  10.267  1.00  0.00    -0.389 OA
ATOM     17  H1  UNL     1     -14.143  37.348  10.544  1.00  0.00     0.210 HD
ENDBRANCH  13  16
BRANCH  13  18
HETATM   18  C16 UNL     1     -15.038  35.803   8.507  1.00  0.00    -0.020 C 
HETATM   19  C17 UNL     1     -14.698  34.578   7.686  1.00  0.00     0.017 C 
HETATM   20  C18 UNL     1     -16.027  36.694   7.810  1.00  0.00     0.017 C 
HETATM   21  C19 UNL     1     -15.673  35.328   9.806  1.00  0.00     0.017 C 
ENDBRANCH  13  18
ENDBRANCH   9  10
BRANCH   1  22
HETATM   22  N2  UNL     1      -9.568  39.251  10.280  1.00  0.00    -0.368 N 
ATOM     23  H2  UNL     1     -10.411  39.793  10.466  1.00  0.00     0.161 HD
BRANCH  22  24
HETATM   24  C8  UNL     1      -8.897  38.715  11.414  1.00  0.00     0.117 C 
HETATM   25  C2  UNL     1      -8.079  37.479  11.114  1.00  0.00     0.034 C 
HETATM   26  C1  UNL     1      -8.785  36.218  11.504  1.00  0.00     0.014 C 
HETATM   27  C3  UNL     1      -6.911  37.675  12.090  1.00  0.00     0.279 C 
HETATM   28  N1  UNL     1      -6.697  39.085  11.996  1.00  0.00     0.094 N 
HETATM   29  C7  UNL     1      -7.991  39.674  12.121  1.00  0.00     0.298 C 
BRANCH  28  30
HETATM   30  C4  UNL     1      -5.731  39.576  12.934  1.00  0.00     0.215 C 
HETATM   31  C5  UNL     1      -5.723  41.072  12.964  1.00  0.00     0.042 C 
HETATM   32  C6  UNL     1      -5.864  39.020  14.312  1.00  0.00     0.042 C 
ENDBRANCH  28  30
ENDBRANCH  22  24
ENDBRANCH   1  22
TORSDOF 6
ENDMDL
MODEL 2
REMARK VINA RESULT: -6.463318577      2.088      7.145
REMARK  6 active torsions:
REMARK  status: ('A' for Active; 'I' for Inactive)
REMARK    1  A    between atoms: N1_4  and  C4_5 
REMARK    2  A    between atoms: C8_9  and  N2_10 
REMARK    3  A    between atoms: N2_10  and  C9_12 
REMARK    4  A    between atoms: C12_20  and  N5_21 
REMARK    5  A    between atoms: C15_24  and  O1_25 
REMARK    6  A    between atoms: C15_24  and  C16_27 
ROOT
HETATM    1  C9  UNL     1     -10.704  36.607   7.792  1.00  0.00     0.132 A 
HETATM    2  N3  UNL     1     -11.053  36.459   6.497  1.00  0.00    -0.337 N 
ATOM      3  H3  UNL     1     -11.826  35.836   6.263  1.00  0.00     0.168 HD
HETATM    4  C10 UNL     1     -10.414  37.107   5.503  1.00  0.00     0.183 A 
HETATM    5  N4  UNL     1      -9.387  37.939   5.750  1.00  0.00    -0.341 N 
ATOM      6  H4  UNL     1      -8.904  38.429   4.996  1.00  0.00     0.167 HD
HETATM    7  C11 UNL     1      -9.023  38.099   7.041  1.00  0.00     0.135 A 
HETATM    8 CL1  UNL     1      -7.688  39.175   7.412  1.00  0.00    -0.062 Cl
HETATM    9  C12 UNL     1      -9.648  37.457   8.087  1.00  0.00     0.113 A 
ENDROOT
BRANCH   9  10
HETATM   10  N5  UNL     1      -9.200  37.683   9.413  1.00  0.00    -0.375 N 
HETATM   11  C13 UNL     1      -9.420  38.992   9.993  1.00  0.00     0.126 C 
HETATM   12  C14 UNL     1      -8.167  39.500  10.694  1.00  0.00     0.058 C 
HETATM   13  C15 UNL     1      -7.814  38.466  11.739  1.00  0.00     0.067 C 
HETATM   14  C20 UNL     1      -7.401  37.206  11.027  1.00  0.00     0.058 C 
HETATM   15  C21 UNL     1      -8.545  36.666  10.188  1.00  0.00     0.126 C 
BRANCH  13  16
HETATM   16  O1  UNL     1      -8.948  38.287  12.530  1.00  0.00    -0.389 OA
ATOM     17  H1  UNL     1      -8.857  37.441  12.953  1.00  0.00     0.210 HD
ENDBRANCH  13  16
BRANCH  13  18
HETATM   18  C16 UNL     1      -6.705  38.929  12.649  1.00  0.00    -0.020 C 
HETATM   19  C17 UNL     1      -6.834  38.223  13.982  1.00  0.00     0.017 C 
HETATM   20  C18 UNL     1      -6.663  40.423  12.803  1.00  0.00     0.017 C 
HETATM   21  C19 UNL     1      -5.394  38.487  12.017  1.00  0.00     0.017 C 
ENDBRANCH  13  18
ENDBRANCH   9  10
BRANCH   1  22
HETATM   22  N2  UNL     1     -11.288  36.010   8.746  1.00  0.00    -0.368 N 
ATOM     23  H2  UNL     1     -10.864  35.138   9.063  1.00  0.00     0.161 HD
BRANCH  22  24
HETATM   24  C8  UNL     1     -12.467  36.423   9.425  1.00  0.00     0.117 C 
HETATM   25  C2  UNL     1     -13.619  36.756   8.503  1.00  0.00     0.034 C 
HETATM   26  C1  UNL     1     -13.773  38.230   8.290  1.00  0.00     0.014 C 
HETATM   27  C3  UNL     1     -14.804  36.287   9.356  1.00  0.00     0.279 C 
HETATM   28  N1  UNL     1     -14.280  35.092   9.937  1.00  0.00     0.094 N 
HETATM   29  C7  UNL     1     -12.988  35.446  10.432  1.00  0.00     0.298 C 
BRANCH  28  30
HETATM   30  C4  UNL     1     -15.147  34.507  10.917  1.00  0.00     0.215 C 
HETATM   31  C5  UNL     1     -15.876  33.328  10.355  1.00  0.00     0.042 C 
HETATM   32  C6  UNL     1     -14.483  34.155  12.206  1.00  0.00     0.042 C 
ENDBRANCH  28  30
ENDBRANCH  22  24
ENDBRANCH   1  22
TORSDOF 6
ENDMDL
MODEL 3
REMARK VINA RESULT: -6.326121175      2.068      7.552
REMARK  6 active torsions:
REMARK  status: ('A' for Active; 'I' for Inactive)
REMARK    1  A    between atoms: N1_4  and  C4_5 
REMARK    2  A    between atoms: C8_9  and  N2_10 
REMARK    3  A    between atoms: N2_10  and  C9_12 
REMARK    4  A    between atoms: C12_20  and  N5_21 
REMARK    5  A    between atoms: C15_24  and  O1_25 
REMARK    6  A    between atoms: C15_24  and  C16_27 
ROOT
HETATM    1  C9  UNL     1     -10.894  36.377   8.178  1.00  0.00     0.132 A 
HETATM    2  N3  UNL     1     -11.252  36.078   6.912  1.00  0.00    -0.337 N 
ATOM      3  H3  UNL     1     -12.127  35.578   6.752  1.00  0.00     0.168 HD
HETATM    4  C10 UNL     1     -10.490  36.415   5.852  1.00  0.00     0.183 A 
HETATM    5  N4  UNL     1      -9.326  37.071   6.001  1.00  0.00    -0.341 N 
ATOM      6  H4  UNL     1      -8.751  37.326   5.198  1.00  0.00     0.167 HD
HETATM    7  C11 UNL     1      -8.952  37.379   7.262  1.00  0.00     0.135 A 
HETATM    8 CL1  UNL     1      -7.440  38.236   7.506  1.00  0.00    -0.062 Cl
HETATM    9  C12 UNL     1      -9.698  37.054   8.372  1.00  0.00     0.113 A 
ENDROOT
BRANCH   9  10
HETATM   10  N5  UNL     1      -9.230  37.417   9.660  1.00  0.00    -0.375 N 
HETATM   11  C13 UNL     1      -9.358  38.801  10.068  1.00  0.00     0.126 C 
HETATM   12  C14 UNL     1      -8.071  39.308  10.703  1.00  0.00     0.058 C 
HETATM   13  C15 UNL     1      -7.782  38.395  11.871  1.00  0.00     0.067 C 
HETATM   14  C20 UNL     1      -7.458  37.030  11.327  1.00  0.00     0.058 C 
HETATM   15  C21 UNL     1      -8.639  36.465  10.560  1.00  0.00     0.126 C 
BRANCH  13  16
HETATM   16  O1  UNL     1      -8.921  38.395  12.676  1.00  0.00    -0.389 OA
ATOM     17  H1  UNL     1      -8.882  39.180  13.210  1.00  0.00     0.210 HD
ENDBRANCH  13  16
BRANCH  13  18
HETATM   18  C16 UNL     1      -6.641  38.895  12.719  1.00  0.00    -0.020 C 
HETATM   19  C17 UNL     1      -6.708  38.233  14.080  1.00  0.00     0.017 C 
HETATM   20  C18 UNL     1      -6.603  40.393  12.822  1.00  0.00     0.017 C 
HETATM   21  C19 UNL     1      -5.353  38.440  12.048  1.00  0.00     0.017 C 
ENDBRANCH  13  18
ENDBRANCH   9  10
BRANCH   1  22
HETATM   22  N2  UNL     1     -11.591  36.072   9.192  1.00  0.00    -0.368 N 
ATOM     23  H2  UNL     1     -11.108  35.577   9.942  1.00  0.00     0.161 HD
BRANCH  22  24
HETATM   24  C8  UNL     1     -12.971  36.345   9.401  1.00  0.00     0.117 C 
HETATM   25  C2  UNL     1     -13.612  37.148   8.290  1.00  0.00     0.034 C 
HETATM   26  C1  UNL     1     -13.740  38.599   8.635  1.00  0.00     0.014 C 
HETATM   27  C3  UNL     1     -15.023  36.547   8.290  1.00  0.00     0.279 C 
HETATM   28  N1  UNL     1     -14.742  35.163   8.515  1.00  0.00     0.094 N 
HETATM   29  C7  UNL     1     -13.827  35.136   9.611  1.00  0.00     0.298 C 
BRANCH  28  30
HETATM   30  C4  UNL     1     -15.918  34.369   8.708  1.00  0.00     0.215 C 
HETATM   31  C5  UNL     1     -15.958  33.791  10.087  1.00  0.00     0.042 C 
HETATM   32  C6  UNL     1     -17.199  35.065   8.387  1.00  0.00     0.042 C 
ENDBRANCH  28  30
ENDBRANCH  22  24
ENDBRANCH   1  22
TORSDOF 6
ENDMDL
MODEL 4
REMARK VINA RESULT: -6.088940271      3.775      8.469
REMARK  6 active torsions:
REMARK  status: ('A' for Active; 'I' for Inactive)
REMARK    1  A    between atoms: N1_4  and  C4_5 
REMARK    2  A    between atoms: C8_9  and  N2_10 
REMARK    3  A    between atoms: N2_10  and  C9_12 
REMARK    4  A    between atoms: C12_20  and  N5_21 
REMARK    5  A    between atoms: C15_24  and  O1_25 
REMARK    6  A    between atoms: C15_24  and  C16_27 
ROOT
HETATM    1  C9  UNL     1     -14.472  34.853   7.283  1.00  0.00     0.132 A 
HETATM    2  N3  UNL     1     -15.815  34.774   7.184  1.00  0.00    -0.337 N 
ATOM      3  H3  UNL     1     -16.235  33.902   6.861  1.00  0.00     0.168 HD
HETATM    4  C10 UNL     1     -16.620  35.809   7.497  1.00  0.00     0.183 A 
HETATM    5  N4  UNL     1     -16.124  36.983   7.925  1.00  0.00    -0.341 N 
ATOM      6  H4  UNL     1     -16.735  37.765   8.161  1.00  0.00     0.167 HD
HETATM    7  C11 UNL     1     -14.781  37.081   8.029  1.00  0.00     0.135 A 
HETATM    8 CL1  UNL     1     -14.088  38.594   8.585  1.00  0.00    -0.062 Cl
HETATM    9  C12 UNL     1     -13.922  36.050   7.721  1.00  0.00     0.113 A 
ENDROOT
BRANCH   9  10
HETATM   10  N5  UNL     1     -12.524  36.239   7.860  1.00  0.00    -0.375 N 
HETATM   11  C13 UNL     1     -11.919  35.940   9.142  1.00  0.00     0.126 C 
HETATM   12  C14 UNL     1     -10.964  37.046   9.570  1.00  0.00     0.058 C 
HETATM   13  C15 UNL     1      -9.935  37.170   8.471  1.00  0.00     0.067 C 
HETATM   14  C20 UNL     1     -10.629  37.685   7.238  1.00  0.00     0.058 C 
HETATM   15  C21 UNL     1     -11.701  36.712   6.782  1.00  0.00     0.126 C 
BRANCH  13  16
HETATM   16  O1  UNL     1      -9.386  35.902   8.286  1.00  0.00    -0.389 OA
ATOM     17  H1  UNL     1     -10.113  35.300   8.178  1.00  0.00     0.210 HD
ENDBRANCH  13  16
BRANCH  13  18
HETATM   18  C16 UNL     1      -8.804  38.093   8.847  1.00  0.00    -0.020 C 
HETATM   19  C17 UNL     1      -7.836  38.187   7.686  1.00  0.00     0.017 C 
HETATM   20  C18 UNL     1      -8.119  37.686  10.121  1.00  0.00     0.017 C 
HETATM   21  C19 UNL     1      -9.406  39.474   9.060  1.00  0.00     0.017 C 
ENDBRANCH  13  18
ENDBRANCH   9  10
BRANCH   1  22
HETATM   22  N2  UNL     1     -13.691  33.896   6.995  1.00  0.00    -0.368 N 
ATOM     23  H2  UNL     1     -13.036  33.610   7.723  1.00  0.00     0.161 HD
BRANCH  22  24
HETATM   24  C8  UNL     1     -13.629  33.176   5.770  1.00  0.00     0.117 C 
HETATM   25  C2  UNL     1     -12.371  33.435   4.971  1.00  0.00     0.034 C 
HETATM   26  C1  UNL     1     -12.592  34.412   3.858  1.00  0.00     0.014 C 
HETATM   27  C3  UNL     1     -12.155  32.055   4.337  1.00  0.00     0.279 C 
HETATM   28  N1  UNL     1     -12.515  31.188   5.414  1.00  0.00     0.094 N 
HETATM   29  C7  UNL     1     -13.758  31.691   5.905  1.00  0.00     0.298 C 
BRANCH  28  30
HETATM   30  C4  UNL     1     -12.543  29.804   5.045  1.00  0.00     0.215 C 
HETATM   31  C5  UNL     1     -11.160  29.242   4.961  1.00  0.00     0.042 C 
HETATM   32  C6  UNL     1     -13.412  28.948   5.905  1.00  0.00     0.042 C 
ENDBRANCH  28  30
ENDBRANCH  22  24
ENDBRANCH   1  22
TORSDOF 6
ENDMDL
MODEL 5
REMARK VINA RESULT: -6.008612528      2.625      4.552
REMARK  6 active torsions:
REMARK  status: ('A' for Active; 'I' for Inactive)
REMARK    1  A    between atoms: N1_4  and  C4_5 
REMARK    2  A    between atoms: C8_9  and  N2_10 
REMARK    3  A    between atoms: N2_10  and  C9_12 
REMARK    4  A    between atoms: C12_20  and  N5_21 
REMARK    5  A    between atoms: C15_24  and  O1_25 
REMARK    6  A    between atoms: C15_24  and  C16_27 
ROOT
HETATM    1  C9  UNL     1     -12.486  36.899   8.542  1.00  0.00     0.132 A 
HETATM    2  N3  UNL     1     -12.194  38.209   8.674  1.00  0.00    -0.337 N 
ATOM      3  H3  UNL     1     -11.241  38.481   8.914  1.00  0.00     0.168 HD
HETATM    4  C10 UNL     1     -13.121  39.173   8.501  1.00  0.00     0.183 A 
HETATM    5  N4  UNL     1     -14.395  38.877   8.188  1.00  0.00    -0.341 N 
ATOM      6  H4  UNL     1     -15.095  39.607   8.058  1.00  0.00     0.167 HD
HETATM    7  C11 UNL     1     -14.706  37.570   8.052  1.00  0.00     0.135 A 
HETATM    8 CL1  UNL     1     -16.356  37.135   7.643  1.00  0.00    -0.062 Cl
HETATM    9  C12 UNL     1     -13.791  36.554   8.219  1.00  0.00     0.113 A 
ENDROOT
BRANCH   9  10
HETATM   10  N5  UNL     1     -14.204  35.208   8.057  1.00  0.00    -0.375 N 
HETATM   11  C13 UNL     1     -14.062  34.603   6.749  1.00  0.00     0.126 C 
HETATM   12  C14 UNL     1     -15.323  33.846   6.353  1.00  0.00     0.058 C 
HETATM   13  C15 UNL     1     -15.558  32.815   7.433  1.00  0.00     0.067 C 
HETATM   14  C20 UNL     1     -15.901  33.543   8.705  1.00  0.00     0.058 C 
HETATM   15  C21 UNL     1     -14.752  34.436   9.138  1.00  0.00     0.126 C 
BRANCH  13  16
HETATM   16  O1  UNL     1     -14.385  32.070   7.543  1.00  0.00    -0.389 OA
ATOM     17  H1  UNL     1     -14.623  31.238   7.936  1.00  0.00     0.210 HD
ENDBRANCH  13  16
BRANCH  13  18
HETATM   18  C16 UNL     1     -16.663  31.854   7.077  1.00  0.00    -0.020 C 
HETATM   19  C17 UNL     1     -17.019  31.035   8.299  1.00  0.00     0.017 C 
HETATM   20  C18 UNL     1     -16.324  30.989   5.896  1.00  0.00     0.017 C 
HETATM   21  C19 UNL     1     -17.880  32.690   6.709  1.00  0.00     0.017 C 
ENDBRANCH  13  18
ENDBRANCH   9  10
BRANCH   1  22
HETATM   22  N2  UNL     1     -11.635  35.973   8.699  1.00  0.00    -0.368 N 
ATOM     23  H2  UNL     1     -12.005  35.049   8.921  1.00  0.00     0.161 HD
BRANCH  22  24
HETATM   24  C8  UNL     1     -10.220  36.080   8.598  1.00  0.00     0.117 C 
HETATM   25  C2  UNL     1      -9.753  37.223   7.725  1.00  0.00     0.034 C 
HETATM   26  C1  UNL     1      -9.359  36.771   6.353  1.00  0.00     0.014 C 
HETATM   27  C3  UNL     1      -8.471  37.631   8.462  1.00  0.00     0.279 C 
HETATM   28  N1  UNL     1      -8.871  37.491   9.827  1.00  0.00     0.094 N 
HETATM   29  C7  UNL     1      -9.505  36.214   9.906  1.00  0.00     0.298 C 
BRANCH  28  30
HETATM   30  C4  UNL     1      -7.797  37.676  10.756  1.00  0.00     0.215 C 
HETATM   31  C5  UNL     1      -7.792  39.067  11.304  1.00  0.00     0.042 C 
HETATM   32  C6  UNL     1      -7.749  36.672  11.860  1.00  0.00     0.042 C 
ENDBRANCH  28  30
ENDBRANCH  22  24
ENDBRANCH   1  22
TORSDOF 6
ENDMDL
