MODEL 1
REMARK VINA RESULT: -6.105710730      0.000      0.000
REMARK  3 active torsions:
REMARK  status: ('A' for Active; 'I' for Inactive)
REMARK    1  A    between atoms: N1_2  and  C2_4 
REMARK    2  A    between atoms: C3_7  and  C4_8 
REMARK    3  A    between atoms: C8_18  and  N6_19 
ROOT
HETATM    1  C2  UNL     1       3.251   2.471  46.202  1.00  0.00     0.694 A 
HETATM    2  N2  UNL     1       3.163   3.473  47.095  1.00  0.00    -0.173 N 
ATOM      3  H2  UNL     1       3.399   4.415  46.784  1.00  0.00     0.186 HD
HETATM    4  C3  UNL     1       2.782   3.305  48.371  1.00  0.00     0.165 A 
HETATM    5  N5  UNL     1       2.476   2.041  48.747  1.00  0.00    -0.173 N 
ATOM      6  H5  UNL     1       2.182   1.870  49.708  1.00  0.00     0.186 HD
HETATM    7  C8  UNL     1       2.547   1.006  47.898  1.00  0.00     0.694 A 
HETATM    8  N7  UNL     1       2.935   1.230  46.631  1.00  0.00    -0.022 N 
ATOM      9  H7  UNL     1       2.991   0.447  45.980  1.00  0.00     0.203 HD
ENDROOT
BRANCH   4  10
HETATM   10  C4  UNL     1       2.691   4.402  49.325  1.00  0.00     0.101 A 
HETATM   11  N3  UNL     1       1.624   4.774  50.054  1.00  0.00    -0.348 N 
HETATM   12  C5  UNL     1       1.960   5.850  50.825  1.00  0.00     0.181 A 
ATOM     13  H3  UNL     1       0.709   4.324  50.033  1.00  0.00     0.167 HD
HETATM   14  N4  UNL     1       3.242   6.144  50.572  1.00  0.00    -0.354 N 
HETATM   15  C6  UNL     1       3.705   5.272  49.660  1.00  0.00     0.037 A 
ATOM     16  H4  UNL     1       3.776   6.902  50.998  1.00  0.00     0.166 HD
HETATM   17  C7  UNL     1       5.078   5.256  49.111  1.00  0.00     0.070 C 
ENDBRANCH   4  10
BRANCH   1  18
HETATM   18  N1  UNL     1       3.615   2.633  44.985  1.00  0.00    -0.230 N 
HETATM   19  C1  UNL     1       2.724   2.664  43.849  1.00  0.00     0.165 C 
ATOM     20  H1  UNL     1       4.612   2.750  44.804  1.00  0.00     0.177 HD
ENDBRANCH   1  18
BRANCH   7  21
HETATM   21  N6  UNL     1       2.266  -0.212  48.211  1.00  0.00    -0.230 N 
HETATM   22  C9  UNL     1       0.930  -0.754  48.080  1.00  0.00     0.165 C 
ATOM     23  H6  UNL     1       3.011  -0.814  48.563  1.00  0.00     0.177 HD
ENDBRANCH   7  21
TORSDOF 3
ENDMDL
MODEL 2
REMARK VINA RESULT: -6.076391942      0.150      2.826
REMARK  3 active torsions:
REMARK  status: ('A' for Active; 'I' for Inactive)
REMARK    1  A    between atoms: N1_2  and  C2_4 
REMARK    2  A    between atoms: C3_7  and  C4_8 
REMARK    3  A    between atoms: C8_18  and  N6_19 
ROOT
HETATM    1  C2  UNL     1       2.726   0.915  47.877  1.00  0.00     0.694 A 
HETATM    2  N2  UNL     1       2.618   1.949  48.731  1.00  0.00    -0.173 N 
ATOM      3  H2  UNL     1       2.349   1.750  49.695  1.00  0.00     0.186 HD
HETATM    4  C3  UNL     1       2.843   3.227  48.387  1.00  0.00     0.165 A 
HETATM    5  N5  UNL     1       3.199   3.452  47.101  1.00  0.00    -0.173 N 
ATOM      6  H5  UNL     1       3.379   4.410  46.800  1.00  0.00     0.186 HD
HETATM    7  C8  UNL     1       3.321   2.459  46.209  1.00  0.00     0.694 A 
HETATM    8  N7  UNL     1       3.083   1.197  46.605  1.00  0.00    -0.022 N 
ATOM      9  H7  UNL     1       3.174   0.436  45.932  1.00  0.00     0.203 HD
ENDROOT
BRANCH   4  10
HETATM   10  C4  UNL     1       2.722   4.335  49.325  1.00  0.00     0.101 A 
HETATM   11  N3  UNL     1       1.635   4.710  50.022  1.00  0.00    -0.348 N 
HETATM   12  C5  UNL     1       1.945   5.797  50.788  1.00  0.00     0.181 A 
ATOM     13  H3  UNL     1       0.723   4.255  49.985  1.00  0.00     0.167 HD
HETATM   14  N4  UNL     1       3.232   6.096  50.564  1.00  0.00    -0.354 N 
HETATM   15  C6  UNL     1       3.723   5.216  49.675  1.00  0.00     0.037 A 
ATOM     16  H4  UNL     1       3.750   6.862  50.994  1.00  0.00     0.166 HD
HETATM   17  C7  UNL     1       5.109   5.201  49.160  1.00  0.00     0.070 C 
ENDBRANCH   4  10
BRANCH   1  18
HETATM   18  N1  UNL     1       2.511  -0.303  48.206  1.00  0.00    -0.230 N 
HETATM   19  C1  UNL     1       1.240  -0.980  48.099  1.00  0.00     0.165 C 
ATOM     20  H1  UNL     1       3.298  -0.837  48.573  1.00  0.00     0.177 HD
ENDBRANCH   1  18
BRANCH   7  21
HETATM   21  N6  UNL     1       3.655   2.626  44.977  1.00  0.00    -0.230 N 
HETATM   22  C9  UNL     1       2.681   2.627  43.906  1.00  0.00     0.165 C 
ATOM     23  H6  UNL     1       4.640   2.762  44.748  1.00  0.00     0.177 HD
ENDBRANCH   7  21
TORSDOF 3
ENDMDL
MODEL 3
REMARK VINA RESULT: -6.021715014      2.284      5.675
REMARK  3 active torsions:
REMARK  status: ('A' for Active; 'I' for Inactive)
REMARK    1  A    between atoms: N1_2  and  C2_4 
REMARK    2  A    between atoms: C3_7  and  C4_8 
REMARK    3  A    between atoms: C8_18  and  N6_19 
ROOT
HETATM    1  C2  UNL     1       4.779   1.329  48.919  1.00  0.00     0.694 A 
HETATM    2  N2  UNL     1       4.130   0.670  47.943  1.00  0.00    -0.173 N 
ATOM      3  H2  UNL     1       4.642  -0.039  47.419  1.00  0.00     0.186 HD
HETATM    4  C3  UNL     1       2.846   0.893  47.619  1.00  0.00     0.165 A 
HETATM    5  N5  UNL     1       2.199   1.841  48.336  1.00  0.00    -0.173 N 
ATOM      6  H5  UNL     1       1.222   2.040  48.122  1.00  0.00     0.186 HD
HETATM    7  C8  UNL     1       2.799   2.527  49.319  1.00  0.00     0.694 A 
HETATM    8  N7  UNL     1       4.086   2.265  49.603  1.00  0.00    -0.022 N 
ATOM      9  H7  UNL     1       4.549   2.783  50.349  1.00  0.00     0.203 HD
ENDROOT
BRANCH   4  10
HETATM   10  C4  UNL     1       2.156   0.169  46.559  1.00  0.00     0.101 A 
HETATM   11  N3  UNL     1       2.133   0.456  45.246  1.00  0.00    -0.348 N 
HETATM   12  C5  UNL     1       1.371  -0.472  44.597  1.00  0.00     0.181 A 
ATOM     13  H3  UNL     1       2.609   1.244  44.805  1.00  0.00     0.167 HD
HETATM   14  N4  UNL     1       0.921  -1.339  45.513  1.00  0.00    -0.354 N 
HETATM   15  C6  UNL     1       1.390  -0.964  46.716  1.00  0.00     0.037 A 
ATOM     16  H4  UNL     1       0.324  -2.146  45.330  1.00  0.00     0.166 HD
HETATM   17  C7  UNL     1       1.121  -1.659  47.994  1.00  0.00     0.070 C 
ENDBRANCH   4  10
BRANCH   1  18
HETATM   18  N1  UNL     1       6.004   1.115  49.226  1.00  0.00    -0.230 N 
HETATM   19  C1  UNL     1       7.117   1.197  48.310  1.00  0.00     0.165 C 
ATOM     20  H1  UNL     1       6.210   0.868  50.194  1.00  0.00     0.177 HD
ENDBRANCH   1  18
BRANCH   7  21
HETATM   21  N6  UNL     1       2.224   3.437  50.027  1.00  0.00    -0.230 N 
HETATM   22  C9  UNL     1       2.513   4.845  49.857  1.00  0.00     0.165 C 
ATOM     23  H6  UNL     1       1.542   3.155  50.731  1.00  0.00     0.177 HD
ENDBRANCH   7  21
TORSDOF 3
ENDMDL
MODEL 4
REMARK VINA RESULT: -6.001864047      2.262      5.715
REMARK  3 active torsions:
REMARK  status: ('A' for Active; 'I' for Inactive)
REMARK    1  A    between atoms: N1_2  and  C2_4 
REMARK    2  A    between atoms: C3_7  and  C4_8 
REMARK    3  A    between atoms: C8_18  and  N6_19 
ROOT
HETATM    1  C2  UNL     1       2.784   2.577  49.320  1.00  0.00     0.694 A 
HETATM    2  N2  UNL     1       2.179   1.883  48.339  1.00  0.00    -0.173 N 
ATOM      3  H2  UNL     1       1.205   2.099  48.127  1.00  0.00     0.186 HD
HETATM    4  C3  UNL     1       2.785   0.922  47.623  1.00  0.00     0.165 A 
HETATM    5  N5  UNL     1       4.077   0.663  47.932  1.00  0.00    -0.173 N 
ATOM      6  H5  UNL     1       4.573  -0.059  47.411  1.00  0.00     0.186 HD
HETATM    7  C8  UNL     1       4.726   1.325  48.900  1.00  0.00     0.694 A 
HETATM    8  N7  UNL     1       4.073   2.278  49.587  1.00  0.00    -0.022 N 
ATOM      9  H7  UNL     1       4.561   2.785  50.325  1.00  0.00     0.203 HD
ENDROOT
BRANCH   4  10
HETATM   10  C4  UNL     1       2.116   0.180  46.563  1.00  0.00     0.101 A 
HETATM   11  N3  UNL     1       2.099   0.457  45.247  1.00  0.00    -0.348 N 
HETATM   12  C5  UNL     1       1.357  -0.488  44.598  1.00  0.00     0.181 A 
ATOM     13  H3  UNL     1       2.565   1.249  44.804  1.00  0.00     0.167 HD
HETATM   14  N4  UNL     1       0.914  -1.356  45.518  1.00  0.00    -0.354 N 
HETATM   15  C6  UNL     1       1.366  -0.965  46.722  1.00  0.00     0.037 A 
ATOM     16  H4  UNL     1       0.331  -2.173  45.335  1.00  0.00     0.166 HD
HETATM   17  C7  UNL     1       1.099  -1.655  48.002  1.00  0.00     0.070 C 
ENDBRANCH   4  10
BRANCH   1  18
HETATM   18  N1  UNL     1       2.205   3.493  50.002  1.00  0.00    -0.230 N 
HETATM   19  C1  UNL     1       2.494   4.904  49.912  1.00  0.00     0.165 C 
ATOM     20  H1  UNL     1       1.483   3.203  50.661  1.00  0.00     0.177 HD
ENDBRANCH   1  18
BRANCH   7  21
HETATM   21  N6  UNL     1       5.954   1.113  49.228  1.00  0.00    -0.230 N 
HETATM   22  C9  UNL     1       7.036   1.202  48.270  1.00  0.00     0.165 C 
ATOM     23  H6  UNL     1       6.171   0.875  50.196  1.00  0.00     0.177 HD
ENDBRANCH   7  21
TORSDOF 3
ENDMDL
MODEL 5
REMARK VINA RESULT: -5.962608143      1.287      3.070
REMARK  3 active torsions:
REMARK  status: ('A' for Active; 'I' for Inactive)
REMARK    1  A    between atoms: N1_2  and  C2_4 
REMARK    2  A    between atoms: C3_7  and  C4_8 
REMARK    3  A    between atoms: C8_18  and  N6_19 
ROOT
HETATM    1  C2  UNL     1       1.451   1.490  47.487  1.00  0.00     0.694 A 
HETATM    2  N2  UNL     1       1.820   2.283  48.509  1.00  0.00    -0.173 N 
ATOM      3  H2  UNL     1       1.366   2.146  49.412  1.00  0.00     0.186 HD
HETATM    4  C3  UNL     1       2.752   3.244  48.409  1.00  0.00     0.165 A 
HETATM    5  N5  UNL     1       3.333   3.396  47.196  1.00  0.00    -0.173 N 
ATOM      6  H5  UNL     1       4.046   4.115  47.078  1.00  0.00     0.186 HD
HETATM    7  C8  UNL     1       3.003   2.633  46.145  1.00  0.00     0.694 A 
HETATM    8  N7  UNL     1       2.063   1.685  46.299  1.00  0.00    -0.022 N 
ATOM      9  H7  UNL     1       1.806   1.101  45.503  1.00  0.00     0.203 HD
ENDROOT
BRANCH   4  10
HETATM   10  C4  UNL     1       3.141   4.094  49.526  1.00  0.00     0.101 A 
HETATM   11  N3  UNL     1       2.662   5.310  49.842  1.00  0.00    -0.348 N 
HETATM   12  C5  UNL     1       3.293   5.763  50.965  1.00  0.00     0.181 A 
ATOM     13  H3  UNL     1       1.943   5.815  49.324  1.00  0.00     0.167 HD
HETATM   14  N4  UNL     1       4.166   4.822  51.346  1.00  0.00    -0.354 N 
HETATM   15  C6  UNL     1       4.088   3.796  50.481  1.00  0.00     0.037 A 
ATOM     16  H4  UNL     1       4.786   4.874  52.156  1.00  0.00     0.166 HD
HETATM   17  C7  UNL     1       4.889   2.555  50.550  1.00  0.00     0.070 C 
ENDBRANCH   4  10
BRANCH   1  18
HETATM   18  N1  UNL     1       0.562   0.574  47.585  1.00  0.00    -0.230 N 
HETATM   19  C1  UNL     1       0.783  -0.744  48.133  1.00  0.00     0.165 C 
ATOM     20  H1  UNL     1      -0.376   0.791  47.248  1.00  0.00     0.177 HD
ENDBRANCH   1  18
BRANCH   7  21
HETATM   21  N6  UNL     1       3.528   2.742  44.973  1.00  0.00    -0.230 N 
HETATM   22  C9  UNL     1       2.734   2.691  43.763  1.00  0.00     0.165 C 
ATOM     23  H6  UNL     1       4.537   2.869  44.896  1.00  0.00     0.177 HD
ENDBRANCH   7  21
TORSDOF 3
ENDMDL
