MODEL 1
REMARK VINA RESULT: -6.164390978      0.000      0.000
REMARK  2 active torsions:
REMARK  status: ('A' for Active; 'I' for Inactive)
REMARK    1  A    between atoms: C2_2  and  C3_3 
REMARK    2  A    between atoms: C8_18  and  N6_19 
ROOT
HETATM    1  C3  UNL     1       1.720   1.168  46.609  1.00  0.00     0.077 A 
HETATM    2  N1  UNL     1       1.490   1.410  47.910  1.00  0.00    -0.336 N 
ATOM      3  H1  UNL     1       0.764   0.891  48.404  1.00  0.00     0.168 HD
HETATM    4  C4  UNL     1       2.218   2.338  48.564  1.00  0.00     0.151 A 
HETATM    5  N2  UNL     1       2.223   2.794  49.837  1.00  0.00    -0.282 N 
ATOM      6  H2  UNL     1       1.604   2.465  50.578  1.00  0.00     0.188 HD
HETATM    7  N3  UNL     1       3.147   3.729  49.983  1.00  0.00    -0.282 N 
ATOM      8  H3  UNL     1       3.341   4.223  50.854  1.00  0.00     0.188 HD
HETATM    9  C5  UNL     1       3.796   3.940  48.822  1.00  0.00     0.146 A 
HETATM   10  N4  UNL     1       4.754   4.770  48.576  1.00  0.00    -0.378 N 
ATOM     11  H4  UNL     1       5.163   4.832  47.644  1.00  0.00     0.160 HD
HETATM   12  C6  UNL     1       5.238   5.614  49.654  1.00  0.00     0.148 C 
HETATM   13  C7  UNL     1       3.208   3.059  47.922  1.00  0.00     0.125 A 
HETATM   14  N5  UNL     1       3.449   2.823  46.607  1.00  0.00    -0.335 N 
ATOM     15  H5  UNL     1       4.174   3.341  46.109  1.00  0.00     0.168 HD
HETATM   16  C8  UNL     1       2.710   1.892  45.976  1.00  0.00     0.128 A 
ENDROOT
BRANCH  16  17
HETATM   17  N6  UNL     1       2.932   1.662  44.728  1.00  0.00    -0.379 N 
HETATM   18  C9  UNL     1       2.764   2.648  43.695  1.00  0.00     0.147 C 
ATOM     19  H6  UNL     1       3.245   0.729  44.458  1.00  0.00     0.160 HD
ENDBRANCH  16  17
BRANCH   1  20
HETATM   20  C2  UNL     1       0.928   0.152  45.878  1.00  0.00     0.023 C 
HETATM   21  C1  UNL     1       1.070  -1.103  46.170  1.00  0.00     0.013 C 
ENDBRANCH   1  20
TORSDOF 2
ENDMDL
MODEL 2
REMARK VINA RESULT: -6.133262547      0.961      1.019
REMARK  2 active torsions:
REMARK  status: ('A' for Active; 'I' for Inactive)
REMARK    1  A    between atoms: C2_2  and  C3_3 
REMARK    2  A    between atoms: C8_18  and  N6_19 
ROOT
HETATM    1  C3  UNL     1       1.286   2.226  46.946  1.00  0.00     0.077 A 
HETATM    2  N1  UNL     1       1.432   2.131  48.278  1.00  0.00    -0.336 N 
ATOM      3  H1  UNL     1       0.826   1.510  48.814  1.00  0.00     0.168 HD
HETATM    4  C4  UNL     1       2.380   2.855  48.907  1.00  0.00     0.151 A 
HETATM    5  N2  UNL     1       2.761   2.973  50.200  1.00  0.00    -0.282 N 
ATOM      6  H2  UNL     1       2.338   2.472  50.980  1.00  0.00     0.188 HD
HETATM    7  N3  UNL     1       3.761   3.833  50.303  1.00  0.00    -0.282 N 
ATOM      8  H3  UNL     1       4.219   4.086  51.178  1.00  0.00     0.188 HD
HETATM    9  C5  UNL     1       4.091   4.326  49.095  1.00  0.00     0.146 A 
HETATM   10  N4  UNL     1       5.011   5.182  48.800  1.00  0.00    -0.378 N 
ATOM     11  H4  UNL     1       5.159   5.475  47.834  1.00  0.00     0.160 HD
HETATM   12  C6  UNL     1       5.830   5.720  49.871  1.00  0.00     0.148 C 
HETATM   13  C7  UNL     1       3.216   3.707  48.208  1.00  0.00     0.125 A 
HETATM   14  N5  UNL     1       3.077   3.811  46.863  1.00  0.00    -0.335 N 
ATOM     15  H5  UNL     1       3.681   4.432  46.322  1.00  0.00     0.168 HD
HETATM   16  C8  UNL     1       2.125   3.077  46.257  1.00  0.00     0.128 A 
ENDROOT
BRANCH  16  17
HETATM   17  N6  UNL     1       1.987   3.171  44.979  1.00  0.00    -0.379 N 
HETATM   18  C9  UNL     1       2.905   2.596  44.034  1.00  0.00     0.147 C 
ATOM     19  H6  UNL     1       1.180   3.681  44.618  1.00  0.00     0.160 HD
ENDBRANCH  16  17
BRANCH   1  20
HETATM   20  C2  UNL     1       0.250   1.436  46.242  1.00  0.00     0.023 C 
HETATM   21  C1  UNL     1       0.428   0.165  46.057  1.00  0.00     0.013 C 
ENDBRANCH   1  20
TORSDOF 2
ENDMDL
MODEL 3
REMARK VINA RESULT: -5.971045801      2.530      3.262
REMARK  2 active torsions:
REMARK  status: ('A' for Active; 'I' for Inactive)
REMARK    1  A    between atoms: C2_2  and  C3_3 
REMARK    2  A    between atoms: C8_18  and  N6_19 
ROOT
HETATM    1  C3  UNL     1       1.883   1.243  46.399  1.00  0.00     0.077 A 
HETATM    2  N1  UNL     1       2.444   2.261  47.072  1.00  0.00    -0.336 N 
ATOM      3  H1  UNL     1       1.875   3.057  47.359  1.00  0.00     0.168 HD
HETATM    4  C4  UNL     1       3.759   2.232  47.368  1.00  0.00     0.151 A 
HETATM    5  N2  UNL     1       4.590   3.080  48.016  1.00  0.00    -0.282 N 
ATOM      6  H2  UNL     1       4.311   3.973  48.423  1.00  0.00     0.188 HD
HETATM    7  N3  UNL     1       5.816   2.585  48.044  1.00  0.00    -0.282 N 
ATOM      8  H3  UNL     1       6.617   3.043  48.478  1.00  0.00     0.188 HD
HETATM    9  C5  UNL     1       5.861   1.392  47.420  1.00  0.00     0.146 A 
HETATM   10  N4  UNL     1       6.876   0.613  47.247  1.00  0.00    -0.378 N 
ATOM     11  H4  UNL     1       6.774  -0.272  46.752  1.00  0.00     0.160 HD
HETATM   12  C6  UNL     1       8.166   1.024  47.772  1.00  0.00     0.148 C 
HETATM   13  C7  UNL     1       4.558   1.167  46.991  1.00  0.00     0.125 A 
HETATM   14  N5  UNL     1       4.002   0.133  46.311  1.00  0.00    -0.335 N 
ATOM     15  H5  UNL     1       4.567  -0.665  46.021  1.00  0.00     0.168 HD
HETATM   16  C8  UNL     1       2.687   0.185  46.027  1.00  0.00     0.128 A 
ENDROOT
BRANCH  16  17
HETATM   17  N6  UNL     1       2.151  -0.793  45.380  1.00  0.00    -0.379 N 
HETATM   18  C9  UNL     1       1.826  -2.059  45.977  1.00  0.00     0.147 C 
ATOM     19  H6  UNL     1       1.946  -0.660  44.390  1.00  0.00     0.160 HD
ENDBRANCH  16  17
BRANCH   1  20
HETATM   20  C2  UNL     1       0.440   1.262  46.066  1.00  0.00     0.023 C 
HETATM   21  C1  UNL     1      -0.436   1.367  47.016  1.00  0.00     0.013 C 
ENDBRANCH   1  20
TORSDOF 2
ENDMDL
MODEL 4
REMARK VINA RESULT: -5.934794366      2.335      2.672
REMARK  2 active torsions:
REMARK  status: ('A' for Active; 'I' for Inactive)
REMARK    1  A    between atoms: C2_2  and  C3_3 
REMARK    2  A    between atoms: C8_18  and  N6_19 
ROOT
HETATM    1  C3  UNL     1       1.578   0.995  48.114  1.00  0.00     0.077 A 
HETATM    2  N1  UNL     1       1.758   2.032  48.949  1.00  0.00    -0.336 N 
ATOM      3  H1  UNL     1       0.965   2.615  49.216  1.00  0.00     0.168 HD
HETATM    4  C4  UNL     1       2.987   2.302  49.435  1.00  0.00     0.151 A 
HETATM    5  N2  UNL     1       3.473   3.249  50.270  1.00  0.00    -0.282 N 
ATOM      6  H2  UNL     1       2.917   3.983  50.707  1.00  0.00     0.188 HD
HETATM    7  N3  UNL     1       4.775   3.082  50.438  1.00  0.00    -0.282 N 
ATOM      8  H3  UNL     1       5.364   3.672  51.025  1.00  0.00     0.188 HD
HETATM    9  C5  UNL     1       5.215   2.027  49.727  1.00  0.00     0.146 A 
HETATM   10  N4  UNL     1       6.415   1.560  49.641  1.00  0.00    -0.378 N 
ATOM     11  H4  UNL     1       6.617   0.745  49.061  1.00  0.00     0.160 HD
HETATM   12  C6  UNL     1       7.473   2.218  50.386  1.00  0.00     0.148 C 
HETATM   13  C7  UNL     1       4.082   1.531  49.091  1.00  0.00     0.125 A 
HETATM   14  N5  UNL     1       3.912   0.482  48.248  1.00  0.00    -0.335 N 
ATOM     15  H5  UNL     1       4.702  -0.104  47.977  1.00  0.00     0.168 HD
HETATM   16  C8  UNL     1       2.676   0.231  47.776  1.00  0.00     0.128 A 
ENDROOT
BRANCH  16  17
HETATM   17  N6  UNL     1       2.506  -0.764  46.975  1.00  0.00    -0.379 N 
HETATM   18  C9  UNL     1       2.986  -0.786  45.620  1.00  0.00     0.147 C 
ATOM     19  H6  UNL     1       2.002  -1.581  47.321  1.00  0.00     0.160 HD
ENDBRANCH  16  17
BRANCH   1  20
HETATM   20  C2  UNL     1       0.235   0.687  47.573  1.00  0.00     0.023 C 
HETATM   21  C1  UNL     1      -0.391   1.574  46.864  1.00  0.00     0.013 C 
ENDBRANCH   1  20
TORSDOF 2
ENDMDL
MODEL 5
REMARK VINA RESULT: -5.875550470      1.601      1.855
REMARK  2 active torsions:
REMARK  status: ('A' for Active; 'I' for Inactive)
REMARK    1  A    between atoms: C2_2  and  C3_3 
REMARK    2  A    between atoms: C8_18  and  N6_19 
ROOT
HETATM    1  C3  UNL     1       1.770   2.052  47.690  1.00  0.00     0.077 A 
HETATM    2  N1  UNL     1       1.456   2.921  48.664  1.00  0.00    -0.336 N 
ATOM      3  H1  UNL     1       0.531   2.893  49.094  1.00  0.00     0.168 HD
HETATM    4  C4  UNL     1       2.361   3.832  49.076  1.00  0.00     0.151 A 
HETATM    5  N2  UNL     1       2.344   4.812  50.008  1.00  0.00    -0.282 N 
ATOM      6  H2  UNL     1       1.549   5.032  50.608  1.00  0.00     0.188 HD
HETATM    7  N3  UNL     1       3.507   5.442  50.028  1.00  0.00    -0.282 N 
ATOM      8  H3  UNL     1       3.735   6.218  50.649  1.00  0.00     0.188 HD
HETATM    9  C5  UNL     1       4.347   4.918  49.117  1.00  0.00     0.146 A 
HETATM   10  N4  UNL     1       5.561   5.267  48.847  1.00  0.00    -0.378 N 
ATOM     11  H4  UNL     1       6.094   4.783  48.125  1.00  0.00     0.160 HD
HETATM   12  C6  UNL     1       6.150   6.366  49.592  1.00  0.00     0.148 C 
HETATM   13  C7  UNL     1       3.623   3.896  48.512  1.00  0.00     0.125 A 
HETATM   14  N5  UNL     1       3.951   3.023  47.527  1.00  0.00    -0.335 N 
ATOM     15  H5  UNL     1       4.874   3.048  47.093  1.00  0.00     0.168 HD
HETATM   16  C8  UNL     1       3.030   2.123  47.134  1.00  0.00     0.128 A 
ENDROOT
BRANCH  16  17
HETATM   17  N6  UNL     1       3.334   1.290  46.198  1.00  0.00    -0.379 N 
HETATM   18  C9  UNL     1       4.323   0.257  46.342  1.00  0.00     0.147 C 
ATOM     19  H6  UNL     1       2.845   1.370  45.306  1.00  0.00     0.160 HD
ENDBRANCH  16  17
BRANCH   1  20
HETATM   20  C2  UNL     1       0.785   1.047  47.229  1.00  0.00     0.023 C 
HETATM   21  C1  UNL     1      -0.439   1.407  46.997  1.00  0.00     0.013 C 
ENDBRANCH   1  20
TORSDOF 2
ENDMDL
