MODEL 1
REMARK VINA RESULT: -5.058810104      0.000      0.000
REMARK  2 active torsions:
REMARK  status: ('A' for Active; 'I' for Inactive)
REMARK    1  A    between atoms: C1_4  and  C2_5 
REMARK    2  A    between atoms: C6_10  and  O2_11 
ROOT
HETATM    1  C2  UNL     1      22.824  -1.019 -22.738  1.00  0.00     0.086 C 
HETATM    2  C3  UNL     1      21.918  -0.955 -21.593  1.00  0.00     0.028 C 
HETATM    3  C4  UNL     1      22.529  -1.243 -20.312  1.00  0.00     0.029 C 
HETATM    4  C5  UNL     1      22.198  -2.631 -19.752  1.00  0.00     0.177 C 
HETATM    5  O1  UNL     1      23.190  -2.750 -18.772  1.00  0.00    -0.360 OA
HETATM    6  C6  UNL     1      24.379  -2.352 -19.367  1.00  0.00     0.270 C 
HETATM    7  C7  UNL     1      24.003  -1.259 -20.338  1.00  0.00     0.109 C 
HETATM    8  S1  UNL     1      24.327  -1.788 -22.067  1.00  0.00    -0.149 SA
ENDROOT
BRANCH   1   9
HETATM    9  C1  UNL     1      22.316  -1.719 -23.927  1.00  0.00     0.068 C 
HETATM   10  N1  UNL     1      23.099  -2.394 -24.682  1.00  0.00    -0.410 N 
ATOM     11  H12 UNL     1      24.090  -2.437 -24.440  1.00  0.00     0.155 HD
ATOM     12  H11 UNL     1      22.747  -2.880 -25.506  1.00  0.00     0.155 HD
ENDBRANCH   1   9
BRANCH   6  13
HETATM   13  O2  UNL     1      25.260  -1.779 -18.435  1.00  0.00    -0.370 OA
ATOM     14  H2  UNL     1      25.166  -0.834 -18.397  1.00  0.00     0.212 HD
ENDBRANCH   6  13
TORSDOF 2
ENDMDL
MODEL 2
REMARK VINA RESULT: -4.462669979      3.480      4.587
REMARK  2 active torsions:
REMARK  status: ('A' for Active; 'I' for Inactive)
REMARK    1  A    between atoms: C1_4  and  C2_5 
REMARK    2  A    between atoms: C6_10  and  O2_11 
ROOT
HETATM    1  C2  UNL     1      23.744  -1.279 -20.137  1.00  0.00     0.086 C 
HETATM    2  C3  UNL     1      24.422  -0.919 -21.380  1.00  0.00     0.028 C 
HETATM    3  C4  UNL     1      23.548  -0.707 -22.515  1.00  0.00     0.029 C 
HETATM    4  C5  UNL     1      23.546  -1.852 -23.534  1.00  0.00     0.177 C 
HETATM    5  O1  UNL     1      22.384  -1.548 -24.252  1.00  0.00    -0.360 OA
HETATM    6  C6  UNL     1      21.403  -1.267 -23.312  1.00  0.00     0.270 C 
HETATM    7  C7  UNL     1      22.119  -0.598 -22.162  1.00  0.00     0.109 C 
HETATM    8  S1  UNL     1      22.040  -1.643 -20.653  1.00  0.00    -0.149 SA
ENDROOT
BRANCH   1   9
HETATM    9  C1  UNL     1      24.345  -2.378 -19.367  1.00  0.00     0.068 C 
HETATM   10  N1  UNL     1      25.244  -2.153 -18.483  1.00  0.00    -0.410 N 
ATOM     11  H12 UNL     1      25.537  -1.189 -18.323  1.00  0.00     0.155 HD
ATOM     12  H11 UNL     1      25.661  -2.915 -17.949  1.00  0.00     0.155 HD
ENDBRANCH   1   9
BRANCH   6  13
HETATM   13  O2  UNL     1      20.467  -0.339 -23.798  1.00  0.00    -0.370 OA
ATOM     14  H2  UNL     1      20.742   0.037 -24.627  1.00  0.00     0.212 HD
ENDBRANCH   6  13
TORSDOF 2
ENDMDL
MODEL 3
REMARK VINA RESULT: -4.337027984      1.978      2.561
REMARK  2 active torsions:
REMARK  status: ('A' for Active; 'I' for Inactive)
REMARK    1  A    between atoms: C1_4  and  C2_5 
REMARK    2  A    between atoms: C6_10  and  O2_11 
ROOT
HETATM    1  C2  UNL     1      21.726  -1.335 -22.997  1.00  0.00     0.086 C 
HETATM    2  C3  UNL     1      23.127  -1.407 -23.405  1.00  0.00     0.028 C 
HETATM    3  C4  UNL     1      24.069  -1.616 -22.325  1.00  0.00     0.029 C 
HETATM    4  C5  UNL     1      24.859  -0.365 -21.925  1.00  0.00     0.177 C 
HETATM    5  O1  UNL     1      25.355  -0.768 -20.680  1.00  0.00    -0.360 OA
HETATM    6  C6  UNL     1      24.288  -1.333 -19.997  1.00  0.00     0.270 C 
HETATM    7  C7  UNL     1      23.445  -2.013 -21.049  1.00  0.00     0.109 C 
HETATM    8  S1  UNL     1      21.801  -1.204 -21.186  1.00  0.00    -0.149 SA
ENDROOT
BRANCH   1   9
HETATM    9  C1  UNL     1      20.930  -0.259 -23.605  1.00  0.00     0.068 C 
HETATM   10  N1  UNL     1      21.426   0.907 -23.793  1.00  0.00    -0.410 N 
ATOM     11  H12 UNL     1      22.391   1.075 -23.509  1.00  0.00     0.155 HD
ATOM     12  H11 UNL     1      20.874   1.652 -24.215  1.00  0.00     0.155 HD
ENDBRANCH   1   9
BRANCH   6  13
HETATM   13  O2  UNL     1      24.712  -2.337 -19.110  1.00  0.00    -0.370 OA
ATOM     14  H2  UNL     1      25.548  -2.706 -19.370  1.00  0.00     0.212 HD
ENDBRANCH   6  13
TORSDOF 2
ENDMDL
MODEL 4
REMARK VINA RESULT: -4.257577504      3.466      4.303
REMARK  2 active torsions:
REMARK  status: ('A' for Active; 'I' for Inactive)
REMARK    1  A    between atoms: C1_4  and  C2_5 
REMARK    2  A    between atoms: C6_10  and  O2_11 
ROOT
HETATM    1  C2  UNL     1      24.426  -2.004 -21.151  1.00  0.00     0.086 C 
HETATM    2  C3  UNL     1      23.643  -1.961 -22.384  1.00  0.00     0.028 C 
HETATM    3  C4  UNL     1      23.701  -0.705 -23.102  1.00  0.00     0.029 C 
HETATM    4  C5  UNL     1      22.443   0.160 -22.965  1.00  0.00     0.177 C 
HETATM    5  O1  UNL     1      22.935   1.392 -23.409  1.00  0.00    -0.360 OA
HETATM    6  C6  UNL     1      24.151   1.583 -22.769  1.00  0.00     0.270 C 
HETATM    7  C7  UNL     1      24.761   0.208 -22.635  1.00  0.00     0.109 C 
HETATM    8  S1  UNL     1      24.895  -0.272 -20.866  1.00  0.00    -0.149 SA
ENDROOT
BRANCH   1   9
HETATM    9  C1  UNL     1      23.763  -2.606 -19.984  1.00  0.00     0.068 C 
HETATM   10  N1  UNL     1      22.593  -2.233 -19.622  1.00  0.00    -0.410 N 
ATOM     11  H12 UNL     1      22.127  -1.504 -20.163  1.00  0.00     0.155 HD
ATOM     12  H11 UNL     1      22.133  -2.650 -18.814  1.00  0.00     0.155 HD
ENDBRANCH   1   9
BRANCH   6  13
HETATM   13  O2  UNL     1      25.037   2.342 -23.552  1.00  0.00    -0.370 OA
ATOM     14  H2  UNL     1      25.936   2.245 -23.260  1.00  0.00     0.212 HD
ENDBRANCH   6  13
TORSDOF 2
ENDMDL
MODEL 5
REMARK VINA RESULT: -4.199167428      3.344      4.105
REMARK  2 active torsions:
REMARK  status: ('A' for Active; 'I' for Inactive)
REMARK    1  A    between atoms: C1_4  and  C2_5 
REMARK    2  A    between atoms: C6_10  and  O2_11 
ROOT
HETATM    1  C2  UNL     1      23.433  -1.789 -21.184  1.00  0.00     0.086 C 
HETATM    2  C3  UNL     1      23.098  -1.290 -22.515  1.00  0.00     0.028 C 
HETATM    3  C4  UNL     1      23.901  -0.175 -22.972  1.00  0.00     0.029 C 
HETATM    4  C5  UNL     1      23.187   1.180 -22.924  1.00  0.00     0.177 C 
HETATM    5  O1  UNL     1      24.280   2.046 -23.037  1.00  0.00    -0.360 OA
HETATM    6  C6  UNL     1      25.243   1.580 -22.153  1.00  0.00     0.270 C 
HETATM    7  C7  UNL     1      25.103   0.076 -22.154  1.00  0.00     0.109 C 
HETATM    8  S1  UNL     1      24.550  -0.525 -20.508  1.00  0.00    -0.149 SA
ENDROOT
BRANCH   1   9
HETATM    9  C1  UNL     1      22.298  -2.070 -20.293  1.00  0.00     0.068 C 
HETATM   10  N1  UNL     1      21.129  -1.611 -20.546  1.00  0.00    -0.410 N 
ATOM     11  H12 UNL     1      21.001  -1.042 -21.383  1.00  0.00     0.155 HD
ATOM     12  H11 UNL     1      20.341  -1.806 -19.928  1.00  0.00     0.155 HD
ENDBRANCH   1   9
BRANCH   6  13
HETATM   13  O2  UNL     1      26.543   1.864 -22.603  1.00  0.00    -0.370 OA
ATOM     14  H2  UNL     1      26.967   2.519 -22.061  1.00  0.00     0.212 HD
ENDBRANCH   6  13
TORSDOF 2
ENDMDL
