MODEL 1
REMARK VINA RESULT: -4.626865013      0.000      0.000
REMARK  2 active torsions:
REMARK  status: ('A' for Active; 'I' for Inactive)
REMARK    1  A    between atoms: C5_7  and  C7_9 
REMARK    2  A    between atoms: C7_9  and  O3_10 
ROOT
HETATM    1  C1  UNL     1      21.266  -0.170 -23.392  1.00  0.00     0.048 C 
HETATM    2  C2  UNL     1      22.610  -0.856 -23.103  1.00  0.00     0.082 C 
HETATM    3  C3  UNL     1      22.760  -1.869 -24.249  1.00  0.00     0.048 C 
HETATM    4  C4  UNL     1      22.471  -1.564 -21.804  1.00  0.00     0.247 C 
HETATM    5  O1  UNL     1      23.353  -1.192 -20.829  1.00  0.00    -0.235 OA
HETATM    6  O2  UNL     1      23.891  -0.032 -20.977  1.00  0.00    -0.199 OA
HETATM    7  C5  UNL     1      24.556   0.009 -22.182  1.00  0.00     0.215 C 
HETATM    8  C6  UNL     1      25.571  -1.118 -22.255  1.00  0.00     0.084 C 
HETATM    9  O4  UNL     1      23.657   0.008 -23.206  1.00  0.00    -0.339 OA
ENDROOT
BRANCH   7  10
HETATM   10  C7  UNL     1      25.370   1.305 -22.291  1.00  0.00     0.235 C 
BRANCH  10  11
HETATM   11  O3  UNL     1      24.981   2.044 -23.387  1.00  0.00    -0.395 OA
ATOM     12  H3  UNL     1      24.070   2.304 -23.317  1.00  0.00     0.209 HD
ENDBRANCH  10  11
ENDBRANCH   7  10
TORSDOF 2
ENDMDL
MODEL 2
REMARK VINA RESULT: -4.495108074      1.856      2.923
REMARK  2 active torsions:
REMARK  status: ('A' for Active; 'I' for Inactive)
REMARK    1  A    between atoms: C5_7  and  C7_9 
REMARK    2  A    between atoms: C7_9  and  O3_10 
ROOT
HETATM    1  C1  UNL     1      24.824  -1.914 -19.021  1.00  0.00     0.048 C 
HETATM    2  C2  UNL     1      24.125  -1.615 -20.356  1.00  0.00     0.082 C 
HETATM    3  C3  UNL     1      22.640  -1.881 -20.062  1.00  0.00     0.048 C 
HETATM    4  C4  UNL     1      24.637  -2.597 -21.348  1.00  0.00     0.247 C 
HETATM    5  O1  UNL     1      25.240  -2.062 -22.453  1.00  0.00    -0.235 OA
HETATM    6  O2  UNL     1      25.673  -0.857 -22.323  1.00  0.00    -0.199 OA
HETATM    7  C5  UNL     1      24.625  -0.033 -21.978  1.00  0.00     0.215 C 
HETATM    8  C6  UNL     1      23.514  -0.146 -23.007  1.00  0.00     0.084 C 
HETATM    9  O4  UNL     1      24.226  -0.303 -20.704  1.00  0.00    -0.339 OA
ENDROOT
BRANCH   7  10
HETATM   10  C7  UNL     1      25.074   1.434 -22.015  1.00  0.00     0.235 C 
BRANCH  10  11
HETATM   11  O3  UNL     1      24.959   1.955 -23.285  1.00  0.00    -0.395 OA
ATOM     12  H3  UNL     1      24.518   2.796 -23.271  1.00  0.00     0.209 HD
ENDBRANCH  10  11
ENDBRANCH   7  10
TORSDOF 2
ENDMDL
MODEL 3
REMARK VINA RESULT: -4.306164493      1.571      3.588
REMARK  2 active torsions:
REMARK  status: ('A' for Active; 'I' for Inactive)
REMARK    1  A    between atoms: C5_7  and  C7_9 
REMARK    2  A    between atoms: C7_9  and  O3_10 
ROOT
HETATM    1  C1  UNL     1      24.442  -0.812 -20.038  1.00  0.00     0.048 C 
HETATM    2  C2  UNL     1      24.308  -1.218 -21.514  1.00  0.00     0.082 C 
HETATM    3  C3  UNL     1      24.965  -2.605 -21.576  1.00  0.00     0.048 C 
HETATM    4  C4  UNL     1      25.093  -0.240 -22.311  1.00  0.00     0.247 C 
HETATM    5  O1  UNL     1      24.391   0.452 -23.259  1.00  0.00    -0.235 OA
HETATM    6  O2  UNL     1      23.117   0.507 -23.079  1.00  0.00    -0.199 OA
HETATM    7  C5  UNL     1      22.610  -0.772 -23.032  1.00  0.00     0.215 C 
HETATM    8  C6  UNL     1      22.990  -1.529 -24.292  1.00  0.00     0.084 C 
HETATM    9  O4  UNL     1      23.008  -1.385 -21.881  1.00  0.00    -0.339 OA
ENDROOT
BRANCH   7  10
HETATM   10  C7  UNL     1      21.076  -0.731 -23.021  1.00  0.00     0.235 C 
BRANCH  10  11
HETATM   11  O3  UNL     1      20.547  -1.805 -23.704  1.00  0.00    -0.395 OA
ATOM     12  H3  UNL     1      19.617  -1.687 -23.856  1.00  0.00     0.209 HD
ENDBRANCH  10  11
ENDBRANCH   7  10
TORSDOF 2
ENDMDL
MODEL 4
REMARK VINA RESULT: -4.138206665      1.290      2.646
REMARK  2 active torsions:
REMARK  status: ('A' for Active; 'I' for Inactive)
REMARK    1  A    between atoms: C5_7  and  C7_9 
REMARK    2  A    between atoms: C7_9  and  O3_10 
ROOT
HETATM    1  C1  UNL     1      24.472  -2.300 -20.852  1.00  0.00     0.048 C 
HETATM    2  C2  UNL     1      23.511  -1.342 -21.571  1.00  0.00     0.082 C 
HETATM    3  C3  UNL     1      22.225  -1.412 -20.733  1.00  0.00     0.048 C 
HETATM    4  C4  UNL     1      23.271  -1.897 -22.929  1.00  0.00     0.247 C 
HETATM    5  O1  UNL     1      23.606  -1.078 -23.971  1.00  0.00    -0.235 OA
HETATM    6  O2  UNL     1      24.452  -0.147 -23.699  1.00  0.00    -0.199 OA
HETATM    7  C5  UNL     1      23.948   0.643 -22.691  1.00  0.00     0.215 C 
HETATM    8  C6  UNL     1      22.588   1.189 -23.088  1.00  0.00     0.084 C 
HETATM    9  O4  UNL     1      23.942  -0.052 -21.519  1.00  0.00    -0.339 OA
ENDROOT
BRANCH   7  10
HETATM   10  C7  UNL     1      24.843   1.873 -22.488  1.00  0.00     0.235 C 
BRANCH  10  11
HETATM   11  O3  UNL     1      25.113   2.493 -23.688  1.00  0.00    -0.395 OA
ATOM     12  H3  UNL     1      24.550   3.247 -23.818  1.00  0.00     0.209 HD
ENDBRANCH  10  11
ENDBRANCH   7  10
TORSDOF 2
ENDMDL
MODEL 5
REMARK VINA RESULT: -4.047692648      1.453      3.312
REMARK  2 active torsions:
REMARK  status: ('A' for Active; 'I' for Inactive)
REMARK    1  A    between atoms: C5_7  and  C7_9 
REMARK    2  A    between atoms: C7_9  and  O3_10 
ROOT
HETATM    1  C1  UNL     1      24.425  -0.503 -20.004  1.00  0.00     0.048 C 
HETATM    2  C2  UNL     1      24.176  -1.251 -21.323  1.00  0.00     0.082 C 
HETATM    3  C3  UNL     1      24.326  -2.732 -20.940  1.00  0.00     0.048 C 
HETATM    4  C4  UNL     1      25.255  -0.851 -22.264  1.00  0.00     0.247 C 
HETATM    5  O1  UNL     1      24.838  -0.275 -23.432  1.00  0.00    -0.235 OA
HETATM    6  O2  UNL     1      23.656   0.236 -23.410  1.00  0.00    -0.199 OA
HETATM    7  C5  UNL     1      22.746  -0.741 -23.077  1.00  0.00     0.215 C 
HETATM    8  C6  UNL     1      22.859  -1.909 -24.041  1.00  0.00     0.084 C 
HETATM    9  O4  UNL     1      22.901  -1.090 -21.769  1.00  0.00    -0.339 OA
ENDROOT
BRANCH   7  10
HETATM   10  C7  UNL     1      21.316  -0.208 -23.241  1.00  0.00     0.235 C 
BRANCH  10  11
HETATM   11  O3  UNL     1      21.285   0.868 -24.102  1.00  0.00    -0.395 OA
ATOM     12  H3  UNL     1      20.770   1.580 -23.740  1.00  0.00     0.209 HD
ENDBRANCH  10  11
ENDBRANCH   7  10
TORSDOF 2
ENDMDL
