MODEL 1
REMARK VINA RESULT: -4.613980479      0.000      0.000
REMARK  2 active torsions:
REMARK  status: ('A' for Active; 'I' for Inactive)
REMARK    1  A    between atoms: C2_2  and  C3_3 
REMARK    2  A    between atoms: C3_3  and  O1_4 
ROOT
HETATM    1  C1  UNL     1      23.358  -1.657 -23.819  1.00  0.00     0.054 C 
HETATM    2  C2  UNL     1      23.742  -0.975 -22.549  1.00  0.00     0.135 C 
HETATM    3  C4  UNL     1      24.944  -1.719 -21.970  1.00  0.00     0.214 C 
HETATM    4  O2  UNL     1      24.390  -2.730 -21.151  1.00  0.00    -0.350 OA
HETATM    5  C5  UNL     1      23.895  -2.078 -20.022  1.00  0.00     0.189 C 
HETATM    6  C6  UNL     1      25.034  -1.942 -19.048  1.00  0.00     0.081 C 
HETATM    7  C7  UNL     1      22.754  -2.842 -19.376  1.00  0.00     0.081 C 
HETATM    8  O3  UNL     1      23.376  -0.842 -20.411  1.00  0.00    -0.201 OA
HETATM    9  O4  UNL     1      22.746  -1.041 -21.574  1.00  0.00    -0.223 OA
ENDROOT
BRANCH   2  10
HETATM   10  C3  UNL     1      24.086   0.472 -22.820  1.00  0.00     0.207 C 
BRANCH  10  11
HETATM   11  O1  UNL     1      25.343   0.806 -22.332  1.00  0.00    -0.398 OA
ATOM     12  H1  UNL     1      25.332   1.630 -21.858  1.00  0.00     0.209 HD
ENDBRANCH  10  11
ENDBRANCH   2  10
TORSDOF 2
ENDMDL
MODEL 2
REMARK VINA RESULT: -4.472567853      1.200      2.317
REMARK  2 active torsions:
REMARK  status: ('A' for Active; 'I' for Inactive)
REMARK    1  A    between atoms: C2_2  and  C3_3 
REMARK    2  A    between atoms: C3_3  and  O1_4 
ROOT
HETATM    1  C1  UNL     1      23.997   0.347 -22.810  1.00  0.00     0.054 C 
HETATM    2  C2  UNL     1      23.783  -1.077 -22.421  1.00  0.00     0.135 C 
HETATM    3  C4  UNL     1      22.618  -1.117 -21.434  1.00  0.00     0.214 C 
HETATM    4  O2  UNL     1      23.210  -0.956 -20.160  1.00  0.00    -0.350 OA
HETATM    5  C5  UNL     1      23.852  -2.161 -19.882  1.00  0.00     0.189 C 
HETATM    6  C6  UNL     1      22.832  -3.081 -19.268  1.00  0.00     0.081 C 
HETATM    7  C7  UNL     1      25.020  -1.979 -18.930  1.00  0.00     0.081 C 
HETATM    8  O3  UNL     1      24.382  -2.670 -21.069  1.00  0.00    -0.201 OA
HETATM    9  O4  UNL     1      24.874  -1.627 -21.746  1.00  0.00    -0.223 OA
ENDROOT
BRANCH   2  10
HETATM   10  C3  UNL     1      23.478  -1.910 -23.646  1.00  0.00     0.207 C 
BRANCH  10  11
HETATM   11  O1  UNL     1      23.526  -1.157 -24.811  1.00  0.00    -0.398 OA
ATOM     12  H1  UNL     1      24.259  -1.403 -25.363  1.00  0.00     0.209 HD
ENDBRANCH  10  11
ENDBRANCH   2  10
TORSDOF 2
ENDMDL
MODEL 3
REMARK VINA RESULT: -4.434243611      1.864      2.783
REMARK  2 active torsions:
REMARK  status: ('A' for Active; 'I' for Inactive)
REMARK    1  A    between atoms: C2_2  and  C3_3 
REMARK    2  A    between atoms: C3_3  and  O1_4 
ROOT
HETATM    1  C1  UNL     1      21.669   0.271 -23.496  1.00  0.00     0.054 C 
HETATM    2  C2  UNL     1      22.311  -1.015 -23.102  1.00  0.00     0.135 C 
HETATM    3  C4  UNL     1      21.830  -1.360 -21.693  1.00  0.00     0.214 C 
HETATM    4  O2  UNL     1      22.759  -0.739 -20.826  1.00  0.00    -0.350 OA
HETATM    5  C5  UNL     1      23.928  -1.494 -20.914  1.00  0.00     0.189 C 
HETATM    6  C6  UNL     1      23.803  -2.629 -19.934  1.00  0.00     0.081 C 
HETATM    7  C7  UNL     1      25.164  -0.673 -20.596  1.00  0.00     0.081 C 
HETATM    8  O3  UNL     1      24.074  -1.940 -22.229  1.00  0.00    -0.201 OA
HETATM    9  O4  UNL     1      23.702  -0.928 -23.019  1.00  0.00    -0.223 OA
ENDROOT
BRANCH   2  10
HETATM   10  C3  UNL     1      21.933  -2.106 -24.079  1.00  0.00     0.207 C 
BRANCH  10  11
HETATM   11  O1  UNL     1      23.004  -2.479 -24.881  1.00  0.00    -0.398 OA
ATOM     12  H1  UNL     1      22.776  -2.468 -25.804  1.00  0.00     0.209 HD
ENDBRANCH  10  11
ENDBRANCH   2  10
TORSDOF 2
ENDMDL
MODEL 4
REMARK VINA RESULT: -4.310154979      1.882      3.234
REMARK  2 active torsions:
REMARK  status: ('A' for Active; 'I' for Inactive)
REMARK    1  A    between atoms: C2_2  and  C3_3 
REMARK    2  A    between atoms: C3_3  and  O1_4 
ROOT
HETATM    1  C1  UNL     1      21.239  -0.823 -22.150  1.00  0.00     0.054 C 
HETATM    2  C2  UNL     1      22.570  -0.946 -22.811  1.00  0.00     0.135 C 
HETATM    3  C4  UNL     1      23.559  -1.460 -21.766  1.00  0.00     0.214 C 
HETATM    4  O2  UNL     1      24.078  -0.298 -21.149  1.00  0.00    -0.350 OA
HETATM    5  C5  UNL     1      24.935   0.281 -22.083  1.00  0.00     0.189 C 
HETATM    6  C6  UNL     1      26.279  -0.377 -21.926  1.00  0.00     0.081 C 
HETATM    7  C7  UNL     1      25.069   1.779 -21.883  1.00  0.00     0.081 C 
HETATM    8  O3  UNL     1      24.397   0.096 -23.358  1.00  0.00    -0.201 OA
HETATM    9  O4  UNL     1      23.078   0.279 -23.246  1.00  0.00    -0.223 OA
ENDROOT
BRANCH   2  10
HETATM   10  C3  UNL     1      22.483  -1.899 -23.981  1.00  0.00     0.207 C 
BRANCH  10  11
HETATM   11  O1  UNL     1      23.357  -1.550 -25.002  1.00  0.00    -0.398 OA
ATOM     12  H1  UNL     1      23.160  -0.692 -25.360  1.00  0.00     0.209 HD
ENDBRANCH  10  11
ENDBRANCH   2  10
TORSDOF 2
ENDMDL
MODEL 5
REMARK VINA RESULT: -4.247809521      1.727      2.218
REMARK  2 active torsions:
REMARK  status: ('A' for Active; 'I' for Inactive)
REMARK    1  A    between atoms: C2_2  and  C3_3 
REMARK    2  A    between atoms: C3_3  and  O1_4 
ROOT
HETATM    1  C1  UNL     1      20.934  -1.892 -23.697  1.00  0.00     0.054 C 
HETATM    2  C2  UNL     1      21.897  -0.908 -23.127  1.00  0.00     0.135 C 
HETATM    3  C4  UNL     1      23.275  -1.216 -23.711  1.00  0.00     0.214 C 
HETATM    4  O2  UNL     1      23.850  -2.153 -22.822  1.00  0.00    -0.350 OA
HETATM    5  C5  UNL     1      24.188  -1.435 -21.676  1.00  0.00     0.189 C 
HETATM    6  C6  UNL     1      25.553  -0.844 -21.904  1.00  0.00     0.081 C 
HETATM    7  C7  UNL     1      24.206  -2.311 -20.437  1.00  0.00     0.081 C 
HETATM    8  O3  UNL     1      23.215  -0.457 -21.458  1.00  0.00    -0.201 OA
HETATM    9  O4  UNL     1      22.037  -1.021 -21.743  1.00  0.00    -0.223 OA
ENDROOT
BRANCH   2  10
HETATM   10  C3  UNL     1      21.470   0.500 -23.476  1.00  0.00     0.207 C 
BRANCH  10  11
HETATM   11  O1  UNL     1      22.541   1.383 -23.474  1.00  0.00    -0.398 OA
ATOM     12  H1  UNL     1      23.255   1.077 -24.020  1.00  0.00     0.209 HD
ENDBRANCH  10  11
ENDBRANCH   2  10
TORSDOF 2
ENDMDL
