MODEL 1
REMARK VINA RESULT: -4.657360735      0.000      0.000
REMARK  3 active torsions:
REMARK  status: ('A' for Active; 'I' for Inactive)
REMARK    1  A    between atoms: C2_2  and  N1_4 
REMARK    2  A    between atoms: C4_6  and  O1_8 
REMARK    3  A    between atoms: O1_8  and  C5_9 
ROOT
HETATM    1  C5  UNL     1      25.140   1.437 -22.267  1.00  0.00     0.301 C 
HETATM    2  C6  UNL     1      25.040   2.892 -22.284  1.00  0.00     0.085 C 
HETATM    3  N2  UNL     1      24.949   4.042 -22.286  1.00  0.00    -0.195 NA
ENDROOT
BRANCH   1   4
HETATM    4  O1  UNL     1      24.178   0.803 -23.049  1.00  0.00    -0.316 OA
BRANCH   4   5
HETATM    5  C4  UNL     1      23.628  -0.403 -22.625  1.00  0.00     0.190 C 
HETATM    6  N1  UNL     1      23.754  -0.682 -21.371  1.00  0.00    -0.361 N 
ATOM      7  H1  UNL     1      24.233  -0.046 -20.733  1.00  0.00     0.162 HD
HETATM    8  S1  UNL     1      22.792  -1.506 -23.766  1.00  0.00    -0.005 SA
BRANCH   6   9
HETATM    9  C2  UNL     1      23.191  -1.929 -20.902  1.00  0.00     0.076 C 
HETATM   10  C1  UNL     1      21.862  -1.590 -20.226  1.00  0.00     0.032 C 
HETATM   11  C3  UNL     1      24.095  -2.601 -19.916  1.00  0.00     0.032 C 
ENDBRANCH   6   9
ENDBRANCH   4   5
ENDBRANCH   1   4
TORSDOF 3
ENDMDL
MODEL 2
REMARK VINA RESULT: -4.153001841      2.598      4.588
REMARK  3 active torsions:
REMARK  status: ('A' for Active; 'I' for Inactive)
REMARK    1  A    between atoms: C2_2  and  N1_4 
REMARK    2  A    between atoms: C4_6  and  O1_8 
REMARK    3  A    between atoms: O1_8  and  C5_9 
ROOT
HETATM    1  C5  UNL     1      23.079  -1.389 -23.506  1.00  0.00     0.301 C 
HETATM    2  C6  UNL     1      21.719  -0.863 -23.507  1.00  0.00     0.085 C 
HETATM    3  N2  UNL     1      20.643  -0.448 -23.525  1.00  0.00    -0.195 NA
ENDROOT
BRANCH   1   4
HETATM    4  O1  UNL     1      24.048  -0.430 -23.787  1.00  0.00    -0.316 OA
BRANCH   4   5
HETATM    5  C4  UNL     1      24.591   0.328 -22.754  1.00  0.00     0.190 C 
HETATM    6  N1  UNL     1      24.967   1.525 -23.055  1.00  0.00    -0.361 N 
ATOM      7  H1  UNL     1      24.868   1.887 -24.003  1.00  0.00     0.162 HD
HETATM    8  S1  UNL     1      24.756  -0.333 -21.093  1.00  0.00    -0.005 SA
BRANCH   6   9
HETATM    9  C2  UNL     1      25.535   2.335 -22.000  1.00  0.00     0.076 C 
HETATM   10  C1  UNL     1      24.731   3.635 -21.957  1.00  0.00     0.032 C 
HETATM   11  C3  UNL     1      26.975   2.646 -22.264  1.00  0.00     0.032 C 
ENDBRANCH   6   9
ENDBRANCH   4   5
ENDBRANCH   1   4
TORSDOF 3
ENDMDL
MODEL 3
REMARK VINA RESULT: -4.042935153      2.142      2.645
REMARK  3 active torsions:
REMARK  status: ('A' for Active; 'I' for Inactive)
REMARK    1  A    between atoms: C2_2  and  N1_4 
REMARK    2  A    between atoms: C4_6  and  O1_8 
REMARK    3  A    between atoms: O1_8  and  C5_9 
ROOT
HETATM    1  C5  UNL     1      25.080   2.069 -22.410  1.00  0.00     0.301 C 
HETATM    2  C6  UNL     1      25.466   3.104 -21.457  1.00  0.00     0.085 C 
HETATM    3  N2  UNL     1      25.786   3.922 -20.709  1.00  0.00    -0.195 NA
ENDROOT
BRANCH   1   4
HETATM    4  O1  UNL     1      25.334   0.776 -21.960  1.00  0.00    -0.316 OA
BRANCH   4   5
HETATM    5  C4  UNL     1      24.330  -0.186 -22.019  1.00  0.00     0.190 C 
HETATM    6  N1  UNL     1      23.455  -0.046 -22.958  1.00  0.00    -0.361 N 
ATOM      7  H1  UNL     1      23.506   0.731 -23.616  1.00  0.00     0.162 HD
HETATM    8  S1  UNL     1      24.260  -1.543 -20.847  1.00  0.00    -0.005 SA
BRANCH   6   9
HETATM    9  C2  UNL     1      22.400  -1.032 -23.042  1.00  0.00     0.076 C 
HETATM   10  C1  UNL     1      22.776  -1.989 -24.173  1.00  0.00     0.032 C 
HETATM   11  C3  UNL     1      21.080  -0.394 -23.346  1.00  0.00     0.032 C 
ENDBRANCH   6   9
ENDBRANCH   4   5
ENDBRANCH   1   4
TORSDOF 3
ENDMDL
MODEL 4
REMARK VINA RESULT: -3.752873732      2.824      3.473
REMARK  3 active torsions:
REMARK  status: ('A' for Active; 'I' for Inactive)
REMARK    1  A    between atoms: C2_2  and  N1_4 
REMARK    2  A    between atoms: C4_6  and  O1_8 
REMARK    3  A    between atoms: O1_8  and  C5_9 
ROOT
HETATM    1  C5  UNL     1      22.792  -1.532 -24.203  1.00  0.00     0.301 C 
HETATM    2  C6  UNL     1      21.543  -0.897 -23.798  1.00  0.00     0.085 C 
HETATM    3  N2  UNL     1      20.557  -0.384 -23.489  1.00  0.00    -0.195 NA
ENDROOT
BRANCH   1   4
HETATM    4  O1  UNL     1      23.925  -0.927 -23.665  1.00  0.00    -0.316 OA
BRANCH   4   5
HETATM    5  C4  UNL     1      24.080  -0.854 -22.284  1.00  0.00     0.190 C 
HETATM    6  N1  UNL     1      23.588  -1.831 -21.599  1.00  0.00    -0.361 N 
ATOM      7  H1  UNL     1      23.112  -2.610 -22.054  1.00  0.00     0.162 HD
HETATM    8  S1  UNL     1      24.919   0.527 -21.506  1.00  0.00    -0.005 SA
BRANCH   6   9
HETATM    9  C2  UNL     1      23.735  -1.782 -20.161  1.00  0.00     0.076 C 
HETATM   10  C1  UNL     1      24.730  -2.879 -19.779  1.00  0.00     0.032 C 
HETATM   11  C3  UNL     1      22.431  -2.028 -19.469  1.00  0.00     0.032 C 
ENDBRANCH   6   9
ENDBRANCH   4   5
ENDBRANCH   1   4
TORSDOF 3
ENDMDL
MODEL 5
REMARK VINA RESULT: -3.746750522      1.702      2.028
REMARK  3 active torsions:
REMARK  status: ('A' for Active; 'I' for Inactive)
REMARK    1  A    between atoms: C2_2  and  N1_4 
REMARK    2  A    between atoms: C4_6  and  O1_8 
REMARK    3  A    between atoms: O1_8  and  C5_9 
ROOT
HETATM    1  C5  UNL     1      24.752   2.188 -22.614  1.00  0.00     0.301 C 
HETATM    2  C6  UNL     1      25.178   3.257 -21.718  1.00  0.00     0.085 C 
HETATM    3  N2  UNL     1      25.529   4.103 -21.017  1.00  0.00    -0.195 NA
ENDROOT
BRANCH   1   4
HETATM    4  O1  UNL     1      25.246   0.935 -22.261  1.00  0.00    -0.316 OA
BRANCH   4   5
HETATM    5  C4  UNL     1      24.401  -0.170 -22.276  1.00  0.00     0.190 C 
HETATM    6  N1  UNL     1      23.145   0.070 -22.451  1.00  0.00    -0.361 N 
ATOM      7  H1  UNL     1      22.800   1.022 -22.572  1.00  0.00     0.162 HD
HETATM    8  S1  UNL     1      25.031  -1.836 -22.059  1.00  0.00    -0.005 SA
BRANCH   6   9
HETATM    9  C2  UNL     1      22.243  -1.060 -22.471  1.00  0.00     0.076 C 
HETATM   10  C1  UNL     1      21.141  -0.732 -23.478  1.00  0.00     0.032 C 
HETATM   11  C3  UNL     1      21.634  -1.298 -21.124  1.00  0.00     0.032 C 
ENDBRANCH   6   9
ENDBRANCH   4   5
ENDBRANCH   1   4
TORSDOF 3
ENDMDL
