MODEL 1
REMARK VINA RESULT: -5.808203156      0.000      0.000
REMARK  1 active torsions:
REMARK  status: ('A' for Active; 'I' for Inactive)
REMARK    1  A    between atoms: O1_1  and  N1_3 
ROOT
HETATM    1  N1  UNL     1      22.984  -1.094 -24.088  1.00  0.00    -0.174 NA
HETATM    2  C1  UNL     1      21.673  -0.803 -23.627  1.00  0.00     0.149 C 
HETATM    3  C2  UNL     1      21.440  -1.029 -22.171  1.00  0.00     0.188 C 
HETATM    4  O2  UNL     1      22.413  -0.505 -21.348  1.00  0.00    -0.354 OA
HETATM    5  C3  UNL     1      23.288  -1.495 -21.000  1.00  0.00     0.165 C 
HETATM    6  C4  UNL     1      22.904  -2.374 -19.839  1.00  0.00     0.069 C 
HETATM    7  C5  UNL     1      24.403  -2.447 -19.519  1.00  0.00     0.011 C 
HETATM    8  C6  UNL     1      24.504  -1.074 -20.202  1.00  0.00     0.069 C 
HETATM    9  O3  UNL     1      23.691  -2.159 -22.150  1.00  0.00    -0.339 OA
HETATM   10  C7  UNL     1      23.997  -1.149 -23.091  1.00  0.00     0.291 C 
ENDROOT
BRANCH   1  11
HETATM   11  O1  UNL     1      23.075  -2.177 -24.881  1.00  0.00    -0.311 OA
ATOM     12  H1  UNL     1      23.665  -2.081 -25.620  1.00  0.00     0.237 HD
ENDBRANCH   1  11
TORSDOF 1
ENDMDL
MODEL 2
REMARK VINA RESULT: -4.770693134      2.138      4.013
REMARK  1 active torsions:
REMARK  status: ('A' for Active; 'I' for Inactive)
REMARK    1  A    between atoms: O1_1  and  N1_3 
ROOT
HETATM    1  N1  UNL     1      22.915  -2.199 -19.288  1.00  0.00    -0.174 NA
HETATM    2  C1  UNL     1      24.259  -2.175 -19.744  1.00  0.00     0.149 C 
HETATM    3  C2  UNL     1      24.442  -1.820 -21.182  1.00  0.00     0.188 C 
HETATM    4  O2  UNL     1      23.730  -0.715 -21.594  1.00  0.00    -0.354 OA
HETATM    5  C3  UNL     1      22.580  -1.124 -22.208  1.00  0.00     0.165 C 
HETATM    6  C4  UNL     1      22.674  -1.497 -23.664  1.00  0.00     0.069 C 
HETATM    7  C5  UNL     1      21.249  -0.942 -23.801  1.00  0.00     0.011 C 
HETATM    8  C6  UNL     1      21.603  -0.039 -22.610  1.00  0.00     0.069 C 
HETATM    9  O3  UNL     1      21.943  -2.047 -21.391  1.00  0.00    -0.339 OA
HETATM   10  C7  UNL     1      21.973  -1.496 -20.089  1.00  0.00     0.291 C 
ENDROOT
BRANCH   1  11
HETATM   11  O1  UNL     1      22.438  -3.423 -19.003  1.00  0.00    -0.311 OA
ATOM     12  H1  UNL     1      22.976  -3.932 -18.408  1.00  0.00     0.237 HD
ENDBRANCH   1  11
TORSDOF 1
ENDMDL
MODEL 3
REMARK VINA RESULT: -4.657373522      1.592      1.884
REMARK  1 active torsions:
REMARK  status: ('A' for Active; 'I' for Inactive)
REMARK    1  A    between atoms: O1_1  and  N1_3 
ROOT
HETATM    1  N1  UNL     1      24.393  -0.845 -23.573  1.00  0.00    -0.174 NA
HETATM    2  C1  UNL     1      24.535   0.409 -22.922  1.00  0.00     0.149 C 
HETATM    3  C2  UNL     1      24.154   0.430 -21.480  1.00  0.00     0.188 C 
HETATM    4  O2  UNL     1      24.673  -0.607 -20.736  1.00  0.00    -0.354 OA
HETATM    5  C3  UNL     1      23.728  -1.585 -20.606  1.00  0.00     0.165 C 
HETATM    6  C4  UNL     1      22.715  -1.418 -19.504  1.00  0.00     0.069 C 
HETATM    7  C5  UNL     1      22.732  -2.948 -19.386  1.00  0.00     0.011 C 
HETATM    8  C6  UNL     1      24.167  -2.865 -19.928  1.00  0.00     0.069 C 
HETATM    9  O3  UNL     1      23.210  -1.873 -21.860  1.00  0.00    -0.339 OA
HETATM   10  C7  UNL     1      24.325  -1.983 -22.723  1.00  0.00     0.291 C 
ENDROOT
BRANCH   1  11
HETATM   11  O1  UNL     1      23.402  -0.901 -24.480  1.00  0.00    -0.311 OA
ATOM     12  H1  UNL     1      22.583  -0.511 -24.199  1.00  0.00     0.237 HD
ENDBRANCH   1  11
TORSDOF 1
ENDMDL
MODEL 4
REMARK VINA RESULT: -4.527438904      1.799      2.202
REMARK  1 active torsions:
REMARK  status: ('A' for Active; 'I' for Inactive)
REMARK    1  A    between atoms: O1_1  and  N1_3 
ROOT
HETATM    1  N1  UNL     1      21.430  -0.338 -24.053  1.00  0.00    -0.174 NA
HETATM    2  C1  UNL     1      21.880   0.990 -23.830  1.00  0.00     0.149 C 
HETATM    3  C2  UNL     1      22.996   1.134 -22.851  1.00  0.00     0.188 C 
HETATM    4  O2  UNL     1      24.039   0.253 -23.039  1.00  0.00    -0.354 OA
HETATM    5  C3  UNL     1      23.895  -0.803 -22.183  1.00  0.00     0.165 C 
HETATM    6  C4  UNL     1      24.415  -0.624 -20.780  1.00  0.00     0.069 C 
HETATM    7  C5  UNL     1      24.759  -2.119 -20.818  1.00  0.00     0.011 C 
HETATM    8  C6  UNL     1      24.882  -1.941 -22.340  1.00  0.00     0.069 C 
HETATM    9  O3  UNL     1      22.600  -1.288 -22.287  1.00  0.00    -0.339 OA
HETATM   10  C7  UNL     1      22.329  -1.372 -23.672  1.00  0.00     0.291 C 
ENDROOT
BRANCH   1  11
HETATM   11  O1  UNL     1      20.205  -0.607 -23.568  1.00  0.00    -0.311 OA
ATOM     12  H1  UNL     1      20.188  -0.891 -22.661  1.00  0.00     0.237 HD
ENDBRANCH   1  11
TORSDOF 1
ENDMDL
MODEL 5
REMARK VINA RESULT: -4.376653964      1.409      2.349
REMARK  1 active torsions:
REMARK  status: ('A' for Active; 'I' for Inactive)
REMARK    1  A    between atoms: O1_1  and  N1_3 
ROOT
HETATM    1  N1  UNL     1      22.992  -0.438 -23.297  1.00  0.00    -0.174 NA
HETATM    2  C1  UNL     1      24.402  -0.512 -23.450  1.00  0.00     0.149 C 
HETATM    3  C2  UNL     1      25.147  -1.039 -22.270  1.00  0.00     0.188 C 
HETATM    4  O2  UNL     1      24.618  -2.188 -21.725  1.00  0.00    -0.354 OA
HETATM    5  C3  UNL     1      23.847  -1.861 -20.645  1.00  0.00     0.165 C 
HETATM    6  C4  UNL     1      24.556  -1.668 -19.330  1.00  0.00     0.069 C 
HETATM    7  C5  UNL     1      23.291  -2.240 -18.674  1.00  0.00     0.011 C 
HETATM    8  C6  UNL     1      23.075  -2.990 -19.997  1.00  0.00     0.069 C 
HETATM    9  O3  UNL     1      22.974  -0.847 -21.012  1.00  0.00    -0.339 OA
HETATM   10  C7  UNL     1      22.435  -1.236 -22.261  1.00  0.00     0.291 C 
ENDROOT
BRANCH   1  11
HETATM   11  O1  UNL     1      22.499   0.811 -23.218  1.00  0.00    -0.311 OA
ATOM     12  H1  UNL     1      21.555   0.862 -23.123  1.00  0.00     0.237 HD
ENDBRANCH   1  11
TORSDOF 1
ENDMDL
