MODEL 1
REMARK VINA RESULT: -4.732677405      0.000      0.000
REMARK  2 active torsions:
REMARK  status: ('A' for Active; 'I' for Inactive)
REMARK    1  A    between atoms: C2_2  and  C3_4 
REMARK    2  A    between atoms: N1_7  and  O2_8 
ROOT
HETATM    1  C3  UNL     1      23.743  -0.827 -23.125  1.00  0.00     0.137 C 
HETATM    2  S1  UNL     1      24.713  -1.805 -21.901  1.00  0.00    -0.138 SA
HETATM    3  C4  UNL     1      23.348  -1.936 -20.674  1.00  0.00     0.195 C 
HETATM    4  N1  UNL     1      22.337  -1.082 -21.257  1.00  0.00    -0.185 NA
HETATM    5  C5  UNL     1      22.365  -1.267 -22.680  1.00  0.00     0.103 C 
HETATM    6  C6  UNL     1      21.262  -0.475 -23.291  1.00  0.00     0.030 C 
ENDROOT
BRANCH   1   7
HETATM    7  C2  UNL     1      23.985   0.583 -22.826  1.00  0.00     0.138 C 
HETATM    8  C1  UNL     1      25.140   1.001 -21.992  1.00  0.00     0.092 C 
HETATM    9  O1  UNL     1      23.245   1.454 -23.253  1.00  0.00    -0.297 OA
ENDBRANCH   1   7
BRANCH   4  10
HETATM   10  O2  UNL     1      21.113  -1.529 -20.829  1.00  0.00    -0.312 OA
ATOM     11  H2  UNL     1      21.223  -2.420 -20.517  1.00  0.00     0.237 HD
ENDBRANCH   4  10
TORSDOF 2
ENDMDL
MODEL 2
REMARK VINA RESULT: -4.630053169      1.861      3.586
REMARK  2 active torsions:
REMARK  status: ('A' for Active; 'I' for Inactive)
REMARK    1  A    between atoms: C2_2  and  C3_4 
REMARK    2  A    between atoms: N1_7  and  O2_8 
ROOT
HETATM    1  C3  UNL     1      23.331  -1.607 -22.522  1.00  0.00     0.137 C 
HETATM    2  S1  UNL     1      21.751  -1.268 -23.406  1.00  0.00    -0.138 SA
HETATM    3  C4  UNL     1      22.023   0.546 -23.544  1.00  0.00     0.195 C 
HETATM    4  N1  UNL     1      23.224   0.730 -22.758  1.00  0.00    -0.185 NA
HETATM    5  C5  UNL     1      24.090  -0.388 -23.001  1.00  0.00     0.103 C 
HETATM    6  C6  UNL     1      25.376  -0.168 -22.282  1.00  0.00     0.030 C 
ENDROOT
BRANCH   1   7
HETATM    7  C2  UNL     1      23.038  -1.536 -21.091  1.00  0.00     0.138 C 
HETATM    8  C1  UNL     1      21.640  -1.492 -20.598  1.00  0.00     0.092 C 
HETATM    9  O1  UNL     1      23.936  -1.512 -20.265  1.00  0.00    -0.297 OA
ENDBRANCH   1   7
BRANCH   4  10
HETATM   10  O2  UNL     1      23.873   1.838 -23.239  1.00  0.00    -0.312 OA
ATOM     11  H2  UNL     1      24.741   1.568 -23.516  1.00  0.00     0.237 HD
ENDBRANCH   4  10
TORSDOF 2
ENDMDL
MODEL 3
REMARK VINA RESULT: -4.539056231      1.869      3.093
REMARK  2 active torsions:
REMARK  status: ('A' for Active; 'I' for Inactive)
REMARK    1  A    between atoms: C2_2  and  C3_4 
REMARK    2  A    between atoms: N1_7  and  O2_8 
ROOT
HETATM    1  C3  UNL     1      22.835  -0.570 -21.200  1.00  0.00     0.137 C 
HETATM    2  S1  UNL     1      24.661  -0.813 -21.165  1.00  0.00    -0.138 SA
HETATM    3  C4  UNL     1      24.737  -1.729 -22.759  1.00  0.00     0.195 C 
HETATM    4  N1  UNL     1      23.336  -1.894 -23.078  1.00  0.00    -0.185 NA
HETATM    5  C5  UNL     1      22.649  -0.693 -22.697  1.00  0.00     0.103 C 
HETATM    6  C6  UNL     1      21.222  -0.801 -23.112  1.00  0.00     0.030 C 
ENDROOT
BRANCH   1   7
HETATM    7  C2  UNL     1      22.245  -1.701 -20.485  1.00  0.00     0.138 C 
HETATM    8  C1  UNL     1      23.081  -2.597 -19.648  1.00  0.00     0.092 C 
HETATM    9  O1  UNL     1      21.050  -1.938 -20.558  1.00  0.00    -0.297 OA
ENDBRANCH   1   7
BRANCH   4  10
HETATM   10  O2  UNL     1      23.225  -1.991 -24.441  1.00  0.00    -0.312 OA
ATOM     11  H2  UNL     1      22.519  -1.417 -24.717  1.00  0.00     0.237 HD
ENDBRANCH   4  10
TORSDOF 2
ENDMDL
MODEL 4
REMARK VINA RESULT: -4.509234448      1.579      3.449
REMARK  2 active torsions:
REMARK  status: ('A' for Active; 'I' for Inactive)
REMARK    1  A    between atoms: C2_2  and  C3_4 
REMARK    2  A    between atoms: N1_7  and  O2_8 
ROOT
HETATM    1  C3  UNL     1      23.271  -1.666 -22.582  1.00  0.00     0.137 C 
HETATM    2  S1  UNL     1      21.723  -1.319 -23.519  1.00  0.00    -0.138 SA
HETATM    3  C4  UNL     1      21.995   0.498 -23.620  1.00  0.00     0.195 C 
HETATM    4  N1  UNL     1      23.164   0.675 -22.788  1.00  0.00    -0.185 NA
HETATM    5  C5  UNL     1      24.043  -0.438 -23.015  1.00  0.00     0.103 C 
HETATM    6  C6  UNL     1      25.301  -0.225 -22.245  1.00  0.00     0.030 C 
ENDROOT
BRANCH   1   7
HETATM    7  C2  UNL     1      22.925  -1.617 -21.162  1.00  0.00     0.138 C 
HETATM    8  C1  UNL     1      23.917  -1.982 -20.121  1.00  0.00     0.092 C 
HETATM    9  O1  UNL     1      21.813  -1.275 -20.796  1.00  0.00    -0.297 OA
ENDBRANCH   1   7
BRANCH   4  10
HETATM   10  O2  UNL     1      23.828   1.791 -23.228  1.00  0.00    -0.312 OA
ATOM     11  H2  UNL     1      24.693   1.788 -22.836  1.00  0.00     0.237 HD
ENDBRANCH   4  10
TORSDOF 2
ENDMDL
MODEL 5
REMARK VINA RESULT: -4.308748037      2.094      2.956
REMARK  2 active torsions:
REMARK  status: ('A' for Active; 'I' for Inactive)
REMARK    1  A    between atoms: C2_2  and  C3_4 
REMARK    2  A    between atoms: N1_7  and  O2_8 
ROOT
HETATM    1  C3  UNL     1      23.661  -0.661 -21.226  1.00  0.00     0.137 C 
HETATM    2  S1  UNL     1      24.209   0.030 -22.843  1.00  0.00    -0.138 SA
HETATM    3  C4  UNL     1      22.802  -0.663 -23.805  1.00  0.00     0.195 C 
HETATM    4  N1  UNL     1      22.140  -1.488 -22.818  1.00  0.00    -0.185 NA
HETATM    5  C5  UNL     1      22.191  -0.800 -21.559  1.00  0.00     0.103 C 
HETATM    6  C6  UNL     1      21.424  -1.584 -20.550  1.00  0.00     0.030 C 
ENDROOT
BRANCH   1   7
HETATM    7  C2  UNL     1      24.310  -1.964 -21.081  1.00  0.00     0.138 C 
HETATM    8  C1  UNL     1      24.187  -2.744 -19.826  1.00  0.00     0.092 C 
HETATM    9  O1  UNL     1      24.970  -2.443 -21.989  1.00  0.00    -0.297 OA
ENDBRANCH   1   7
BRANCH   4  10
HETATM   10  O2  UNL     1      20.816  -1.572 -23.163  1.00  0.00    -0.312 OA
ATOM     11  H2  UNL     1      20.768  -1.719 -24.100  1.00  0.00     0.237 HD
ENDBRANCH   4  10
TORSDOF 2
ENDMDL
