MODEL 1
REMARK VINA RESULT: -9.542142862      0.000      0.000
REMARK  12 active torsions:
REMARK  status: ('A' for Active; 'I' for Inactive)
REMARK    1  A    between atoms: N1_1  and  C1_5 
REMARK    2  A    between atoms: C1_5  and  C2_6 
REMARK    3  A    between atoms: C1_5  and  C13_25 
REMARK    4  A    between atoms: C2_6  and  S1_8 
REMARK    5  A    between atoms: S1_8  and  C3_9 
REMARK    6  A    between atoms: C3_9  and  C4_10 
REMARK    7  A    between atoms: C9_15  and  C10_16 
REMARK    8  A    between atoms: N6_30  and  N7_31 
REMARK    9  A    between atoms: N8_34  and  C17_35 
REMARK   10  A    between atoms: C17_35  and  C18_36 
REMARK   11  A    between atoms: N9_42  and  C21_43 
REMARK   12  A    between atoms: C21_43  and  C22_44 
ROOT
HETATM    1  C13 UNL     1      38.151 -24.329 -35.988  1.00  0.00     0.225 C 
HETATM    2  C14 UNL     1      39.316 -24.684 -35.132  1.00  0.00     0.259 C 
HETATM    3  O2  UNL     1      40.006 -23.774 -34.639  1.00  0.00    -0.270 OA
HETATM    4  N5  UNL     1      39.611 -26.024 -34.897  1.00  0.00    -0.260 N 
ATOM      5  H5  UNL     1      40.566 -26.265 -34.634  1.00  0.00     0.186 HD
HETATM    6  N6  UNL     1      38.694 -27.038 -34.997  1.00  0.00    -0.038 NA
HETATM    7  C20 UNL     1      37.476 -26.657 -35.641  1.00  0.00     0.341 C 
HETATM    8  O3  UNL     1      36.747 -27.546 -36.115  1.00  0.00    -0.250 OA
HETATM    9  N9  UNL     1      37.081 -25.298 -35.752  1.00  0.00    -0.295 N 
ENDROOT
BRANCH   1  10
HETATM   10  C1  UNL     1      38.616 -24.242 -37.411  1.00  0.00     0.296 C 
BRANCH  10  11
HETATM   11  N1  UNL     1      39.930 -24.694 -37.686  1.00  0.00    -0.065 N 
ATOM     12  H13 UNL     1      40.416 -24.880 -36.809  1.00  0.00     0.275 HD
ATOM     13  H12 UNL     1      39.890 -25.633 -38.083  1.00  0.00     0.275 HD
ATOM     14  H11 UNL     1      40.512 -24.101 -38.277  1.00  0.00     0.275 HD
ENDBRANCH  10  11
BRANCH  10  15
HETATM   15  C2  UNL     1      38.224 -22.935 -37.970  1.00  0.00     0.219 C 
HETATM   16  O1  UNL     1      39.131 -22.065 -37.852  1.00  0.00    -0.283 OA
BRANCH  15  17
HETATM   17  S1  UNL     1      36.769 -22.399 -38.739  1.00  0.00    -0.086 SA
BRANCH  17  18
HETATM   18  C3  UNL     1      36.549 -22.671 -40.484  1.00  0.00     0.121 C 
BRANCH  18  19
HETATM   19  C4  UNL     1      35.154 -22.894 -40.914  1.00  0.00    -0.035 A 
HETATM   20  C5  UNL     1      34.378 -21.805 -41.360  1.00  0.00     0.009 A 
HETATM   21  C6  UNL     1      33.074 -21.921 -41.753  1.00  0.00     0.001 A 
HETATM   22  C7  UNL     1      32.473 -23.158 -41.717  1.00  0.00     0.001 A 
HETATM   23  C8  UNL     1      33.204 -24.220 -41.290  1.00  0.00     0.016 A 
HETATM   24  C9  UNL     1      34.554 -24.115 -40.881  1.00  0.00     0.016 A 
BRANCH  24  25
HETATM   25  C10 UNL     1      35.236 -25.312 -40.440  1.00  0.00     0.130 A 
HETATM   26  N2  UNL     1      35.964 -26.012 -41.363  1.00  0.00    -0.349 N 
HETATM   27  C11 UNL     1      36.619 -27.123 -41.052  1.00  0.00     0.108 A 
ATOM     28  H2  UNL     1      36.005 -25.669 -42.322  1.00  0.00     0.167 HD
HETATM   29  C12 UNL     1      36.564 -27.590 -39.755  1.00  0.00     0.124 A 
HETATM   30  N3  UNL     1      35.850 -26.901 -38.853  1.00  0.00    -0.309 N 
HETATM   31  N4  UNL     1      35.224 -25.807 -39.224  1.00  0.00    -0.285 N 
ATOM     32  H3  UNL     1      35.793 -27.223 -37.886  1.00  0.00     0.186 HD
ATOM     33  H4  UNL     1      34.689 -25.306 -38.516  1.00  0.00     0.188 HD
ENDBRANCH  24  25
ENDBRANCH  18  19
ENDBRANCH  17  18
ENDBRANCH  15  17
ENDBRANCH  10  15
ENDBRANCH   1  10
BRANCH   9  34
HETATM   34  C21 UNL     1      35.748 -24.875 -35.592  1.00  0.00     0.107 C 
BRANCH  34  35
HETATM   35  C22 UNL     1      35.197 -24.642 -34.268  1.00  0.00    -0.020 A 
HETATM   36  C23 UNL     1      34.543 -25.609 -33.571  1.00  0.00     0.014 A 
HETATM   37  C24 UNL     1      34.063 -25.340 -32.310  1.00  0.00     0.024 A 
HETATM   38  C25 UNL     1      34.233 -24.102 -31.729  1.00  0.00     0.034 A 
HETATM   39 CL3  UNL     1      33.611 -23.774 -30.109  1.00  0.00    -0.084 Cl
HETATM   40  C26 UNL     1      34.894 -23.100 -32.410  1.00  0.00     0.024 A 
HETATM   41  C27 UNL     1      35.354 -23.411 -33.663  1.00  0.00     0.014 A 
ENDBRANCH  34  35
ENDBRANCH   9  34
BRANCH   6  42
HETATM   42  N7  UNL     1      38.445 -27.552 -33.720  1.00  0.00    -0.254 N 
HETATM   43  C15 UNL     1      38.712 -28.786 -33.264  1.00  0.00     0.131 A 
HETATM   44  C16 UNL     1      38.308 -28.884 -31.951  1.00  0.00     0.110 A 
HETATM   45  N8  UNL     1      37.794 -27.696 -31.620  1.00  0.00    -0.348 N 
HETATM   46  C19 UNL     1      37.876 -26.889 -32.686  1.00  0.00     0.205 A 
BRANCH  45  47
HETATM   47  C17 UNL     1      37.245 -27.336 -30.339  1.00  0.00     0.165 C 
BRANCH  47  48
HETATM   48  C18 UNL     1      38.096 -26.257 -29.702  1.00  0.00     0.196 C 
HETATM   49 CL1  UNL     1      37.958 -26.249 -27.946  1.00  0.00    -0.106 Cl
HETATM   50 CL2  UNL     1      37.533 -24.658 -30.290  1.00  0.00    -0.106 Cl
ENDBRANCH  47  48
ENDBRANCH  45  47
ENDBRANCH   6  42
TORSDOF 12
ENDMDL
MODEL 2
REMARK VINA RESULT: -9.460321470      1.168      1.456
REMARK  12 active torsions:
REMARK  status: ('A' for Active; 'I' for Inactive)
REMARK    1  A    between atoms: N1_1  and  C1_5 
REMARK    2  A    between atoms: C1_5  and  C2_6 
REMARK    3  A    between atoms: C1_5  and  C13_25 
REMARK    4  A    between atoms: C2_6  and  S1_8 
REMARK    5  A    between atoms: S1_8  and  C3_9 
REMARK    6  A    between atoms: C3_9  and  C4_10 
REMARK    7  A    between atoms: C9_15  and  C10_16 
REMARK    8  A    between atoms: N6_30  and  N7_31 
REMARK    9  A    between atoms: N8_34  and  C17_35 
REMARK   10  A    between atoms: C17_35  and  C18_36 
REMARK   11  A    between atoms: N9_42  and  C21_43 
REMARK   12  A    between atoms: C21_43  and  C22_44 
ROOT
HETATM    1  C13 UNL     1      38.578 -24.410 -35.402  1.00  0.00     0.225 C 
HETATM    2  C14 UNL     1      39.645 -24.515 -34.370  1.00  0.00     0.259 C 
HETATM    3  O2  UNL     1      40.269 -23.492 -34.037  1.00  0.00    -0.270 OA
HETATM    4  N5  UNL     1      39.924 -25.752 -33.796  1.00  0.00    -0.260 N 
ATOM      5  H5  UNL     1      40.847 -25.892 -33.385  1.00  0.00     0.186 HD
HETATM    6  N6  UNL     1      39.032 -26.792 -33.748  1.00  0.00    -0.038 NA
HETATM    7  C20 UNL     1      37.888 -26.613 -34.587  1.00  0.00     0.341 C 
HETATM    8  O3  UNL     1      37.223 -27.612 -34.911  1.00  0.00    -0.250 OA
HETATM    9  N9  UNL     1      37.496 -25.332 -35.057  1.00  0.00    -0.295 N 
ENDROOT
BRANCH   1  10
HETATM   10  C1  UNL     1      39.194 -24.642 -36.749  1.00  0.00     0.296 C 
BRANCH  10  11
HETATM   11  N1  UNL     1      40.388 -23.937 -37.040  1.00  0.00    -0.065 N 
ATOM     12  H13 UNL     1      41.044 -24.559 -37.511  1.00  0.00     0.275 HD
ATOM     13  H12 UNL     1      40.209 -23.256 -37.778  1.00  0.00     0.275 HD
ATOM     14  H11 UNL     1      40.858 -23.477 -36.260  1.00  0.00     0.275 HD
ENDBRANCH  10  11
BRANCH  10  15
HETATM   15  C2  UNL     1      38.136 -24.625 -37.776  1.00  0.00     0.219 C 
HETATM   16  O1  UNL     1      37.899 -25.771 -38.249  1.00  0.00    -0.283 OA
BRANCH  15  17
HETATM   17  S1  UNL     1      37.187 -23.334 -38.431  1.00  0.00    -0.086 SA
BRANCH  17  18
HETATM   18  C3  UNL     1      36.994 -23.196 -40.195  1.00  0.00     0.121 C 
BRANCH  18  19
HETATM   19  C4  UNL     1      35.599 -23.179 -40.676  1.00  0.00    -0.035 A 
HETATM   20  C5  UNL     1      34.971 -21.949 -40.959  1.00  0.00     0.009 A 
HETATM   21  C6  UNL     1      33.677 -21.844 -41.384  1.00  0.00     0.001 A 
HETATM   22  C7  UNL     1      32.934 -22.989 -41.550  1.00  0.00     0.001 A 
HETATM   23  C8  UNL     1      33.519 -24.186 -41.281  1.00  0.00     0.016 A 
HETATM   24  C9  UNL     1      34.858 -24.309 -40.841  1.00  0.00     0.016 A 
BRANCH  24  25
HETATM   25  C10 UNL     1      35.379 -25.633 -40.580  1.00  0.00     0.130 A 
HETATM   26  N2  UNL     1      36.160 -26.215 -41.540  1.00  0.00    -0.349 N 
HETATM   27  C11 UNL     1      36.677 -27.427 -41.392  1.00  0.00     0.108 A 
ATOM     28  H2  UNL     1      36.351 -25.700 -42.399  1.00  0.00     0.167 HD
HETATM   29  C12 UNL     1      36.420 -28.127 -40.231  1.00  0.00     0.124 A 
HETATM   30  N3  UNL     1      35.653 -27.552 -39.291  1.00  0.00    -0.309 N 
HETATM   31  N4  UNL     1      35.171 -26.348 -39.499  1.00  0.00    -0.285 N 
ATOM     32  H3  UNL     1      35.447 -28.047 -38.423  1.00  0.00     0.186 HD
ATOM     33  H4  UNL     1      34.592 -25.939 -38.767  1.00  0.00     0.188 HD
ENDBRANCH  24  25
ENDBRANCH  18  19
ENDBRANCH  17  18
ENDBRANCH  15  17
ENDBRANCH  10  15
ENDBRANCH   1  10
BRANCH   9  34
HETATM   34  C21 UNL     1      36.151 -24.928 -35.141  1.00  0.00     0.107 C 
BRANCH  34  35
HETATM   35  C22 UNL     1      35.413 -24.549 -33.948  1.00  0.00    -0.020 A 
HETATM   36  C23 UNL     1      35.447 -23.288 -33.440  1.00  0.00     0.014 A 
HETATM   37  C24 UNL     1      34.709 -22.978 -32.322  1.00  0.00     0.024 A 
HETATM   38  C25 UNL     1      33.926 -23.925 -31.697  1.00  0.00     0.034 A 
HETATM   39 CL3  UNL     1      32.983 -23.511 -30.263  1.00  0.00    -0.084 Cl
HETATM   40  C26 UNL     1      33.868 -25.214 -32.189  1.00  0.00     0.024 A 
HETATM   41  C27 UNL     1      34.621 -25.478 -33.304  1.00  0.00     0.014 A 
ENDBRANCH  34  35
ENDBRANCH   9  34
BRANCH   6  42
HETATM   42  N7  UNL     1      38.649 -27.001 -32.419  1.00  0.00    -0.254 N 
HETATM   43  C15 UNL     1      39.004 -28.012 -31.611  1.00  0.00     0.131 A 
HETATM   44  C16 UNL     1      38.407 -27.844 -30.381  1.00  0.00     0.110 A 
HETATM   45  N8  UNL     1      37.688 -26.719 -30.456  1.00  0.00    -0.348 N 
HETATM   46  C19 UNL     1      37.833 -26.208 -31.685  1.00  0.00     0.205 A 
BRANCH  45  47
HETATM   47  C17 UNL     1      36.892 -26.149 -29.401  1.00  0.00     0.165 C 
BRANCH  47  48
HETATM   48  C18 UNL     1      37.424 -26.601 -28.057  1.00  0.00     0.196 C 
HETATM   49 CL1  UNL     1      36.167 -26.646 -26.824  1.00  0.00    -0.106 Cl
HETATM   50 CL2  UNL     1      38.670 -25.434 -27.508  1.00  0.00    -0.106 Cl
ENDBRANCH  47  48
ENDBRANCH  45  47
ENDBRANCH   6  42
TORSDOF 12
ENDMDL
MODEL 3
REMARK VINA RESULT: -9.257230361      1.253      1.726
REMARK  12 active torsions:
REMARK  status: ('A' for Active; 'I' for Inactive)
REMARK    1  A    between atoms: N1_1  and  C1_5 
REMARK    2  A    between atoms: C1_5  and  C2_6 
REMARK    3  A    between atoms: C1_5  and  C13_25 
REMARK    4  A    between atoms: C2_6  and  S1_8 
REMARK    5  A    between atoms: S1_8  and  C3_9 
REMARK    6  A    between atoms: C3_9  and  C4_10 
REMARK    7  A    between atoms: C9_15  and  C10_16 
REMARK    8  A    between atoms: N6_30  and  N7_31 
REMARK    9  A    between atoms: N8_34  and  C17_35 
REMARK   10  A    between atoms: C17_35  and  C18_36 
REMARK   11  A    between atoms: N9_42  and  C21_43 
REMARK   12  A    between atoms: C21_43  and  C22_44 
ROOT
HETATM    1  C13 UNL     1      38.266 -24.328 -35.785  1.00  0.00     0.225 C 
HETATM    2  C14 UNL     1      39.395 -24.693 -34.887  1.00  0.00     0.259 C 
HETATM    3  O2  UNL     1      40.091 -23.790 -34.390  1.00  0.00    -0.270 OA
HETATM    4  N5  UNL     1      39.649 -26.035 -34.617  1.00  0.00    -0.260 N 
ATOM      5  H5  UNL     1      40.590 -26.294 -34.319  1.00  0.00     0.186 HD
HETATM    6  N6  UNL     1      38.711 -27.029 -34.726  1.00  0.00    -0.038 NA
HETATM    7  C20 UNL     1      37.523 -26.631 -35.415  1.00  0.00     0.341 C 
HETATM    8  O3  UNL     1      36.787 -27.511 -35.893  1.00  0.00    -0.250 OA
HETATM    9  N9  UNL     1      37.165 -25.265 -35.564  1.00  0.00    -0.295 N 
ENDROOT
BRANCH   1  10
HETATM   10  C1  UNL     1      38.775 -24.281 -37.194  1.00  0.00     0.296 C 
BRANCH  10  11
HETATM   11  N1  UNL     1      40.115 -24.690 -37.407  1.00  0.00    -0.065 N 
ATOM     12  H13 UNL     1      40.742 -24.095 -36.866  1.00  0.00     0.275 HD
ATOM     13  H12 UNL     1      40.271 -25.591 -36.954  1.00  0.00     0.275 HD
ATOM     14  H11 UNL     1      40.440 -24.735 -38.373  1.00  0.00     0.275 HD
ENDBRANCH  10  11
BRANCH  10  15
HETATM   15  C2  UNL     1      38.352 -23.015 -37.821  1.00  0.00     0.219 C 
HETATM   16  O1  UNL     1      39.247 -22.126 -37.772  1.00  0.00    -0.283 OA
BRANCH  15  17
HETATM   17  S1  UNL     1      36.875 -22.547 -38.593  1.00  0.00    -0.086 SA
BRANCH  17  18
HETATM   18  C3  UNL     1      36.688 -22.788 -40.346  1.00  0.00     0.121 C 
BRANCH  18  19
HETATM   19  C4  UNL     1      35.299 -22.976 -40.810  1.00  0.00    -0.035 A 
HETATM   20  C5  UNL     1      34.558 -21.867 -41.267  1.00  0.00     0.009 A 
HETATM   21  C6  UNL     1      33.262 -21.950 -41.691  1.00  0.00     0.001 A 
HETATM   22  C7  UNL     1      32.632 -23.173 -41.676  1.00  0.00     0.001 A 
HETATM   23  C8  UNL     1      33.327 -24.255 -41.237  1.00  0.00     0.016 A 
HETATM   24  C9  UNL     1      34.670 -24.183 -40.797  1.00  0.00     0.016 A 
BRANCH  24  25
HETATM   25  C10 UNL     1      35.313 -25.398 -40.347  1.00  0.00     0.130 A 
HETATM   26  N2  UNL     1      35.990 -26.145 -41.271  1.00  0.00    -0.349 N 
HETATM   27  C11 UNL     1      36.606 -27.275 -40.952  1.00  0.00     0.108 A 
ATOM     28  H2  UNL     1      36.021 -25.823 -42.238  1.00  0.00     0.167 HD
HETATM   29  C12 UNL     1      36.565 -27.714 -39.645  1.00  0.00     0.124 A 
HETATM   30  N3  UNL     1      35.901 -26.978 -38.741  1.00  0.00    -0.309 N 
HETATM   31  N4  UNL     1      35.311 -25.867 -39.121  1.00  0.00    -0.285 N 
ATOM     32  H3  UNL     1      35.854 -27.278 -37.767  1.00  0.00     0.186 HD
ATOM     33  H4  UNL     1      34.814 -25.330 -38.411  1.00  0.00     0.188 HD
ENDBRANCH  24  25
ENDBRANCH  18  19
ENDBRANCH  17  18
ENDBRANCH  15  17
ENDBRANCH  10  15
ENDBRANCH   1  10
BRANCH   9  34
HETATM   34  C21 UNL     1      35.839 -24.807 -35.454  1.00  0.00     0.107 C 
BRANCH  34  35
HETATM   35  C22 UNL     1      35.266 -24.498 -34.155  1.00  0.00    -0.020 A 
HETATM   36  C23 UNL     1      35.387 -23.274 -33.578  1.00  0.00     0.014 A 
HETATM   37  C24 UNL     1      34.801 -23.029 -32.357  1.00  0.00     0.024 A 
HETATM   38  C25 UNL     1      34.087 -24.006 -31.698  1.00  0.00     0.034 A 
HETATM   39 CL3  UNL     1      33.341 -23.676 -30.132  1.00  0.00    -0.084 Cl
HETATM   40  C26 UNL     1      33.945 -25.260 -32.259  1.00  0.00     0.024 A 
HETATM   41  C27 UNL     1      34.545 -25.459 -33.474  1.00  0.00     0.014 A 
ENDBRANCH  34  35
ENDBRANCH   9  34
BRANCH   6  42
HETATM   42  N7  UNL     1      38.411 -27.510 -33.447  1.00  0.00    -0.254 N 
HETATM   43  C15 UNL     1      37.888 -26.831 -32.414  1.00  0.00     0.131 A 
HETATM   44  C16 UNL     1      37.752 -27.675 -31.335  1.00  0.00     0.110 A 
HETATM   45  N8  UNL     1      38.198 -28.872 -31.728  1.00  0.00    -0.348 N 
HETATM   46  C19 UNL     1      38.596 -28.776 -33.003  1.00  0.00     0.205 A 
BRANCH  45  47
HETATM   47  C17 UNL     1      38.246 -30.065 -30.924  1.00  0.00     0.165 C 
BRANCH  47  48
HETATM   48  C18 UNL     1      37.037 -30.118 -30.013  1.00  0.00     0.196 C 
HETATM   49 CL1  UNL     1      37.486 -30.140 -28.310  1.00  0.00    -0.106 Cl
HETATM   50 CL2  UNL     1      36.128 -31.628 -30.347  1.00  0.00    -0.106 Cl
ENDBRANCH  47  48
ENDBRANCH  45  47
ENDBRANCH   6  42
TORSDOF 12
ENDMDL
MODEL 4
REMARK VINA RESULT: -9.147861791      1.918      3.008
REMARK  12 active torsions:
REMARK  status: ('A' for Active; 'I' for Inactive)
REMARK    1  A    between atoms: N1_1  and  C1_5 
REMARK    2  A    between atoms: C1_5  and  C2_6 
REMARK    3  A    between atoms: C1_5  and  C13_25 
REMARK    4  A    between atoms: C2_6  and  S1_8 
REMARK    5  A    between atoms: S1_8  and  C3_9 
REMARK    6  A    between atoms: C3_9  and  C4_10 
REMARK    7  A    between atoms: C9_15  and  C10_16 
REMARK    8  A    between atoms: N6_30  and  N7_31 
REMARK    9  A    between atoms: N8_34  and  C17_35 
REMARK   10  A    between atoms: C17_35  and  C18_36 
REMARK   11  A    between atoms: N9_42  and  C21_43 
REMARK   12  A    between atoms: C21_43  and  C22_44 
ROOT
HETATM    1  C13 UNL     1      38.241 -25.203 -36.350  1.00  0.00     0.225 C 
HETATM    2  C14 UNL     1      39.470 -24.758 -35.638  1.00  0.00     0.259 C 
HETATM    3  O2  UNL     1      39.998 -23.678 -35.957  1.00  0.00    -0.270 OA
HETATM    4  N5  UNL     1      40.003 -25.554 -34.628  1.00  0.00    -0.260 N 
ATOM      5  H5  UNL     1      40.992 -25.445 -34.404  1.00  0.00     0.186 HD
HETATM    6  N6  UNL     1      39.280 -26.476 -33.917  1.00  0.00    -0.038 NA
HETATM    7  C20 UNL     1      37.998 -26.767 -34.481  1.00  0.00     0.341 C 
HETATM    8  O3  UNL     1      37.428 -27.822 -34.156  1.00  0.00    -0.250 OA
HETATM    9  N9  UNL     1      37.365 -25.885 -35.397  1.00  0.00    -0.295 N 
ENDROOT
BRANCH   1  10
HETATM   10  C1  UNL     1      38.649 -26.032 -37.530  1.00  0.00     0.296 C 
BRANCH  10  11
HETATM   11  N1  UNL     1      39.557 -25.444 -38.445  1.00  0.00    -0.065 N 
ATOM     12  H13 UNL     1      39.227 -25.596 -39.397  1.00  0.00     0.275 HD
ATOM     13  H12 UNL     1      39.492 -24.428 -38.382  1.00  0.00     0.275 HD
ATOM     14  H11 UNL     1      40.535 -25.726 -38.376  1.00  0.00     0.275 HD
ENDBRANCH  10  11
BRANCH  10  15
HETATM   15  C2  UNL     1      37.457 -26.690 -38.097  1.00  0.00     0.219 C 
HETATM   16  O1  UNL     1      37.442 -27.934 -37.885  1.00  0.00    -0.283 OA
BRANCH  15  17
HETATM   17  S1  UNL     1      36.108 -26.066 -38.983  1.00  0.00    -0.086 SA
BRANCH  17  18
HETATM   18  C3  UNL     1      36.390 -25.185 -40.504  1.00  0.00     0.121 C 
BRANCH  18  19
HETATM   19  C4  UNL     1      35.520 -24.013 -40.722  1.00  0.00    -0.035 A 
HETATM   20  C5  UNL     1      34.243 -24.186 -41.293  1.00  0.00     0.009 A 
HETATM   21  C6  UNL     1      33.386 -23.153 -41.548  1.00  0.00     0.001 A 
HETATM   22  C7  UNL     1      33.776 -21.870 -41.240  1.00  0.00     0.001 A 
HETATM   23  C8  UNL     1      35.004 -21.681 -40.690  1.00  0.00     0.016 A 
HETATM   24  C9  UNL     1      35.900 -22.741 -40.419  1.00  0.00     0.016 A 
BRANCH  24  25
HETATM   25  C10 UNL     1      37.185 -22.425 -39.836  1.00  0.00     0.130 A 
HETATM   26  N2  UNL     1      38.237 -22.205 -40.682  1.00  0.00    -0.349 N 
HETATM   27  C11 UNL     1      39.453 -21.914 -40.239  1.00  0.00     0.108 A 
ATOM     28  H2  UNL     1      38.081 -22.267 -41.688  1.00  0.00     0.167 HD
HETATM   29  C12 UNL     1      39.666 -21.830 -38.879  1.00  0.00     0.124 A 
HETATM   30  N3  UNL     1      38.632 -22.046 -38.051  1.00  0.00    -0.309 N 
HETATM   31  N4  UNL     1      37.452 -22.330 -38.554  1.00  0.00    -0.285 N 
ATOM     32  H3  UNL     1      38.762 -21.989 -37.041  1.00  0.00     0.186 HD
ATOM     33  H4  UNL     1      36.687 -22.489 -37.899  1.00  0.00     0.188 HD
ENDBRANCH  24  25
ENDBRANCH  18  19
ENDBRANCH  17  18
ENDBRANCH  15  17
ENDBRANCH  10  15
ENDBRANCH   1  10
BRANCH   9  34
HETATM   34  C21 UNL     1      35.983 -25.624 -35.373  1.00  0.00     0.107 C 
BRANCH  34  35
HETATM   35  C22 UNL     1      35.354 -25.064 -34.189  1.00  0.00    -0.020 A 
HETATM   36  C23 UNL     1      35.497 -23.759 -33.835  1.00  0.00     0.014 A 
HETATM   37  C24 UNL     1      34.857 -23.277 -32.717  1.00  0.00     0.024 A 
HETATM   38  C25 UNL     1      34.065 -24.093 -31.939  1.00  0.00     0.034 A 
HETATM   39 CL3  UNL     1      33.249 -23.458 -30.506  1.00  0.00    -0.084 Cl
HETATM   40  C26 UNL     1      33.898 -25.422 -32.272  1.00  0.00     0.024 A 
HETATM   41  C27 UNL     1      34.554 -25.860 -33.393  1.00  0.00     0.014 A 
ENDBRANCH  34  35
ENDBRANCH   9  34
BRANCH   6  42
HETATM   42  N7  UNL     1      39.156 -26.033 -32.596  1.00  0.00    -0.254 N 
HETATM   43  C15 UNL     1      38.502 -24.949 -32.150  1.00  0.00     0.131 A 
HETATM   44  C16 UNL     1      38.627 -24.872 -30.780  1.00  0.00     0.110 A 
HETATM   45  N8  UNL     1      39.363 -25.923 -30.405  1.00  0.00    -0.348 N 
HETATM   46  C19 UNL     1      39.684 -26.625 -31.499  1.00  0.00     0.205 A 
BRANCH  45  47
HETATM   47  C17 UNL     1      39.750 -26.250 -29.057  1.00  0.00     0.165 C 
BRANCH  47  48
HETATM   48  C18 UNL     1      39.401 -25.102 -28.132  1.00  0.00     0.196 C 
HETATM   49 CL1  UNL     1      40.809 -24.491 -27.268  1.00  0.00    -0.106 Cl
HETATM   50 CL2  UNL     1      38.231 -25.687 -26.905  1.00  0.00    -0.106 Cl
ENDBRANCH  47  48
ENDBRANCH  45  47
ENDBRANCH   6  42
TORSDOF 12
ENDMDL
MODEL 5
REMARK VINA RESULT: -8.889174345      3.942      8.016
REMARK  12 active torsions:
REMARK  status: ('A' for Active; 'I' for Inactive)
REMARK    1  A    between atoms: N1_1  and  C1_5 
REMARK    2  A    between atoms: C1_5  and  C2_6 
REMARK    3  A    between atoms: C1_5  and  C13_25 
REMARK    4  A    between atoms: C2_6  and  S1_8 
REMARK    5  A    between atoms: S1_8  and  C3_9 
REMARK    6  A    between atoms: C3_9  and  C4_10 
REMARK    7  A    between atoms: C9_15  and  C10_16 
REMARK    8  A    between atoms: N6_30  and  N7_31 
REMARK    9  A    between atoms: N8_34  and  C17_35 
REMARK   10  A    between atoms: C17_35  and  C18_36 
REMARK   11  A    between atoms: N9_42  and  C21_43 
REMARK   12  A    between atoms: C21_43  and  C22_44 
ROOT
HETATM    1  C13 UNL     1      39.400 -25.131 -35.588  1.00  0.00     0.225 C 
HETATM    2  C14 UNL     1      40.112 -24.355 -36.639  1.00  0.00     0.259 C 
HETATM    3  O2  UNL     1      41.231 -24.738 -37.024  1.00  0.00    -0.270 OA
HETATM    4  N5  UNL     1      39.513 -23.218 -37.175  1.00  0.00    -0.260 N 
ATOM      5  H5  UNL     1      40.116 -22.514 -37.601  1.00  0.00     0.186 HD
HETATM    6  N6  UNL     1      38.162 -22.987 -37.164  1.00  0.00    -0.038 NA
HETATM    7  C20 UNL     1      37.431 -23.867 -36.305  1.00  0.00     0.341 C 
HETATM    8  O3  UNL     1      36.295 -23.528 -35.930  1.00  0.00    -0.250 OA
HETATM    9  N9  UNL     1      37.966 -25.109 -35.874  1.00  0.00    -0.295 N 
ENDROOT
BRANCH   1  10
HETATM   10  C1  UNL     1      39.781 -24.576 -34.248  1.00  0.00     0.296 C 
BRANCH  10  11
HETATM   11  N1  UNL     1      41.157 -24.601 -33.910  1.00  0.00    -0.065 N 
ATOM     12  H13 UNL     1      41.285 -25.129 -33.047  1.00  0.00     0.275 HD
ATOM     13  H12 UNL     1      41.658 -25.194 -34.571  1.00  0.00     0.275 HD
ATOM     14  H11 UNL     1      41.633 -23.702 -33.831  1.00  0.00     0.275 HD
ENDBRANCH  10  11
BRANCH  10  15
HETATM   15  C2  UNL     1      38.830 -25.066 -33.232  1.00  0.00     0.219 C 
HETATM   16  O1  UNL     1      38.100 -24.148 -32.768  1.00  0.00    -0.283 OA
BRANCH  15  17
HETATM   17  S1  UNL     1      38.552 -26.646 -32.581  1.00  0.00    -0.086 SA
BRANCH  17  18
HETATM   18  C3  UNL     1      36.969 -27.030 -31.862  1.00  0.00     0.121 C 
BRANCH  18  19
HETATM   19  C4  UNL     1      35.953 -27.527 -32.810  1.00  0.00    -0.035 A 
HETATM   20  C5  UNL     1      36.028 -28.852 -33.286  1.00  0.00     0.009 A 
HETATM   21  C6  UNL     1      35.142 -29.382 -34.181  1.00  0.00     0.001 A 
HETATM   22  C7  UNL     1      34.118 -28.594 -34.653  1.00  0.00     0.001 A 
HETATM   23  C8  UNL     1      34.029 -27.313 -34.209  1.00  0.00     0.016 A 
HETATM   24  C9  UNL     1      34.938 -26.752 -33.282  1.00  0.00     0.016 A 
BRANCH  24  25
HETATM   25  C10 UNL     1      34.751 -25.375 -32.880  1.00  0.00     0.130 A 
HETATM   26  N2  UNL     1      33.887 -25.120 -31.850  1.00  0.00    -0.349 N 
HETATM   27  C11 UNL     1      33.649 -23.889 -31.416  1.00  0.00     0.108 A 
ATOM     28  H2  UNL     1      33.410 -25.901 -31.401  1.00  0.00     0.167 HD
HETATM   29  C12 UNL     1      34.292 -22.830 -32.022  1.00  0.00     0.124 A 
HETATM   30  N3  UNL     1      35.138 -23.084 -33.031  1.00  0.00    -0.309 N 
HETATM   31  N4  UNL     1      35.331 -24.326 -33.414  1.00  0.00    -0.285 N 
ATOM     32  H3  UNL     1      35.628 -22.320 -33.497  1.00  0.00     0.186 HD
ATOM     33  H4  UNL     1      35.980 -24.487 -34.184  1.00  0.00     0.188 HD
ENDBRANCH  24  25
ENDBRANCH  18  19
ENDBRANCH  17  18
ENDBRANCH  15  17
ENDBRANCH  10  15
ENDBRANCH   1  10
BRANCH   9  34
HETATM   34  C21 UNL     1      37.193 -26.280 -35.774  1.00  0.00     0.107 C 
BRANCH  34  35
HETATM   35  C22 UNL     1      37.061 -27.182 -36.905  1.00  0.00    -0.020 A 
HETATM   36  C23 UNL     1      36.442 -26.817 -38.059  1.00  0.00     0.014 A 
HETATM   37  C24 UNL     1      36.368 -27.704 -39.109  1.00  0.00     0.024 A 
HETATM   38  C25 UNL     1      36.913 -28.967 -39.017  1.00  0.00     0.034 A 
HETATM   39 CL3  UNL     1      36.810 -30.093 -40.374  1.00  0.00    -0.084 Cl
HETATM   40  C26 UNL     1      37.549 -29.367 -37.859  1.00  0.00     0.024 A 
HETATM   41  C27 UNL     1      37.599 -28.452 -36.840  1.00  0.00     0.014 A 
ENDBRANCH  34  35
ENDBRANCH   9  34
BRANCH   6  42
HETATM   42  N7  UNL     1      37.680 -23.053 -38.475  1.00  0.00    -0.254 N 
HETATM   43  C15 UNL     1      38.180 -23.761 -39.500  1.00  0.00     0.131 A 
HETATM   44  C16 UNL     1      37.410 -23.547 -40.622  1.00  0.00     0.110 A 
HETATM   45  N8  UNL     1      36.439 -22.701 -40.262  1.00  0.00    -0.348 N 
HETATM   46  C19 UNL     1      36.599 -22.402 -38.967  1.00  0.00     0.205 A 
BRANCH  45  47
HETATM   47  C17 UNL     1      35.396 -22.195 -41.115  1.00  0.00     0.165 C 
BRANCH  47  48
HETATM   48  C18 UNL     1      34.102 -22.929 -40.833  1.00  0.00     0.196 C 
HETATM   49 CL1  UNL     1      34.262 -24.670 -41.052  1.00  0.00    -0.106 Cl
HETATM   50 CL2  UNL     1      32.852 -22.358 -41.985  1.00  0.00    -0.106 Cl
ENDBRANCH  47  48
ENDBRANCH  45  47
ENDBRANCH   6  42
TORSDOF 12
ENDMDL
