MODEL 1
REMARK VINA RESULT: -6.948161200      0.000      0.000
REMARK  5 active torsions:
REMARK  status: ('A' for Active; 'I' for Inactive)
REMARK    1  A    between atoms: C1_2  and  C2_4 
REMARK    2  A    between atoms: N1_5  and  C3_7 
REMARK    3  A    between atoms: C4_8  and  C5_9 
REMARK    4  A    between atoms: C11_16  and  N2_17 
REMARK    5  A    between atoms: C12_20  and  O5_21 
ROOT
HETATM    1  C3  UNL     1      62.535  23.414  23.394  1.00  0.00     0.086 A 
HETATM    2  C4  UNL     1      63.596  22.641  23.067  1.00  0.00     0.043 A 
HETATM    3  S1  UNL     1      63.961  23.181  21.457  1.00  0.00    -0.060 SA
HETATM    4  C11 UNL     1      62.748  24.357  21.291  1.00  0.00     0.179 A 
HETATM    5  C12 UNL     1      62.085  24.303  22.491  1.00  0.00     0.134 A 
ENDROOT
BRANCH   1   6
HETATM    6  N1  UNL     1      61.888  23.263  24.693  1.00  0.00    -0.357 N 
HETATM    7  C2  UNL     1      60.794  22.627  24.816  1.00  0.00     0.173 C 
ATOM      8  H1  UNL     1      62.321  23.677  25.519  1.00  0.00     0.165 HD
BRANCH   7   9
HETATM    9  C1  UNL     1      60.182  22.498  26.126  1.00  0.00     0.214 C 
HETATM   10  O1  UNL     1      60.133  21.407  26.751  1.00  0.00    -0.643 OA
HETATM   11  O2  UNL     1      59.605  23.609  26.764  1.00  0.00    -0.643 OA
ENDBRANCH   7   9
ENDBRANCH   1   6
BRANCH   2  12
HETATM   12  C5  UNL     1      64.343  21.595  23.814  1.00  0.00    -0.042 C 
HETATM   13  C6  UNL     1      65.646  21.770  23.984  1.00  0.00    -0.018 C 
HETATM   14  C7  UNL     1      66.539  20.829  24.698  1.00  0.00     0.028 C 
HETATM   15  C8  UNL     1      65.827  19.501  24.912  1.00  0.00     0.004 C 
HETATM   16  C9  UNL     1      64.470  19.825  25.484  1.00  0.00     0.005 C 
HETATM   17  C10 UNL     1      63.640  20.437  24.349  1.00  0.00     0.040 C 
ENDBRANCH   2  12
BRANCH   5  18
HETATM   18  O5  UNL     1      60.981  25.177  22.706  1.00  0.00    -0.356 OA
ATOM     19  H5  UNL     1      60.847  25.994  22.240  1.00  0.00     0.218 HD
ENDBRANCH   5  18
BRANCH   4  20
HETATM   20  N2  UNL     1      62.456  25.225  20.167  1.00  0.00    -0.105 N 
HETATM   21  O3  UNL     1      61.371  25.108  19.567  1.00  0.00    -0.531 OA
HETATM   22  O4  UNL     1      63.346  26.168  19.750  1.00  0.00    -0.531 OA
ENDBRANCH   4  20
TORSDOF 5
ENDMDL
MODEL 2
REMARK VINA RESULT: -6.882987941      0.677      1.644
REMARK  5 active torsions:
REMARK  status: ('A' for Active; 'I' for Inactive)
REMARK    1  A    between atoms: C1_2  and  C2_4 
REMARK    2  A    between atoms: N1_5  and  C3_7 
REMARK    3  A    between atoms: C4_8  and  C5_9 
REMARK    4  A    between atoms: C11_16  and  N2_17 
REMARK    5  A    between atoms: C12_20  and  O5_21 
ROOT
HETATM    1  C3  UNL     1      62.795  23.144  23.622  1.00  0.00     0.086 A 
HETATM    2  C4  UNL     1      63.764  22.226  23.400  1.00  0.00     0.043 A 
HETATM    3  S1  UNL     1      64.348  22.681  21.829  1.00  0.00    -0.060 SA
HETATM    4  C11 UNL     1      63.332  24.010  21.543  1.00  0.00     0.179 A 
HETATM    5  C12 UNL     1      62.560  24.071  22.676  1.00  0.00     0.134 A 
ENDROOT
BRANCH   1   6
HETATM    6  N1  UNL     1      62.016  23.109  24.856  1.00  0.00    -0.357 N 
HETATM    7  C2  UNL     1      60.877  22.548  24.900  1.00  0.00     0.173 C 
ATOM      8  H1  UNL     1      62.394  23.541  25.698  1.00  0.00     0.165 HD
BRANCH   7   9
HETATM    9  C1  UNL     1      60.132  22.533  26.146  1.00  0.00     0.214 C 
HETATM   10  O1  UNL     1      59.632  23.570  26.654  1.00  0.00    -0.643 OA
HETATM   11  O2  UNL     1      59.936  21.335  26.854  1.00  0.00    -0.643 OA
ENDBRANCH   7   9
ENDBRANCH   1   6
BRANCH   2  12
HETATM   12  C5  UNL     1      64.285  21.100  24.220  1.00  0.00    -0.042 C 
HETATM   13  C6  UNL     1      63.411  20.226  24.696  1.00  0.00    -0.018 C 
HETATM   14  C7  UNL     1      63.757  19.052  25.530  1.00  0.00     0.028 C 
HETATM   15  C8  UNL     1      65.189  19.179  26.032  1.00  0.00     0.004 C 
HETATM   16  C9  UNL     1      66.037  19.522  24.834  1.00  0.00     0.005 C 
HETATM   17  C10 UNL     1      65.716  20.975  24.460  1.00  0.00     0.040 C 
ENDBRANCH   2  12
BRANCH   5  18
HETATM   18  O5  UNL     1      61.573  25.093  22.782  1.00  0.00    -0.356 OA
ATOM     19  H5  UNL     1      60.860  25.212  22.166  1.00  0.00     0.218 HD
ENDBRANCH   5  18
BRANCH   4  20
HETATM   20  N2  UNL     1      63.269  24.889  20.393  1.00  0.00    -0.105 N 
HETATM   21  O3  UNL     1      64.318  25.386  19.942  1.00  0.00    -0.531 OA
HETATM   22  O4  UNL     1      62.082  25.185  19.791  1.00  0.00    -0.531 OA
ENDBRANCH   4  20
TORSDOF 5
ENDMDL
MODEL 3
REMARK VINA RESULT: -6.768407168      3.405      4.991
REMARK  5 active torsions:
REMARK  status: ('A' for Active; 'I' for Inactive)
REMARK    1  A    between atoms: C1_2  and  C2_4 
REMARK    2  A    between atoms: N1_5  and  C3_7 
REMARK    3  A    between atoms: C4_8  and  C5_9 
REMARK    4  A    between atoms: C11_16  and  N2_17 
REMARK    5  A    between atoms: C12_20  and  O5_21 
ROOT
HETATM    1  C3  UNL     1      65.238  22.760  22.195  1.00  0.00     0.086 A 
HETATM    2  C4  UNL     1      63.993  23.263  22.025  1.00  0.00     0.043 A 
HETATM    3  S1  UNL     1      64.184  24.241  20.603  1.00  0.00    -0.060 SA
HETATM    4  C11 UNL     1      65.830  23.956  20.304  1.00  0.00     0.179 A 
HETATM    5  C12 UNL     1      66.196  23.106  21.318  1.00  0.00     0.134 A 
ENDROOT
BRANCH   1   6
HETATM    6  N1  UNL     1      65.527  21.877  23.321  1.00  0.00    -0.357 N 
HETATM    7  C2  UNL     1      65.415  20.616  23.215  1.00  0.00     0.173 C 
ATOM      8  H1  UNL     1      65.825  22.280  24.209  1.00  0.00     0.165 HD
BRANCH   7   9
HETATM    9  C1  UNL     1      65.713  19.771  24.357  1.00  0.00     0.214 C 
HETATM   10  O1  UNL     1      66.885  19.431  24.667  1.00  0.00    -0.643 OA
HETATM   11  O2  UNL     1      64.685  19.285  25.183  1.00  0.00    -0.643 OA
ENDBRANCH   7   9
ENDBRANCH   1   6
BRANCH   2  12
HETATM   12  C5  UNL     1      62.725  23.078  22.779  1.00  0.00    -0.042 C 
HETATM   13  C6  UNL     1      61.662  22.662  22.106  1.00  0.00    -0.018 C 
HETATM   14  C7  UNL     1      60.324  22.429  22.697  1.00  0.00     0.028 C 
HETATM   15  C8  UNL     1      60.260  23.044  24.089  1.00  0.00     0.004 C 
HETATM   16  C9  UNL     1      61.493  22.582  24.822  1.00  0.00     0.005 C 
HETATM   17  C10 UNL     1      62.684  23.333  24.212  1.00  0.00     0.040 C 
ENDBRANCH   2  12
BRANCH   5  18
HETATM   18  O5  UNL     1      67.544  22.650  21.379  1.00  0.00    -0.356 OA
ATOM     19  H5  UNL     1      68.181  22.770  20.685  1.00  0.00     0.218 HD
ENDBRANCH   5  18
BRANCH   4  20
HETATM   20  N2  UNL     1      66.675  24.470  19.244  1.00  0.00    -0.105 N 
HETATM   21  O3  UNL     1      67.755  25.018  19.532  1.00  0.00    -0.531 OA
HETATM   22  O4  UNL     1      66.312  24.366  17.935  1.00  0.00    -0.531 OA
ENDBRANCH   4  20
TORSDOF 5
ENDMDL
MODEL 4
REMARK VINA RESULT: -6.631260489      2.909      4.069
REMARK  5 active torsions:
REMARK  status: ('A' for Active; 'I' for Inactive)
REMARK    1  A    between atoms: C1_2  and  C2_4 
REMARK    2  A    between atoms: N1_5  and  C3_7 
REMARK    3  A    between atoms: C4_8  and  C5_9 
REMARK    4  A    between atoms: C11_16  and  N2_17 
REMARK    5  A    between atoms: C12_20  and  O5_21 
ROOT
HETATM    1  C3  UNL     1      61.979  23.083  21.952  1.00  0.00     0.086 A 
HETATM    2  C4  UNL     1      62.426  22.602  23.135  1.00  0.00     0.043 A 
HETATM    3  S1  UNL     1      64.149  22.625  22.913  1.00  0.00    -0.060 SA
HETATM    4  C11 UNL     1      64.204  23.243  21.333  1.00  0.00     0.179 A 
HETATM    5  C12 UNL     1      62.881  23.418  21.013  1.00  0.00     0.134 A 
ENDROOT
BRANCH   1   6
HETATM    6  N1  UNL     1      60.547  23.212  21.705  1.00  0.00    -0.357 N 
HETATM    7  C2  UNL     1      59.967  24.342  21.760  1.00  0.00     0.173 C 
ATOM      8  H1  UNL     1      60.000  22.380  21.483  1.00  0.00     0.165 HD
BRANCH   7   9
HETATM    9  C1  UNL     1      58.541  24.430  21.507  1.00  0.00     0.214 C 
HETATM   10  O1  UNL     1      57.682  24.395  22.427  1.00  0.00    -0.643 OA
HETATM   11  O2  UNL     1      58.047  24.559  20.199  1.00  0.00    -0.643 OA
ENDBRANCH   7   9
ENDBRANCH   1   6
BRANCH   2  12
HETATM   12  C5  UNL     1      61.724  22.164  24.370  1.00  0.00    -0.042 C 
HETATM   13  C6  UNL     1      62.046  20.983  24.878  1.00  0.00    -0.018 C 
HETATM   14  C7  UNL     1      61.444  20.394  26.096  1.00  0.00     0.028 C 
HETATM   15  C8  UNL     1      60.192  21.169  26.481  1.00  0.00     0.004 C 
HETATM   16  C9  UNL     1      60.566  22.629  26.463  1.00  0.00     0.005 C 
HETATM   17  C10 UNL     1      60.732  23.031  24.992  1.00  0.00     0.040 C 
ENDBRANCH   2  12
BRANCH   5  18
HETATM   18  O5  UNL     1      62.548  23.935  19.728  1.00  0.00    -0.356 OA
ATOM     19  H5  UNL     1      63.175  24.074  19.029  1.00  0.00     0.218 HD
ENDBRANCH   5  18
BRANCH   4  20
HETATM   20  N2  UNL     1      65.353  23.528  20.497  1.00  0.00    -0.105 N 
HETATM   21  O3  UNL     1      65.201  23.655  19.267  1.00  0.00    -0.531 OA
HETATM   22  O4  UNL     1      66.601  23.661  21.028  1.00  0.00    -0.531 OA
ENDBRANCH   4  20
TORSDOF 5
ENDMDL
MODEL 5
REMARK VINA RESULT: -6.628902278      3.670      6.687
REMARK  5 active torsions:
REMARK  status: ('A' for Active; 'I' for Inactive)
REMARK    1  A    between atoms: C1_2  and  C2_4 
REMARK    2  A    between atoms: N1_5  and  C3_7 
REMARK    3  A    between atoms: C4_8  and  C5_9 
REMARK    4  A    between atoms: C11_16  and  N2_17 
REMARK    5  A    between atoms: C12_20  and  O5_21 
ROOT
HETATM    1  C3  UNL     1      63.035  20.680  24.575  1.00  0.00     0.086 A 
HETATM    2  C4  UNL     1      62.188  21.725  24.427  1.00  0.00     0.043 A 
HETATM    3  S1  UNL     1      60.929  21.338  25.559  1.00  0.00    -0.060 SA
HETATM    4  C11 UNL     1      61.549  19.876  26.156  1.00  0.00     0.179 A 
HETATM    5  C12 UNL     1      62.722  19.719  25.461  1.00  0.00     0.134 A 
ENDROOT
BRANCH   1   6
HETATM    6  N1  UNL     1      64.250  20.599  23.770  1.00  0.00    -0.357 N 
HETATM    7  C2  UNL     1      65.303  21.229  24.101  1.00  0.00     0.173 C 
ATOM      8  H1  UNL     1      64.255  20.026  22.927  1.00  0.00     0.165 HD
BRANCH   7   9
HETATM    9  C1  UNL     1      66.493  21.122  23.275  1.00  0.00     0.214 C 
HETATM   10  O1  UNL     1      67.658  21.148  23.752  1.00  0.00    -0.643 OA
HETATM   11  O2  UNL     1      66.393  20.984  21.881  1.00  0.00    -0.643 OA
ENDBRANCH   7   9
ENDBRANCH   1   6
BRANCH   2  12
HETATM   12  C5  UNL     1      62.234  22.940  23.572  1.00  0.00    -0.042 C 
HETATM   13  C6  UNL     1      62.928  23.979  24.014  1.00  0.00    -0.018 C 
HETATM   14  C7  UNL     1      63.076  25.265  23.293  1.00  0.00     0.028 C 
HETATM   15  C8  UNL     1      62.063  25.341  22.159  1.00  0.00     0.004 C 
HETATM   16  C9  UNL     1      62.166  24.043  21.400  1.00  0.00     0.005 C 
HETATM   17  C10 UNL     1      61.547  22.955  22.288  1.00  0.00     0.040 C 
ENDBRANCH   2  12
BRANCH   5  18
HETATM   18  O5  UNL     1      63.523  18.569  25.716  1.00  0.00    -0.356 OA
ATOM     19  H5  UNL     1      63.579  18.132  26.557  1.00  0.00     0.218 HD
ENDBRANCH   5  18
BRANCH   4  20
HETATM   20  N2  UNL     1      60.998  18.983  27.157  1.00  0.00    -0.105 N 
HETATM   21  O3  UNL     1      60.921  17.764  26.917  1.00  0.00    -0.531 OA
HETATM   22  O4  UNL     1      60.560  19.451  28.360  1.00  0.00    -0.531 OA
ENDBRANCH   4  20
TORSDOF 5
ENDMDL
