MODEL 1
REMARK VINA RESULT: -6.790755384      0.000      0.000
REMARK  6 active torsions:
REMARK  status: ('A' for Active; 'I' for Inactive)
REMARK       I    between atoms: C2_2  and  N1_4 
REMARK    1  A    between atoms: N1_4  and  C3_6 
REMARK    2  A    between atoms: C3_6  and  O2_10 
REMARK    3  A    between atoms: O2_10  and  N3_11 
REMARK    4  A    between atoms: C4_13  and  C5_14 
REMARK    5  A    between atoms: C9_19  and  S2_20 
REMARK    6  A    between atoms: S2_20  and  C10_21 
ROOT
HETATM    1  N3  UNL     1      62.124  18.749  26.218  1.00  0.00    -0.268 N 
ATOM      2  H3  UNL     1      63.045  18.678  26.650  1.00  0.00     0.194 HD
HETATM    3  C4  UNL     1      61.987  19.579  25.271  1.00  0.00     0.128 C 
ENDROOT
BRANCH   1   4
HETATM    4  O2  UNL     1      61.145  17.946  26.705  1.00  0.00    -0.202 OA
BRANCH   4   5
HETATM    5  C3  UNL     1      60.507  18.186  27.916  1.00  0.00     0.243 C 
HETATM    6  N2  UNL     1      59.977  19.363  28.045  1.00  0.00    -0.364 N 
ATOM      7  H22 UNL     1      59.509  19.539  28.934  1.00  0.00     0.159 HD
ATOM      8  H21 UNL     1      60.035  20.054  27.297  1.00  0.00     0.159 HD
BRANCH   5   9
HETATM    9  N1  UNL     1      60.427  17.230  28.949  1.00  0.00    -0.292 N 
HETATM   10  C2  UNL     1      60.487  17.606  30.302  1.00  0.00     0.220 C 
HETATM   11  C1  UNL     1      60.399  16.586  31.364  1.00  0.00     0.117 C 
HETATM   12  O1  UNL     1      60.615  18.809  30.622  1.00  0.00    -0.274 OA
ATOM     13  H1  UNL     1      60.322  16.244  28.709  1.00  0.00     0.172 HD
ENDBRANCH   5   9
ENDBRANCH   4   5
ENDBRANCH   1   4
BRANCH   3  14
HETATM   14  C5  UNL     1      63.129  20.417  24.808  1.00  0.00     0.006 A 
HETATM   15  C6  UNL     1      64.408  20.073  25.028  1.00  0.00     0.029 A 
HETATM   16  C7  UNL     1      65.379  20.913  24.562  1.00  0.00    -0.019 A 
HETATM   17  C8  UNL     1      66.876  20.763  24.674  1.00  0.00     0.056 C 
HETATM   18  S1  UNL     1      64.491  22.160  23.829  1.00  0.00    -0.087 SA
HETATM   19  C9  UNL     1      62.914  21.592  24.129  1.00  0.00     0.053 A 
BRANCH  19  20
HETATM   20  S2  UNL     1      61.326  22.310  23.688  1.00  0.00    -0.118 SA
BRANCH  20  21
HETATM   21  C10 UNL     1      60.757  23.436  24.981  1.00  0.00     0.045 C 
HETATM   22  C11 UNL     1      59.714  24.346  24.370  1.00  0.00     0.021 C 
HETATM   23  C12 UNL     1      60.175  22.724  26.161  1.00  0.00     0.021 C 
ENDBRANCH  20  21
ENDBRANCH  19  20
ENDBRANCH   3  14
TORSDOF 6
ENDMDL
MODEL 2
REMARK VINA RESULT: -6.777254125      1.444      3.791
REMARK  6 active torsions:
REMARK  status: ('A' for Active; 'I' for Inactive)
REMARK       I    between atoms: C2_2  and  N1_4 
REMARK    1  A    between atoms: N1_4  and  C3_6 
REMARK    2  A    between atoms: C3_6  and  O2_10 
REMARK    3  A    between atoms: O2_10  and  N3_11 
REMARK    4  A    between atoms: C4_13  and  C5_14 
REMARK    5  A    between atoms: C9_19  and  S2_20 
REMARK    6  A    between atoms: S2_20  and  C10_21 
ROOT
HETATM    1  N3  UNL     1      61.652  19.671  25.886  1.00  0.00    -0.268 N 
ATOM      2  H3  UNL     1      60.842  20.281  25.780  1.00  0.00     0.194 HD
HETATM    3  C4  UNL     1      62.701  19.980  25.245  1.00  0.00     0.128 C 
ENDROOT
BRANCH   1   4
HETATM    4  O2  UNL     1      61.520  18.596  26.700  1.00  0.00    -0.202 OA
BRANCH   4   5
HETATM    5  C3  UNL     1      60.591  18.541  27.732  1.00  0.00     0.243 C 
HETATM    6  N2  UNL     1      59.826  19.582  27.852  1.00  0.00    -0.364 N 
ATOM      7  H22 UNL     1      59.145  19.542  28.609  1.00  0.00     0.159 HD
ATOM      8  H21 UNL     1      59.917  20.379  27.222  1.00  0.00     0.159 HD
BRANCH   5   9
HETATM    9  N1  UNL     1      60.467  17.439  28.603  1.00  0.00    -0.292 N 
HETATM   10  C2  UNL     1      60.466  17.604  29.999  1.00  0.00     0.220 C 
HETATM   11  C1  UNL     1      60.334  16.433  30.887  1.00  0.00     0.117 C 
HETATM   12  O1  UNL     1      60.577  18.743  30.504  1.00  0.00    -0.274 OA
ATOM     13  H1  UNL     1      60.376  16.501  28.211  1.00  0.00     0.172 HD
ENDBRANCH   5   9
ENDBRANCH   4   5
ENDBRANCH   1   4
BRANCH   3  14
HETATM   14  C5  UNL     1      62.744  21.188  24.373  1.00  0.00     0.006 A 
HETATM   15  C6  UNL     1      61.637  21.731  23.842  1.00  0.00     0.029 A 
HETATM   16  C7  UNL     1      61.788  22.837  23.055  1.00  0.00    -0.019 A 
HETATM   17  C8  UNL     1      60.720  23.632  22.346  1.00  0.00     0.056 C 
HETATM   18  S1  UNL     1      63.465  23.096  23.073  1.00  0.00    -0.087 SA
HETATM   19  C9  UNL     1      63.936  21.801  24.073  1.00  0.00     0.053 A 
BRANCH  19  20
HETATM   20  S2  UNL     1      65.573  21.311  24.631  1.00  0.00    -0.118 SA
BRANCH  20  21
HETATM   21  C10 UNL     1      66.726  21.246  23.241  1.00  0.00     0.045 C 
HETATM   22  C11 UNL     1      66.002  20.611  22.075  1.00  0.00     0.021 C 
HETATM   23  C12 UNL     1      67.238  22.594  22.843  1.00  0.00     0.021 C 
ENDBRANCH  20  21
ENDBRANCH  19  20
ENDBRANCH   3  14
TORSDOF 6
ENDMDL
MODEL 3
REMARK VINA RESULT: -6.742724955      1.904      4.103
REMARK  6 active torsions:
REMARK  status: ('A' for Active; 'I' for Inactive)
REMARK       I    between atoms: C2_2  and  N1_4 
REMARK    1  A    between atoms: N1_4  and  C3_6 
REMARK    2  A    between atoms: C3_6  and  O2_10 
REMARK    3  A    between atoms: O2_10  and  N3_11 
REMARK    4  A    between atoms: C4_13  and  C5_14 
REMARK    5  A    between atoms: C9_19  and  S2_20 
REMARK    6  A    between atoms: S2_20  and  C10_21 
ROOT
HETATM    1  N3  UNL     1      62.933  18.524  25.795  1.00  0.00    -0.268 N 
ATOM      2  H3  UNL     1      61.953  18.758  25.641  1.00  0.00     0.194 HD
HETATM    3  C4  UNL     1      63.800  19.357  25.395  1.00  0.00     0.128 C 
ENDROOT
BRANCH   1   4
HETATM    4  O2  UNL     1      63.204  17.347  26.412  1.00  0.00    -0.202 OA
BRANCH   4   5
HETATM    5  C3  UNL     1      62.253  16.348  26.581  1.00  0.00     0.243 C 
HETATM    6  N2  UNL     1      61.903  15.721  25.500  1.00  0.00    -0.364 N 
ATOM      7  H22 UNL     1      61.204  14.988  25.623  1.00  0.00     0.159 HD
ATOM      8  H21 UNL     1      62.309  15.960  24.595  1.00  0.00     0.159 HD
BRANCH   5   9
HETATM    9  N1  UNL     1      61.692  16.019  27.831  1.00  0.00    -0.292 N 
HETATM   10  C2  UNL     1      60.830  16.903  28.504  1.00  0.00     0.220 C 
HETATM   11  C1  UNL     1      60.256  16.532  29.812  1.00  0.00     0.117 C 
HETATM   12  O1  UNL     1      60.540  18.012  28.003  1.00  0.00    -0.274 OA
ATOM     13  H1  UNL     1      61.916  15.119  28.257  1.00  0.00     0.172 HD
ENDBRANCH   5   9
ENDBRANCH   4   5
ENDBRANCH   1   4
BRANCH   3  14
HETATM   14  C5  UNL     1      63.399  20.627  24.726  1.00  0.00     0.006 A 
HETATM   15  C6  UNL     1      62.114  20.950  24.509  1.00  0.00     0.029 A 
HETATM   16  C7  UNL     1      61.855  22.137  23.888  1.00  0.00    -0.019 A 
HETATM   17  C8  UNL     1      60.516  22.732  23.529  1.00  0.00     0.056 C 
HETATM   18  S1  UNL     1      63.404  22.778  23.620  1.00  0.00    -0.087 SA
HETATM   19  C9  UNL     1      64.342  21.529  24.298  1.00  0.00     0.053 A 
BRANCH  19  20
HETATM   20  S2  UNL     1      66.128  21.378  24.447  1.00  0.00    -0.118 SA
BRANCH  20  21
HETATM   21  C10 UNL     1      66.919  21.587  22.836  1.00  0.00     0.045 C 
HETATM   22  C11 UNL     1      66.071  20.866  21.812  1.00  0.00     0.021 C 
HETATM   23  C12 UNL     1      67.075  23.021  22.443  1.00  0.00     0.021 C 
ENDBRANCH  20  21
ENDBRANCH  19  20
ENDBRANCH   3  14
TORSDOF 6
ENDMDL
MODEL 4
REMARK VINA RESULT: -6.515632158      4.580      7.411
REMARK  6 active torsions:
REMARK  status: ('A' for Active; 'I' for Inactive)
REMARK       I    between atoms: C2_2  and  N1_4 
REMARK    1  A    between atoms: N1_4  and  C3_6 
REMARK    2  A    between atoms: C3_6  and  O2_10 
REMARK    3  A    between atoms: O2_10  and  N3_11 
REMARK    4  A    between atoms: C4_13  and  C5_14 
REMARK    5  A    between atoms: C9_19  and  S2_20 
REMARK    6  A    between atoms: S2_20  and  C10_21 
ROOT
HETATM    1  N3  UNL     1      65.733  20.577  23.522  1.00  0.00    -0.268 N 
ATOM      2  H3  UNL     1      65.566  19.586  23.693  1.00  0.00     0.194 HD
HETATM    3  C4  UNL     1      64.839  21.393  23.899  1.00  0.00     0.128 C 
ENDROOT
BRANCH   1   4
HETATM    4  O2  UNL     1      66.894  20.917  22.908  1.00  0.00    -0.202 OA
BRANCH   4   5
HETATM    5  C3  UNL     1      66.948  21.791  21.830  1.00  0.00     0.243 C 
HETATM    6  N2  UNL     1      66.135  21.526  20.853  1.00  0.00    -0.364 N 
ATOM      7  H22 UNL     1      66.175  22.168  20.061  1.00  0.00     0.159 HD
ATOM      8  H21 UNL     1      65.507  20.724  20.892  1.00  0.00     0.159 HD
BRANCH   5   9
HETATM    9  N1  UNL     1      67.817  22.900  21.777  1.00  0.00    -0.292 N 
HETATM   10  C2  UNL     1      67.363  24.201  22.052  1.00  0.00     0.220 C 
HETATM   11  C1  UNL     1      68.294  25.344  21.991  1.00  0.00     0.117 C 
HETATM   12  O1  UNL     1      66.166  24.406  22.353  1.00  0.00    -0.274 OA
ATOM     13  H1  UNL     1      68.797  22.755  21.533  1.00  0.00     0.172 HD
ENDBRANCH   5   9
ENDBRANCH   4   5
ENDBRANCH   1   4
BRANCH   3  14
HETATM   14  C5  UNL     1      63.595  20.918  24.568  1.00  0.00     0.006 A 
HETATM   15  C6  UNL     1      63.500  19.702  25.130  1.00  0.00     0.029 A 
HETATM   16  C7  UNL     1      62.314  19.365  25.716  1.00  0.00    -0.019 A 
HETATM   17  C8  UNL     1      61.947  18.077  26.410  1.00  0.00     0.056 C 
HETATM   18  S1  UNL     1      61.359  20.747  25.473  1.00  0.00    -0.087 SA
HETATM   19  C9  UNL     1      62.480  21.717  24.636  1.00  0.00     0.053 A 
BRANCH  19  20
HETATM   20  S2  UNL     1      62.303  23.382  23.982  1.00  0.00    -0.118 SA
BRANCH  20  21
HETATM   21  C10 UNL     1      61.580  23.341  22.326  1.00  0.00     0.045 C 
HETATM   22  C11 UNL     1      62.713  23.180  21.336  1.00  0.00     0.021 C 
HETATM   23  C12 UNL     1      60.593  22.232  22.147  1.00  0.00     0.021 C 
ENDBRANCH  20  21
ENDBRANCH  19  20
ENDBRANCH   3  14
TORSDOF 6
ENDMDL
MODEL 5
REMARK VINA RESULT: -6.485963974      4.544      7.966
REMARK  6 active torsions:
REMARK  status: ('A' for Active; 'I' for Inactive)
REMARK       I    between atoms: C2_2  and  N1_4 
REMARK    1  A    between atoms: N1_4  and  C3_6 
REMARK    2  A    between atoms: C3_6  and  O2_10 
REMARK    3  A    between atoms: O2_10  and  N3_11 
REMARK    4  A    between atoms: C4_13  and  C5_14 
REMARK    5  A    between atoms: C9_19  and  S2_20 
REMARK    6  A    between atoms: S2_20  and  C10_21 
ROOT
HETATM    1  N3  UNL     1      65.334  21.461  23.939  1.00  0.00    -0.268 N 
ATOM      2  H3  UNL     1      65.111  22.398  24.273  1.00  0.00     0.194 HD
HETATM    3  C4  UNL     1      64.425  20.581  24.022  1.00  0.00     0.128 C 
ENDROOT
BRANCH   1   4
HETATM    4  O2  UNL     1      66.579  21.257  23.443  1.00  0.00    -0.202 OA
BRANCH   4   5
HETATM    5  C3  UNL     1      67.045  21.883  22.293  1.00  0.00     0.243 C 
HETATM    6  N2  UNL     1      66.521  21.470  21.180  1.00  0.00    -0.364 N 
ATOM      7  H22 UNL     1      66.862  21.930  20.337  1.00  0.00     0.159 HD
ATOM      8  H21 UNL     1      65.816  20.733  21.170  1.00  0.00     0.159 HD
BRANCH   5   9
HETATM    9  N1  UNL     1      68.019  22.902  22.309  1.00  0.00    -0.292 N 
HETATM   10  C2  UNL     1      67.666  24.256  22.170  1.00  0.00     0.220 C 
HETATM   11  C1  UNL     1      68.706  25.302  22.191  1.00  0.00     0.117 C 
HETATM   12  O1  UNL     1      66.469  24.589  22.027  1.00  0.00    -0.274 OA
ATOM     13  H1  UNL     1      69.001  22.652  22.424  1.00  0.00     0.172 HD
ENDBRANCH   5   9
ENDBRANCH   4   5
ENDBRANCH   1   4
BRANCH   3  14
HETATM   14  C5  UNL     1      63.085  20.908  24.584  1.00  0.00     0.006 A 
HETATM   15  C6  UNL     1      62.442  22.050  24.293  1.00  0.00     0.029 A 
HETATM   16  C7  UNL     1      61.218  22.252  24.863  1.00  0.00    -0.019 A 
HETATM   17  C8  UNL     1      60.296  23.436  24.704  1.00  0.00     0.056 C 
HETATM   18  S1  UNL     1      60.988  20.848  25.789  1.00  0.00    -0.087 SA
HETATM   19  C9  UNL     1      62.445  20.040  25.436  1.00  0.00     0.053 A 
BRANCH  19  20
HETATM   20  S2  UNL     1      63.047  18.445  26.006  1.00  0.00    -0.118 SA
BRANCH  20  21
HETATM   21  C10 UNL     1      61.673  17.295  26.241  1.00  0.00     0.045 C 
HETATM   22  C11 UNL     1      62.244  15.894  26.242  1.00  0.00     0.021 C 
HETATM   23  C12 UNL     1      60.922  17.535  27.512  1.00  0.00     0.021 C 
ENDBRANCH  20  21
ENDBRANCH  19  20
ENDBRANCH   3  14
TORSDOF 6
ENDMDL
