MODEL 1
REMARK VINA RESULT: -5.094926568      0.000      0.000
REMARK  8 active torsions:
REMARK  status: ('A' for Active; 'I' for Inactive)
REMARK    1  A    between atoms: C1_2  and  C2_3 
REMARK    2  A    between atoms: C2_3  and  N1_4 
REMARK    3  A    between atoms: N1_4  and  C3_7 
REMARK    4  A    between atoms: C3_7  and  C4_8 
REMARK       I    between atoms: C4_8  and  N2_10 
REMARK    5  A    between atoms: N2_10  and  C5_12 
REMARK    6  A    between atoms: C5_12  and  C6_13 
REMARK    7  A    between atoms: C6_13  and  N3_14 
REMARK    8  A    between atoms: N3_14  and  C7_16 
ROOT
HETATM    1  N3  UNL     1      19.142  -4.261   8.460  1.00  0.00    -0.386 N 
ATOM      2  H3  UNL     1      18.407  -3.735   7.987  1.00  0.00     0.159 HD
ENDROOT
BRANCH   1   3
HETATM    3  C6  UNL     1      19.438  -3.982   9.848  1.00  0.00     0.139 C 
BRANCH   3   4
HETATM    4  C5  UNL     1      18.220  -4.134  10.724  1.00  0.00     0.142 C 
BRANCH   4   5
HETATM    5  N2  UNL     1      18.009  -5.542  10.988  1.00  0.00    -0.358 N 
HETATM    6  C4  UNL     1      17.063  -6.306  10.233  1.00  0.00     0.243 C 
HETATM    7  O2  UNL     1      16.435  -5.704   9.333  1.00  0.00    -0.272 OA
ATOM      8  H2  UNL     1      18.544  -5.998  11.727  1.00  0.00     0.162 HD
BRANCH   6   9
HETATM    9  C3  UNL     1      16.905  -7.740  10.577  1.00  0.00     0.335 C 
BRANCH   9  10
HETATM   10  N1  UNL     1      17.757  -8.617   9.805  1.00  0.00    -0.061 N 
ATOM     11  H12 UNL     1      17.944  -8.245   8.874  1.00  0.00     0.278 HD
ATOM     12  H11 UNL     1      17.276  -9.473   9.530  1.00  0.00     0.278 HD
BRANCH  10  13
HETATM   13  C2  UNL     1      18.960  -8.886  10.526  1.00  0.00     0.301 C 
BRANCH  13  14
HETATM   14  C1  UNL     1      20.185  -8.511   9.755  1.00  0.00     0.258 C 
HETATM   15  O1  UNL     1      20.560  -9.297   8.893  1.00  0.00    -0.305 OA
ENDBRANCH  13  14
ENDBRANCH  10  13
ENDBRANCH   9  10
ENDBRANCH   6   9
ENDBRANCH   4   5
ENDBRANCH   3   4
ENDBRANCH   1   3
BRANCH   1  16
HETATM   16  C7  UNL     1      19.858  -5.253   7.750  1.00  0.00     0.060 A 
HETATM   17  C8  UNL     1      21.237  -5.205   7.700  1.00  0.00     0.048 A 
HETATM   18  C9  UNL     1      21.943  -6.177   7.018  1.00  0.00     0.092 A 
HETATM   19  N4  UNL     1      21.284  -7.178   6.397  1.00  0.00    -0.350 N 
HETATM   20  C10 UNL     1      19.936  -7.274   6.413  1.00  0.00     0.135 A 
ATOM     21  H4  UNL     1      21.822  -7.887   5.898  1.00  0.00     0.166 HD
HETATM   22  N5  UNL     1      19.097  -8.171   5.867  1.00  0.00    -0.337 N 
HETATM   23  C12 UNL     1      19.243  -6.298   7.097  1.00  0.00     0.104 A 
HETATM   24  C11 UNL     1      17.862  -7.760   6.206  1.00  0.00     0.182 A 
ATOM     25  H5  UNL     1      19.345  -8.990   5.311  1.00  0.00     0.168 HD
HETATM   26  N6  UNL     1      17.935  -6.639   6.944  1.00  0.00    -0.347 N 
ATOM     27  H6  UNL     1      17.140  -6.127   7.326  1.00  0.00     0.167 HD
ENDBRANCH   1  16
TORSDOF 8
ENDMDL
MODEL 2
REMARK VINA RESULT: -4.997357546      2.368      5.018
REMARK  8 active torsions:
REMARK  status: ('A' for Active; 'I' for Inactive)
REMARK    1  A    between atoms: C1_2  and  C2_3 
REMARK    2  A    between atoms: C2_3  and  N1_4 
REMARK    3  A    between atoms: N1_4  and  C3_7 
REMARK    4  A    between atoms: C3_7  and  C4_8 
REMARK       I    between atoms: C4_8  and  N2_10 
REMARK    5  A    between atoms: N2_10  and  C5_12 
REMARK    6  A    between atoms: C5_12  and  C6_13 
REMARK    7  A    between atoms: C6_13  and  N3_14 
REMARK    8  A    between atoms: N3_14  and  C7_16 
ROOT
HETATM    1  N3  UNL     1      19.775  -4.167   9.579  1.00  0.00    -0.386 N 
ATOM      2  H3  UNL     1      20.618  -4.272   9.015  1.00  0.00     0.159 HD
ENDROOT
BRANCH   1   3
HETATM    3  C6  UNL     1      18.511  -3.900   8.929  1.00  0.00     0.139 C 
BRANCH   3   4
HETATM    4  C5  UNL     1      17.762  -5.170   8.613  1.00  0.00     0.142 C 
BRANCH   4   5
HETATM    5  N2  UNL     1      18.385  -5.807   7.472  1.00  0.00    -0.358 N 
HETATM    6  C4  UNL     1      18.883  -7.147   7.548  1.00  0.00     0.243 C 
HETATM    7  O2  UNL     1      18.748  -7.742   8.641  1.00  0.00    -0.272 OA
ATOM      8  H2  UNL     1      18.472  -5.291   6.596  1.00  0.00     0.162 HD
BRANCH   6   9
HETATM    9  C3  UNL     1      19.514  -7.718   6.333  1.00  0.00     0.335 C 
BRANCH   9  10
HETATM   10  N1  UNL     1      20.630  -6.940   5.842  1.00  0.00    -0.061 N 
ATOM     11  H12 UNL     1      20.332  -6.040   5.468  1.00  0.00     0.278 HD
ATOM     12  H11 UNL     1      21.023  -7.334   4.988  1.00  0.00     0.278 HD
BRANCH  10  13
HETATM   13  C2  UNL     1      21.611  -6.796   6.868  1.00  0.00     0.301 C 
BRANCH  13  14
HETATM   14  C1  UNL     1      22.068  -5.381   7.029  1.00  0.00     0.258 C 
HETATM   15  O1  UNL     1      21.254  -4.503   6.765  1.00  0.00    -0.305 OA
ENDBRANCH  13  14
ENDBRANCH  10  13
ENDBRANCH   9  10
ENDBRANCH   6   9
ENDBRANCH   4   5
ENDBRANCH   3   4
ENDBRANCH   1   3
BRANCH   1  16
HETATM   16  C7  UNL     1      19.857  -4.285  10.987  1.00  0.00     0.060 A 
HETATM   17  C8  UNL     1      19.915  -3.149  11.771  1.00  0.00     0.048 A 
HETATM   18  C9  UNL     1      19.985  -3.256  13.147  1.00  0.00     0.092 A 
HETATM   19  N4  UNL     1      19.996  -4.474  13.729  1.00  0.00    -0.350 N 
HETATM   20  C10 UNL     1      19.941  -5.618  13.010  1.00  0.00     0.135 A 
ATOM     21  H4  UNL     1      20.048  -4.534  14.745  1.00  0.00     0.166 HD
HETATM   22  N5  UNL     1      19.944  -6.909  13.383  1.00  0.00    -0.337 N 
HETATM   23  C12 UNL     1      19.872  -5.498  11.639  1.00  0.00     0.104 A 
HETATM   24  C11 UNL     1      19.877  -7.614  12.239  1.00  0.00     0.182 A 
ATOM     25  H5  UNL     1      19.988  -7.277  14.334  1.00  0.00     0.168 HD
HETATM   26  N6  UNL     1      19.833  -6.780  11.186  1.00  0.00    -0.347 N 
ATOM     27  H6  UNL     1      19.780  -7.062  10.207  1.00  0.00     0.167 HD
ENDBRANCH   1  16
TORSDOF 8
ENDMDL
MODEL 3
REMARK VINA RESULT: -4.989402328      2.348      5.111
REMARK  8 active torsions:
REMARK  status: ('A' for Active; 'I' for Inactive)
REMARK    1  A    between atoms: C1_2  and  C2_3 
REMARK    2  A    between atoms: C2_3  and  N1_4 
REMARK    3  A    between atoms: N1_4  and  C3_7 
REMARK    4  A    between atoms: C3_7  and  C4_8 
REMARK       I    between atoms: C4_8  and  N2_10 
REMARK    5  A    between atoms: N2_10  and  C5_12 
REMARK    6  A    between atoms: C5_12  and  C6_13 
REMARK    7  A    between atoms: C6_13  and  N3_14 
REMARK    8  A    between atoms: N3_14  and  C7_16 
ROOT
HETATM    1  N3  UNL     1      19.454  -7.461  10.714  1.00  0.00    -0.386 N 
ATOM      2  H3  UNL     1      20.274  -7.905  10.302  1.00  0.00     0.159 HD
ENDROOT
BRANCH   1   3
HETATM    3  C6  UNL     1      18.145  -8.038  10.494  1.00  0.00     0.139 C 
BRANCH   3   4
HETATM    4  C5  UNL     1      17.499  -7.502   9.242  1.00  0.00     0.142 C 
BRANCH   4   5
HETATM    5  N2  UNL     1      18.274  -7.930   8.097  1.00  0.00    -0.358 N 
HETATM    6  C4  UNL     1      18.625  -7.016   7.053  1.00  0.00     0.243 C 
HETATM    7  O2  UNL     1      18.238  -5.833   7.180  1.00  0.00    -0.272 OA
ATOM      8  H2  UNL     1      18.576  -8.903   8.032  1.00  0.00     0.162 HD
BRANCH   6   9
HETATM    9  C3  UNL     1      19.414  -7.543   5.912  1.00  0.00     0.335 C 
BRANCH   9  10
HETATM   10  N1  UNL     1      20.648  -6.825   5.684  1.00  0.00    -0.061 N 
ATOM     11  H12 UNL     1      20.483  -5.888   5.318  1.00  0.00     0.278 HD
ATOM     12  H11 UNL     1      21.170  -7.204   4.894  1.00  0.00     0.278 HD
BRANCH  10  13
HETATM   13  C2  UNL     1      21.428  -6.803   6.880  1.00  0.00     0.301 C 
BRANCH  13  14
HETATM   14  C1  UNL     1      22.050  -5.467   7.133  1.00  0.00     0.258 C 
HETATM   15  O1  UNL     1      21.378  -4.480   6.854  1.00  0.00    -0.305 OA
ENDBRANCH  13  14
ENDBRANCH  10  13
ENDBRANCH   9  10
ENDBRANCH   6   9
ENDBRANCH   4   5
ENDBRANCH   3   4
ENDBRANCH   1   3
BRANCH   1  16
HETATM   16  C7  UNL     1      19.611  -6.290  11.493  1.00  0.00     0.060 A 
HETATM   17  C8  UNL     1      19.730  -6.387  12.865  1.00  0.00     0.048 A 
HETATM   18  C9  UNL     1      19.895  -5.249  13.632  1.00  0.00     0.092 A 
HETATM   19  N4  UNL     1      19.940  -4.037  13.038  1.00  0.00    -0.350 N 
HETATM   20  C10 UNL     1      19.828  -3.885  11.700  1.00  0.00     0.135 A 
ATOM     21  H4  UNL     1      20.062  -3.208  13.619  1.00  0.00     0.166 HD
HETATM   22  N5  UNL     1      19.842  -2.790  10.921  1.00  0.00    -0.337 N 
HETATM   23  C12 UNL     1      19.663  -5.027  10.947  1.00  0.00     0.104 A 
HETATM   24  C11 UNL     1      19.684  -3.241   9.663  1.00  0.00     0.182 A 
ATOM     25  H5  UNL     1      19.949  -1.820  11.220  1.00  0.00     0.168 HD
HETATM   26  N6  UNL     1      19.577  -4.581   9.665  1.00  0.00    -0.347 N 
ATOM     27  H6  UNL     1      19.450  -5.167   8.840  1.00  0.00     0.167 HD
ENDBRANCH   1  16
TORSDOF 8
ENDMDL
MODEL 4
REMARK VINA RESULT: -4.967592949      2.721      5.587
REMARK  8 active torsions:
REMARK  status: ('A' for Active; 'I' for Inactive)
REMARK    1  A    between atoms: C1_2  and  C2_3 
REMARK    2  A    between atoms: C2_3  and  N1_4 
REMARK    3  A    between atoms: N1_4  and  C3_7 
REMARK    4  A    between atoms: C3_7  and  C4_8 
REMARK       I    between atoms: C4_8  and  N2_10 
REMARK    5  A    between atoms: N2_10  and  C5_12 
REMARK    6  A    between atoms: C5_12  and  C6_13 
REMARK    7  A    between atoms: C6_13  and  N3_14 
REMARK    8  A    between atoms: N3_14  and  C7_16 
ROOT
HETATM    1  N3  UNL     1      19.567  -4.444   9.432  1.00  0.00    -0.386 N 
ATOM      2  H3  UNL     1      20.360  -4.771   8.880  1.00  0.00     0.159 HD
ENDROOT
BRANCH   1   3
HETATM    3  C6  UNL     1      18.289  -4.234   8.788  1.00  0.00     0.139 C 
BRANCH   3   4
HETATM    4  C5  UNL     1      17.555  -5.531   8.559  1.00  0.00     0.142 C 
BRANCH   4   5
HETATM    5  N2  UNL     1      18.500  -6.527   8.100  1.00  0.00    -0.358 N 
HETATM    6  C4  UNL     1      18.641  -6.833   6.709  1.00  0.00     0.243 C 
HETATM    7  O2  UNL     1      17.916  -6.196   5.911  1.00  0.00    -0.272 OA
ATOM      8  H2  UNL     1      19.077  -7.020   8.781  1.00  0.00     0.162 HD
BRANCH   6   9
HETATM    9  C3  UNL     1      19.628  -7.873   6.329  1.00  0.00     0.335 C 
BRANCH   9  10
HETATM   10  N1  UNL     1      20.911  -7.335   5.935  1.00  0.00    -0.061 N 
ATOM     11  H12 UNL     1      20.822  -6.636   5.198  1.00  0.00     0.278 HD
ATOM     12  H11 UNL     1      21.471  -8.018   5.426  1.00  0.00     0.278 HD
BRANCH  10  13
HETATM   13  C2  UNL     1      21.597  -6.825   7.078  1.00  0.00     0.301 C 
BRANCH  13  14
HETATM   14  C1  UNL     1      22.121  -5.441   6.861  1.00  0.00     0.258 C 
HETATM   15  O1  UNL     1      21.294  -4.538   6.805  1.00  0.00    -0.305 OA
ENDBRANCH  13  14
ENDBRANCH  10  13
ENDBRANCH   9  10
ENDBRANCH   6   9
ENDBRANCH   4   5
ENDBRANCH   3   4
ENDBRANCH   1   3
BRANCH   1  16
HETATM   16  C7  UNL     1      19.732  -4.203  10.817  1.00  0.00     0.060 A 
HETATM   17  C8  UNL     1      19.632  -5.248  11.714  1.00  0.00     0.048 A 
HETATM   18  C9  UNL     1      19.803  -5.022  13.067  1.00  0.00     0.092 A 
HETATM   19  N4  UNL     1      20.069  -3.777  13.514  1.00  0.00    -0.350 N 
HETATM   20  C10 UNL     1      20.178  -2.718  12.680  1.00  0.00     0.135 A 
ATOM     21  H4  UNL     1      20.192  -3.629  14.516  1.00  0.00     0.166 HD
HETATM   22  N5  UNL     1      20.430  -1.419  12.913  1.00  0.00    -0.337 N 
HETATM   23  C12 UNL     1      20.005  -2.956  11.334  1.00  0.00     0.104 A 
HETATM   24  C11 UNL     1      20.416  -0.828  11.705  1.00  0.00     0.182 A 
ATOM     25  H5  UNL     1      20.596  -0.975  13.817  1.00  0.00     0.168 HD
HETATM   26  N6  UNL     1      20.163  -1.738  10.750  1.00  0.00    -0.347 N 
ATOM     27  H6  UNL     1      20.099  -1.547   9.749  1.00  0.00     0.167 HD
ENDBRANCH   1  16
TORSDOF 8
ENDMDL
MODEL 5
REMARK VINA RESULT: -4.956728597      1.222      2.483
REMARK  8 active torsions:
REMARK  status: ('A' for Active; 'I' for Inactive)
REMARK    1  A    between atoms: C1_2  and  C2_3 
REMARK    2  A    between atoms: C2_3  and  N1_4 
REMARK    3  A    between atoms: N1_4  and  C3_7 
REMARK    4  A    between atoms: C3_7  and  C4_8 
REMARK       I    between atoms: C4_8  and  N2_10 
REMARK    5  A    between atoms: N2_10  and  C5_12 
REMARK    6  A    between atoms: C5_12  and  C6_13 
REMARK    7  A    between atoms: C6_13  and  N3_14 
REMARK    8  A    between atoms: N3_14  and  C7_16 
ROOT
HETATM    1  N3  UNL     1      19.157  -5.143   9.449  1.00  0.00    -0.386 N 
ATOM      2  H3  UNL     1      18.196  -4.813   9.365  1.00  0.00     0.159 HD
ENDROOT
BRANCH   1   3
HETATM    3  C6  UNL     1      19.783  -5.192  10.752  1.00  0.00     0.139 C 
BRANCH   3   4
HETATM    4  C5  UNL     1      20.028  -6.610  11.205  1.00  0.00     0.142 C 
BRANCH   4   5
HETATM    5  N2  UNL     1      18.772  -7.330  11.182  1.00  0.00    -0.358 N 
HETATM    6  C4  UNL     1      18.656  -8.601  10.535  1.00  0.00     0.243 C 
HETATM    7  O2  UNL     1      19.689  -9.062   9.998  1.00  0.00    -0.272 OA
ATOM      8  H2  UNL     1      17.954  -6.924  11.636  1.00  0.00     0.162 HD
BRANCH   6   9
HETATM    9  C3  UNL     1      17.330  -9.265  10.552  1.00  0.00     0.335 C 
BRANCH   9  10
HETATM   10  N1  UNL     1      16.454  -8.833   9.486  1.00  0.00    -0.061 N 
ATOM     11  H12 UNL     1      16.217  -9.597   8.853  1.00  0.00     0.278 HD
ATOM     12  H11 UNL     1      16.933  -8.230   8.819  1.00  0.00     0.278 HD
BRANCH  10  13
HETATM   13  C2  UNL     1      15.291  -8.211  10.033  1.00  0.00     0.301 C 
BRANCH  13  14
HETATM   14  C1  UNL     1      15.354  -6.719   9.964  1.00  0.00     0.258 C 
HETATM   15  O1  UNL     1      16.362  -6.229   9.468  1.00  0.00    -0.305 OA
ENDBRANCH  13  14
ENDBRANCH  10  13
ENDBRANCH   9  10
ENDBRANCH   6   9
ENDBRANCH   4   5
ENDBRANCH   3   4
ENDBRANCH   1   3
BRANCH   1  16
HETATM   16  C7  UNL     1      19.861  -5.548   8.289  1.00  0.00     0.060 A 
HETATM   17  C8  UNL     1      21.149  -5.101   8.075  1.00  0.00     0.048 A 
HETATM   18  C9  UNL     1      21.847  -5.500   6.950  1.00  0.00     0.092 A 
HETATM   19  N4  UNL     1      21.267  -6.330   6.058  1.00  0.00    -0.350 N 
HETATM   20  C10 UNL     1      20.009  -6.798   6.218  1.00  0.00     0.135 A 
ATOM     21  H4  UNL     1      21.797  -6.615   5.234  1.00  0.00     0.166 HD
HETATM   22  N5  UNL     1      19.256  -7.615   5.462  1.00  0.00    -0.337 N 
HETATM   23  C12 UNL     1      19.324  -6.392   7.343  1.00  0.00     0.104 A 
HETATM   24  C11 UNL     1      18.084  -7.728   6.112  1.00  0.00     0.182 A 
ATOM     25  H5  UNL     1      19.519  -8.057   4.580  1.00  0.00     0.168 HD
HETATM   26  N6  UNL     1      18.112  -7.000   7.242  1.00  0.00    -0.347 N 
ATOM     27  H6  UNL     1      17.348  -6.917   7.913  1.00  0.00     0.167 HD
ENDBRANCH   1  16
TORSDOF 8
ENDMDL
