MODEL 1
REMARK VINA RESULT: -5.686319697      0.000      0.000
REMARK  10 active torsions:
REMARK  status: ('A' for Active; 'I' for Inactive)
REMARK    1  A    between atoms: C2_2  and  N1_4 
REMARK    2  A    between atoms: C2_2  and  N2_8 
REMARK    3  A    between atoms: N2_8  and  C4_10 
REMARK    4  A    between atoms: C4_10  and  C5_11 
REMARK    5  A    between atoms: C4_10  and  C12_23 
REMARK    6  A    between atoms: C5_11  and  N3_12 
REMARK    7  A    between atoms: N3_12  and  C6_15 
REMARK    8  A    between atoms: C6_15  and  C7_16 
REMARK    9  A    between atoms: C12_23  and  O1_24 
REMARK   10  A    between atoms: O1_24  and  C13_25 
ROOT
HETATM    1  C4  UNL     1      20.448  -5.868   8.636  1.00  0.00     0.129 C 
ENDROOT
BRANCH   1   2
HETATM    2  N2  UNL     1      19.327  -6.658   8.816  1.00  0.00    -0.384 N 
ATOM      3  H2  UNL     1      18.475  -6.359   8.342  1.00  0.00     0.156 HD
BRANCH   2   4
HETATM    4  C2  UNL     1      19.244  -7.811   9.575  1.00  0.00     0.184 C 
HETATM    5  C1  UNL     1      17.805  -8.252   9.870  1.00  0.00     0.070 C 
HETATM    6  C3  UNL     1      19.856  -7.500  10.957  1.00  0.00     0.070 C 
BRANCH   4   7
HETATM    7  N1  UNL     1      19.931  -8.978   9.079  1.00  0.00    -0.054 N 
ATOM      8  H13 UNL     1      20.242  -9.609   9.818  1.00  0.00     0.277 HD
ATOM      9  H12 UNL     1      19.317  -9.637   8.600  1.00  0.00     0.277 HD
ATOM     10  H11 UNL     1      20.693  -8.635   8.493  1.00  0.00     0.277 HD
ENDBRANCH   4   7
ENDBRANCH   2   4
ENDBRANCH   1   2
BRANCH   1  11
HETATM   11  C5  UNL     1      20.170  -4.403   8.734  1.00  0.00     0.259 C 
BRANCH  11  12
HETATM   12  N3  UNL     1      19.802  -3.968  10.077  1.00  0.00    -0.068 N 
ATOM     13  H32 UNL     1      19.045  -4.542  10.450  1.00  0.00     0.277 HD
ATOM     14  H31 UNL     1      20.534  -4.200  10.748  1.00  0.00     0.277 HD
BRANCH  12  15
HETATM   15  C6  UNL     1      19.469  -2.579  10.147  1.00  0.00     0.289 C 
BRANCH  15  16
HETATM   16  C7  UNL     1      20.126  -1.982  11.321  1.00  0.00     0.034 A 
HETATM   17  C8  UNL     1      20.126  -2.609  12.554  1.00  0.00     0.027 A 
HETATM   18  C9  UNL     1      20.734  -2.061  13.662  1.00  0.00     0.003 A 
HETATM   19  C10 UNL     1      21.372  -0.853  13.578  1.00  0.00     0.017 A 
HETATM   20  C11 UNL     1      21.365  -0.225  12.322  1.00  0.00     0.088 A 
HETATM   21  N4  UNL     1      20.757  -0.798  11.261  1.00  0.00    -0.368 N 
ATOM     22  H4  UNL     1      20.777  -0.305  10.368  1.00  0.00     0.165 HD
ENDBRANCH  15  16
ENDBRANCH  12  15
ENDBRANCH  11  12
ENDBRANCH   1  11
BRANCH   1  23
HETATM   23  C12 UNL     1      21.094  -6.185   7.287  1.00  0.00     0.206 C 
BRANCH  23  24
HETATM   24  O1  UNL     1      20.108  -6.148   6.299  1.00  0.00    -0.304 OA
BRANCH  24  25
HETATM   25  C13 UNL     1      19.544  -7.333   5.816  1.00  0.00     0.372 C 
HETATM   26  N5  UNL     1      18.361  -7.407   5.058  1.00  0.00    -0.032 NA
HETATM   27  O2  UNL     1      20.158  -8.397   6.094  1.00  0.00    -0.242 OA
ENDBRANCH  24  25
ENDBRANCH  23  24
ENDBRANCH   1  23
TORSDOF 10
ENDMDL
MODEL 2
REMARK VINA RESULT: -5.592378160      1.121      1.164
REMARK  10 active torsions:
REMARK  status: ('A' for Active; 'I' for Inactive)
REMARK    1  A    between atoms: C2_2  and  N1_4 
REMARK    2  A    between atoms: C2_2  and  N2_8 
REMARK    3  A    between atoms: N2_8  and  C4_10 
REMARK    4  A    between atoms: C4_10  and  C5_11 
REMARK    5  A    between atoms: C4_10  and  C12_23 
REMARK    6  A    between atoms: C5_11  and  N3_12 
REMARK    7  A    between atoms: N3_12  and  C6_15 
REMARK    8  A    between atoms: C6_15  and  C7_16 
REMARK    9  A    between atoms: C12_23  and  O1_24 
REMARK   10  A    between atoms: O1_24  and  C13_25 
ROOT
HETATM    1  C4  UNL     1      19.515  -5.979   8.596  1.00  0.00     0.129 C 
ENDROOT
BRANCH   1   2
HETATM    2  N2  UNL     1      18.971  -6.594   9.708  1.00  0.00    -0.384 N 
ATOM      3  H2  UNL     1      18.400  -6.012  10.321  1.00  0.00     0.156 HD
BRANCH   2   4
HETATM    4  C2  UNL     1      19.122  -7.920  10.074  1.00  0.00     0.184 C 
HETATM    5  C1  UNL     1      17.798  -8.624  10.393  1.00  0.00     0.070 C 
HETATM    6  C3  UNL     1      19.916  -7.946  11.397  1.00  0.00     0.070 C 
BRANCH   4   7
HETATM    7  N1  UNL     1      19.829  -8.780   9.158  1.00  0.00    -0.054 N 
ATOM      8  H13 UNL     1      20.750  -9.060   9.495  1.00  0.00     0.277 HD
ATOM      9  H12 UNL     1      19.429  -9.716   9.091  1.00  0.00     0.277 HD
ATOM     10  H11 UNL     1      19.858  -8.287   8.265  1.00  0.00     0.277 HD
ENDBRANCH   4   7
ENDBRANCH   2   4
ENDBRANCH   1   2
BRANCH   1  11
HETATM   11  C5  UNL     1      20.168  -4.668   8.896  1.00  0.00     0.259 C 
BRANCH  11  12
HETATM   12  N3  UNL     1      19.830  -4.135  10.212  1.00  0.00    -0.068 N 
ATOM     13  H32 UNL     1      19.094  -4.690  10.650  1.00  0.00     0.277 HD
ATOM     14  H31 UNL     1      20.585  -4.305  10.876  1.00  0.00     0.277 HD
BRANCH  12  15
HETATM   15  C6  UNL     1      19.476  -2.751  10.184  1.00  0.00     0.289 C 
BRANCH  15  16
HETATM   16  C7  UNL     1      20.129  -2.061  11.308  1.00  0.00     0.034 A 
HETATM   17  C8  UNL     1      20.162  -2.608  12.580  1.00  0.00     0.027 A 
HETATM   18  C9  UNL     1      20.767  -1.972  13.642  1.00  0.00     0.003 A 
HETATM   19  C10 UNL     1      21.369  -0.755  13.472  1.00  0.00     0.017 A 
HETATM   20  C11 UNL     1      21.330  -0.210  12.178  1.00  0.00     0.088 A 
HETATM   21  N4  UNL     1      20.726  -0.866  11.165  1.00  0.00    -0.368 N 
ATOM     22  H4  UNL     1      20.722  -0.432  10.242  1.00  0.00     0.165 HD
ENDBRANCH  15  16
ENDBRANCH  12  15
ENDBRANCH  11  12
ENDBRANCH   1  11
BRANCH   1  23
HETATM   23  C12 UNL     1      18.436  -5.789   7.529  1.00  0.00     0.206 C 
BRANCH  23  24
HETATM   24  O1  UNL     1      18.097  -7.040   7.009  1.00  0.00    -0.304 OA
BRANCH  24  25
HETATM   25  C13 UNL     1      18.777  -7.555   5.901  1.00  0.00     0.372 C 
HETATM   26  N5  UNL     1      19.912  -8.383   5.971  1.00  0.00    -0.032 NA
HETATM   27  O2  UNL     1      18.320  -7.240   4.771  1.00  0.00    -0.242 OA
ENDBRANCH  24  25
ENDBRANCH  23  24
ENDBRANCH   1  23
TORSDOF 10
ENDMDL
MODEL 3
REMARK VINA RESULT: -5.514247073      1.008      1.050
REMARK  10 active torsions:
REMARK  status: ('A' for Active; 'I' for Inactive)
REMARK    1  A    between atoms: C2_2  and  N1_4 
REMARK    2  A    between atoms: C2_2  and  N2_8 
REMARK    3  A    between atoms: N2_8  and  C4_10 
REMARK    4  A    between atoms: C4_10  and  C5_11 
REMARK    5  A    between atoms: C4_10  and  C12_23 
REMARK    6  A    between atoms: C5_11  and  N3_12 
REMARK    7  A    between atoms: N3_12  and  C6_15 
REMARK    8  A    between atoms: C6_15  and  C7_16 
REMARK    9  A    between atoms: C12_23  and  O1_24 
REMARK   10  A    between atoms: O1_24  and  C13_25 
ROOT
HETATM    1  C4  UNL     1      20.038  -5.946   8.776  1.00  0.00     0.129 C 
ENDROOT
BRANCH   1   2
HETATM    2  N2  UNL     1      18.679  -6.200   8.788  1.00  0.00    -0.384 N 
ATOM      3  H2  UNL     1      18.067  -5.436   8.503  1.00  0.00     0.156 HD
BRANCH   2   4
HETATM    4  C2  UNL     1      18.065  -7.387   9.146  1.00  0.00     0.184 C 
HETATM    5  C1  UNL     1      17.176  -7.268  10.390  1.00  0.00     0.070 C 
HETATM    6  C3  UNL     1      19.178  -8.379   9.547  1.00  0.00     0.070 C 
BRANCH   4   7
HETATM    7  N1  UNL     1      17.271  -8.050   8.142  1.00  0.00    -0.054 N 
ATOM      8  H13 UNL     1      16.267  -7.923   8.271  1.00  0.00     0.277 HD
ATOM      9  H12 UNL     1      17.337  -7.614   7.222  1.00  0.00     0.277 HD
ATOM     10  H11 UNL     1      17.559  -9.028   8.148  1.00  0.00     0.277 HD
ENDBRANCH   4   7
ENDBRANCH   2   4
ENDBRANCH   1   2
BRANCH   1  11
HETATM   11  C5  UNL     1      20.488  -5.045   9.880  1.00  0.00     0.259 C 
BRANCH  11  12
HETATM   12  N3  UNL     1      19.404  -4.280  10.488  1.00  0.00    -0.068 N 
ATOM     13  H32 UNL     1      18.496  -4.655  10.211  1.00  0.00     0.277 HD
ATOM     14  H31 UNL     1      19.358  -4.452  11.492  1.00  0.00     0.277 HD
BRANCH  12  15
HETATM   15  C6  UNL     1      19.482  -2.880  10.213  1.00  0.00     0.289 C 
BRANCH  15  16
HETATM   16  C7  UNL     1      20.107  -2.195  11.357  1.00  0.00     0.034 A 
HETATM   17  C8  UNL     1      20.086  -2.736  12.630  1.00  0.00     0.027 A 
HETATM   18  C9  UNL     1      20.665  -2.105  13.710  1.00  0.00     0.003 A 
HETATM   19  C10 UNL     1      21.293  -0.899  13.556  1.00  0.00     0.017 A 
HETATM   20  C11 UNL     1      21.308  -0.360  12.260  1.00  0.00     0.088 A 
HETATM   21  N4  UNL     1      20.728  -1.011  11.228  1.00  0.00    -0.368 N 
ATOM     22  H4  UNL     1      20.764  -0.581  10.304  1.00  0.00     0.165 HD
ENDBRANCH  15  16
ENDBRANCH  12  15
ENDBRANCH  11  12
ENDBRANCH   1  11
BRANCH   1  23
HETATM   23  C12 UNL     1      20.444  -5.356   7.426  1.00  0.00     0.206 C 
BRANCH  23  24
HETATM   24  O1  UNL     1      20.982  -6.374   6.636  1.00  0.00    -0.304 OA
BRANCH  24  25
HETATM   25  C13 UNL     1      20.146  -7.318   6.032  1.00  0.00     0.372 C 
HETATM   26  N5  UNL     1      18.871  -7.042   5.507  1.00  0.00    -0.032 NA
HETATM   27  O2  UNL     1      20.591  -8.494   5.966  1.00  0.00    -0.242 OA
ENDBRANCH  24  25
ENDBRANCH  23  24
ENDBRANCH   1  23
TORSDOF 10
ENDMDL
MODEL 4
REMARK VINA RESULT: -5.470767480      1.714      2.274
REMARK  10 active torsions:
REMARK  status: ('A' for Active; 'I' for Inactive)
REMARK    1  A    between atoms: C2_2  and  N1_4 
REMARK    2  A    between atoms: C2_2  and  N2_8 
REMARK    3  A    between atoms: N2_8  and  C4_10 
REMARK    4  A    between atoms: C4_10  and  C5_11 
REMARK    5  A    between atoms: C4_10  and  C12_23 
REMARK    6  A    between atoms: C5_11  and  N3_12 
REMARK    7  A    between atoms: N3_12  and  C6_15 
REMARK    8  A    between atoms: C6_15  and  C7_16 
REMARK    9  A    between atoms: C12_23  and  O1_24 
REMARK   10  A    between atoms: O1_24  and  C13_25 
ROOT
HETATM    1  C4  UNL     1      18.513  -6.853   7.902  1.00  0.00     0.129 C 
ENDROOT
BRANCH   1   2
HETATM    2  N2  UNL     1      17.669  -7.765   8.509  1.00  0.00    -0.384 N 
ATOM      3  H2  UNL     1      16.873  -8.089   7.961  1.00  0.00     0.156 HD
BRANCH   2   4
HETATM    4  C2  UNL     1      17.796  -8.281   9.787  1.00  0.00     0.184 C 
HETATM    5  C1  UNL     1      17.363  -7.307  10.889  1.00  0.00     0.070 C 
HETATM    6  C3  UNL     1      19.298  -8.525  10.039  1.00  0.00     0.070 C 
BRANCH   4   7
HETATM    7  N1  UNL     1      17.129  -9.529  10.063  1.00  0.00    -0.054 N 
ATOM      8  H13 UNL     1      17.553 -10.328   9.593  1.00  0.00     0.277 HD
ATOM      9  H12 UNL     1      17.265  -9.858  11.019  1.00  0.00     0.277 HD
ATOM     10  H11 UNL     1      16.148  -9.390   9.819  1.00  0.00     0.277 HD
ENDBRANCH   4   7
ENDBRANCH   2   4
ENDBRANCH   1   2
BRANCH   1  11
HETATM   11  C5  UNL     1      17.942  -5.475   7.814  1.00  0.00     0.259 C 
BRANCH  11  12
HETATM   12  N3  UNL     1      18.828  -4.441   8.338  1.00  0.00    -0.068 N 
ATOM     13  H32 UNL     1      19.331  -3.977   7.582  1.00  0.00     0.277 HD
ATOM     14  H31 UNL     1      18.292  -3.650   8.693  1.00  0.00     0.277 HD
BRANCH  12  15
HETATM   15  C6  UNL     1      19.735  -4.928   9.330  1.00  0.00     0.289 C 
BRANCH  15  16
HETATM   16  C7  UNL     1      19.835  -3.944  10.421  1.00  0.00     0.034 A 
HETATM   17  C8  UNL     1      19.733  -4.317  11.750  1.00  0.00     0.027 A 
HETATM   18  C9  UNL     1      19.822  -3.408  12.781  1.00  0.00     0.003 A 
HETATM   19  C10 UNL     1      20.019  -2.079  12.520  1.00  0.00     0.017 A 
HETATM   20  C11 UNL     1      20.121  -1.713  11.168  1.00  0.00     0.088 A 
HETATM   21  N4  UNL     1      20.027  -2.636  10.188  1.00  0.00    -0.368 N 
ATOM     22  H4  UNL     1      20.108  -2.324   9.220  1.00  0.00     0.165 HD
ENDBRANCH  15  16
ENDBRANCH  12  15
ENDBRANCH  11  12
ENDBRANCH   1  11
BRANCH   1  23
HETATM   23  C12 UNL     1      18.893  -7.348   6.506  1.00  0.00     0.206 C 
BRANCH  23  24
HETATM   24  O1  UNL     1      19.986  -6.610   6.052  1.00  0.00    -0.304 OA
BRANCH  24  25
HETATM   25  C13 UNL     1      21.247  -6.780   6.633  1.00  0.00     0.372 C 
HETATM   26  N5  UNL     1      22.173  -5.745   6.856  1.00  0.00    -0.032 NA
HETATM   27  O2  UNL     1      21.551  -7.954   6.970  1.00  0.00    -0.242 OA
ENDBRANCH  24  25
ENDBRANCH  23  24
ENDBRANCH   1  23
TORSDOF 10
ENDMDL
MODEL 5
REMARK VINA RESULT: -5.428770120      3.033      7.420
REMARK  10 active torsions:
REMARK  status: ('A' for Active; 'I' for Inactive)
REMARK    1  A    between atoms: C2_2  and  N1_4 
REMARK    2  A    between atoms: C2_2  and  N2_8 
REMARK    3  A    between atoms: N2_8  and  C4_10 
REMARK    4  A    between atoms: C4_10  and  C5_11 
REMARK    5  A    between atoms: C4_10  and  C12_23 
REMARK    6  A    between atoms: C5_11  and  N3_12 
REMARK    7  A    between atoms: N3_12  and  C6_15 
REMARK    8  A    between atoms: C6_15  and  C7_16 
REMARK    9  A    between atoms: C12_23  and  O1_24 
REMARK   10  A    between atoms: O1_24  and  C13_25 
ROOT
HETATM    1  C4  UNL     1      19.111  -7.349   8.993  1.00  0.00     0.129 C 
ENDROOT
BRANCH   1   2
HETATM    2  N2  UNL     1      19.716  -6.193   9.450  1.00  0.00    -0.384 N 
ATOM      3  H2  UNL     1      20.179  -6.245  10.356  1.00  0.00     0.156 HD
BRANCH   2   4
HETATM    4  C2  UNL     1      19.756  -4.972   8.801  1.00  0.00     0.184 C 
HETATM    5  C1  UNL     1      19.759  -3.770   9.753  1.00  0.00     0.070 C 
HETATM    6  C3  UNL     1      18.449  -4.836   7.992  1.00  0.00     0.070 C 
BRANCH   4   7
HETATM    7  N1  UNL     1      20.835  -4.755   7.870  1.00  0.00    -0.054 N 
ATOM      8  H13 UNL     1      20.646  -4.011   7.197  1.00  0.00     0.277 HD
ATOM      9  H12 UNL     1      21.660  -4.332   8.297  1.00  0.00     0.277 HD
ATOM     10  H11 UNL     1      21.023  -5.657   7.432  1.00  0.00     0.277 HD
ENDBRANCH   4   7
ENDBRANCH   2   4
ENDBRANCH   1   2
BRANCH   1  11
HETATM   11  C5  UNL     1      18.114  -7.921   9.948  1.00  0.00     0.259 C 
BRANCH  11  12
HETATM   12  N3  UNL     1      17.132  -8.794   9.314  1.00  0.00    -0.068 N 
ATOM     13  H32 UNL     1      16.468  -8.253   8.761  1.00  0.00     0.277 HD
ATOM     14  H31 UNL     1      17.563  -9.343   8.569  1.00  0.00     0.277 HD
BRANCH  12  15
HETATM   15  C6  UNL     1      16.451  -9.642  10.242  1.00  0.00     0.289 C 
BRANCH  15  16
HETATM   16  C7  UNL     1      15.255 -10.206   9.595  1.00  0.00     0.034 A 
HETATM   17  C8  UNL     1      14.358  -9.412   8.902  1.00  0.00     0.027 A 
HETATM   18  C9  UNL     1      13.233  -9.925   8.294  1.00  0.00     0.003 A 
HETATM   19  C10 UNL     1      12.960 -11.265   8.356  1.00  0.00     0.017 A 
HETATM   20  C11 UNL     1      13.877 -12.061   9.062  1.00  0.00     0.088 A 
HETATM   21  N4  UNL     1      14.967 -11.517   9.644  1.00  0.00    -0.368 N 
ATOM     22  H4  UNL     1      15.606 -12.134  10.146  1.00  0.00     0.165 HD
ENDBRANCH  15  16
ENDBRANCH  12  15
ENDBRANCH  11  12
ENDBRANCH   1  11
BRANCH   1  23
HETATM   23  C12 UNL     1      20.176  -8.397   8.665  1.00  0.00     0.206 C 
BRANCH  23  24
HETATM   24  O1  UNL     1      20.907  -7.960   7.560  1.00  0.00    -0.304 OA
BRANCH  24  25
HETATM   25  C13 UNL     1      20.310  -7.890   6.297  1.00  0.00     0.372 C 
HETATM   26  N5  UNL     1      20.210  -6.721   5.521  1.00  0.00    -0.032 NA
HETATM   27  O2  UNL     1      19.835  -8.965   5.845  1.00  0.00    -0.242 OA
ENDBRANCH  24  25
ENDBRANCH  23  24
ENDBRANCH   1  23
TORSDOF 10
ENDMDL
