MODEL 1
REMARK VINA RESULT: -6.053771727      0.000      0.000
REMARK  9 active torsions:
REMARK  status: ('A' for Active; 'I' for Inactive)
REMARK    1  A    between atoms: C2_2  and  C3_3 
REMARK    2  A    between atoms: C2_2  and  C4_6 
REMARK    3  A    between atoms: C4_6  and  C5_7 
REMARK    4  A    between atoms: C4_6  and  N2_10 
REMARK    5  A    between atoms: C5_7  and  C6_8 
REMARK    6  A    between atoms: N2_10  and  C7_13 
REMARK    7  A    between atoms: C7_13  and  O3_14 
REMARK    8  A    between atoms: C7_13  and  C8_16 
REMARK    9  A    between atoms: C11_19  and  C12_20 
ROOT
HETATM    1  N2  UNL     1      19.227  -8.035   8.146  1.00  0.00    -0.037 N 
ATOM      2  H21 UNL     1      19.533  -8.370   7.232  1.00  0.00     0.281 HD
ATOM      3  H22 UNL     1      18.345  -8.543   8.211  1.00  0.00     0.281 HD
ENDROOT
BRANCH   1   4
HETATM    4  C4  UNL     1      19.018  -6.602   8.145  1.00  0.00     0.208 C 
BRANCH   4   5
HETATM    5  C2  UNL     1      20.245  -5.838   8.341  1.00  0.00     0.102 C 
HETATM    6  C1  UNL     1      20.016  -4.568   9.169  1.00  0.00     0.021 C 
BRANCH   5   7
HETATM    7  C3  UNL     1      21.157  -5.537   7.263  1.00  0.00     0.236 C 
HETATM    8  N1  UNL     1      21.839  -6.661   6.700  1.00  0.00    -0.062 NA
HETATM    9  O1  UNL     1      21.454  -4.449   6.734  1.00  0.00    -0.276 OA
ENDBRANCH   5   7
ENDBRANCH   4   5
BRANCH   4  10
HETATM   10  C5  UNL     1      18.069  -6.302   7.066  1.00  0.00     0.103 C 
BRANCH  10  11
HETATM   11  C6  UNL     1      17.971  -7.226   5.932  1.00  0.00     0.233 C 
HETATM   12  O2  UNL     1      18.886  -7.317   5.148  1.00  0.00    -0.307 OA
ENDBRANCH  10  11
ENDBRANCH   4  10
ENDBRANCH   1   4
BRANCH   1  13
HETATM   13  C7  UNL     1      20.128  -8.420   9.171  1.00  0.00     0.377 C 
BRANCH  13  14
HETATM   14  O3  UNL     1      20.442  -9.797   8.872  1.00  0.00    -0.365 OA
ATOM     15  H3  UNL     1      20.739  -9.779   7.970  1.00  0.00     0.212 HD
ENDBRANCH  13  14
BRANCH  13  16
HETATM   16  C8  UNL     1      19.429  -8.521  10.505  1.00  0.00     0.109 A 
HETATM   17  C9  UNL     1      19.594  -7.825  11.654  1.00  0.00     0.040 A 
HETATM   18  C10 UNL     1      18.683  -8.336  12.577  1.00  0.00     0.045 A 
HETATM   19  C11 UNL     1      18.002  -9.328  11.936  1.00  0.00     0.140 A 
HETATM   20  O5  UNL     1      18.473  -9.402  10.722  1.00  0.00    -0.305 OA
BRANCH  19  21
HETATM   21  C12 UNL     1      16.943 -10.169  12.469  1.00  0.00     0.288 C 
HETATM   22  N3  UNL     1      16.952 -11.554  12.140  1.00  0.00    -0.055 NA
HETATM   23  O4  UNL     1      16.024  -9.744  13.199  1.00  0.00    -0.269 OA
ENDBRANCH  19  21
ENDBRANCH  13  16
ENDBRANCH   1  13
TORSDOF 9
ENDMDL
MODEL 2
REMARK VINA RESULT: -5.856719133      1.840      2.184
REMARK  9 active torsions:
REMARK  status: ('A' for Active; 'I' for Inactive)
REMARK    1  A    between atoms: C2_2  and  C3_3 
REMARK    2  A    between atoms: C2_2  and  C4_6 
REMARK    3  A    between atoms: C4_6  and  C5_7 
REMARK    4  A    between atoms: C4_6  and  N2_10 
REMARK    5  A    between atoms: C5_7  and  C6_8 
REMARK    6  A    between atoms: N2_10  and  C7_13 
REMARK    7  A    between atoms: C7_13  and  O3_14 
REMARK    8  A    between atoms: C7_13  and  C8_16 
REMARK    9  A    between atoms: C11_19  and  C12_20 
ROOT
HETATM    1  N2  UNL     1      19.206  -8.041   8.121  1.00  0.00    -0.037 N 
ATOM      2  H21 UNL     1      19.468  -8.413   7.208  1.00  0.00     0.281 HD
ATOM      3  H22 UNL     1      18.322  -8.536   8.244  1.00  0.00     0.281 HD
ENDROOT
BRANCH   1   4
HETATM    4  C4  UNL     1      19.011  -6.607   8.077  1.00  0.00     0.208 C 
BRANCH   4   5
HETATM    5  C2  UNL     1      20.240  -5.849   8.285  1.00  0.00     0.102 C 
HETATM    6  C1  UNL     1      20.011  -4.586   9.123  1.00  0.00     0.021 C 
BRANCH   5   7
HETATM    7  C3  UNL     1      21.157  -5.541   7.213  1.00  0.00     0.236 C 
HETATM    8  N1  UNL     1      21.881  -6.655   6.682  1.00  0.00    -0.062 NA
HETATM    9  O1  UNL     1      21.428  -4.455   6.667  1.00  0.00    -0.276 OA
ENDBRANCH   5   7
ENDBRANCH   4   5
BRANCH   4  10
HETATM   10  C5  UNL     1      18.093  -6.328   6.966  1.00  0.00     0.103 C 
BRANCH  10  11
HETATM   11  C6  UNL     1      17.967  -7.312   5.886  1.00  0.00     0.233 C 
HETATM   12  O2  UNL     1      18.921  -7.569   5.191  1.00  0.00    -0.307 OA
ENDBRANCH  10  11
ENDBRANCH   4  10
ENDBRANCH   1   4
BRANCH   1  13
HETATM   13  C7  UNL     1      20.147  -8.399   9.120  1.00  0.00     0.377 C 
BRANCH  13  14
HETATM   14  O3  UNL     1      20.348  -9.816   8.930  1.00  0.00    -0.365 OA
ATOM     15  H3  UNL     1      19.912 -10.216   9.673  1.00  0.00     0.212 HD
ENDBRANCH  13  14
BRANCH  13  16
HETATM   16  C8  UNL     1      19.536  -8.333  10.498  1.00  0.00     0.109 A 
HETATM   17  C9  UNL     1      18.377  -8.835  10.984  1.00  0.00     0.040 A 
HETATM   18  C10 UNL     1      18.307  -8.475  12.329  1.00  0.00     0.045 A 
HETATM   19  C11 UNL     1      19.439  -7.765  12.596  1.00  0.00     0.140 A 
HETATM   20  O5  UNL     1      20.132  -7.706  11.492  1.00  0.00    -0.305 OA
BRANCH  19  21
HETATM   21  C12 UNL     1      19.839  -7.168  13.861  1.00  0.00     0.288 C 
HETATM   22  N3  UNL     1      19.789  -7.978  15.032  1.00  0.00    -0.055 NA
HETATM   23  O4  UNL     1      20.223  -5.987  13.978  1.00  0.00    -0.269 OA
ENDBRANCH  19  21
ENDBRANCH  13  16
ENDBRANCH   1  13
TORSDOF 9
ENDMDL
MODEL 3
REMARK VINA RESULT: -5.851089585      1.080      1.080
REMARK  9 active torsions:
REMARK  status: ('A' for Active; 'I' for Inactive)
REMARK    1  A    between atoms: C2_2  and  C3_3 
REMARK    2  A    between atoms: C2_2  and  C4_6 
REMARK    3  A    between atoms: C4_6  and  C5_7 
REMARK    4  A    between atoms: C4_6  and  N2_10 
REMARK    5  A    between atoms: C5_7  and  C6_8 
REMARK    6  A    between atoms: N2_10  and  C7_13 
REMARK    7  A    between atoms: C7_13  and  O3_14 
REMARK    8  A    between atoms: C7_13  and  C8_16 
REMARK    9  A    between atoms: C11_19  and  C12_20 
ROOT
HETATM    1  N2  UNL     1      19.162  -7.993   8.261  1.00  0.00    -0.037 N 
ATOM      2  H21 UNL     1      19.395  -8.372   7.343  1.00  0.00     0.281 HD
ATOM      3  H22 UNL     1      18.263  -8.455   8.397  1.00  0.00     0.281 HD
ENDROOT
BRANCH   1   4
HETATM    4  C4  UNL     1      19.019  -6.552   8.221  1.00  0.00     0.208 C 
BRANCH   4   5
HETATM    5  C2  UNL     1      20.290  -5.842   8.314  1.00  0.00     0.102 C 
HETATM    6  C1  UNL     1      20.122  -4.413   8.844  1.00  0.00     0.021 C 
BRANCH   5   7
HETATM    7  C3  UNL     1      21.260  -5.835   7.244  1.00  0.00     0.236 C 
HETATM    8  N1  UNL     1      21.519  -4.557   6.656  1.00  0.00    -0.062 NA
HETATM    9  O1  UNL     1      21.915  -6.765   6.741  1.00  0.00    -0.276 OA
ENDBRANCH   5   7
ENDBRANCH   4   5
BRANCH   4  10
HETATM   10  C5  UNL     1      18.018  -6.243   7.192  1.00  0.00     0.103 C 
BRANCH  10  11
HETATM   11  C6  UNL     1      17.895  -7.135   6.035  1.00  0.00     0.233 C 
HETATM   12  O2  UNL     1      18.808  -7.236   5.251  1.00  0.00    -0.307 OA
ENDBRANCH  10  11
ENDBRANCH   4  10
ENDBRANCH   1   4
BRANCH   1  13
HETATM   13  C7  UNL     1      20.105  -8.386   9.245  1.00  0.00     0.377 C 
BRANCH  13  14
HETATM   14  O3  UNL     1      20.403  -9.762   8.923  1.00  0.00    -0.365 OA
ATOM     15  H3  UNL     1      21.043 -10.022   9.576  1.00  0.00     0.212 HD
ENDBRANCH  13  14
BRANCH  13  16
HETATM   16  C8  UNL     1      19.464  -8.496  10.606  1.00  0.00     0.109 A 
HETATM   17  C9  UNL     1      19.443  -7.639  11.654  1.00  0.00     0.040 A 
HETATM   18  C10 UNL     1      18.704  -8.249  12.667  1.00  0.00     0.045 A 
HETATM   19  C11 UNL     1      18.307  -9.458  12.179  1.00  0.00     0.140 A 
HETATM   20  O5  UNL     1      18.776  -9.561  10.965  1.00  0.00    -0.305 OA
BRANCH  19  21
HETATM   21  C12 UNL     1      17.510 -10.471  12.850  1.00  0.00     0.288 C 
HETATM   22  N3  UNL     1      16.761 -10.086  13.999  1.00  0.00    -0.055 NA
HETATM   23  O4  UNL     1      17.445 -11.660  12.477  1.00  0.00    -0.269 OA
ENDBRANCH  19  21
ENDBRANCH  13  16
ENDBRANCH   1  13
TORSDOF 9
ENDMDL
MODEL 4
REMARK VINA RESULT: -5.662825403      1.542      2.080
REMARK  9 active torsions:
REMARK  status: ('A' for Active; 'I' for Inactive)
REMARK    1  A    between atoms: C2_2  and  C3_3 
REMARK    2  A    between atoms: C2_2  and  C4_6 
REMARK    3  A    between atoms: C4_6  and  C5_7 
REMARK    4  A    between atoms: C4_6  and  N2_10 
REMARK    5  A    between atoms: C5_7  and  C6_8 
REMARK    6  A    between atoms: N2_10  and  C7_13 
REMARK    7  A    between atoms: C7_13  and  O3_14 
REMARK    8  A    between atoms: C7_13  and  C8_16 
REMARK    9  A    between atoms: C11_19  and  C12_20 
ROOT
HETATM    1  N2  UNL     1      19.371  -7.330   8.861  1.00  0.00    -0.037 N 
ATOM      2  H21 UNL     1      19.031  -7.798   8.021  1.00  0.00     0.281 HD
ATOM      3  H22 UNL     1      18.505  -6.873   9.147  1.00  0.00     0.281 HD
ENDROOT
BRANCH   1   4
HETATM    4  C4  UNL     1      20.405  -6.364   8.550  1.00  0.00     0.208 C 
BRANCH   4   5
HETATM    5  C2  UNL     1      21.101  -6.643   7.299  1.00  0.00     0.102 C 
HETATM    6  C1  UNL     1      21.985  -5.474   6.849  1.00  0.00     0.021 C 
BRANCH   5   7
HETATM    7  C3  UNL     1      20.437  -7.201   6.144  1.00  0.00     0.236 C 
HETATM    8  N1  UNL     1      20.140  -8.598   6.219  1.00  0.00    -0.062 NA
HETATM    9  O1  UNL     1      20.076  -6.663   5.081  1.00  0.00    -0.276 OA
ENDBRANCH   5   7
ENDBRANCH   4   5
BRANCH   4  10
HETATM   10  C5  UNL     1      19.869  -5.035   8.872  1.00  0.00     0.103 C 
BRANCH  10  11
HETATM   11  C6  UNL     1      18.528  -4.679   8.398  1.00  0.00     0.233 C 
HETATM   12  O2  UNL     1      18.251  -4.797   7.228  1.00  0.00    -0.307 OA
ENDBRANCH  10  11
ENDBRANCH   4  10
ENDBRANCH   1   4
BRANCH   1  13
HETATM   13  C7  UNL     1      19.817  -8.260   9.834  1.00  0.00     0.377 C 
BRANCH  13  14
HETATM   14  O3  UNL     1      20.065  -9.469   9.085  1.00  0.00    -0.365 OA
ATOM     15  H3  UNL     1      20.960  -9.702   9.305  1.00  0.00     0.212 HD
ENDBRANCH  13  14
BRANCH  13  16
HETATM   16  C8  UNL     1      18.696  -8.667  10.757  1.00  0.00     0.109 A 
HETATM   17  C9  UNL     1      18.276  -8.147  11.934  1.00  0.00     0.040 A 
HETATM   18  C10 UNL     1      17.195  -8.918  12.360  1.00  0.00     0.045 A 
HETATM   19  C11 UNL     1      17.010  -9.878  11.411  1.00  0.00     0.140 A 
HETATM   20  O5  UNL     1      17.913  -9.693  10.488  1.00  0.00    -0.305 OA
BRANCH  19  21
HETATM   21  C12 UNL     1      16.006 -10.929  11.392  1.00  0.00     0.288 C 
HETATM   22  N3  UNL     1      16.448 -12.284  11.408  1.00  0.00    -0.055 NA
HETATM   23  O4  UNL     1      14.778 -10.712  11.362  1.00  0.00    -0.269 OA
ENDBRANCH  19  21
ENDBRANCH  13  16
ENDBRANCH   1  13
TORSDOF 9
ENDMDL
MODEL 5
REMARK VINA RESULT: -5.531664593      1.051      1.160
REMARK  9 active torsions:
REMARK  status: ('A' for Active; 'I' for Inactive)
REMARK    1  A    between atoms: C2_2  and  C3_3 
REMARK    2  A    between atoms: C2_2  and  C4_6 
REMARK    3  A    between atoms: C4_6  and  C5_7 
REMARK    4  A    between atoms: C4_6  and  N2_10 
REMARK    5  A    between atoms: C5_7  and  C6_8 
REMARK    6  A    between atoms: N2_10  and  C7_13 
REMARK    7  A    between atoms: C7_13  and  O3_14 
REMARK    8  A    between atoms: C7_13  and  C8_16 
REMARK    9  A    between atoms: C11_19  and  C12_20 
ROOT
HETATM    1  N2  UNL     1      19.052  -7.900   8.227  1.00  0.00    -0.037 N 
ATOM      2  H21 UNL     1      19.719  -8.281   7.555  1.00  0.00     0.281 HD
ATOM      3  H22 UNL     1      18.216  -8.396   7.915  1.00  0.00     0.281 HD
ENDROOT
BRANCH   1   4
HETATM    4  C4  UNL     1      18.907  -6.467   8.080  1.00  0.00     0.208 C 
BRANCH   4   5
HETATM    5  C2  UNL     1      20.145  -5.733   8.316  1.00  0.00     0.102 C 
HETATM    6  C1  UNL     1      19.908  -4.415   9.063  1.00  0.00     0.021 C 
BRANCH   5   7
HETATM    7  C3  UNL     1      21.133  -5.517   7.286  1.00  0.00     0.236 C 
HETATM    8  N1  UNL     1      21.812  -6.690   6.828  1.00  0.00    -0.062 NA
HETATM    9  O1  UNL     1      21.498  -4.469   6.722  1.00  0.00    -0.276 OA
ENDBRANCH   5   7
ENDBRANCH   4   5
BRANCH   4  10
HETATM   10  C5  UNL     1      18.067  -6.234   6.898  1.00  0.00     0.103 C 
BRANCH  10  11
HETATM   11  C6  UNL     1      17.995  -7.272   5.865  1.00  0.00     0.233 C 
HETATM   12  O2  UNL     1      18.951  -7.486   5.158  1.00  0.00    -0.307 OA
ENDBRANCH  10  11
ENDBRANCH   4  10
ENDBRANCH   1   4
BRANCH   1  13
HETATM   13  C7  UNL     1      19.396  -8.246   9.559  1.00  0.00     0.377 C 
BRANCH  13  14
HETATM   14  O3  UNL     1      20.056  -9.524   9.436  1.00  0.00    -0.365 OA
ATOM     15  H3  UNL     1      19.654  -9.923   8.673  1.00  0.00     0.212 HD
ENDBRANCH  13  14
BRANCH  13  16
HETATM   16  C8  UNL     1      18.171  -8.582  10.372  1.00  0.00     0.109 A 
HETATM   17  C9  UNL     1      17.294  -7.790  11.032  1.00  0.00     0.040 A 
HETATM   18  C10 UNL     1      16.348  -8.629  11.620  1.00  0.00     0.045 A 
HETATM   19  C11 UNL     1      16.700  -9.902  11.284  1.00  0.00     0.140 A 
HETATM   20  O5  UNL     1      17.777  -9.827  10.551  1.00  0.00    -0.305 OA
BRANCH  19  21
HETATM   21  C12 UNL     1      16.030 -11.138  11.652  1.00  0.00     0.288 C 
HETATM   22  N3  UNL     1      16.804 -12.332  11.710  1.00  0.00    -0.055 NA
HETATM   23  O4  UNL     1      14.813 -11.212  11.919  1.00  0.00    -0.269 OA
ENDBRANCH  19  21
ENDBRANCH  13  16
ENDBRANCH   1  13
TORSDOF 9
ENDMDL
