MODEL 1
REMARK VINA RESULT: -5.515077157      0.000      0.000
REMARK  9 active torsions:
REMARK  status: ('A' for Active; 'I' for Inactive)
REMARK    1  A    between atoms: N1_1  and  C1_4 
REMARK    2  A    between atoms: C3_8  and  C4_9 
REMARK    3  A    between atoms: C4_9  and  C5_10 
REMARK    4  A    between atoms: C4_9  and  C7_15 
REMARK    5  A    between atoms: C5_10  and  C6_11 
REMARK    6  A    between atoms: C6_11  and  N3_12 
REMARK    7  A    between atoms: C7_15  and  N4_16 
REMARK    8  A    between atoms: N4_16  and  C8_19 
REMARK    9  A    between atoms: C8_19  and  C9_20 
ROOT
HETATM    1  C4  UNL     1      19.846  -4.843   8.505  1.00  0.00     0.051 C 
ENDROOT
BRANCH   1   2
HETATM    2  C3  UNL     1      19.155  -6.113   8.970  1.00  0.00     0.005 A 
HETATM    3  C2  UNL     1      19.507  -6.730  10.131  1.00  0.00     0.117 A 
HETATM    4  N2  UNL     1      18.815  -7.854  10.493  1.00  0.00    -0.202 N 
HETATM    5  C1  UNL     1      17.803  -8.331   9.699  1.00  0.00     0.676 A 
ATOM      6  H2  UNL     1      19.054  -8.340  11.357  1.00  0.00     0.183 HD
HETATM    7  N6  UNL     1      17.482  -7.696   8.556  1.00  0.00    -0.179 N 
HETATM    8  C12 UNL     1      18.134  -6.568   8.143  1.00  0.00     0.140 A 
ATOM      9  H6  UNL     1      16.728  -8.069   7.980  1.00  0.00     0.185 HD
HETATM   10  N5  UNL     1      17.771  -5.940   6.916  1.00  0.00    -0.082 NA
BRANCH   5  11
HETATM   11  N1  UNL     1      17.193  -9.407  10.080  1.00  0.00    -0.234 N 
ATOM     12  H12 UNL     1      17.590 -10.335   9.933  1.00  0.00     0.174 HD
ATOM     13  H11 UNL     1      16.294  -9.302  10.551  1.00  0.00     0.174 HD
ENDBRANCH   5  11
ENDBRANCH   1   2
BRANCH   1  14
HETATM   14  C5  UNL     1      21.244  -5.236   8.113  1.00  0.00     0.037 C 
BRANCH  14  15
HETATM   15  C6  UNL     1      21.492  -5.509   6.662  1.00  0.00     0.202 C 
BRANCH  15  16
HETATM   16  N3  UNL     1      21.121  -6.920   6.370  1.00  0.00    -0.156 N 
HETATM   17  O1  UNL     1      21.533  -7.864   7.030  1.00  0.00    -0.537 OA
HETATM   18  O2  UNL     1      20.286  -7.071   5.312  1.00  0.00    -0.537 OA
ENDBRANCH  15  16
ENDBRANCH  14  15
ENDBRANCH   1  14
BRANCH   1  19
HETATM   19  C7  UNL     1      19.935  -3.931   9.729  1.00  0.00     0.241 C 
BRANCH  19  20
HETATM   20  N4  UNL     1      18.782  -3.134   9.854  1.00  0.00    -0.074 N 
ATOM     21  H42 UNL     1      18.488  -2.789   8.939  1.00  0.00     0.277 HD
ATOM     22  H41 UNL     1      17.975  -3.710  10.091  1.00  0.00     0.277 HD
BRANCH  20  23
HETATM   23  C8  UNL     1      18.912  -2.031  10.794  1.00  0.00     0.237 C 
BRANCH  23  24
HETATM   24  C9  UNL     1      20.215  -2.246  11.519  1.00  0.00     0.011 A 
HETATM   25  C10 UNL     1      20.436  -1.883  12.938  1.00  0.00     0.007 A 
HETATM   26  C11 UNL     1      20.878  -0.913  11.903  1.00  0.00     0.007 A 
ENDBRANCH  23  24
ENDBRANCH  20  23
ENDBRANCH  19  20
ENDBRANCH   1  19
TORSDOF 9
ENDMDL
MODEL 2
REMARK VINA RESULT: -5.412043151      3.246      5.171
REMARK  9 active torsions:
REMARK  status: ('A' for Active; 'I' for Inactive)
REMARK    1  A    between atoms: N1_1  and  C1_4 
REMARK    2  A    between atoms: C3_8  and  C4_9 
REMARK    3  A    between atoms: C4_9  and  C5_10 
REMARK    4  A    between atoms: C4_9  and  C7_15 
REMARK    5  A    between atoms: C5_10  and  C6_11 
REMARK    6  A    between atoms: C6_11  and  N3_12 
REMARK    7  A    between atoms: C7_15  and  N4_16 
REMARK    8  A    between atoms: N4_16  and  C8_19 
REMARK    9  A    between atoms: C8_19  and  C9_20 
ROOT
HETATM    1  C4  UNL     1      17.775  -6.725   8.043  1.00  0.00     0.051 C 
ENDROOT
BRANCH   1   2
HETATM    2  C3  UNL     1      19.190  -6.356   7.629  1.00  0.00     0.005 A 
HETATM    3  C2  UNL     1      19.906  -5.418   8.304  1.00  0.00     0.117 A 
HETATM    4  N2  UNL     1      21.184  -5.164   7.884  1.00  0.00    -0.202 N 
HETATM    5  C1  UNL     1      21.709  -5.842   6.814  1.00  0.00     0.676 A 
ATOM      6  H2  UNL     1      21.748  -4.466   8.370  1.00  0.00     0.183 HD
HETATM    7  N6  UNL     1      20.971  -6.765   6.168  1.00  0.00    -0.179 N 
HETATM    8  C12 UNL     1      19.691  -7.063   6.541  1.00  0.00     0.140 A 
ATOM      9  H6  UNL     1      21.381  -7.256   5.374  1.00  0.00     0.185 HD
HETATM   10  N5  UNL     1      18.942  -8.034   5.816  1.00  0.00    -0.082 NA
BRANCH   5  11
HETATM   11  N1  UNL     1      22.917  -5.552   6.449  1.00  0.00    -0.234 N 
ATOM     12  H12 UNL     1      23.578  -5.099   7.080  1.00  0.00     0.174 HD
ATOM     13  H11 UNL     1      23.201  -5.803   5.502  1.00  0.00     0.174 HD
ENDBRANCH   5  11
ENDBRANCH   1   2
BRANCH   1  14
HETATM   14  C5  UNL     1      17.130  -5.458   8.537  1.00  0.00     0.037 C 
BRANCH  14  15
HETATM   15  C6  UNL     1      16.453  -5.515   9.870  1.00  0.00     0.202 C 
BRANCH  15  16
HETATM   16  N3  UNL     1      17.055  -4.483  10.758  1.00  0.00    -0.156 N 
HETATM   17  O1  UNL     1      17.080  -4.591  11.975  1.00  0.00    -0.537 OA
HETATM   18  O2  UNL     1      17.575  -3.416  10.103  1.00  0.00    -0.537 OA
ENDBRANCH  15  16
ENDBRANCH  14  15
ENDBRANCH   1  14
BRANCH   1  19
HETATM   19  C7  UNL     1      17.912  -7.682   9.228  1.00  0.00     0.241 C 
BRANCH  19  20
HETATM   20  N4  UNL     1      19.105  -8.422   9.148  1.00  0.00    -0.074 N 
ATOM     21  H42 UNL     1      18.928  -9.337   8.732  1.00  0.00     0.277 HD
ATOM     22  H41 UNL     1      19.723  -8.026   8.441  1.00  0.00     0.277 HD
BRANCH  20  23
HETATM   23  C8  UNL     1      19.809  -8.568  10.413  1.00  0.00     0.237 C 
BRANCH  23  24
HETATM   24  C9  UNL     1      19.324  -7.449  11.297  1.00  0.00     0.011 A 
HETATM   25  C10 UNL     1      20.198  -6.369  11.810  1.00  0.00     0.007 A 
HETATM   26  C11 UNL     1      19.939  -7.527  12.703  1.00  0.00     0.007 A 
ENDBRANCH  23  24
ENDBRANCH  20  23
ENDBRANCH  19  20
ENDBRANCH   1  19
TORSDOF 9
ENDMDL
MODEL 3
REMARK VINA RESULT: -5.401984665      2.015      3.920
REMARK  9 active torsions:
REMARK  status: ('A' for Active; 'I' for Inactive)
REMARK    1  A    between atoms: N1_1  and  C1_4 
REMARK    2  A    between atoms: C3_8  and  C4_9 
REMARK    3  A    between atoms: C4_9  and  C5_10 
REMARK    4  A    between atoms: C4_9  and  C7_15 
REMARK    5  A    between atoms: C5_10  and  C6_11 
REMARK    6  A    between atoms: C6_11  and  N3_12 
REMARK    7  A    between atoms: C7_15  and  N4_16 
REMARK    8  A    between atoms: N4_16  and  C8_19 
REMARK    9  A    between atoms: C8_19  and  C9_20 
ROOT
HETATM    1  C4  UNL     1      18.348  -7.016   8.985  1.00  0.00     0.051 C 
ENDROOT
BRANCH   1   2
HETATM    2  C3  UNL     1      19.593  -6.540   8.256  1.00  0.00     0.005 A 
HETATM    3  C2  UNL     1      19.765  -5.233   7.921  1.00  0.00     0.117 A 
HETATM    4  N2  UNL     1      20.928  -4.882   7.290  1.00  0.00    -0.202 N 
HETATM    5  C1  UNL     1      21.879  -5.831   7.011  1.00  0.00     0.676 A 
ATOM      6  H2  UNL     1      21.089  -3.910   7.026  1.00  0.00     0.183 HD
HETATM    7  N6  UNL     1      21.675  -7.117   7.356  1.00  0.00    -0.179 N 
HETATM    8  C12 UNL     1      20.536  -7.527   7.989  1.00  0.00     0.140 A 
ATOM      9  H6  UNL     1      22.394  -7.806   7.138  1.00  0.00     0.185 HD
HETATM   10  N5  UNL     1      20.356  -8.902   8.320  1.00  0.00    -0.082 NA
BRANCH   5  11
HETATM   11  N1  UNL     1      22.953  -5.448   6.399  1.00  0.00    -0.234 N 
ATOM     12  H12 UNL     1      23.074  -4.491   6.068  1.00  0.00     0.174 HD
ATOM     13  H11 UNL     1      23.695  -6.135   6.265  1.00  0.00     0.174 HD
ENDBRANCH   5  11
ENDBRANCH   1   2
BRANCH   1  14
HETATM   14  C5  UNL     1      17.206  -6.879   8.014  1.00  0.00     0.037 C 
BRANCH  14  15
HETATM   15  C6  UNL     1      17.037  -7.972   7.006  1.00  0.00     0.202 C 
BRANCH  15  16
HETATM   16  N3  UNL     1      17.741  -7.583   5.754  1.00  0.00    -0.156 N 
HETATM   17  O1  UNL     1      17.579  -6.499   5.213  1.00  0.00    -0.537 OA
HETATM   18  O2  UNL     1      18.580  -8.531   5.266  1.00  0.00    -0.537 OA
ENDBRANCH  15  16
ENDBRANCH  14  15
ENDBRANCH   1  14
BRANCH   1  19
HETATM   19  C7  UNL     1      18.119  -6.028  10.130  1.00  0.00     0.241 C 
BRANCH  19  20
HETATM   20  N4  UNL     1      18.843  -6.403  11.276  1.00  0.00    -0.074 N 
ATOM     21  H42 UNL     1      18.206  -6.642  12.036  1.00  0.00     0.277 HD
ATOM     22  H41 UNL     1      19.292  -7.307  11.133  1.00  0.00     0.277 HD
BRANCH  20  23
HETATM   23  C8  UNL     1      19.817  -5.417  11.721  1.00  0.00     0.237 C 
BRANCH  23  24
HETATM   24  C9  UNL     1      19.188  -4.069  11.492  1.00  0.00     0.011 A 
HETATM   25  C10 UNL     1      19.882  -2.939  10.832  1.00  0.00     0.007 A 
HETATM   26  C11 UNL     1      19.879  -2.971  12.317  1.00  0.00     0.007 A 
ENDBRANCH  23  24
ENDBRANCH  20  23
ENDBRANCH  19  20
ENDBRANCH   1  19
TORSDOF 9
ENDMDL
MODEL 4
REMARK VINA RESULT: -5.393900006      1.569      4.773
REMARK  9 active torsions:
REMARK  status: ('A' for Active; 'I' for Inactive)
REMARK    1  A    between atoms: N1_1  and  C1_4 
REMARK    2  A    between atoms: C3_8  and  C4_9 
REMARK    3  A    between atoms: C4_9  and  C5_10 
REMARK    4  A    between atoms: C4_9  and  C7_15 
REMARK    5  A    between atoms: C5_10  and  C6_11 
REMARK    6  A    between atoms: C6_11  and  N3_12 
REMARK    7  A    between atoms: C7_15  and  N4_16 
REMARK    8  A    between atoms: N4_16  and  C8_19 
REMARK    9  A    between atoms: C8_19  and  C9_20 
ROOT
HETATM    1  C4  UNL     1      19.782  -5.451   8.477  1.00  0.00     0.051 C 
ENDROOT
BRANCH   1   2
HETATM    2  C3  UNL     1      19.828  -4.744   9.821  1.00  0.00     0.005 A 
HETATM    3  C2  UNL     1      19.798  -3.387   9.911  1.00  0.00     0.117 A 
HETATM    4  N2  UNL     1      19.815  -2.829  11.161  1.00  0.00    -0.202 N 
HETATM    5  C1  UNL     1      19.863  -3.626  12.276  1.00  0.00     0.676 A 
ATOM      6  H2  UNL     1      19.792  -1.814  11.263  1.00  0.00     0.183 HD
HETATM    7  N6  UNL     1      19.893  -4.966  12.149  1.00  0.00    -0.179 N 
HETATM    8  C12 UNL     1      19.876  -5.582  10.930  1.00  0.00     0.140 A 
ATOM      9  H6  UNL     1      19.930  -5.540  12.992  1.00  0.00     0.185 HD
HETATM   10  N5  UNL     1      19.927  -7.004  10.844  1.00  0.00    -0.082 NA
BRANCH   5  11
HETATM   11  N1  UNL     1      19.893  -3.046  13.432  1.00  0.00    -0.234 N 
ATOM     12  H12 UNL     1      19.138  -3.149  14.109  1.00  0.00     0.174 HD
ATOM     13  H11 UNL     1      20.713  -2.481  13.659  1.00  0.00     0.174 HD
ENDBRANCH   5  11
ENDBRANCH   1   2
BRANCH   1  14
HETATM   14  C5  UNL     1      20.851  -4.822   7.626  1.00  0.00     0.037 C 
BRANCH  14  15
HETATM   15  C6  UNL     1      21.868  -5.741   7.023  1.00  0.00     0.202 C 
BRANCH  15  16
HETATM   16  N3  UNL     1      21.189  -6.993   6.594  1.00  0.00    -0.156 N 
HETATM   17  O1  UNL     1      21.335  -8.058   7.176  1.00  0.00    -0.537 OA
HETATM   18  O2  UNL     1      20.392  -6.853   5.506  1.00  0.00    -0.537 OA
ENDBRANCH  15  16
ENDBRANCH  14  15
ENDBRANCH   1  14
BRANCH   1  19
HETATM   19  C7  UNL     1      18.424  -5.113   7.862  1.00  0.00     0.241 C 
BRANCH  19  20
HETATM   20  N4  UNL     1      17.879  -6.222   7.191  1.00  0.00    -0.074 N 
ATOM     21  H42 UNL     1      16.947  -6.001   6.838  1.00  0.00     0.277 HD
ATOM     22  H41 UNL     1      18.367  -6.380   6.310  1.00  0.00     0.277 HD
BRANCH  20  23
HETATM   23  C8  UNL     1      17.847  -7.445   7.979  1.00  0.00     0.237 C 
BRANCH  23  24
HETATM   24  C9  UNL     1      16.706  -7.293   8.949  1.00  0.00     0.011 A 
HETATM   25  C10 UNL     1      16.538  -8.130  10.160  1.00  0.00     0.007 A 
HETATM   26  C11 UNL     1      15.784  -8.523   8.942  1.00  0.00     0.007 A 
ENDBRANCH  23  24
ENDBRANCH  20  23
ENDBRANCH  19  20
ENDBRANCH   1  19
TORSDOF 9
ENDMDL
MODEL 5
REMARK VINA RESULT: -5.312152123      2.675      4.299
REMARK  9 active torsions:
REMARK  status: ('A' for Active; 'I' for Inactive)
REMARK    1  A    between atoms: N1_1  and  C1_4 
REMARK    2  A    between atoms: C3_8  and  C4_9 
REMARK    3  A    between atoms: C4_9  and  C5_10 
REMARK    4  A    between atoms: C4_9  and  C7_15 
REMARK    5  A    between atoms: C5_10  and  C6_11 
REMARK    6  A    between atoms: C6_11  and  N3_12 
REMARK    7  A    between atoms: C7_15  and  N4_16 
REMARK    8  A    between atoms: N4_16  and  C8_19 
REMARK    9  A    between atoms: C8_19  and  C9_20 
ROOT
HETATM    1  C4  UNL     1      18.255  -6.699   8.835  1.00  0.00     0.051 C 
ENDROOT
BRANCH   1   2
HETATM    2  C3  UNL     1      19.564  -6.314   8.165  1.00  0.00     0.005 A 
HETATM    3  C2  UNL     1      19.824  -5.030   7.800  1.00  0.00     0.117 A 
HETATM    4  N2  UNL     1      21.038  -4.761   7.228  1.00  0.00    -0.202 N 
HETATM    5  C1  UNL     1      21.951  -5.767   7.035  1.00  0.00     0.676 A 
ATOM      6  H2  UNL     1      21.265  -3.809   6.943  1.00  0.00     0.183 HD
HETATM    7  N6  UNL     1      21.659  -7.028   7.408  1.00  0.00    -0.179 N 
HETATM    8  C12 UNL     1      20.466  -7.357   7.986  1.00  0.00     0.140 A 
ATOM      9  H6  UNL     1      22.352  -7.760   7.254  1.00  0.00     0.185 HD
HETATM   10  N5  UNL     1      20.195  -8.708   8.348  1.00  0.00    -0.082 NA
BRANCH   5  11
HETATM   11  N1  UNL     1      23.077  -5.461   6.475  1.00  0.00    -0.234 N 
ATOM     12  H12 UNL     1      23.186  -4.625   5.900  1.00  0.00     0.174 HD
ATOM     13  H11 UNL     1      23.872  -6.080   6.636  1.00  0.00     0.174 HD
ENDBRANCH   5  11
ENDBRANCH   1   2
BRANCH   1  14
HETATM   14  C5  UNL     1      17.207  -6.700   7.755  1.00  0.00     0.037 C 
BRANCH  14  15
HETATM   15  C6  UNL     1      17.088  -7.938   6.923  1.00  0.00     0.202 C 
BRANCH  15  16
HETATM   16  N3  UNL     1      17.750  -7.700   5.612  1.00  0.00    -0.156 N 
HETATM   17  O1  UNL     1      17.518  -6.718   4.922  1.00  0.00    -0.537 OA
HETATM   18  O2  UNL     1      18.633  -8.663   5.248  1.00  0.00    -0.537 OA
ENDBRANCH  15  16
ENDBRANCH  14  15
ENDBRANCH   1  14
BRANCH   1  19
HETATM   19  C7  UNL     1      17.928  -5.572   9.815  1.00  0.00     0.241 C 
BRANCH  19  20
HETATM   20  N4  UNL     1      17.809  -6.060  11.128  1.00  0.00    -0.074 N 
ATOM     21  H42 UNL     1      16.833  -6.038  11.428  1.00  0.00     0.277 HD
ATOM     22  H41 UNL     1      17.976  -7.066  11.151  1.00  0.00     0.277 HD
BRANCH  20  23
HETATM   23  C8  UNL     1      18.654  -5.383  12.101  1.00  0.00     0.237 C 
BRANCH  23  24
HETATM   24  C9  UNL     1      20.039  -5.945  11.919  1.00  0.00     0.011 A 
HETATM   25  C10 UNL     1      20.348  -7.394  11.940  1.00  0.00     0.007 A 
HETATM   26  C11 UNL     1      20.547  -6.630  13.199  1.00  0.00     0.007 A 
ENDBRANCH  23  24
ENDBRANCH  20  23
ENDBRANCH  19  20
ENDBRANCH   1  19
TORSDOF 9
ENDMDL
