MODEL 1
REMARK VINA RESULT: -5.936420568      0.000      0.000
REMARK  9 active torsions:
REMARK  status: ('A' for Active; 'I' for Inactive)
REMARK    1  A    between atoms: C2_2  and  C4_4 
REMARK    2  A    between atoms: C4_4  and  C5_5 
REMARK    3  A    between atoms: C5_5  and  O1_6 
REMARK    4  A    between atoms: C5_5  and  C6_8 
REMARK    5  A    between atoms: C6_8  and  C7_9 
REMARK    6  A    between atoms: C6_8  and  N5_17 
REMARK    7  A    between atoms: C7_9  and  C8_10 
REMARK    8  A    between atoms: N5_17  and  C9_19 
REMARK    9  A    between atoms: C9_19  and  C10_20 
ROOT
HETATM    1  C6  UNL     1      18.447  -7.421   8.221  1.00  0.00     0.112 C 
ENDROOT
BRANCH   1   2
HETATM    2  C5  UNL     1      19.361  -7.972   9.265  1.00  0.00     0.141 C 
BRANCH   2   3
HETATM    3  C4  UNL     1      19.097  -7.425  10.619  1.00  0.00     0.037 C 
BRANCH   3   4
HETATM    4  C2  UNL     1      20.223  -6.508  11.092  1.00  0.00    -0.020 C 
HETATM    5  C1  UNL     1      20.615  -6.790  12.510  1.00  0.00     0.009 C 
HETATM    6  C3  UNL     1      19.881  -5.053  10.958  1.00  0.00     0.009 C 
ENDBRANCH   3   4
ENDBRANCH   2   3
BRANCH   2   7
HETATM    7  O1  UNL     1      19.632  -9.320   9.174  1.00  0.00    -0.394 OA
ATOM      8  H1  UNL     1      19.564  -9.717   8.314  1.00  0.00     0.210 HD
ENDBRANCH   2   7
ENDBRANCH   1   2
BRANCH   1   9
HETATM    9  C7  UNL     1      19.256  -7.353   6.922  1.00  0.00     0.106 C 
BRANCH   9  10
HETATM   10  C8  UNL     1      20.388  -6.433   6.986  1.00  0.00     0.108 A 
HETATM   11  N1  UNL     1      20.374  -5.128   7.323  1.00  0.00    -0.274 N 
HETATM   12  N2  UNL     1      21.599  -4.631   7.263  1.00  0.00    -0.007 NA
ATOM     13  H1  UNL     1      19.542  -4.601   7.585  1.00  0.00     0.185 HD
HETATM   14  N3  UNL     1      22.398  -5.620   6.888  1.00  0.00    -0.007 NA
HETATM   15  N4  UNL     1      21.674  -6.714   6.717  1.00  0.00    -0.274 N 
ATOM     16  H4  UNL     1      22.034  -7.623   6.427  1.00  0.00     0.185 HD
ENDBRANCH   9  10
ENDBRANCH   1   9
BRANCH   1  17
HETATM   17  N5  UNL     1      17.223  -8.054   8.075  1.00  0.00    -0.410 N 
ATOM     18  H5  UNL     1      17.013  -8.544   7.206  1.00  0.00     0.154 HD
BRANCH  17  19
HETATM   19  C9  UNL     1      16.259  -8.033   9.113  1.00  0.00     0.156 C 
BRANCH  19  20
HETATM   20  C10 UNL     1      15.850  -9.449   9.443  1.00  0.00    -0.007 A 
HETATM   21  C11 UNL     1      16.330 -10.278  10.420  1.00  0.00     0.117 A 
HETATM   22  N6  UNL     1      15.663 -11.448  10.331  1.00  0.00    -0.312 N 
HETATM   23  N7  UNL     1      14.804 -11.343   9.336  1.00  0.00    -0.312 N 
ATOM     24  H6  UNL     1      15.798 -12.266  10.927  1.00  0.00     0.186 HD
HETATM   25  C12 UNL     1      14.886 -10.133   8.765  1.00  0.00     0.117 A 
ATOM     26  H7  UNL     1      14.165 -12.081   9.040  1.00  0.00     0.186 HD
ENDBRANCH  19  20
ENDBRANCH  17  19
ENDBRANCH   1  17
TORSDOF 9
ENDMDL
MODEL 2
REMARK VINA RESULT: -5.710245973      1.242      1.628
REMARK  9 active torsions:
REMARK  status: ('A' for Active; 'I' for Inactive)
REMARK    1  A    between atoms: C2_2  and  C4_4 
REMARK    2  A    between atoms: C4_4  and  C5_5 
REMARK    3  A    between atoms: C5_5  and  O1_6 
REMARK    4  A    between atoms: C5_5  and  C6_8 
REMARK    5  A    between atoms: C6_8  and  C7_9 
REMARK    6  A    between atoms: C6_8  and  N5_17 
REMARK    7  A    between atoms: C7_9  and  C8_10 
REMARK    8  A    between atoms: N5_17  and  C9_19 
REMARK    9  A    between atoms: C9_19  and  C10_20 
ROOT
HETATM    1  C6  UNL     1      17.434  -7.503   9.129  1.00  0.00     0.112 C 
ENDROOT
BRANCH   1   2
HETATM    2  C5  UNL     1      18.567  -8.069   9.920  1.00  0.00     0.141 C 
BRANCH   2   3
HETATM    3  C4  UNL     1      18.725  -7.431  11.251  1.00  0.00     0.037 C 
BRANCH   3   4
HETATM    4  C2  UNL     1      20.076  -6.731  11.389  1.00  0.00    -0.020 C 
HETATM    5  C1  UNL     1      20.598  -6.797  12.792  1.00  0.00     0.009 C 
HETATM    6  C3  UNL     1      20.034  -5.297  10.948  1.00  0.00     0.009 C 
ENDBRANCH   3   4
ENDBRANCH   2   3
BRANCH   2   7
HETATM    7  O1  UNL     1      18.718  -9.437   9.859  1.00  0.00    -0.394 OA
ATOM      8  H1  UNL     1      19.475  -9.809  10.295  1.00  0.00     0.210 HD
ENDBRANCH   2   7
ENDBRANCH   1   2
BRANCH   1   9
HETATM    9  C7  UNL     1      18.057  -6.617   8.046  1.00  0.00     0.106 C 
BRANCH   9  10
HETATM   10  C8  UNL     1      19.180  -7.241   7.355  1.00  0.00     0.108 A 
HETATM   11  N1  UNL     1      20.497  -7.029   7.556  1.00  0.00    -0.274 N 
HETATM   12  N2  UNL     1      21.209  -7.782   6.734  1.00  0.00    -0.007 NA
ATOM     13  H1  UNL     1      20.886  -6.382   8.242  1.00  0.00     0.185 HD
HETATM   14  N3  UNL     1      20.347  -8.477   6.005  1.00  0.00    -0.007 NA
HETATM   15  N4  UNL     1      19.118  -8.157   6.373  1.00  0.00    -0.274 N 
ATOM     16  H4  UNL     1      18.261  -8.542   5.975  1.00  0.00     0.185 HD
ENDBRANCH   9  10
ENDBRANCH   1   9
BRANCH   1  17
HETATM   17  N5  UNL     1      16.511  -8.411   8.636  1.00  0.00    -0.410 N 
ATOM     18  H5  UNL     1      16.712  -8.906   7.767  1.00  0.00     0.154 HD
BRANCH  17  19
HETATM   19  C9  UNL     1      15.295  -8.664   9.316  1.00  0.00     0.156 C 
BRANCH  19  20
HETATM   20  C10 UNL     1      15.160 -10.148   9.562  1.00  0.00    -0.007 A 
HETATM   21  C11 UNL     1      15.759 -10.919  10.520  1.00  0.00     0.117 A 
HETATM   22  N6  UNL     1      15.337 -12.191  10.349  1.00  0.00    -0.312 N 
HETATM   23  N7  UNL     1      14.509 -12.200   9.322  1.00  0.00    -0.312 N 
ATOM     24  H6  UNL     1      15.610 -12.997  10.911  1.00  0.00     0.186 HD
HETATM   25  C12 UNL     1      14.372 -10.969   8.811  1.00  0.00     0.117 A 
ATOM     26  H7  UNL     1      14.038 -13.031   8.965  1.00  0.00     0.186 HD
ENDBRANCH  19  20
ENDBRANCH  17  19
ENDBRANCH   1  17
TORSDOF 9
ENDMDL
MODEL 3
REMARK VINA RESULT: -5.699806556      2.067      2.754
REMARK  9 active torsions:
REMARK  status: ('A' for Active; 'I' for Inactive)
REMARK    1  A    between atoms: C2_2  and  C4_4 
REMARK    2  A    between atoms: C4_4  and  C5_5 
REMARK    3  A    between atoms: C5_5  and  O1_6 
REMARK    4  A    between atoms: C5_5  and  C6_8 
REMARK    5  A    between atoms: C6_8  and  C7_9 
REMARK    6  A    between atoms: C6_8  and  N5_17 
REMARK    7  A    between atoms: C7_9  and  C8_10 
REMARK    8  A    between atoms: N5_17  and  C9_19 
REMARK    9  A    between atoms: C9_19  and  C10_20 
ROOT
HETATM    1  C6  UNL     1      18.085  -6.263   9.001  1.00  0.00     0.112 C 
ENDROOT
BRANCH   1   2
HETATM    2  C5  UNL     1      18.505  -4.856   8.729  1.00  0.00     0.141 C 
BRANCH   2   3
HETATM    3  C4  UNL     1      19.700  -4.443   9.506  1.00  0.00     0.037 C 
BRANCH   3   4
HETATM    4  C2  UNL     1      19.320  -3.647  10.754  1.00  0.00    -0.020 C 
HETATM    5  C1  UNL     1      19.953  -2.290  10.764  1.00  0.00     0.009 C 
HETATM    6  C3  UNL     1      19.669  -4.362  12.026  1.00  0.00     0.009 C 
ENDBRANCH   3   4
ENDBRANCH   2   3
BRANCH   2   7
HETATM    7  O1  UNL     1      18.443  -4.456   7.412  1.00  0.00    -0.394 OA
ATOM      8  H1  UNL     1      17.906  -3.698   7.215  1.00  0.00     0.210 HD
ENDBRANCH   2   7
ENDBRANCH   1   2
BRANCH   1   9
HETATM    9  C7  UNL     1      19.369  -7.097   9.061  1.00  0.00     0.106 C 
BRANCH   9  10
HETATM   10  C8  UNL     1      19.785  -7.624   7.765  1.00  0.00     0.108 A 
HETATM   11  N1  UNL     1      19.023  -8.240   6.839  1.00  0.00    -0.274 N 
HETATM   12  N2  UNL     1      19.761  -8.574   5.793  1.00  0.00    -0.007 NA
ATOM     13  H1  UNL     1      18.023  -8.421   6.931  1.00  0.00     0.185 HD
HETATM   14  N3  UNL     1      20.997  -8.173   6.050  1.00  0.00    -0.007 NA
HETATM   15  N4  UNL     1      21.022  -7.597   7.240  1.00  0.00    -0.274 N 
ATOM     16  H4  UNL     1      21.847  -7.198   7.688  1.00  0.00     0.185 HD
ENDBRANCH   9  10
ENDBRANCH   1   9
BRANCH   1  17
HETATM   17  N5  UNL     1      17.249  -6.459  10.087  1.00  0.00    -0.410 N 
ATOM     18  H5  UNL     1      17.605  -6.297  11.029  1.00  0.00     0.154 HD
BRANCH  17  19
HETATM   19  C9  UNL     1      15.908  -6.881   9.913  1.00  0.00     0.156 C 
BRANCH  19  20
HETATM   20  C10 UNL     1      15.877  -8.378   9.714  1.00  0.00    -0.007 A 
HETATM   21  C11 UNL     1      16.478  -9.357  10.458  1.00  0.00     0.117 A 
HETATM   22  N6  UNL     1      16.169 -10.547   9.898  1.00  0.00    -0.312 N 
HETATM   23  N7  UNL     1      15.407 -10.307   8.849  1.00  0.00    -0.312 N 
ATOM     24  H6  UNL     1      16.471 -11.464  10.227  1.00  0.00     0.186 HD
HETATM   25  C12 UNL     1      15.203  -8.991   8.701  1.00  0.00     0.117 A 
ATOM     26  H7  UNL     1      15.025 -11.025   8.233  1.00  0.00     0.186 HD
ENDBRANCH  19  20
ENDBRANCH  17  19
ENDBRANCH   1  17
TORSDOF 9
ENDMDL
MODEL 4
REMARK VINA RESULT: -5.675884841      2.070      2.876
REMARK  9 active torsions:
REMARK  status: ('A' for Active; 'I' for Inactive)
REMARK    1  A    between atoms: C2_2  and  C4_4 
REMARK    2  A    between atoms: C4_4  and  C5_5 
REMARK    3  A    between atoms: C5_5  and  O1_6 
REMARK    4  A    between atoms: C5_5  and  C6_8 
REMARK    5  A    between atoms: C6_8  and  C7_9 
REMARK    6  A    between atoms: C6_8  and  N5_17 
REMARK    7  A    between atoms: C7_9  and  C8_10 
REMARK    8  A    between atoms: N5_17  and  C9_19 
REMARK    9  A    between atoms: C9_19  and  C10_20 
ROOT
HETATM    1  C6  UNL     1      18.195  -5.656   8.684  1.00  0.00     0.112 C 
ENDROOT
BRANCH   1   2
HETATM    2  C5  UNL     1      19.195  -4.556   8.829  1.00  0.00     0.141 C 
BRANCH   2   3
HETATM    3  C4  UNL     1      18.833  -3.572   9.879  1.00  0.00     0.037 C 
BRANCH   3   4
HETATM    4  C2  UNL     1      19.891  -3.498  10.979  1.00  0.00    -0.020 C 
HETATM    5  C1  UNL     1      19.534  -4.354  12.155  1.00  0.00     0.009 C 
HETATM    6  C3  UNL     1      20.140  -2.095  11.450  1.00  0.00     0.009 C 
ENDBRANCH   3   4
ENDBRANCH   2   3
BRANCH   2   7
HETATM    7  O1  UNL     1      20.518  -4.934   8.754  1.00  0.00    -0.394 OA
ATOM      8  H1  UNL     1      20.830  -5.547   9.409  1.00  0.00     0.210 HD
ENDBRANCH   2   7
ENDBRANCH   1   2
BRANCH   1   9
HETATM    9  C7  UNL     1      18.016  -5.888   7.181  1.00  0.00     0.106 C 
BRANCH   9  10
HETATM   10  C8  UNL     1      18.857  -6.955   6.649  1.00  0.00     0.108 A 
HETATM   11  N1  UNL     1      20.200  -6.966   6.525  1.00  0.00    -0.274 N 
HETATM   12  N2  UNL     1      20.598  -8.112   5.999  1.00  0.00    -0.007 NA
ATOM     13  H1  UNL     1      20.818  -6.201   6.797  1.00  0.00     0.185 HD
HETATM   14  N3  UNL     1      19.509  -8.837   5.785  1.00  0.00    -0.007 NA
HETATM   15  N4  UNL     1      18.451  -8.145   6.175  1.00  0.00    -0.274 N 
ATOM     16  H4  UNL     1      17.483  -8.463   6.123  1.00  0.00     0.185 HD
ENDBRANCH   9  10
ENDBRANCH   1   9
BRANCH   1  17
HETATM   17  N5  UNL     1      18.448  -6.817   9.396  1.00  0.00    -0.410 N 
ATOM     18  H5  UNL     1      19.281  -7.365   9.180  1.00  0.00     0.154 HD
BRANCH  17  19
HETATM   19  C9  UNL     1      17.571  -7.257  10.417  1.00  0.00     0.156 C 
BRANCH  19  20
HETATM   20  C10 UNL     1      16.789  -8.451   9.923  1.00  0.00    -0.007 A 
HETATM   21  C11 UNL     1      15.936  -8.540   8.857  1.00  0.00     0.117 A 
HETATM   22  N6  UNL     1      15.470  -9.806   8.806  1.00  0.00    -0.312 N 
HETATM   23  N7  UNL     1      16.017 -10.471   9.805  1.00  0.00    -0.312 N 
ATOM     24  H6  UNL     1      14.814 -10.181   8.119  1.00  0.00     0.186 HD
HETATM   25  C12 UNL     1      16.832  -9.679  10.514  1.00  0.00     0.117 A 
ATOM     26  H7  UNL     1      15.843 -11.456  10.011  1.00  0.00     0.186 HD
ENDBRANCH  19  20
ENDBRANCH  17  19
ENDBRANCH   1  17
TORSDOF 9
ENDMDL
MODEL 5
REMARK VINA RESULT: -5.655892138      1.997      2.801
REMARK  9 active torsions:
REMARK  status: ('A' for Active; 'I' for Inactive)
REMARK    1  A    between atoms: C2_2  and  C4_4 
REMARK    2  A    between atoms: C4_4  and  C5_5 
REMARK    3  A    between atoms: C5_5  and  O1_6 
REMARK    4  A    between atoms: C5_5  and  C6_8 
REMARK    5  A    between atoms: C6_8  and  C7_9 
REMARK    6  A    between atoms: C6_8  and  N5_17 
REMARK    7  A    between atoms: C7_9  and  C8_10 
REMARK    8  A    between atoms: N5_17  and  C9_19 
REMARK    9  A    between atoms: C9_19  and  C10_20 
ROOT
HETATM    1  C6  UNL     1      19.289  -7.653   9.864  1.00  0.00     0.112 C 
ENDROOT
BRANCH   1   2
HETATM    2  C5  UNL     1      20.047  -6.511  10.455  1.00  0.00     0.141 C 
BRANCH   2   3
HETATM    3  C4  UNL     1      19.572  -5.187   9.981  1.00  0.00     0.037 C 
BRANCH   3   4
HETATM    4  C2  UNL     1      18.245  -5.294   9.231  1.00  0.00    -0.020 C 
HETATM    5  C1  UNL     1      18.318  -4.666   7.874  1.00  0.00     0.009 C 
HETATM    6  C3  UNL     1      17.100  -4.691   9.991  1.00  0.00     0.009 C 
ENDBRANCH   3   4
ENDBRANCH   2   3
BRANCH   2   7
HETATM    7  O1  UNL     1      20.355  -6.624  11.793  1.00  0.00    -0.394 OA
ATOM      8  H1  UNL     1      19.803  -7.193  12.317  1.00  0.00     0.210 HD
ENDBRANCH   2   7
ENDBRANCH   1   2
BRANCH   1   9
HETATM    9  C7  UNL     1      20.232  -8.334   8.867  1.00  0.00     0.106 C 
BRANCH   9  10
HETATM   10  C8  UNL     1      20.028  -7.910   7.486  1.00  0.00     0.108 A 
HETATM   11  N1  UNL     1      18.948  -8.119   6.707  1.00  0.00    -0.274 N 
HETATM   12  N2  UNL     1      19.138  -7.583   5.513  1.00  0.00    -0.007 NA
ATOM     13  H1  UNL     1      18.107  -8.619   6.996  1.00  0.00     0.185 HD
HETATM   14  N3  UNL     1      20.342  -7.030   5.526  1.00  0.00    -0.007 NA
HETATM   15  N4  UNL     1      20.889  -7.223   6.715  1.00  0.00    -0.274 N 
ATOM     16  H4  UNL     1      21.814  -6.902   7.001  1.00  0.00     0.185 HD
ENDBRANCH   9  10
ENDBRANCH   1   9
BRANCH   1  17
HETATM   17  N5  UNL     1      18.701  -8.533  10.758  1.00  0.00    -0.410 N 
ATOM     18  H5  UNL     1      19.259  -9.288  11.157  1.00  0.00     0.154 HD
BRANCH  17  19
HETATM   19  C9  UNL     1      17.340  -8.403  11.127  1.00  0.00     0.156 C 
BRANCH  19  20
HETATM   20  C10 UNL     1      16.473  -9.053  10.075  1.00  0.00    -0.007 A 
HETATM   21  C11 UNL     1      16.018  -8.532   8.894  1.00  0.00     0.117 A 
HETATM   22  N6  UNL     1      15.276  -9.481   8.284  1.00  0.00    -0.312 N 
HETATM   23  N7  UNL     1      15.275 -10.546   9.063  1.00  0.00    -0.312 N 
ATOM     24  H6  UNL     1      14.802  -9.391   7.385  1.00  0.00     0.186 HD
HETATM   25  C12 UNL     1      15.997 -10.326  10.170  1.00  0.00     0.117 A 
ATOM     26  H7  UNL     1      14.790 -11.419   8.852  1.00  0.00     0.186 HD
ENDBRANCH  19  20
ENDBRANCH  17  19
ENDBRANCH   1  17
TORSDOF 9
ENDMDL
