MODEL 1
REMARK VINA RESULT: -10.545827538      0.000      0.000
REMARK  10 active torsions:
REMARK  status: ('A' for Active; 'I' for Inactive)
REMARK    1  A    between atoms: C2_2  and  C3_3 
REMARK    2  A    between atoms: C3_3  and  C4_4 
REMARK    3  A    between atoms: C4_4  and  C5_5 
REMARK    4  A    between atoms: C5_5  and  N1_6 
REMARK    5  A    between atoms: C9_15  and  O2_16 
REMARK    6  A    between atoms: C15_23  and  N2_24 
REMARK    7  A    between atoms: N2_24  and  C16_26 
REMARK    8  A    between atoms: C16_26  and  C17_27 
REMARK    9  A    between atoms: C16_26  and  C18_29 
REMARK   10  A    between atoms: C18_29  and  C19_32 
ROOT
HETATM    1  C1  UNL     1      -6.430  51.225  -5.523  1.00  0.00     0.024 C 
HETATM    2  C2  UNL     1      -5.375  52.095  -6.297  1.00  0.00     0.029 C 
HETATM    3  C6  UNL     1      -5.746  51.873  -7.704  1.00  0.00     0.175 C 
HETATM    4  O1  UNL     1      -5.544  50.756  -8.270  1.00  0.00    -0.291 OA
HETATM    5  C7  UNL     1      -6.365  52.902  -8.538  1.00  0.00     0.056 C 
HETATM    6 BR1  UNL     1      -7.300  52.509 -10.143  1.00  0.00    -0.047 Br
HETATM    7  C8  UNL     1      -6.251  54.149  -8.121  1.00  0.00     0.034 C 
HETATM    8  C9  UNL     1      -5.559  54.558  -6.897  1.00  0.00     0.086 C 
HETATM    9  C10 UNL     1      -6.220  55.828  -6.393  1.00  0.00     0.029 C 
HETATM   10  C11 UNL     1      -5.449  57.051  -6.880  1.00  0.00     0.014 C 
HETATM   11  C12 UNL     1      -5.949  58.117  -5.930  1.00  0.00    -0.004 C 
HETATM   12  C13 UNL     1      -7.268  58.598  -6.489  1.00  0.00     0.007 C 
HETATM   13  C14 UNL     1      -8.322  58.186  -5.499  1.00  0.00     0.026 C 
HETATM   14  C15 UNL     1      -7.618  57.835  -4.209  1.00  0.00     0.086 C 
HETATM   15  C25 UNL     1      -6.268  57.411  -4.620  1.00  0.00    -0.016 C 
HETATM   16  C26 UNL     1      -5.224  57.854  -3.584  1.00  0.00     0.018 C 
HETATM   17  C27 UNL     1      -6.039  55.970  -4.921  1.00  0.00     0.003 C 
HETATM   18  C28 UNL     1      -6.761  54.958  -4.149  1.00  0.00     0.006 C 
HETATM   19  C29 UNL     1      -6.715  53.629  -4.899  1.00  0.00     0.009 C 
HETATM   20  C30 UNL     1      -5.518  53.513  -5.824  1.00  0.00     0.040 C 
ENDROOT
BRANCH  14  21
HETATM   21  N2  UNL     1      -7.531  58.933  -3.298  1.00  0.00    -0.401 N 
ATOM     22  H2  UNL     1      -6.965  59.755  -3.511  1.00  0.00     0.154 HD
BRANCH  21  23
HETATM   23  C16 UNL     1      -8.257  58.836  -2.090  1.00  0.00     0.217 C 
BRANCH  23  24
HETATM   24  C17 UNL     1      -8.209  57.508  -1.437  1.00  0.00     0.262 C 
HETATM   25  O3  UNL     1      -9.200  56.884  -1.154  1.00  0.00    -0.304 OA
ENDBRANCH  23  24
BRANCH  23  26
HETATM   26  C18 UNL     1      -7.668  59.806  -1.069  1.00  0.00     0.296 C 
HETATM   27  F1  UNL     1      -6.287  59.690  -0.986  1.00  0.00    -0.198 F 
HETATM   28  F2  UNL     1      -8.090  59.386   0.219  1.00  0.00    -0.198 F 
BRANCH  26  29
HETATM   29  C19 UNL     1      -8.040  61.202  -1.210  1.00  0.00     0.015 A 
HETATM   30  C20 UNL     1      -7.077  62.204  -1.078  1.00  0.00     0.013 A 
HETATM   31  C21 UNL     1      -7.365  63.536  -1.210  1.00  0.00     0.001 A 
HETATM   32  C22 UNL     1      -8.661  63.907  -1.484  1.00  0.00     0.000 A 
HETATM   33  C23 UNL     1      -9.641  62.957  -1.622  1.00  0.00     0.001 A 
HETATM   34  C24 UNL     1      -9.317  61.597  -1.482  1.00  0.00     0.013 A 
ENDBRANCH  26  29
ENDBRANCH  23  26
ENDBRANCH  21  23
ENDBRANCH  14  21
BRANCH   8  35
HETATM   35  O2  UNL     1      -4.228  54.870  -7.261  1.00  0.00    -0.385 OA
ATOM     36  H2  UNL     1      -3.930  54.180  -7.843  1.00  0.00     0.211 HD
ENDBRANCH   8  35
BRANCH   2  37
HETATM   37  C3  UNL     1      -4.083  51.488  -5.861  1.00  0.00     0.019 C 
BRANCH  37  38
HETATM   38  C4  UNL     1      -3.951  50.847  -4.551  1.00  0.00     0.028 C 
BRANCH  38  39
HETATM   39  C5  UNL     1      -2.532  50.746  -4.003  1.00  0.00     0.229 C 
BRANCH  39  40
HETATM   40  N1  UNL     1      -2.561  49.590  -3.083  1.00  0.00    -0.079 N 
ATOM     41  H13 UNL     1      -3.482  49.163  -2.983  1.00  0.00     0.274 HD
ATOM     42  H12 UNL     1      -2.088  48.761  -3.445  1.00  0.00     0.274 HD
ATOM     43  H11 UNL     1      -2.170  49.939  -2.208  1.00  0.00     0.274 HD
ENDBRANCH  39  40
ENDBRANCH  38  39
ENDBRANCH  37  38
ENDBRANCH   2  37
TORSDOF 10
ENDMDL
MODEL 2
REMARK VINA RESULT: -10.524447710      2.805      4.078
REMARK  10 active torsions:
REMARK  status: ('A' for Active; 'I' for Inactive)
REMARK    1  A    between atoms: C2_2  and  C3_3 
REMARK    2  A    between atoms: C3_3  and  C4_4 
REMARK    3  A    between atoms: C4_4  and  C5_5 
REMARK    4  A    between atoms: C5_5  and  N1_6 
REMARK    5  A    between atoms: C9_15  and  O2_16 
REMARK    6  A    between atoms: C15_23  and  N2_24 
REMARK    7  A    between atoms: N2_24  and  C16_26 
REMARK    8  A    between atoms: C16_26  and  C17_27 
REMARK    9  A    between atoms: C16_26  and  C18_29 
REMARK   10  A    between atoms: C18_29  and  C19_32 
ROOT
HETATM    1  C1  UNL     1      -4.345  52.965  -7.827  1.00  0.00     0.024 C 
HETATM    2  C2  UNL     1      -5.895  52.732  -7.712  1.00  0.00     0.029 C 
HETATM    3  C6  UNL     1      -5.974  51.448  -6.996  1.00  0.00     0.175 C 
HETATM    4  O1  UNL     1      -5.645  50.360  -7.558  1.00  0.00    -0.291 OA
HETATM    5  C7  UNL     1      -6.427  51.334  -5.611  1.00  0.00     0.056 C 
HETATM    6 BR1  UNL     1      -6.062  49.819  -4.525  1.00  0.00    -0.047 Br
HETATM    7  C8  UNL     1      -7.113  52.351  -5.126  1.00  0.00     0.034 C 
HETATM    8  C9  UNL     1      -7.442  53.566  -5.875  1.00  0.00     0.086 C 
HETATM    9  C10 UNL     1      -7.551  54.708  -4.881  1.00  0.00     0.029 C 
HETATM   10  C11 UNL     1      -9.008  54.921  -4.482  1.00  0.00     0.014 C 
HETATM   11  C12 UNL     1      -8.959  56.319  -3.907  1.00  0.00    -0.004 C 
HETATM   12  C13 UNL     1      -8.482  56.174  -2.481  1.00  0.00     0.007 C 
HETATM   13  C14 UNL     1      -7.134  56.836  -2.416  1.00  0.00     0.026 C 
HETATM   14  C15 UNL     1      -6.993  57.696  -3.651  1.00  0.00     0.086 C 
HETATM   15  C25 UNL     1      -7.857  57.055  -4.658  1.00  0.00    -0.016 C 
HETATM   16  C26 UNL     1      -8.525  58.113  -5.549  1.00  0.00     0.018 C 
HETATM   17  C27 UNL     1      -7.263  56.012  -5.540  1.00  0.00     0.003 C 
HETATM   18  C28 UNL     1      -5.870  56.151  -5.968  1.00  0.00     0.006 C 
HETATM   19  C29 UNL     1      -5.365  54.801  -6.471  1.00  0.00     0.009 C 
HETATM   20  C30 UNL     1      -6.479  53.902  -6.973  1.00  0.00     0.040 C 
ENDROOT
BRANCH  14  21
HETATM   21  N2  UNL     1      -7.402  59.050  -3.444  1.00  0.00    -0.401 N 
ATOM     22  H2  UNL     1      -8.370  59.338  -3.587  1.00  0.00     0.154 HD
BRANCH  21  23
HETATM   23  C16 UNL     1      -6.413  59.973  -3.035  1.00  0.00     0.217 C 
BRANCH  23  24
HETATM   24  C17 UNL     1      -5.881  60.837  -4.112  1.00  0.00     0.262 C 
HETATM   25  O3  UNL     1      -5.908  60.522  -5.275  1.00  0.00    -0.304 OA
ENDBRANCH  23  24
BRANCH  23  26
HETATM   26  C18 UNL     1      -7.016  60.933  -2.011  1.00  0.00     0.296 C 
HETATM   27  F1  UNL     1      -8.404  60.900  -2.030  1.00  0.00    -0.198 F 
HETATM   28  F2  UNL     1      -6.734  62.255  -2.443  1.00  0.00    -0.198 F 
BRANCH  26  29
HETATM   29  C19 UNL     1      -6.535  60.814  -0.647  1.00  0.00     0.015 A 
HETATM   30  C20 UNL     1      -6.787  59.654   0.089  1.00  0.00     0.013 A 
HETATM   31  C21 UNL     1      -6.352  59.480   1.375  1.00  0.00     0.001 A 
HETATM   32  C22 UNL     1      -5.633  60.490   1.972  1.00  0.00     0.000 A 
HETATM   33  C23 UNL     1      -5.362  61.647   1.287  1.00  0.00     0.001 A 
HETATM   34  C24 UNL     1      -5.821  61.800  -0.032  1.00  0.00     0.013 A 
ENDBRANCH  26  29
ENDBRANCH  23  26
ENDBRANCH  21  23
ENDBRANCH  14  21
BRANCH   8  35
HETATM   35  O2  UNL     1      -8.717  53.363  -6.452  1.00  0.00    -0.385 OA
ATOM     36  H2  UNL     1      -8.804  53.990  -7.161  1.00  0.00     0.211 HD
ENDBRANCH   8  35
BRANCH   2  37
HETATM   37  C3  UNL     1      -6.319  52.707  -9.143  1.00  0.00     0.019 C 
BRANCH  37  38
HETATM   38  C4  UNL     1      -7.734  52.651  -9.513  1.00  0.00     0.028 C 
BRANCH  38  39
HETATM   39  C5  UNL     1      -8.342  51.257  -9.600  1.00  0.00     0.229 C 
BRANCH  39  40
HETATM   40  N1  UNL     1      -9.231  51.155  -8.423  1.00  0.00    -0.079 N 
ATOM     41  H13 UNL     1      -9.915  50.401  -8.486  1.00  0.00     0.274 HD
ATOM     42  H12 UNL     1      -8.765  50.821  -7.580  1.00  0.00     0.274 HD
ATOM     43  H11 UNL     1      -9.646  52.082  -8.327  1.00  0.00     0.274 HD
ENDBRANCH  39  40
ENDBRANCH  38  39
ENDBRANCH  37  38
ENDBRANCH   2  37
TORSDOF 10
ENDMDL
MODEL 3
REMARK VINA RESULT: -10.493624318      2.678      3.775
REMARK  10 active torsions:
REMARK  status: ('A' for Active; 'I' for Inactive)
REMARK    1  A    between atoms: C2_2  and  C3_3 
REMARK    2  A    between atoms: C3_3  and  C4_4 
REMARK    3  A    between atoms: C4_4  and  C5_5 
REMARK    4  A    between atoms: C5_5  and  N1_6 
REMARK    5  A    between atoms: C9_15  and  O2_16 
REMARK    6  A    between atoms: C15_23  and  N2_24 
REMARK    7  A    between atoms: N2_24  and  C16_26 
REMARK    8  A    between atoms: C16_26  and  C17_27 
REMARK    9  A    between atoms: C16_26  and  C18_29 
REMARK   10  A    between atoms: C18_29  and  C19_32 
ROOT
HETATM    1  C1  UNL     1      -4.140  53.479  -7.554  1.00  0.00     0.024 C 
HETATM    2  C2  UNL     1      -5.673  53.134  -7.508  1.00  0.00     0.029 C 
HETATM    3  C6  UNL     1      -5.687  51.825  -6.834  1.00  0.00     0.175 C 
HETATM    4  O1  UNL     1      -5.260  50.782  -7.415  1.00  0.00    -0.291 OA
HETATM    5  C7  UNL     1      -6.183  51.634  -5.472  1.00  0.00     0.056 C 
HETATM    6 BR1  UNL     1      -5.753  50.115  -4.418  1.00  0.00    -0.047 Br
HETATM    7  C8  UNL     1      -6.958  52.585  -4.986  1.00  0.00     0.034 C 
HETATM    8  C9  UNL     1      -7.343  53.797  -5.711  1.00  0.00     0.086 C 
HETATM    9  C10 UNL     1      -7.571  54.896  -4.688  1.00  0.00     0.029 C 
HETATM   10  C11 UNL     1      -9.054  54.993  -4.342  1.00  0.00     0.014 C 
HETATM   11  C12 UNL     1      -9.126  56.372  -3.724  1.00  0.00    -0.004 C 
HETATM   12  C13 UNL     1      -8.695  56.215  -2.285  1.00  0.00     0.007 C 
HETATM   13  C14 UNL     1      -7.401  56.967  -2.147  1.00  0.00     0.026 C 
HETATM   14  C15 UNL     1      -7.275  57.874  -3.348  1.00  0.00     0.086 C 
HETATM   15  C25 UNL     1      -8.053  57.207  -4.408  1.00  0.00    -0.016 C 
HETATM   16  C26 UNL     1      -8.760  58.244  -5.293  1.00  0.00     0.018 C 
HETATM   17  C27 UNL     1      -7.353  56.238  -5.296  1.00  0.00     0.003 C 
HETATM   18  C28 UNL     1      -5.958  56.488  -5.663  1.00  0.00     0.006 C 
HETATM   19  C29 UNL     1      -5.339  55.194  -6.185  1.00  0.00     0.009 C 
HETATM   20  C30 UNL     1      -6.366  54.236  -6.759  1.00  0.00     0.040 C 
ENDROOT
BRANCH  14  21
HETATM   21  N2  UNL     1      -7.787  59.188  -3.118  1.00  0.00    -0.401 N 
ATOM     22  H2  UNL     1      -8.785  59.389  -3.190  1.00  0.00     0.154 HD
BRANCH  21  23
HETATM   23  C16 UNL     1      -6.858  60.201  -2.787  1.00  0.00     0.217 C 
BRANCH  23  24
HETATM   24  C17 UNL     1      -5.463  59.928  -3.202  1.00  0.00     0.262 C 
HETATM   25  O3  UNL     1      -4.544  59.904  -2.423  1.00  0.00    -0.304 OA
ENDBRANCH  23  24
BRANCH  23  26
HETATM   26  C18 UNL     1      -7.244  61.492  -3.506  1.00  0.00     0.296 C 
HETATM   27  F1  UNL     1      -8.043  61.245  -4.614  1.00  0.00    -0.198 F 
HETATM   28  F2  UNL     1      -6.067  62.029  -4.088  1.00  0.00    -0.198 F 
BRANCH  26  29
HETATM   29  C19 UNL     1      -7.836  62.536  -2.690  1.00  0.00     0.015 A 
HETATM   30  C20 UNL     1      -7.076  63.640  -2.298  1.00  0.00     0.013 A 
HETATM   31  C21 UNL     1      -7.581  64.659  -1.538  1.00  0.00     0.001 A 
HETATM   32  C22 UNL     1      -8.897  64.598  -1.140  1.00  0.00     0.000 A 
HETATM   33  C23 UNL     1      -9.682  63.533  -1.502  1.00  0.00     0.001 A 
HETATM   34  C24 UNL     1      -9.138  62.500  -2.283  1.00  0.00     0.013 A 
ENDBRANCH  26  29
ENDBRANCH  23  26
ENDBRANCH  21  23
ENDBRANCH  14  21
BRANCH   8  35
HETATM   35  O2  UNL     1      -8.578  53.524  -6.344  1.00  0.00    -0.385 OA
ATOM     36  H2  UNL     1      -8.815  54.302  -6.836  1.00  0.00     0.211 HD
ENDBRANCH   8  35
BRANCH   2  37
HETATM   37  C3  UNL     1      -6.039  53.126  -8.954  1.00  0.00     0.019 C 
BRANCH  37  38
HETATM   38  C4  UNL     1      -7.350  52.652  -9.402  1.00  0.00     0.028 C 
BRANCH  38  39
HETATM   39  C5  UNL     1      -7.338  51.683 -10.578  1.00  0.00     0.229 C 
BRANCH  39  40
HETATM   40  N1  UNL     1      -6.657  50.474 -10.069  1.00  0.00    -0.079 N 
ATOM     41  H13 UNL     1      -6.285  50.576  -9.124  1.00  0.00     0.274 HD
ATOM     42  H12 UNL     1      -7.288  49.700  -9.863  1.00  0.00     0.274 HD
ATOM     43  H11 UNL     1      -5.949  50.256 -10.770  1.00  0.00     0.274 HD
ENDBRANCH  39  40
ENDBRANCH  38  39
ENDBRANCH  37  38
ENDBRANCH   2  37
TORSDOF 10
ENDMDL
MODEL 4
REMARK VINA RESULT: -10.418303234      2.500      3.683
REMARK  10 active torsions:
REMARK  status: ('A' for Active; 'I' for Inactive)
REMARK    1  A    between atoms: C2_2  and  C3_3 
REMARK    2  A    between atoms: C3_3  and  C4_4 
REMARK    3  A    between atoms: C4_4  and  C5_5 
REMARK    4  A    between atoms: C5_5  and  N1_6 
REMARK    5  A    between atoms: C9_15  and  O2_16 
REMARK    6  A    between atoms: C15_23  and  N2_24 
REMARK    7  A    between atoms: N2_24  and  C16_26 
REMARK    8  A    between atoms: C16_26  and  C17_27 
REMARK    9  A    between atoms: C16_26  and  C18_29 
REMARK   10  A    between atoms: C18_29  and  C19_32 
ROOT
HETATM    1  C1  UNL     1      -4.308  53.281  -7.680  1.00  0.00     0.024 C 
HETATM    2  C2  UNL     1      -5.862  53.054  -7.615  1.00  0.00     0.029 C 
HETATM    3  C6  UNL     1      -5.967  51.729  -6.984  1.00  0.00     0.175 C 
HETATM    4  O1  UNL     1      -5.632  50.675  -7.605  1.00  0.00    -0.291 OA
HETATM    5  C7  UNL     1      -6.453  51.532  -5.619  1.00  0.00     0.056 C 
HETATM    6 BR1  UNL     1      -6.126  49.949  -4.623  1.00  0.00    -0.047 Br
HETATM    7  C8  UNL     1      -7.144  52.523  -5.088  1.00  0.00     0.034 C 
HETATM    8  C9  UNL     1      -7.446  53.785  -5.766  1.00  0.00     0.086 C 
HETATM    9  C10 UNL     1      -7.570  54.863  -4.705  1.00  0.00     0.029 C 
HETATM   10  C11 UNL     1      -9.035  55.063  -4.327  1.00  0.00     0.014 C 
HETATM   11  C12 UNL     1      -8.989  56.422  -3.665  1.00  0.00    -0.004 C 
HETATM   12  C13 UNL     1      -8.548  56.184  -2.239  1.00  0.00     0.007 C 
HETATM   13  C14 UNL     1      -7.197  56.829  -2.102  1.00  0.00     0.026 C 
HETATM   14  C15 UNL     1      -7.020  57.763  -3.276  1.00  0.00     0.086 C 
HETATM   15  C25 UNL     1      -7.865  57.194  -4.341  1.00  0.00    -0.016 C 
HETATM   16  C26 UNL     1      -8.504  58.311  -5.179  1.00  0.00     0.018 C 
HETATM   17  C27 UNL     1      -7.258  56.204  -5.274  1.00  0.00     0.003 C 
HETATM   18  C28 UNL     1      -5.854  56.357  -5.659  1.00  0.00     0.006 C 
HETATM   19  C29 UNL     1      -5.346  55.037  -6.234  1.00  0.00     0.009 C 
HETATM   20  C30 UNL     1      -6.455  54.181  -6.818  1.00  0.00     0.040 C 
ENDROOT
BRANCH  14  21
HETATM   21  N2  UNL     1      -7.424  59.104  -2.995  1.00  0.00    -0.401 N 
ATOM     22  H2  UNL     1      -8.371  59.426  -3.197  1.00  0.00     0.154 HD
BRANCH  21  23
HETATM   23  C16 UNL     1      -6.462  59.969  -2.425  1.00  0.00     0.217 C 
BRANCH  23  24
HETATM   24  C17 UNL     1      -6.102  61.138  -3.258  1.00  0.00     0.262 C 
HETATM   25  O3  UNL     1      -6.315  61.186  -4.443  1.00  0.00    -0.304 OA
ENDBRANCH  23  24
BRANCH  23  26
HETATM   26  C18 UNL     1      -7.017  60.555  -1.128  1.00  0.00     0.296 C 
HETATM   27  F1  UNL     1      -6.061  60.573  -0.122  1.00  0.00    -0.198 F 
HETATM   28  F2  UNL     1      -7.980  59.644  -0.622  1.00  0.00    -0.198 F 
BRANCH  26  29
HETATM   29  C19 UNL     1      -7.660  61.852  -1.225  1.00  0.00     0.015 A 
HETATM   30  C20 UNL     1      -9.030  61.941  -1.481  1.00  0.00     0.013 A 
HETATM   31  C21 UNL     1      -9.693  63.135  -1.574  1.00  0.00     0.001 A 
HETATM   32  C22 UNL     1      -8.982  64.301  -1.409  1.00  0.00     0.000 A 
HETATM   33  C23 UNL     1      -7.634  64.262  -1.156  1.00  0.00     0.001 A 
HETATM   34  C24 UNL     1      -6.978  63.023  -1.065  1.00  0.00     0.013 A 
ENDBRANCH  26  29
ENDBRANCH  23  26
ENDBRANCH  21  23
ENDBRANCH  14  21
BRANCH   8  35
HETATM   35  O2  UNL     1      -8.708  53.629  -6.384  1.00  0.00    -0.385 OA
ATOM     36  H2  UNL     1      -8.831  54.378  -6.955  1.00  0.00     0.211 HD
ENDBRANCH   8  35
BRANCH   2  37
HETATM   37  C3  UNL     1      -6.252  53.123  -9.054  1.00  0.00     0.019 C 
BRANCH  37  38
HETATM   38  C4  UNL     1      -7.586  52.715  -9.498  1.00  0.00     0.028 C 
BRANCH  38  39
HETATM   39  C5  UNL     1      -7.636  51.498 -10.414  1.00  0.00     0.229 C 
BRANCH  39  40
HETATM   40  N1  UNL     1      -8.085  50.388  -9.548  1.00  0.00    -0.079 N 
ATOM     41  H13 UNL     1      -7.563  49.521  -9.683  1.00  0.00     0.274 HD
ATOM     42  H12 UNL     1      -7.852  50.512  -8.563  1.00  0.00     0.274 HD
ATOM     43  H11 UNL     1      -9.085  50.301  -9.729  1.00  0.00     0.274 HD
ENDBRANCH  39  40
ENDBRANCH  38  39
ENDBRANCH  37  38
ENDBRANCH   2  37
TORSDOF 10
ENDMDL
MODEL 5
REMARK VINA RESULT: -10.353353058      1.477      1.778
REMARK  10 active torsions:
REMARK  status: ('A' for Active; 'I' for Inactive)
REMARK    1  A    between atoms: C2_2  and  C3_3 
REMARK    2  A    between atoms: C3_3  and  C4_4 
REMARK    3  A    between atoms: C4_4  and  C5_5 
REMARK    4  A    between atoms: C5_5  and  N1_6 
REMARK    5  A    between atoms: C9_15  and  O2_16 
REMARK    6  A    between atoms: C15_23  and  N2_24 
REMARK    7  A    between atoms: N2_24  and  C16_26 
REMARK    8  A    between atoms: C16_26  and  C17_27 
REMARK    9  A    between atoms: C16_26  and  C18_29 
REMARK   10  A    between atoms: C18_29  and  C19_32 
ROOT
HETATM    1  C1  UNL     1      -8.352  51.083  -5.992  1.00  0.00     0.024 C 
HETATM    2  C2  UNL     1      -6.890  51.568  -6.303  1.00  0.00     0.029 C 
HETATM    3  C6  UNL     1      -6.822  51.462  -7.769  1.00  0.00     0.175 C 
HETATM    4  O1  UNL     1      -6.789  50.334  -8.347  1.00  0.00    -0.291 OA
HETATM    5  C7  UNL     1      -6.789  52.627  -8.653  1.00  0.00     0.056 C 
HETATM    6 BR1  UNL     1      -7.210  52.535 -10.502  1.00  0.00    -0.047 Br
HETATM    7  C8  UNL     1      -6.451  53.778  -8.103  1.00  0.00     0.034 C 
HETATM    8  C9  UNL     1      -6.115  53.959  -6.689  1.00  0.00     0.086 C 
HETATM    9  C10 UNL     1      -6.492  55.377  -6.300  1.00  0.00     0.029 C 
HETATM   10  C11 UNL     1      -5.274  56.290  -6.396  1.00  0.00     0.014 C 
HETATM   11  C12 UNL     1      -5.716  57.467  -5.556  1.00  0.00    -0.004 C 
HETATM   12  C13 UNL     1      -6.565  58.334  -6.456  1.00  0.00     0.007 C 
HETATM   13  C14 UNL     1      -7.960  58.285  -5.897  1.00  0.00     0.026 C 
HETATM   14  C15 UNL     1      -7.865  57.741  -4.491  1.00  0.00     0.086 C 
HETATM   15  C25 UNL     1      -6.649  56.909  -4.490  1.00  0.00    -0.016 C 
HETATM   16  C26 UNL     1      -5.926  57.010  -3.138  1.00  0.00     0.018 C 
HETATM   17  C27 UNL     1      -6.777  55.467  -4.841  1.00  0.00     0.003 C 
HETATM   18  C28 UNL     1      -7.983  54.742  -4.440  1.00  0.00     0.006 C 
HETATM   19  C29 UNL     1      -8.092  53.460  -5.262  1.00  0.00     0.009 C 
HETATM   20  C30 UNL     1      -6.749  52.964  -5.765  1.00  0.00     0.040 C 
ENDROOT
BRANCH  14  21
HETATM   21  N2  UNL     1      -7.760  58.764  -3.498  1.00  0.00    -0.401 N 
ATOM     22  H2  UNL     1      -6.938  59.366  -3.442  1.00  0.00     0.154 HD
BRANCH  21  23
HETATM   23  C16 UNL     1      -8.837  58.908  -2.595  1.00  0.00     0.217 C 
BRANCH  23  24
HETATM   24  C17 UNL     1      -8.655  58.232  -1.291  1.00  0.00     0.262 C 
HETATM   25  O3  UNL     1      -9.044  57.111  -1.077  1.00  0.00    -0.304 OA
ENDBRANCH  23  24
BRANCH  23  26
HETATM   26  C18 UNL     1      -9.017  60.387  -2.258  1.00  0.00     0.296 C 
HETATM   27  F1  UNL     1      -9.232  60.583  -0.900  1.00  0.00    -0.198 F 
HETATM   28  F2  UNL     1     -10.243  60.813  -2.829  1.00  0.00    -0.198 F 
BRANCH  26  29
HETATM   29  C19 UNL     1      -7.984  61.291  -2.731  1.00  0.00     0.015 A 
HETATM   30  C20 UNL     1      -8.043  61.811  -4.025  1.00  0.00     0.013 A 
HETATM   31  C21 UNL     1      -7.105  62.674  -4.524  1.00  0.00     0.001 A 
HETATM   32  C22 UNL     1      -6.055  63.048  -3.717  1.00  0.00     0.000 A 
HETATM   33  C23 UNL     1      -5.956  62.561  -2.438  1.00  0.00     0.001 A 
HETATM   34  C24 UNL     1      -6.933  61.677  -1.951  1.00  0.00     0.013 A 
ENDBRANCH  26  29
ENDBRANCH  23  26
ENDBRANCH  21  23
ENDBRANCH  14  21
BRANCH   8  35
HETATM   35  O2  UNL     1      -4.711  53.832  -6.579  1.00  0.00    -0.385 OA
ATOM     36  H2  UNL     1      -4.458  54.244  -5.761  1.00  0.00     0.211 HD
ENDBRANCH   8  35
BRANCH   2  37
HETATM   37  C3  UNL     1      -6.063  50.590  -5.539  1.00  0.00     0.019 C 
BRANCH  37  38
HETATM   38  C4  UNL     1      -5.176  51.026  -4.458  1.00  0.00     0.028 C 
BRANCH  38  39
HETATM   39  C5  UNL     1      -3.685  50.995  -4.770  1.00  0.00     0.229 C 
BRANCH  39  40
HETATM   40  N1  UNL     1      -3.113  50.037  -3.801  1.00  0.00    -0.079 N 
ATOM     41  H13 UNL     1      -3.535  49.109  -3.839  1.00  0.00     0.274 HD
ATOM     42  H12 UNL     1      -2.162  49.742  -4.022  1.00  0.00     0.274 HD
ATOM     43  H11 UNL     1      -3.204  50.495  -2.894  1.00  0.00     0.274 HD
ENDBRANCH  39  40
ENDBRANCH  38  39
ENDBRANCH  37  38
ENDBRANCH   2  37
TORSDOF 10
ENDMDL
