MODEL 1
REMARK VINA RESULT: -9.826711456      0.000      0.000
REMARK  11 active torsions:
REMARK  status: ('A' for Active; 'I' for Inactive)
REMARK    1  A    between atoms: C2_2  and  N1_3 
REMARK    2  A    between atoms: N1_3  and  C3_4 
REMARK    3  A    between atoms: N1_3  and  C5_6 
REMARK    4  A    between atoms: C5_6  and  O1_7 
REMARK    5  A    between atoms: C5_6  and  C6_9 
REMARK    6  A    between atoms: C9_12  and  N2_13 
REMARK    7  A    between atoms: C13_17  and  C14_18 
REMARK    8  A    between atoms: C17_23  and  N3_24 
REMARK       I    between atoms: N3_24  and  C18_26 
REMARK       I    between atoms: C18_26  and  N4_28 
REMARK    9  A    between atoms: N4_28  and  C19_30 
REMARK   10  A    between atoms: C19_30  and  C20_31 
REMARK       I    between atoms: C20_31  and  N5_33 
REMARK   11  A    between atoms: N5_33  and  C21_35 
ROOT
HETATM    1  C21 UNL     1     -11.076  51.088  -7.755  1.00  0.00     0.247 C 
HETATM    2  C22 UNL     1     -11.659  52.370  -7.430  1.00  0.00     0.078 C 
HETATM    3  N6  UNL     1     -12.138  53.399  -7.189  1.00  0.00    -0.196 NA
ENDROOT
BRANCH   1   4
HETATM    4  N5  UNL     1      -9.908  51.287  -8.633  1.00  0.00    -0.347 N 
HETATM    5  C20 UNL     1      -8.770  50.450  -8.476  1.00  0.00     0.246 C 
HETATM    6  O3  UNL     1      -8.819  49.569  -7.574  1.00  0.00    -0.271 OA
ATOM      7  H5  UNL     1      -9.916  52.018  -9.344  1.00  0.00     0.163 HD
BRANCH   5   8
HETATM    8  C19 UNL     1      -7.543  50.604  -9.356  1.00  0.00     0.115 C 
HETATM    9  C23 UNL     1      -6.676  49.434  -9.043  1.00  0.00     0.041 C 
HETATM   10  C24 UNL     1      -6.174  48.609 -10.156  1.00  0.00     0.003 C 
HETATM   11  C25 UNL     1      -7.118  48.476 -11.300  1.00  0.00     0.000 C 
HETATM   12  C26 UNL     1      -7.448  49.849 -11.785  1.00  0.00     0.003 C 
HETATM   13  C27 UNL     1      -8.048  50.707 -10.744  1.00  0.00     0.041 C 
BRANCH   8  14
HETATM   14  N4  UNL     1      -6.943  51.851  -8.929  1.00  0.00    -0.325 N 
HETATM   15  C18 UNL     1      -6.347  52.093  -7.666  1.00  0.00     0.321 C 
HETATM   16  N3  UNL     1      -5.793  53.348  -7.381  1.00  0.00    -0.308 N 
HETATM   17  O2  UNL     1      -6.341  51.165  -6.851  1.00  0.00    -0.247 OA
ATOM     18  H3  UNL     1      -5.845  54.031  -8.137  1.00  0.00     0.170 HD
ATOM     19  H4  UNL     1      -6.950  52.623  -9.595  1.00  0.00     0.165 HD
BRANCH  16  20
HETATM   20  C17 UNL     1      -5.174  53.801  -6.191  1.00  0.00     0.045 A 
HETATM   21  C16 UNL     1      -3.881  53.516  -5.821  1.00  0.00     0.043 A 
HETATM   22  C13 UNL     1      -3.313  53.964  -4.614  1.00  0.00     0.015 A 
HETATM   23  C12 UNL     1      -4.106  54.719  -3.786  1.00  0.00     0.022 A 
HETATM   24  C11 UNL     1      -5.412  55.037  -4.111  1.00  0.00    -0.019 A 
HETATM   25  C10 UNL     1      -6.417  55.813  -3.363  1.00  0.00     0.312 A 
HETATM   26  C28 UNL     1      -5.925  54.583  -5.289  1.00  0.00     0.005 A 
HETATM   27  N2  UNL     1      -7.613  55.751  -4.176  1.00  0.00     0.101 N 
HETATM   28  C29 UNL     1      -7.311  55.084  -5.394  1.00  0.00     0.315 A 
BRANCH  22  29
HETATM   29  C14 UNL     1      -1.912  53.630  -4.265  1.00  0.00     0.267 C 
HETATM   30  C15 UNL     1      -1.821  52.110  -4.167  1.00  0.00     0.096 C 
HETATM   31  F1  UNL     1      -1.575  54.151  -3.017  1.00  0.00    -0.201 F 
HETATM   32  F2  UNL     1      -1.087  54.118  -5.266  1.00  0.00    -0.201 F 
ENDBRANCH  22  29
BRANCH  27  33
HETATM   33  C9  UNL     1      -8.119  57.098  -4.436  1.00  0.00     0.224 C 
HETATM   34  C8  UNL     1      -8.755  57.614  -3.172  1.00  0.00     0.036 C 
HETATM   35  C7  UNL     1      -9.428  58.964  -3.429  1.00  0.00     0.015 C 
HETATM   36  C6  UNL     1      -8.444  59.847  -4.098  1.00  0.00     0.060 C 
HETATM   37  C31 UNL     1      -7.003  59.300  -4.003  1.00  0.00     0.015 C 
HETATM   38  C30 UNL     1      -6.960  58.001  -4.795  1.00  0.00     0.036 C 
BRANCH  36  39
HETATM   39  C5  UNL     1      -8.473  61.277  -3.858  1.00  0.00     0.117 C 
BRANCH  39  40
HETATM   40  N1  UNL     1      -8.643  62.024  -2.689  1.00  0.00    -0.366 N 
BRANCH  40  41
HETATM   41  C2  UNL     1      -7.612  62.326  -1.749  1.00  0.00     0.120 C 
HETATM   42  C1  UNL     1      -7.298  61.156  -0.808  1.00  0.00     0.026 C 
ENDBRANCH  40  41
BRANCH  40  43
HETATM   43  C3  UNL     1      -9.999  62.557  -2.411  1.00  0.00     0.120 C 
HETATM   44  C4  UNL     1      -9.926  63.732  -1.457  1.00  0.00     0.026 C 
ENDBRANCH  40  43
ENDBRANCH  39  40
BRANCH  39  45
HETATM   45  O1  UNL     1      -8.304  62.029  -4.931  1.00  0.00    -0.349 OA
ATOM     46  H1  UNL     1      -8.657  61.634  -5.720  1.00  0.00     0.219 HD
ENDBRANCH  39  45
ENDBRANCH  36  39
ENDBRANCH  27  33
ENDBRANCH  16  20
ENDBRANCH   8  14
ENDBRANCH   5   8
ENDBRANCH   1   4
TORSDOF 11
ENDMDL
MODEL 2
REMARK VINA RESULT: -9.757818025      5.365     12.444
REMARK  11 active torsions:
REMARK  status: ('A' for Active; 'I' for Inactive)
REMARK    1  A    between atoms: C2_2  and  N1_3 
REMARK    2  A    between atoms: N1_3  and  C3_4 
REMARK    3  A    between atoms: N1_3  and  C5_6 
REMARK    4  A    between atoms: C5_6  and  O1_7 
REMARK    5  A    between atoms: C5_6  and  C6_9 
REMARK    6  A    between atoms: C9_12  and  N2_13 
REMARK    7  A    between atoms: C13_17  and  C14_18 
REMARK    8  A    between atoms: C17_23  and  N3_24 
REMARK       I    between atoms: N3_24  and  C18_26 
REMARK       I    between atoms: C18_26  and  N4_28 
REMARK    9  A    between atoms: N4_28  and  C19_30 
REMARK   10  A    between atoms: C19_30  and  C20_31 
REMARK       I    between atoms: C20_31  and  N5_33 
REMARK   11  A    between atoms: N5_33  and  C21_35 
ROOT
HETATM    1  C21 UNL     1       0.694  60.549  -1.017  1.00  0.00     0.247 C 
HETATM    2  C22 UNL     1       1.463  60.341  -2.224  1.00  0.00     0.078 C 
HETATM    3  N6  UNL     1       2.097  60.187  -3.184  1.00  0.00    -0.196 NA
ENDROOT
BRANCH   1   4
HETATM    4  N5  UNL     1       0.053  61.876  -1.065  1.00  0.00    -0.347 N 
HETATM    5  C20 UNL     1      -1.365  61.961  -1.120  1.00  0.00     0.246 C 
HETATM    6  O3  UNL     1      -2.010  60.877  -1.133  1.00  0.00    -0.271 OA
ATOM      7  H5  UNL     1       0.621  62.723  -1.059  1.00  0.00     0.163 HD
BRANCH   5   8
HETATM    8  C19 UNL     1      -2.079  63.299  -1.163  1.00  0.00     0.115 C 
HETATM    9  C23 UNL     1      -2.468  63.592   0.244  1.00  0.00     0.041 C 
HETATM   10  C24 UNL     1      -2.107  64.899   0.819  1.00  0.00     0.003 C 
HETATM   11  C25 UNL     1      -0.809  65.448   0.339  1.00  0.00     0.000 C 
HETATM   12  C26 UNL     1      -0.873  65.541  -1.151  1.00  0.00     0.003 C 
HETATM   13  C27 UNL     1      -1.135  64.243  -1.805  1.00  0.00     0.041 C 
BRANCH   8  14
HETATM   14  N4  UNL     1      -3.234  63.068  -2.007  1.00  0.00    -0.325 N 
HETATM   15  C18 UNL     1      -4.547  62.783  -1.552  1.00  0.00     0.321 C 
HETATM   16  N3  UNL     1      -5.581  62.587  -2.477  1.00  0.00    -0.308 N 
HETATM   17  O2  UNL     1      -4.725  62.718  -0.333  1.00  0.00    -0.247 OA
ATOM     18  H3  UNL     1      -5.316  62.680  -3.457  1.00  0.00     0.170 HD
ATOM     19  H4  UNL     1      -3.091  63.115  -3.015  1.00  0.00     0.165 HD
BRANCH  16  20
HETATM   20  C17 UNL     1      -6.942  62.278  -2.241  1.00  0.00     0.045 A 
HETATM   21  C16 UNL     1      -7.927  63.205  -1.996  1.00  0.00     0.043 A 
HETATM   22  C13 UNL     1      -9.265  62.853  -1.738  1.00  0.00     0.015 A 
HETATM   23  C12 UNL     1      -9.575  61.515  -1.736  1.00  0.00     0.022 A 
HETATM   24  C11 UNL     1      -8.624  60.542  -1.979  1.00  0.00    -0.019 A 
HETATM   25  C10 UNL     1      -8.750  59.074  -2.009  1.00  0.00     0.312 A 
HETATM   26  C28 UNL     1      -7.339  60.925  -2.224  1.00  0.00     0.005 A 
HETATM   27  N2  UNL     1      -7.406  58.591  -2.249  1.00  0.00     0.101 N 
HETATM   28  C29 UNL     1      -6.548  59.701  -2.472  1.00  0.00     0.315 A 
BRANCH  22  29
HETATM   29  C14 UNL     1     -10.288  63.894  -1.483  1.00  0.00     0.267 C 
HETATM   30  C15 UNL     1      -9.546  65.182  -1.140  1.00  0.00     0.096 C 
HETATM   31  F1  UNL     1     -11.073  63.557  -0.381  1.00  0.00    -0.201 F 
HETATM   32  F2  UNL     1     -11.050  64.044  -2.631  1.00  0.00    -0.201 F 
ENDBRANCH  22  29
BRANCH  27  33
HETATM   33  C9  UNL     1      -7.392  57.687  -3.398  1.00  0.00     0.224 C 
HETATM   34  C8  UNL     1      -6.523  56.505  -3.057  1.00  0.00     0.036 C 
HETATM   35  C7  UNL     1      -6.357  55.598  -4.277  1.00  0.00     0.015 C 
HETATM   36  C6  UNL     1      -7.705  55.309  -4.821  1.00  0.00     0.060 C 
HETATM   37  C31 UNL     1      -8.830  55.681  -3.832  1.00  0.00     0.015 C 
HETATM   38  C30 UNL     1      -8.797  57.193  -3.657  1.00  0.00     0.036 C 
BRANCH  36  39
HETATM   39  C5  UNL     1      -7.972  54.033  -5.456  1.00  0.00     0.117 C 
BRANCH  39  40
HETATM   40  N1  UNL     1      -7.127  53.083  -6.035  1.00  0.00    -0.366 N 
BRANCH  40  41
HETATM   41  C2  UNL     1      -6.729  51.855  -5.425  1.00  0.00     0.120 C 
HETATM   42  C1  UNL     1      -5.365  51.944  -4.730  1.00  0.00     0.026 C 
ENDBRANCH  40  41
BRANCH  40  43
HETATM   43  C3  UNL     1      -6.612  53.368  -7.396  1.00  0.00     0.120 C 
HETATM   44  C4  UNL     1      -7.510  52.746  -8.447  1.00  0.00     0.026 C 
ENDBRANCH  40  43
ENDBRANCH  39  40
BRANCH  39  45
HETATM   45  O1  UNL     1      -9.246  53.684  -5.497  1.00  0.00    -0.349 OA
ATOM     46  H1  UNL     1      -9.650  53.649  -4.638  1.00  0.00     0.219 HD
ENDBRANCH  39  45
ENDBRANCH  36  39
ENDBRANCH  27  33
ENDBRANCH  16  20
ENDBRANCH   8  14
ENDBRANCH   5   8
ENDBRANCH   1   4
TORSDOF 11
ENDMDL
MODEL 3
REMARK VINA RESULT: -9.398267639      5.399     12.394
REMARK  11 active torsions:
REMARK  status: ('A' for Active; 'I' for Inactive)
REMARK    1  A    between atoms: C2_2  and  N1_3 
REMARK    2  A    between atoms: N1_3  and  C3_4 
REMARK    3  A    between atoms: N1_3  and  C5_6 
REMARK    4  A    between atoms: C5_6  and  O1_7 
REMARK    5  A    between atoms: C5_6  and  C6_9 
REMARK    6  A    between atoms: C9_12  and  N2_13 
REMARK    7  A    between atoms: C13_17  and  C14_18 
REMARK    8  A    between atoms: C17_23  and  N3_24 
REMARK       I    between atoms: N3_24  and  C18_26 
REMARK       I    between atoms: C18_26  and  N4_28 
REMARK    9  A    between atoms: N4_28  and  C19_30 
REMARK   10  A    between atoms: C19_30  and  C20_31 
REMARK       I    between atoms: C20_31  and  N5_33 
REMARK   11  A    between atoms: N5_33  and  C21_35 
ROOT
HETATM    1  C21 UNL     1       1.626  60.763  -0.896  1.00  0.00     0.247 C 
HETATM    2  C22 UNL     1       1.464  59.344  -1.122  1.00  0.00     0.078 C 
HETATM    3  N6  UNL     1       1.328  58.210  -1.326  1.00  0.00    -0.196 NA
ENDROOT
BRANCH   1   4
HETATM    4  N5  UNL     1       0.301  61.398  -0.778  1.00  0.00    -0.347 N 
HETATM    5  C20 UNL     1       0.037  62.595  -1.496  1.00  0.00     0.246 C 
HETATM    6  O3  UNL     1       0.971  63.064  -2.204  1.00  0.00    -0.271 OA
ATOM      7  H5  UNL     1      -0.419  60.982  -0.188  1.00  0.00     0.163 HD
BRANCH   5   8
HETATM    8  C19 UNL     1      -1.310  63.288  -1.419  1.00  0.00     0.115 C 
HETATM    9  C23 UNL     1      -1.356  63.930  -0.076  1.00  0.00     0.041 C 
HETATM   10  C24 UNL     1      -1.705  65.358   0.013  1.00  0.00     0.003 C 
HETATM   11  C25 UNL     1      -1.217  66.186  -1.124  1.00  0.00     0.000 C 
HETATM   12  C26 UNL     1      -1.763  65.600  -2.385  1.00  0.00     0.003 C 
HETATM   13  C27 UNL     1      -1.371  64.191  -2.591  1.00  0.00     0.041 C 
BRANCH   8  14
HETATM   14  N4  UNL     1      -2.278  62.217  -1.540  1.00  0.00    -0.325 N 
HETATM   15  C18 UNL     1      -3.683  62.379  -1.649  1.00  0.00     0.321 C 
HETATM   16  N3  UNL     1      -4.510  61.255  -1.767  1.00  0.00    -0.308 N 
HETATM   17  O2  UNL     1      -4.126  63.531  -1.632  1.00  0.00    -0.247 OA
ATOM     18  H3  UNL     1      -4.029  60.356  -1.783  1.00  0.00     0.170 HD
ATOM     19  H4  UNL     1      -1.918  61.263  -1.547  1.00  0.00     0.165 HD
BRANCH  16  20
HETATM   20  C17 UNL     1      -5.921  61.193  -1.868  1.00  0.00     0.045 A 
HETATM   21  C16 UNL     1      -6.768  62.264  -1.713  1.00  0.00     0.043 A 
HETATM   22  C13 UNL     1      -8.168  62.152  -1.794  1.00  0.00     0.015 A 
HETATM   23  C12 UNL     1      -8.688  60.906  -2.040  1.00  0.00     0.022 A 
HETATM   24  C11 UNL     1      -7.882  59.795  -2.206  1.00  0.00    -0.019 A 
HETATM   25  C10 UNL     1      -8.240  58.388  -2.461  1.00  0.00     0.312 A 
HETATM   26  C28 UNL     1      -6.530  59.945  -2.120  1.00  0.00     0.005 A 
HETATM   27  N2  UNL     1      -6.976  57.681  -2.475  1.00  0.00     0.101 N 
HETATM   28  C29 UNL     1      -5.917  58.622  -2.359  1.00  0.00     0.315 A 
BRANCH  22  29
HETATM   29  C14 UNL     1      -9.036  63.342  -1.622  1.00  0.00     0.267 C 
HETATM   30  C15 UNL     1      -8.129  64.511  -1.250  1.00  0.00     0.096 C 
HETATM   31  F1  UNL     1      -9.931  63.154  -0.569  1.00  0.00    -0.201 F 
HETATM   32  F2  UNL     1      -9.692  63.577  -2.819  1.00  0.00    -0.201 F 
ENDBRANCH  22  29
BRANCH  27  33
HETATM   33  C9  UNL     1      -6.845  56.905  -3.707  1.00  0.00     0.224 C 
HETATM   34  C8  UNL     1      -5.942  55.732  -3.432  1.00  0.00     0.036 C 
HETATM   35  C7  UNL     1      -5.655  54.967  -4.725  1.00  0.00     0.015 C 
HETATM   36  C6  UNL     1      -6.951  54.680  -5.385  1.00  0.00     0.060 C 
HETATM   37  C31 UNL     1      -8.153  54.896  -4.441  1.00  0.00     0.015 C 
HETATM   38  C30 UNL     1      -8.206  56.382  -4.110  1.00  0.00     0.036 C 
BRANCH  36  39
HETATM   39  C5  UNL     1      -7.114  53.467  -6.163  1.00  0.00     0.117 C 
BRANCH  39  40
HETATM   40  N1  UNL     1      -6.373  52.283  -6.215  1.00  0.00    -0.366 N 
BRANCH  40  41
HETATM   41  C2  UNL     1      -5.500  51.905  -7.280  1.00  0.00     0.120 C 
HETATM   42  C1  UNL     1      -4.462  52.982  -7.616  1.00  0.00     0.026 C 
ENDBRANCH  40  41
BRANCH  40  43
HETATM   43  C3  UNL     1      -6.495  51.353  -5.067  1.00  0.00     0.120 C 
HETATM   44  C4  UNL     1      -5.152  51.164  -4.389  1.00  0.00     0.026 C 
ENDBRANCH  40  43
ENDBRANCH  39  40
BRANCH  39  45
HETATM   45  O1  UNL     1      -8.156  53.459  -6.977  1.00  0.00    -0.349 OA
ATOM     46  H1  UNL     1      -8.901  52.987  -6.621  1.00  0.00     0.219 HD
ENDBRANCH  39  45
ENDBRANCH  36  39
ENDBRANCH  27  33
ENDBRANCH  16  20
ENDBRANCH   8  14
ENDBRANCH   5   8
ENDBRANCH   1   4
TORSDOF 11
ENDMDL
MODEL 4
REMARK VINA RESULT: -9.306835244      5.300     12.756
REMARK  11 active torsions:
REMARK  status: ('A' for Active; 'I' for Inactive)
REMARK    1  A    between atoms: C2_2  and  N1_3 
REMARK    2  A    between atoms: N1_3  and  C3_4 
REMARK    3  A    between atoms: N1_3  and  C5_6 
REMARK    4  A    between atoms: C5_6  and  O1_7 
REMARK    5  A    between atoms: C5_6  and  C6_9 
REMARK    6  A    between atoms: C9_12  and  N2_13 
REMARK    7  A    between atoms: C13_17  and  C14_18 
REMARK    8  A    between atoms: C17_23  and  N3_24 
REMARK       I    between atoms: N3_24  and  C18_26 
REMARK       I    between atoms: C18_26  and  N4_28 
REMARK    9  A    between atoms: N4_28  and  C19_30 
REMARK   10  A    between atoms: C19_30  and  C20_31 
REMARK       I    between atoms: C20_31  and  N5_33 
REMARK   11  A    between atoms: N5_33  and  C21_35 
ROOT
HETATM    1  C21 UNL     1      -1.185  65.039   2.531  1.00  0.00     0.247 C 
HETATM    2  C22 UNL     1      -1.193  66.476   2.375  1.00  0.00     0.078 C 
HETATM    3  N6  UNL     1      -1.221  67.629   2.243  1.00  0.00    -0.196 NA
ENDROOT
BRANCH   1   4
HETATM    4  N5  UNL     1      -1.006  64.402   1.213  1.00  0.00    -0.347 N 
HETATM    5  C20 UNL     1      -2.141  63.887   0.531  1.00  0.00     0.246 C 
HETATM    6  O3  UNL     1      -3.261  63.997   1.103  1.00  0.00    -0.271 OA
ATOM      7  H5  UNL     1      -0.078  64.333   0.796  1.00  0.00     0.163 HD
BRANCH   5   8
HETATM    8  C19 UNL     1      -2.018  63.228  -0.831  1.00  0.00     0.115 C 
HETATM    9  C23 UNL     1      -2.365  64.285  -1.821  1.00  0.00     0.041 C 
HETATM   10  C24 UNL     1      -1.439  64.539  -2.938  1.00  0.00     0.003 C 
HETATM   11  C25 UNL     1       0.000  64.366  -2.598  1.00  0.00     0.000 C 
HETATM   12  C26 UNL     1       0.185  62.977  -2.080  1.00  0.00     0.003 C 
HETATM   13  C27 UNL     1      -0.644  62.681  -0.895  1.00  0.00     0.041 C 
BRANCH   8  14
HETATM   14  N4  UNL     1      -3.000  62.163  -0.811  1.00  0.00    -0.325 N 
HETATM   15  C18 UNL     1      -4.347  62.270  -1.240  1.00  0.00     0.321 C 
HETATM   16  N3  UNL     1      -5.194  61.156  -1.173  1.00  0.00    -0.308 N 
HETATM   17  O2  UNL     1      -4.724  63.367  -1.662  1.00  0.00    -0.247 OA
ATOM     18  H3  UNL     1      -4.766  60.301  -0.820  1.00  0.00     0.170 HD
ATOM     19  H4  UNL     1      -2.695  61.256  -0.457  1.00  0.00     0.165 HD
BRANCH  16  20
HETATM   20  C17 UNL     1      -6.561  61.053  -1.528  1.00  0.00     0.045 A 
HETATM   21  C16 UNL     1      -7.470  62.082  -1.463  1.00  0.00     0.043 A 
HETATM   22  C13 UNL     1      -8.827  61.927  -1.799  1.00  0.00     0.015 A 
HETATM   23  C12 UNL     1      -9.238  60.683  -2.209  1.00  0.00     0.022 A 
HETATM   24  C11 UNL     1      -8.365  59.615  -2.295  1.00  0.00    -0.019 A 
HETATM   25  C10 UNL     1      -8.608  58.217  -2.695  1.00  0.00     0.312 A 
HETATM   26  C28 UNL     1      -7.058  59.805  -1.960  1.00  0.00     0.005 A 
HETATM   27  N2  UNL     1      -7.331  57.556  -2.526  1.00  0.00     0.101 N 
HETATM   28  C29 UNL     1      -6.353  58.523  -2.166  1.00  0.00     0.315 A 
BRANCH  22  29
HETATM   29  C14 UNL     1      -9.765  63.072  -1.713  1.00  0.00     0.267 C 
HETATM   30  C15 UNL     1      -8.937  64.310  -1.379  1.00  0.00     0.096 C 
HETATM   31  F1  UNL     1     -10.678  62.887  -0.676  1.00  0.00    -0.201 F 
HETATM   32  F2  UNL     1     -10.398  63.208  -2.938  1.00  0.00    -0.201 F 
ENDBRANCH  22  29
BRANCH  27  33
HETATM   33  C9  UNL     1      -6.950  56.871  -3.760  1.00  0.00     0.224 C 
HETATM   34  C8  UNL     1      -6.000  55.757  -3.406  1.00  0.00     0.036 C 
HETATM   35  C7  UNL     1      -5.457  55.098  -4.675  1.00  0.00     0.015 C 
HETATM   36  C6  UNL     1      -6.609  54.752  -5.541  1.00  0.00     0.060 C 
HETATM   37  C31 UNL     1      -7.953  54.815  -4.785  1.00  0.00     0.015 C 
HETATM   38  C30 UNL     1      -8.184  56.268  -4.393  1.00  0.00     0.036 C 
BRANCH  36  39
HETATM   39  C5  UNL     1      -6.547  53.581  -6.394  1.00  0.00     0.117 C 
BRANCH  39  40
HETATM   40  N1  UNL     1      -5.611  52.549  -6.498  1.00  0.00    -0.366 N 
BRANCH  40  41
HETATM   41  C2  UNL     1      -5.729  51.265  -5.884  1.00  0.00     0.120 C 
HETATM   42  C1  UNL     1      -5.312  51.266  -4.409  1.00  0.00     0.026 C 
ENDBRANCH  40  41
BRANCH  40  43
HETATM   43  C3  UNL     1      -4.405  52.804  -7.322  1.00  0.00     0.120 C 
HETATM   44  C4  UNL     1      -4.466  52.017  -8.617  1.00  0.00     0.026 C 
ENDBRANCH  40  43
ENDBRANCH  39  40
BRANCH  39  45
HETATM   45  O1  UNL     1      -7.561  53.444  -7.231  1.00  0.00    -0.349 OA
ATOM     46  H1  UNL     1      -8.407  53.489  -6.800  1.00  0.00     0.219 HD
ENDBRANCH  39  45
ENDBRANCH  36  39
ENDBRANCH  27  33
ENDBRANCH  16  20
ENDBRANCH   8  14
ENDBRANCH   5   8
ENDBRANCH   1   4
TORSDOF 11
ENDMDL
MODEL 5
REMARK VINA RESULT: -9.157341271      5.899     12.977
REMARK  11 active torsions:
REMARK  status: ('A' for Active; 'I' for Inactive)
REMARK    1  A    between atoms: C2_2  and  N1_3 
REMARK    2  A    between atoms: N1_3  and  C3_4 
REMARK    3  A    between atoms: N1_3  and  C5_6 
REMARK    4  A    between atoms: C5_6  and  O1_7 
REMARK    5  A    between atoms: C5_6  and  C6_9 
REMARK    6  A    between atoms: C9_12  and  N2_13 
REMARK    7  A    between atoms: C13_17  and  C14_18 
REMARK    8  A    between atoms: C17_23  and  N3_24 
REMARK       I    between atoms: N3_24  and  C18_26 
REMARK       I    between atoms: C18_26  and  N4_28 
REMARK    9  A    between atoms: N4_28  and  C19_30 
REMARK   10  A    between atoms: C19_30  and  C20_31 
REMARK       I    between atoms: C20_31  and  N5_33 
REMARK   11  A    between atoms: N5_33  and  C21_35 
ROOT
HETATM    1  C21 UNL     1      -1.327  65.048   2.021  1.00  0.00     0.247 C 
HETATM    2  C22 UNL     1      -0.020  65.467   2.478  1.00  0.00     0.078 C 
HETATM    3  N6  UNL     1       1.030  65.818   2.826  1.00  0.00    -0.196 NA
ENDROOT
BRANCH   1   4
HETATM    4  N5  UNL     1      -1.175  64.068   0.930  1.00  0.00    -0.347 N 
HETATM    5  C20 UNL     1      -1.155  64.524  -0.416  1.00  0.00     0.246 C 
HETATM    6  O3  UNL     1      -1.277  65.765  -0.609  1.00  0.00    -0.271 OA
ATOM      7  H5  UNL     1      -1.086  63.074   1.139  1.00  0.00     0.163 HD
BRANCH   5   8
HETATM    8  C19 UNL     1      -0.994  63.562  -1.579  1.00  0.00     0.115 C 
HETATM    9  C23 UNL     1       0.147  64.087  -2.379  1.00  0.00     0.041 C 
HETATM   10  C24 UNL     1       1.245  63.170  -2.730  1.00  0.00     0.003 C 
HETATM   11  C25 UNL     1       1.550  62.147  -1.693  1.00  0.00     0.000 C 
HETATM   12  C26 UNL     1       0.299  61.375  -1.428  1.00  0.00     0.003 C 
HETATM   13  C27 UNL     1      -0.823  62.221  -0.975  1.00  0.00     0.041 C 
BRANCH   8  14
HETATM   14  N4  UNL     1      -2.247  63.650  -2.300  1.00  0.00    -0.325 N 
HETATM   15  C18 UNL     1      -3.540  63.520  -1.733  1.00  0.00     0.321 C 
HETATM   16  N3  UNL     1      -4.676  63.633  -2.545  1.00  0.00    -0.308 N 
HETATM   17  O2  UNL     1      -3.610  63.307  -0.519  1.00  0.00    -0.247 OA
ATOM     18  H3  UNL     1      -4.493  63.824  -3.530  1.00  0.00     0.170 HD
ATOM     19  H4  UNL     1      -2.194  63.820  -3.304  1.00  0.00     0.165 HD
BRANCH  16  20
HETATM   20  C17 UNL     1      -6.042  63.520  -2.189  1.00  0.00     0.045 A 
HETATM   21  C16 UNL     1      -6.863  64.578  -1.878  1.00  0.00     0.043 A 
HETATM   22  C13 UNL     1      -8.209  64.418  -1.502  1.00  0.00     0.015 A 
HETATM   23  C12 UNL     1      -8.702  63.137  -1.451  1.00  0.00     0.022 A 
HETATM   24  C11 UNL     1      -7.920  62.039  -1.757  1.00  0.00    -0.019 A 
HETATM   25  C10 UNL     1      -8.253  60.603  -1.751  1.00  0.00     0.312 A 
HETATM   26  C28 UNL     1      -6.620  62.236  -2.116  1.00  0.00     0.005 A 
HETATM   27  N2  UNL     1      -7.015  59.935  -2.096  1.00  0.00     0.101 N 
HETATM   28  C29 UNL     1      -6.033  60.912  -2.410  1.00  0.00     0.315 A 
BRANCH  22  29
HETATM   29  C14 UNL     1      -9.051  65.594  -1.179  1.00  0.00     0.267 C 
HETATM   30  C15 UNL     1     -10.481  65.091  -1.006  1.00  0.00     0.096 C 
HETATM   31  F1  UNL     1      -9.052  66.506  -2.232  1.00  0.00    -0.201 F 
HETATM   32  F2  UNL     1      -8.574  66.161  -0.008  1.00  0.00    -0.201 F 
ENDBRANCH  22  29
BRANCH  27  33
HETATM   33  C9  UNL     1      -7.226  59.032  -3.227  1.00  0.00     0.224 C 
HETATM   34  C8  UNL     1      -5.881  58.550  -3.703  1.00  0.00     0.036 C 
HETATM   35  C7  UNL     1      -6.035  57.717  -4.976  1.00  0.00     0.015 C 
HETATM   36  C6  UNL     1      -7.071  56.686  -4.727  1.00  0.00     0.060 C 
HETATM   37  C31 UNL     1      -7.397  56.532  -3.226  1.00  0.00     0.015 C 
HETATM   38  C30 UNL     1      -8.030  57.838  -2.764  1.00  0.00     0.036 C 
BRANCH  36  39
HETATM   39  C5  UNL     1      -6.974  55.392  -5.373  1.00  0.00     0.117 C 
BRANCH  39  40
HETATM   40  N1  UNL     1      -5.877  54.647  -5.814  1.00  0.00    -0.366 N 
BRANCH  40  41
HETATM   41  C2  UNL     1      -5.245  54.788  -7.087  1.00  0.00     0.120 C 
HETATM   42  C1  UNL     1      -5.861  53.889  -8.165  1.00  0.00     0.026 C 
ENDBRANCH  40  41
BRANCH  40  43
HETATM   43  C3  UNL     1      -5.319  53.639  -4.881  1.00  0.00     0.120 C 
HETATM   44  C4  UNL     1      -3.805  53.715  -4.858  1.00  0.00     0.026 C 
ENDBRANCH  40  43
ENDBRANCH  39  40
BRANCH  39  45
HETATM   45  O1  UNL     1      -8.129  54.786  -5.588  1.00  0.00    -0.349 OA
ATOM     46  H1  UNL     1      -8.872  55.378  -5.551  1.00  0.00     0.219 HD
ENDBRANCH  39  45
ENDBRANCH  36  39
ENDBRANCH  27  33
ENDBRANCH  16  20
ENDBRANCH   8  14
ENDBRANCH   5   8
ENDBRANCH   1   4
TORSDOF 11
ENDMDL
