MODEL 1
REMARK VINA RESULT: -10.811573536      0.000      0.000
REMARK  13 active torsions:
REMARK  status: ('A' for Active; 'I' for Inactive)
REMARK    1  A    between atoms: C2_2  and  O1_3 
REMARK    2  A    between atoms: C2_2  and  C8_12 
REMARK    3  A    between atoms: O1_3  and  C3_4 
REMARK       I    between atoms: C3_4  and  N1_6 
REMARK    4  A    between atoms: N1_6  and  C4_8 
REMARK    5  A    between atoms: C8_12  and  C9_13 
REMARK    6  A    between atoms: C8_12  and  C14_20 
REMARK    7  A    between atoms: C9_13  and  C10_14 
REMARK    8  A    between atoms: C10_14  and  C12_16 
REMARK       I    between atoms: C14_20  and  N2_22 
REMARK    9  A    between atoms: C18_26  and  C19_27 
REMARK       I    between atoms: C19_27  and  N3_29 
REMARK   10  A    between atoms: N3_29  and  C20_31 
REMARK   11  A    between atoms: C20_31  and  C21_32 
REMARK   12  A    between atoms: C21_32  and  O5_33 
REMARK   13  A    between atoms: C21_32  and  C22_35 
ROOT
HETATM    1  C14 UNL     1      -8.221  50.878  -8.288  1.00  0.00     0.227 C 
HETATM    2  O3  UNL     1      -9.161  50.081  -8.638  1.00  0.00    -0.273 OA
HETATM    3  N2  UNL     1      -8.351  51.522  -7.058  1.00  0.00    -0.335 N 
HETATM    4  C15 UNL     1      -7.436  52.430  -6.416  1.00  0.00     0.166 C 
HETATM    5  C16 UNL     1      -8.285  53.325  -5.581  1.00  0.00    -0.030 A 
HETATM    6  C17 UNL     1      -7.993  54.533  -5.010  1.00  0.00     0.026 A 
HETATM    7  C18 UNL     1      -8.943  55.208  -4.270  1.00  0.00     0.032 A 
HETATM    8  C26 UNL     1     -10.170  54.599  -4.152  1.00  0.00     0.017 A 
HETATM    9  C27 UNL     1     -10.469  53.378  -4.725  1.00  0.00     0.011 A 
HETATM   10  C28 UNL     1      -9.497  52.713  -5.467  1.00  0.00    -0.023 A 
HETATM   11  C29 UNL     1      -9.477  51.405  -6.172  1.00  0.00     0.056 C 
HETATM   12  C30 UNL     1     -10.796  51.277  -6.907  1.00  0.00     0.044 C 
HETATM   13  C31 UNL     1      -9.248  50.249  -5.215  1.00  0.00     0.044 C 
ENDROOT
BRANCH   1  14
HETATM   14  C8  UNL     1      -7.070  51.033  -9.258  1.00  0.00     0.108 C 
BRANCH  14  15
HETATM   15  C2  UNL     1      -6.030  50.015  -8.902  1.00  0.00     0.142 C 
HETATM   16  C1  UNL     1      -5.832  48.930  -9.927  1.00  0.00     0.041 C 
BRANCH  15  17
HETATM   17  O1  UNL     1      -4.795  50.546  -8.552  1.00  0.00    -0.298 OA
BRANCH  17  18
HETATM   18  C3  UNL     1      -4.442  51.216  -7.411  1.00  0.00     0.361 C 
HETATM   19  O2  UNL     1      -4.008  52.390  -7.568  1.00  0.00    -0.238 OA
HETATM   20  N1  UNL     1      -4.575  50.574  -6.161  1.00  0.00    -0.329 N 
ATOM     21  H1  UNL     1      -4.945  49.625  -6.121  1.00  0.00     0.165 HD
BRANCH  20  22
HETATM   22  C4  UNL     1      -4.191  51.249  -4.926  1.00  0.00     0.024 C 
HETATM   23  C5  UNL     1      -5.234  50.970  -3.841  1.00  0.00     0.037 C 
HETATM   24  C6  UNL     1      -4.108  52.734  -5.094  1.00  0.00     0.037 C 
HETATM   25  C7  UNL     1      -2.845  50.735  -4.476  1.00  0.00     0.037 C 
ENDBRANCH  20  22
ENDBRANCH  17  18
ENDBRANCH  15  17
ENDBRANCH  14  15
BRANCH  14  26
HETATM   26  C9  UNL     1      -7.635  51.102 -10.589  1.00  0.00     0.027 C 
BRANCH  26  27
HETATM   27  C10 UNL     1      -6.961  51.385 -11.832  1.00  0.00     0.054 C 
HETATM   28  C11 UNL     1      -6.825  52.789 -12.335  1.00  0.00     0.016 C 
BRANCH  27  29
HETATM   29  C12 UNL     1      -7.385  50.541 -13.026  1.00  0.00     0.243 C 
HETATM   30  C13 UNL     1      -8.598  49.708 -12.788  1.00  0.00     0.090 C 
HETATM   31  F1  UNL     1      -6.324  49.631 -13.199  1.00  0.00    -0.206 F 
HETATM   32  F2  UNL     1      -7.435  51.253 -14.204  1.00  0.00    -0.206 F 
ENDBRANCH  27  29
ENDBRANCH  26  27
ENDBRANCH  14  26
ENDBRANCH   1  14
BRANCH   7  33
HETATM   33  C19 UNL     1      -8.665  56.475  -3.603  1.00  0.00     0.251 C 
HETATM   34  O4  UNL     1      -8.045  57.319  -4.336  1.00  0.00    -0.268 OA
HETATM   35  N3  UNL     1      -9.030  56.773  -2.279  1.00  0.00    -0.354 N 
ATOM     36  H3  UNL     1      -9.536  56.066  -1.745  1.00  0.00     0.162 HD
BRANCH  35  37
HETATM   37  C20 UNL     1      -8.727  58.015  -1.643  1.00  0.00     0.155 C 
BRANCH  37  38
HETATM   38  C21 UNL     1      -7.406  57.933  -0.933  1.00  0.00     0.143 C 
BRANCH  38  39
HETATM   39  O5  UNL     1      -7.504  57.067   0.181  1.00  0.00    -0.393 OA
ATOM     40  H5  UNL     1      -6.681  57.046   0.653  1.00  0.00     0.210 HD
ENDBRANCH  38  39
BRANCH  38  41
HETATM   41  C22 UNL     1      -6.873  59.282  -0.488  1.00  0.00    -0.024 C 
HETATM   42  C23 UNL     1      -6.488  59.194   0.960  1.00  0.00     0.017 C 
HETATM   43  C24 UNL     1      -7.949  60.300  -0.770  1.00  0.00     0.017 C 
HETATM   44  C25 UNL     1      -5.642  59.672  -1.297  1.00  0.00     0.017 C 
ENDBRANCH  38  41
ENDBRANCH  37  38
ENDBRANCH  35  37
ENDBRANCH   7  33
TORSDOF 13
ENDMDL
MODEL 2
REMARK VINA RESULT: -10.597201610      3.160      5.650
REMARK  13 active torsions:
REMARK  status: ('A' for Active; 'I' for Inactive)
REMARK    1  A    between atoms: C2_2  and  O1_3 
REMARK    2  A    between atoms: C2_2  and  C8_12 
REMARK    3  A    between atoms: O1_3  and  C3_4 
REMARK       I    between atoms: C3_4  and  N1_6 
REMARK    4  A    between atoms: N1_6  and  C4_8 
REMARK    5  A    between atoms: C8_12  and  C9_13 
REMARK    6  A    between atoms: C8_12  and  C14_20 
REMARK    7  A    between atoms: C9_13  and  C10_14 
REMARK    8  A    between atoms: C10_14  and  C12_16 
REMARK       I    between atoms: C14_20  and  N2_22 
REMARK    9  A    between atoms: C18_26  and  C19_27 
REMARK       I    between atoms: C19_27  and  N3_29 
REMARK   10  A    between atoms: N3_29  and  C20_31 
REMARK   11  A    between atoms: C20_31  and  C21_32 
REMARK   12  A    between atoms: C21_32  and  O5_33 
REMARK   13  A    between atoms: C21_32  and  C22_35 
ROOT
HETATM    1  C14 UNL     1      -6.649  51.928  -6.139  1.00  0.00     0.227 C 
HETATM    2  O3  UNL     1      -5.585  51.226  -6.013  1.00  0.00    -0.273 OA
HETATM    3  N2  UNL     1      -6.544  53.300  -5.914  1.00  0.00    -0.335 N 
HETATM    4  C15 UNL     1      -7.564  54.311  -6.020  1.00  0.00     0.166 C 
HETATM    5  C16 UNL     1      -7.176  55.371  -5.049  1.00  0.00    -0.030 A 
HETATM    6  C17 UNL     1      -7.916  56.392  -4.519  1.00  0.00     0.026 A 
HETATM    7  C18 UNL     1      -7.354  57.271  -3.614  1.00  0.00     0.032 A 
HETATM    8  C26 UNL     1      -6.035  57.053  -3.291  1.00  0.00     0.017 A 
HETATM    9  C27 UNL     1      -5.283  56.023  -3.824  1.00  0.00     0.011 A 
HETATM   10  C28 UNL     1      -5.868  55.149  -4.735  1.00  0.00    -0.023 A 
HETATM   11  C29 UNL     1      -5.349  53.987  -5.503  1.00  0.00     0.056 C 
HETATM   12  C30 UNL     1      -4.498  53.172  -4.552  1.00  0.00     0.044 C 
HETATM   13  C31 UNL     1      -4.570  54.421  -6.731  1.00  0.00     0.044 C 
ENDROOT
BRANCH   1  14
HETATM   14  C8  UNL     1      -7.910  51.182  -6.517  1.00  0.00     0.108 C 
BRANCH  14  15
HETATM   15  C2  UNL     1      -7.579  49.722  -6.582  1.00  0.00     0.142 C 
HETATM   16  C1  UNL     1      -8.035  48.918  -5.394  1.00  0.00     0.041 C 
BRANCH  15  17
HETATM   17  O1  UNL     1      -7.982  49.087  -7.749  1.00  0.00    -0.298 OA
BRANCH  17  18
HETATM   18  C3  UNL     1      -7.489  49.231  -9.019  1.00  0.00     0.361 C 
HETATM   19  O2  UNL     1      -6.236  49.327  -9.121  1.00  0.00    -0.238 OA
HETATM   20  N1  UNL     1      -8.385  49.268 -10.109  1.00  0.00    -0.329 N 
ATOM     21  H1  UNL     1      -9.386  49.173  -9.940  1.00  0.00     0.165 HD
BRANCH  20  22
HETATM   22  C4  UNL     1      -7.900  49.440 -11.473  1.00  0.00     0.024 C 
HETATM   23  C5  UNL     1      -9.022  49.119 -12.464  1.00  0.00     0.037 C 
HETATM   24  C6  UNL     1      -6.755  48.529 -11.787  1.00  0.00     0.037 C 
HETATM   25  C7  UNL     1      -7.450  50.869 -11.666  1.00  0.00     0.037 C 
ENDBRANCH  20  22
ENDBRANCH  17  18
ENDBRANCH  15  17
ENDBRANCH  14  15
BRANCH  14  26
HETATM   26  C9  UNL     1      -8.974  51.678  -5.671  1.00  0.00     0.027 C 
BRANCH  26  27
HETATM   27  C10 UNL     1     -10.399  51.585  -5.879  1.00  0.00     0.054 C 
HETATM   28  C11 UNL     1     -10.967  51.384  -7.249  1.00  0.00     0.016 C 
BRANCH  27  29
HETATM   29  C12 UNL     1     -11.239  52.671  -5.220  1.00  0.00     0.243 C 
HETATM   30  C13 UNL     1     -12.285  53.257  -6.105  1.00  0.00     0.090 C 
HETATM   31  F1  UNL     1     -10.323  53.711  -4.970  1.00  0.00    -0.206 F 
HETATM   32  F2  UNL     1     -11.713  52.312  -3.978  1.00  0.00    -0.206 F 
ENDBRANCH  27  29
ENDBRANCH  26  27
ENDBRANCH  14  26
ENDBRANCH   1  14
BRANCH   7  33
HETATM   33  C19 UNL     1      -8.086  58.402  -3.058  1.00  0.00     0.251 C 
HETATM   34  O4  UNL     1      -9.098  58.756  -3.756  1.00  0.00    -0.268 OA
HETATM   35  N3  UNL     1      -7.740  59.067  -1.870  1.00  0.00    -0.354 N 
ATOM     36  H3  UNL     1      -6.930  58.733  -1.346  1.00  0.00     0.162 HD
BRANCH  35  37
HETATM   37  C20 UNL     1      -8.463  60.187  -1.358  1.00  0.00     0.155 C 
BRANCH  37  38
HETATM   38  C21 UNL     1      -7.732  61.465  -1.655  1.00  0.00     0.143 C 
BRANCH  38  39
HETATM   39  O5  UNL     1      -6.999  61.882  -0.520  1.00  0.00    -0.393 OA
ATOM     40  H5  UNL     1      -6.352  62.532  -0.769  1.00  0.00     0.210 HD
ENDBRANCH  38  39
BRANCH  38  41
HETATM   41  C22 UNL     1      -8.640  62.588  -2.119  1.00  0.00    -0.024 C 
HETATM   42  C23 UNL     1      -8.931  62.399  -3.579  1.00  0.00     0.017 C 
HETATM   43  C24 UNL     1      -7.941  63.885  -1.802  1.00  0.00     0.017 C 
HETATM   44  C25 UNL     1      -9.957  62.571  -1.353  1.00  0.00     0.017 C 
ENDBRANCH  38  41
ENDBRANCH  37  38
ENDBRANCH  35  37
ENDBRANCH   7  33
TORSDOF 13
ENDMDL
MODEL 3
REMARK VINA RESULT: -10.596724048      3.190      5.629
REMARK  13 active torsions:
REMARK  status: ('A' for Active; 'I' for Inactive)
REMARK    1  A    between atoms: C2_2  and  O1_3 
REMARK    2  A    between atoms: C2_2  and  C8_12 
REMARK    3  A    between atoms: O1_3  and  C3_4 
REMARK       I    between atoms: C3_4  and  N1_6 
REMARK    4  A    between atoms: N1_6  and  C4_8 
REMARK    5  A    between atoms: C8_12  and  C9_13 
REMARK    6  A    between atoms: C8_12  and  C14_20 
REMARK    7  A    between atoms: C9_13  and  C10_14 
REMARK    8  A    between atoms: C10_14  and  C12_16 
REMARK       I    between atoms: C14_20  and  N2_22 
REMARK    9  A    between atoms: C18_26  and  C19_27 
REMARK       I    between atoms: C19_27  and  N3_29 
REMARK   10  A    between atoms: N3_29  and  C20_31 
REMARK   11  A    between atoms: C20_31  and  C21_32 
REMARK   12  A    between atoms: C21_32  and  O5_33 
REMARK   13  A    between atoms: C21_32  and  C22_35 
ROOT
HETATM    1  C14 UNL     1      -6.637  51.958  -6.074  1.00  0.00     0.227 C 
HETATM    2  O3  UNL     1      -5.559  51.284  -5.919  1.00  0.00    -0.273 OA
HETATM    3  N2  UNL     1      -6.567  53.337  -5.876  1.00  0.00    -0.335 N 
HETATM    4  C15 UNL     1      -7.608  54.321  -6.017  1.00  0.00     0.166 C 
HETATM    5  C16 UNL     1      -7.258  55.410  -5.063  1.00  0.00    -0.030 A 
HETATM    6  C17 UNL     1      -8.028  56.424  -4.565  1.00  0.00     0.026 A 
HETATM    7  C18 UNL     1      -7.499  57.335  -3.672  1.00  0.00     0.032 A 
HETATM    8  C26 UNL     1      -6.180  57.154  -3.326  1.00  0.00     0.017 A 
HETATM    9  C27 UNL     1      -5.398  56.131  -3.827  1.00  0.00     0.011 A 
HETATM   10  C28 UNL     1      -5.949  55.225  -4.727  1.00  0.00    -0.023 A 
HETATM   11  C29 UNL     1      -5.394  54.059  -5.463  1.00  0.00     0.056 C 
HETATM   12  C30 UNL     1      -4.537  53.284  -4.484  1.00  0.00     0.044 C 
HETATM   13  C31 UNL     1      -4.607  54.486  -6.690  1.00  0.00     0.044 C 
ENDROOT
BRANCH   1  14
HETATM   14  C8  UNL     1      -7.876  51.175  -6.453  1.00  0.00     0.108 C 
BRANCH  14  15
HETATM   15  C2  UNL     1      -7.508  49.723  -6.488  1.00  0.00     0.142 C 
HETATM   16  C1  UNL     1      -7.963  48.928  -5.292  1.00  0.00     0.041 C 
BRANCH  15  17
HETATM   17  O1  UNL     1      -7.879  49.058  -7.649  1.00  0.00    -0.298 OA
BRANCH  17  18
HETATM   18  C3  UNL     1      -7.410  49.231  -8.924  1.00  0.00     0.361 C 
HETATM   19  O2  UNL     1      -6.161  49.361  -9.043  1.00  0.00    -0.238 OA
HETATM   20  N1  UNL     1      -8.322  49.258 -10.001  1.00  0.00    -0.329 N 
ATOM     21  H1  UNL     1      -9.317  49.134  -9.819  1.00  0.00     0.165 HD
BRANCH  20  22
HETATM   22  C4  UNL     1      -7.861  49.459 -11.370  1.00  0.00     0.024 C 
HETATM   23  C5  UNL     1      -8.992  49.130 -12.347  1.00  0.00     0.037 C 
HETATM   24  C6  UNL     1      -6.703  48.576 -11.714  1.00  0.00     0.037 C 
HETATM   25  C7  UNL     1      -7.444  50.899 -11.548  1.00  0.00     0.037 C 
ENDBRANCH  20  22
ENDBRANCH  17  18
ENDBRANCH  15  17
ENDBRANCH  14  15
BRANCH  14  26
HETATM   26  C9  UNL     1      -8.961  51.660  -5.627  1.00  0.00     0.027 C 
BRANCH  26  27
HETATM   27  C10 UNL     1     -10.380  51.567  -5.872  1.00  0.00     0.054 C 
HETATM   28  C11 UNL     1     -10.914  51.370  -7.256  1.00  0.00     0.016 C 
BRANCH  27  29
HETATM   29  C12 UNL     1     -11.237  52.651  -5.231  1.00  0.00     0.243 C 
HETATM   30  C13 UNL     1     -12.285  53.213  -6.129  1.00  0.00     0.090 C 
HETATM   31  F1  UNL     1     -10.335  53.705  -4.988  1.00  0.00    -0.206 F 
HETATM   32  F2  UNL     1     -11.714  52.301  -3.988  1.00  0.00    -0.206 F 
ENDBRANCH  27  29
ENDBRANCH  26  27
ENDBRANCH  14  26
ENDBRANCH   1  14
BRANCH   7  33
HETATM   33  C19 UNL     1      -8.265  58.460  -3.149  1.00  0.00     0.251 C 
HETATM   34  O4  UNL     1      -8.792  58.239  -2.006  1.00  0.00    -0.268 OA
HETATM   35  N3  UNL     1      -8.431  59.686  -3.815  1.00  0.00    -0.354 N 
ATOM     36  H3  UNL     1      -7.975  59.812  -4.719  1.00  0.00     0.162 HD
BRANCH  35  37
HETATM   37  C20 UNL     1      -9.205  60.765  -3.290  1.00  0.00     0.155 C 
BRANCH  37  38
HETATM   38  C21 UNL     1      -8.394  62.029  -3.265  1.00  0.00     0.143 C 
BRANCH  38  39
HETATM   39  O5  UNL     1      -7.115  61.799  -3.822  1.00  0.00    -0.393 OA
ATOM     40  H5  UNL     1      -6.621  62.610  -3.853  1.00  0.00     0.210 HD
ENDBRANCH  38  39
BRANCH  38  41
HETATM   41  C22 UNL     1      -8.249  62.627  -1.878  1.00  0.00    -0.024 C 
HETATM   42  C23 UNL     1      -7.502  61.657  -1.010  1.00  0.00     0.017 C 
HETATM   43  C24 UNL     1      -9.638  62.941  -1.382  1.00  0.00     0.017 C 
HETATM   44  C25 UNL     1      -7.469  63.935  -1.931  1.00  0.00     0.017 C 
ENDBRANCH  38  41
ENDBRANCH  37  38
ENDBRANCH  35  37
ENDBRANCH   7  33
TORSDOF 13
ENDMDL
MODEL 4
REMARK VINA RESULT: -10.566651771      3.352      5.777
REMARK  13 active torsions:
REMARK  status: ('A' for Active; 'I' for Inactive)
REMARK    1  A    between atoms: C2_2  and  O1_3 
REMARK    2  A    between atoms: C2_2  and  C8_12 
REMARK    3  A    between atoms: O1_3  and  C3_4 
REMARK       I    between atoms: C3_4  and  N1_6 
REMARK    4  A    between atoms: N1_6  and  C4_8 
REMARK    5  A    between atoms: C8_12  and  C9_13 
REMARK    6  A    between atoms: C8_12  and  C14_20 
REMARK    7  A    between atoms: C9_13  and  C10_14 
REMARK    8  A    between atoms: C10_14  and  C12_16 
REMARK       I    between atoms: C14_20  and  N2_22 
REMARK    9  A    between atoms: C18_26  and  C19_27 
REMARK       I    between atoms: C19_27  and  N3_29 
REMARK   10  A    between atoms: N3_29  and  C20_31 
REMARK   11  A    between atoms: C20_31  and  C21_32 
REMARK   12  A    between atoms: C21_32  and  O5_33 
REMARK   13  A    between atoms: C21_32  and  C22_35 
ROOT
HETATM    1  C14 UNL     1      -6.626  51.888  -6.056  1.00  0.00     0.227 C 
HETATM    2  O3  UNL     1      -5.644  51.123  -5.757  1.00  0.00    -0.273 OA
HETATM    3  N2  UNL     1      -6.425  53.264  -5.947  1.00  0.00    -0.335 N 
HETATM    4  C15 UNL     1      -7.338  54.334  -6.250  1.00  0.00     0.166 C 
HETATM    5  C16 UNL     1      -6.954  55.453  -5.344  1.00  0.00    -0.030 A 
HETATM    6  C17 UNL     1      -7.650  56.576  -4.988  1.00  0.00     0.026 A 
HETATM    7  C18 UNL     1      -7.102  57.494  -4.115  1.00  0.00     0.032 A 
HETATM    8  C26 UNL     1      -5.844  57.208  -3.639  1.00  0.00     0.017 A 
HETATM    9  C27 UNL     1      -5.137  56.076  -3.995  1.00  0.00     0.011 A 
HETATM   10  C28 UNL     1      -5.706  55.163  -4.879  1.00  0.00    -0.023 A 
HETATM   11  C29 UNL     1      -5.219  53.894  -5.479  1.00  0.00     0.056 C 
HETATM   12  C30 UNL     1      -4.536  53.114  -4.376  1.00  0.00     0.044 C 
HETATM   13  C31 UNL     1      -4.292  54.142  -6.655  1.00  0.00     0.044 C 
ENDROOT
BRANCH   1  14
HETATM   14  C8  UNL     1      -7.905  51.207  -6.492  1.00  0.00     0.108 C 
BRANCH  14  15
HETATM   15  C2  UNL     1      -7.635  49.737  -6.584  1.00  0.00     0.142 C 
HETATM   16  C1  UNL     1      -8.119  48.932  -5.407  1.00  0.00     0.041 C 
BRANCH  15  17
HETATM   17  O1  UNL     1      -8.070  49.139  -7.759  1.00  0.00    -0.298 OA
BRANCH  17  18
HETATM   18  C3  UNL     1      -7.551  49.249  -9.021  1.00  0.00     0.361 C 
HETATM   19  O2  UNL     1      -6.293  49.292  -9.103  1.00  0.00    -0.238 OA
HETATM   20  N1  UNL     1      -8.425  49.311 -10.128  1.00  0.00    -0.329 N 
ATOM     21  H1  UNL     1      -9.432  49.259  -9.975  1.00  0.00     0.165 HD
BRANCH  20  22
HETATM   22  C4  UNL     1      -7.910  49.448 -11.485  1.00  0.00     0.024 C 
HETATM   23  C5  UNL     1      -9.015  49.115 -12.491  1.00  0.00     0.037 C 
HETATM   24  C6  UNL     1      -6.768  48.518 -11.754  1.00  0.00     0.037 C 
HETATM   25  C7  UNL     1      -7.442  50.867 -11.699  1.00  0.00     0.037 C 
ENDBRANCH  20  22
ENDBRANCH  17  18
ENDBRANCH  15  17
ENDBRANCH  14  15
BRANCH  14  26
HETATM   26  C9  UNL     1      -8.973  51.729  -5.667  1.00  0.00     0.027 C 
BRANCH  26  27
HETATM   27  C10 UNL     1     -10.397  51.622  -5.874  1.00  0.00     0.054 C 
HETATM   28  C11 UNL     1     -10.965  51.424  -7.245  1.00  0.00     0.016 C 
BRANCH  27  29
HETATM   29  C12 UNL     1     -11.249  52.694  -5.208  1.00  0.00     0.243 C 
HETATM   30  C13 UNL     1     -12.305  53.271  -6.086  1.00  0.00     0.090 C 
HETATM   31  F1  UNL     1     -10.345  53.745  -4.956  1.00  0.00    -0.206 F 
HETATM   32  F2  UNL     1     -11.714  52.323  -3.966  1.00  0.00    -0.206 F 
ENDBRANCH  27  29
ENDBRANCH  26  27
ENDBRANCH  14  26
ENDBRANCH   1  14
BRANCH   7  33
HETATM   33  C19 UNL     1      -7.783  58.728  -3.742  1.00  0.00     0.251 C 
HETATM   34  O4  UNL     1      -9.057  58.660  -3.828  1.00  0.00    -0.268 OA
HETATM   35  N3  UNL     1      -7.132  59.902  -3.327  1.00  0.00    -0.354 N 
ATOM     36  H3  UNL     1      -6.114  59.894  -3.264  1.00  0.00     0.162 HD
BRANCH  35  37
HETATM   37  C20 UNL     1      -7.823  61.104  -2.988  1.00  0.00     0.155 C 
BRANCH  37  38
HETATM   38  C21 UNL     1      -7.153  62.291  -3.618  1.00  0.00     0.143 C 
BRANCH  38  39
HETATM   39  O5  UNL     1      -6.125  61.864  -4.490  1.00  0.00    -0.393 OA
ATOM     40  H5  UNL     1      -5.284  62.184  -4.186  1.00  0.00     0.210 HD
ENDBRANCH  38  39
BRANCH  38  41
HETATM   41  C22 UNL     1      -6.593  63.276  -2.609  1.00  0.00    -0.024 C 
HETATM   42  C23 UNL     1      -7.734  63.906  -1.867  1.00  0.00     0.017 C 
HETATM   43  C24 UNL     1      -5.747  64.263  -3.374  1.00  0.00     0.017 C 
HETATM   44  C25 UNL     1      -5.689  62.570  -1.606  1.00  0.00     0.017 C 
ENDBRANCH  38  41
ENDBRANCH  37  38
ENDBRANCH  35  37
ENDBRANCH   7  33
TORSDOF 13
ENDMDL
MODEL 5
REMARK VINA RESULT: -10.562700551      3.235      5.709
REMARK  13 active torsions:
REMARK  status: ('A' for Active; 'I' for Inactive)
REMARK    1  A    between atoms: C2_2  and  O1_3 
REMARK    2  A    between atoms: C2_2  and  C8_12 
REMARK    3  A    between atoms: O1_3  and  C3_4 
REMARK       I    between atoms: C3_4  and  N1_6 
REMARK    4  A    between atoms: N1_6  and  C4_8 
REMARK    5  A    between atoms: C8_12  and  C9_13 
REMARK    6  A    between atoms: C8_12  and  C14_20 
REMARK    7  A    between atoms: C9_13  and  C10_14 
REMARK    8  A    between atoms: C10_14  and  C12_16 
REMARK       I    between atoms: C14_20  and  N2_22 
REMARK    9  A    between atoms: C18_26  and  C19_27 
REMARK       I    between atoms: C19_27  and  N3_29 
REMARK   10  A    between atoms: N3_29  and  C20_31 
REMARK   11  A    between atoms: C20_31  and  C21_32 
REMARK   12  A    between atoms: C21_32  and  O5_33 
REMARK   13  A    between atoms: C21_32  and  C22_35 
ROOT
HETATM    1  C14 UNL     1      -6.685  51.971  -5.943  1.00  0.00     0.227 C 
HETATM    2  O3  UNL     1      -5.684  51.236  -5.631  1.00  0.00    -0.273 OA
HETATM    3  N2  UNL     1      -6.525  53.353  -5.837  1.00  0.00    -0.335 N 
HETATM    4  C15 UNL     1      -7.466  54.395  -6.154  1.00  0.00     0.166 C 
HETATM    5  C16 UNL     1      -7.125  55.528  -5.247  1.00  0.00    -0.030 A 
HETATM    6  C17 UNL     1      -7.857  56.630  -4.904  1.00  0.00     0.026 A 
HETATM    7  C18 UNL     1      -7.346  57.567  -4.027  1.00  0.00     0.032 A 
HETATM    8  C26 UNL     1      -6.086  57.319  -3.536  1.00  0.00     0.017 A 
HETATM    9  C27 UNL     1      -5.342  56.207  -3.880  1.00  0.00     0.011 A 
HETATM   10  C28 UNL     1      -5.874  55.275  -4.767  1.00  0.00    -0.023 A 
HETATM   11  C29 UNL     1      -5.344  54.019  -5.358  1.00  0.00     0.056 C 
HETATM   12  C30 UNL     1      -4.651  53.263  -4.244  1.00  0.00     0.044 C 
HETATM   13  C31 UNL     1      -4.410  54.291  -6.524  1.00  0.00     0.044 C 
ENDROOT
BRANCH   1  14
HETATM   14  C8  UNL     1      -7.939  51.252  -6.392  1.00  0.00     0.108 C 
BRANCH  14  15
HETATM   15  C2  UNL     1      -7.613  49.796  -6.517  1.00  0.00     0.142 C 
HETATM   16  C1  UNL     1      -8.049  48.948  -5.351  1.00  0.00     0.041 C 
BRANCH  15  17
HETATM   17  O1  UNL     1      -8.041  49.205  -7.699  1.00  0.00    -0.298 OA
BRANCH  17  18
HETATM   18  C3  UNL     1      -7.535  49.351  -8.963  1.00  0.00     0.361 C 
HETATM   19  O2  UNL     1      -6.292  49.544  -9.046  1.00  0.00    -0.238 OA
HETATM   20  N1  UNL     1      -8.408  49.284 -10.071  1.00  0.00    -0.329 N 
ATOM     21  H1  UNL     1      -9.401  49.113  -9.918  1.00  0.00     0.165 HD
BRANCH  20  22
HETATM   22  C4  UNL     1      -7.909  49.454 -11.430  1.00  0.00     0.024 C 
HETATM   23  C5  UNL     1      -6.707  48.533 -11.657  1.00  0.00     0.037 C 
HETATM   24  C6  UNL     1      -7.453  50.854 -11.696  1.00  0.00     0.037 C 
HETATM   25  C7  UNL     1      -9.004  49.105 -12.409  1.00  0.00     0.037 C 
ENDBRANCH  20  22
ENDBRANCH  17  18
ENDBRANCH  15  17
ENDBRANCH  14  15
BRANCH  14  26
HETATM   26  C9  UNL     1      -9.023  51.714  -5.552  1.00  0.00     0.027 C 
BRANCH  26  27
HETATM   27  C10 UNL     1     -10.442  51.644  -5.805  1.00  0.00     0.054 C 
HETATM   28  C11 UNL     1     -10.971  51.468  -7.195  1.00  0.00     0.016 C 
BRANCH  27  29
HETATM   29  C12 UNL     1     -11.288  52.731  -5.158  1.00  0.00     0.243 C 
HETATM   30  C13 UNL     1     -12.328  53.312  -6.053  1.00  0.00     0.090 C 
HETATM   31  F1  UNL     1     -10.375  53.774  -4.906  1.00  0.00    -0.206 F 
HETATM   32  F2  UNL     1     -11.771  52.378  -3.918  1.00  0.00    -0.206 F 
ENDBRANCH  27  29
ENDBRANCH  26  27
ENDBRANCH  14  26
ENDBRANCH   1  14
BRANCH   7  33
HETATM   33  C19 UNL     1      -8.068  58.782  -3.667  1.00  0.00     0.251 C 
HETATM   34  O4  UNL     1      -8.911  58.620  -2.719  1.00  0.00    -0.268 OA
HETATM   35  N3  UNL     1      -7.881  60.030  -4.284  1.00  0.00    -0.354 N 
ATOM     36  H3  UNL     1      -7.184  60.104  -5.026  1.00  0.00     0.162 HD
BRANCH  35  37
HETATM   37  C20 UNL     1      -8.617  61.200  -3.926  1.00  0.00     0.155 C 
BRANCH  37  38
HETATM   38  C21 UNL     1      -7.730  62.181  -3.214  1.00  0.00     0.143 C 
BRANCH  38  39
HETATM   39  O5  UNL     1      -6.382  61.761  -3.287  1.00  0.00    -0.393 OA
ATOM     40  H5  UNL     1      -6.327  60.905  -3.695  1.00  0.00     0.210 HD
ENDBRANCH  38  39
BRANCH  38  41
HETATM   41  C22 UNL     1      -8.119  62.407  -1.765  1.00  0.00    -0.024 C 
HETATM   42  C23 UNL     1      -7.858  63.842  -1.414  1.00  0.00     0.017 C 
HETATM   43  C24 UNL     1      -7.330  61.426  -0.934  1.00  0.00     0.017 C 
HETATM   44  C25 UNL     1      -9.598  62.113  -1.549  1.00  0.00     0.017 C 
ENDBRANCH  38  41
ENDBRANCH  37  38
ENDBRANCH  35  37
ENDBRANCH   7  33
TORSDOF 13
ENDMDL
