MODEL 1
REMARK VINA RESULT: -9.414226263      0.000      0.000
REMARK  11 active torsions:
REMARK  status: ('A' for Active; 'I' for Inactive)
REMARK    1  A    between atoms: N1_1  and  C1_4 
REMARK    2  A    between atoms: N6_15  and  C5_16 
REMARK    3  A    between atoms: C6_18  and  N7_19 
REMARK       I    between atoms: N7_19  and  C7_21 
REMARK    4  A    between atoms: C7_21  and  C8_23 
REMARK    5  A    between atoms: C8_23  and  N8_24 
REMARK    6  A    between atoms: C8_23  and  C9_28 
REMARK    7  A    between atoms: C9_28  and  N9_29 
REMARK    8  A    between atoms: C9_28  and  S1_33 
REMARK    9  A    between atoms: S1_33  and  N10_34 
REMARK   10  A    between atoms: C10_39  and  O5_40 
REMARK   11  A    between atoms: C11_42  and  O6_43 
ROOT
HETATM    1  C5  UNL     1     -19.087  19.008 -18.147  1.00  0.00     0.278 C 
HETATM    2  O1  UNL     1     -20.347  18.989 -17.557  1.00  0.00    -0.335 OA
HETATM    3  C6  UNL     1     -20.552  17.632 -17.342  1.00  0.00     0.257 C 
HETATM    4  C10 UNL     1     -20.285  17.056 -18.690  1.00  0.00     0.200 C 
HETATM    5  C11 UNL     1     -18.985  17.798 -19.048  1.00  0.00     0.201 C 
ENDROOT
BRANCH   3   6
HETATM    6  N7  UNL     1     -21.857  17.350 -16.793  1.00  0.00    -0.330 N 
HETATM    7  C7  UNL     1     -22.251  17.687 -15.489  1.00  0.00     0.253 C 
HETATM    8  O2  UNL     1     -21.397  18.285 -14.742  1.00  0.00    -0.271 OA
ATOM      9  H7  UNL     1     -22.535  16.877 -17.390  1.00  0.00     0.165 HD
BRANCH   7  10
HETATM   10  C8  UNL     1     -23.573  17.409 -14.919  1.00  0.00     0.321 C 
BRANCH  10  11
HETATM   11  N8  UNL     1     -24.552  17.735 -16.002  1.00  0.00    -0.063 N 
ATOM     12  H83 UNL     1     -25.465  17.298 -15.875  1.00  0.00     0.275 HD
ATOM     13  H82 UNL     1     -24.878  18.701 -15.984  1.00  0.00     0.275 HD
ATOM     14  H81 UNL     1     -24.090  17.473 -16.873  1.00  0.00     0.275 HD
ENDBRANCH  10  11
BRANCH  10  15
HETATM   15  C9  UNL     1     -23.970  18.275 -13.750  1.00  0.00     0.364 C 
BRANCH  15  16
HETATM   16  N9  UNL     1     -24.298  19.589 -14.357  1.00  0.00    -0.057 N 
ATOM     17  H93 UNL     1     -23.795  20.376 -13.946  1.00  0.00     0.276 HD
ATOM     18  H92 UNL     1     -23.941  19.711 -15.305  1.00  0.00     0.276 HD
ATOM     19  H91 UNL     1     -25.313  19.658 -14.281  1.00  0.00     0.276 HD
ENDBRANCH  15  16
BRANCH  15  20
HETATM   20  S1  UNL     1     -25.423  17.753 -12.934  1.00  0.00     0.256 S 
HETATM   21  O3  UNL     1     -25.077  17.584 -11.465  1.00  0.00    -0.204 OA
HETATM   22  O4  UNL     1     -26.027  16.523 -13.489  1.00  0.00    -0.204 OA
BRANCH  20  23
HETATM   23  N10 UNL     1     -26.590  19.037 -13.004  1.00  0.00    -0.327 N 
ATOM     24 2H10 UNL     1     -27.184  19.243 -13.807  1.00  0.00     0.168 HD
ATOM     25 1H10 UNL     1     -26.575  19.538 -12.116  1.00  0.00     0.168 HD
ENDBRANCH  20  23
ENDBRANCH  15  20
ENDBRANCH  10  15
ENDBRANCH   7  10
ENDBRANCH   3   6
BRANCH   4  26
HETATM   26  O5  UNL     1     -20.039  15.684 -18.661  1.00  0.00    -0.388 OA
ATOM     27  H5  UNL     1     -20.480  15.210 -19.357  1.00  0.00     0.210 HD
ENDBRANCH   4  26
BRANCH   1  28
HETATM   28  N6  UNL     1     -18.108  19.011 -17.082  1.00  0.00    -0.226 N 
HETATM   29  C3  UNL     1     -18.233  19.653 -15.904  1.00  0.00     0.156 A 
HETATM   30  N3  UNL     1     -19.207  20.423 -15.384  1.00  0.00    -0.336 N 
HETATM   31  C4  UNL     1     -17.095  19.396 -15.196  1.00  0.00     0.135 A 
HETATM   32  C2  UNL     1     -19.081  20.959 -14.153  1.00  0.00     0.183 A 
ATOM     33  H3  UNL     1     -20.050  20.603 -15.928  1.00  0.00     0.168 HD
HETATM   34  N2  UNL     1     -17.955  20.706 -13.447  1.00  0.00    -0.337 N 
HETATM   35  C1  UNL     1     -16.958  19.945 -13.924  1.00  0.00     0.132 A 
ATOM     36  H2  UNL     1     -17.860  21.111 -12.515  1.00  0.00     0.168 HD
HETATM   37  N4  UNL     1     -16.292  18.610 -15.935  1.00  0.00    -0.277 N 
HETATM   38  N5  UNL     1     -16.938  18.398 -17.068  1.00  0.00    -0.015 NA
ATOM     39  H4  UNL     1     -15.374  18.251 -15.674  1.00  0.00     0.184 HD
BRANCH  35  40
HETATM   40  N1  UNL     1     -15.870  19.688 -13.273  1.00  0.00    -0.383 N 
ATOM     41  H12 UNL     1     -15.749  20.128 -12.360  1.00  0.00     0.157 HD
ATOM     42  H11 UNL     1     -15.132  19.074 -13.617  1.00  0.00     0.157 HD
ENDBRANCH  35  40
ENDBRANCH   1  28
BRANCH   5  43
HETATM   43  O6  UNL     1     -18.965  18.125 -20.383  1.00  0.00    -0.388 OA
ATOM     44  H6  UNL     1     -19.265  17.417 -20.941  1.00  0.00     0.210 HD
ENDBRANCH   5  43
TORSDOF 11
ENDMDL
MODEL 2
REMARK VINA RESULT: -8.972484972      3.288      7.543
REMARK  11 active torsions:
REMARK  status: ('A' for Active; 'I' for Inactive)
REMARK    1  A    between atoms: N1_1  and  C1_4 
REMARK    2  A    between atoms: N6_15  and  C5_16 
REMARK    3  A    between atoms: C6_18  and  N7_19 
REMARK       I    between atoms: N7_19  and  C7_21 
REMARK    4  A    between atoms: C7_21  and  C8_23 
REMARK    5  A    between atoms: C8_23  and  N8_24 
REMARK    6  A    between atoms: C8_23  and  C9_28 
REMARK    7  A    between atoms: C9_28  and  N9_29 
REMARK    8  A    between atoms: C9_28  and  S1_33 
REMARK    9  A    between atoms: S1_33  and  N10_34 
REMARK   10  A    between atoms: C10_39  and  O5_40 
REMARK   11  A    between atoms: C11_42  and  O6_43 
ROOT
HETATM    1  C5  UNL     1     -25.992  18.443 -17.322  1.00  0.00     0.278 C 
HETATM    2  O1  UNL     1     -24.713  17.901 -17.256  1.00  0.00    -0.335 OA
HETATM    3  C6  UNL     1     -23.908  19.018 -17.445  1.00  0.00     0.257 C 
HETATM    4  C10 UNL     1     -24.471  19.603 -18.695  1.00  0.00     0.200 C 
HETATM    5  C11 UNL     1     -25.975  19.530 -18.373  1.00  0.00     0.201 C 
ENDROOT
BRANCH   3   6
HETATM    6  N7  UNL     1     -22.504  18.686 -17.491  1.00  0.00    -0.330 N 
HETATM    7  C7  UNL     1     -21.512  19.363 -16.767  1.00  0.00     0.253 C 
HETATM    8  O2  UNL     1     -21.879  20.335 -16.014  1.00  0.00    -0.271 OA
ATOM      9  H7  UNL     1     -22.215  17.912 -18.088  1.00  0.00     0.165 HD
BRANCH   7  10
HETATM   10  C8  UNL     1     -20.083  19.037 -16.803  1.00  0.00     0.321 C 
BRANCH  10  11
HETATM   11  N8  UNL     1     -19.438  19.957 -15.816  1.00  0.00    -0.063 N 
ATOM     12  H83 UNL     1     -18.723  19.509 -15.243  1.00  0.00     0.275 HD
ATOM     13  H82 UNL     1     -18.828  20.654 -16.243  1.00  0.00     0.275 HD
ATOM     14  H81 UNL     1     -20.205  20.358 -15.276  1.00  0.00     0.275 HD
ENDBRANCH  10  11
BRANCH  10  15
HETATM   15  C9  UNL     1     -19.388  19.307 -18.113  1.00  0.00     0.364 C 
BRANCH  15  16
HETATM   16  N9  UNL     1     -17.955  19.447 -17.751  1.00  0.00    -0.057 N 
ATOM     17  H93 UNL     1     -17.789  20.023 -16.925  1.00  0.00     0.276 HD
ATOM     18  H92 UNL     1     -17.534  18.595 -17.381  1.00  0.00     0.276 HD
ATOM     19  H91 UNL     1     -17.512  19.798 -18.600  1.00  0.00     0.276 HD
ENDBRANCH  15  16
BRANCH  15  20
HETATM   20  S1  UNL     1     -19.464  17.983 -19.249  1.00  0.00     0.256 S 
HETATM   21  O3  UNL     1     -20.234  16.859 -18.578  1.00  0.00    -0.204 OA
HETATM   22  O4  UNL     1     -18.147  17.518 -19.734  1.00  0.00    -0.204 OA
BRANCH  20  23
HETATM   23  N10 UNL     1     -20.426  18.474 -20.609  1.00  0.00    -0.327 N 
ATOM     24 2H10 UNL     1     -21.441  18.581 -20.598  1.00  0.00     0.168 HD
ATOM     25 1H10 UNL     1     -19.808  18.633 -21.405  1.00  0.00     0.168 HD
ENDBRANCH  20  23
ENDBRANCH  15  20
ENDBRANCH  10  15
ENDBRANCH   7  10
ENDBRANCH   3   6
BRANCH   4  26
HETATM   26  O5  UNL     1     -24.105  20.934 -18.891  1.00  0.00    -0.388 OA
ATOM     27  H5  UNL     1     -23.192  21.103 -18.694  1.00  0.00     0.210 HD
ENDBRANCH   4  26
BRANCH   1  28
HETATM   28  N6  UNL     1     -26.328  18.931 -16.002  1.00  0.00    -0.226 N 
HETATM   29  C3  UNL     1     -25.937  18.375 -14.839  1.00  0.00     0.156 A 
HETATM   30  N3  UNL     1     -25.185  17.297 -14.551  1.00  0.00    -0.336 N 
HETATM   31  C4  UNL     1     -26.467  19.141 -13.842  1.00  0.00     0.135 A 
HETATM   32  C2  UNL     1     -24.937  16.948 -13.271  1.00  0.00     0.183 A 
ATOM     33  H3  UNL     1     -24.797  16.737 -15.309  1.00  0.00     0.168 HD
HETATM   34  N2  UNL     1     -25.460  17.706 -12.280  1.00  0.00    -0.337 N 
HETATM   35  C1  UNL     1     -26.216  18.789 -12.519  1.00  0.00     0.132 A 
ATOM     36  H2  UNL     1     -25.273  17.443 -11.311  1.00  0.00     0.168 HD
HETATM   37  N4  UNL     1     -27.169  20.147 -14.394  1.00  0.00    -0.277 N 
HETATM   38  N5  UNL     1     -27.062  19.987 -15.701  1.00  0.00    -0.015 NA
ATOM     39  H4  UNL     1     -27.679  20.882 -13.904  1.00  0.00     0.184 HD
BRANCH  35  40
HETATM   40  N1  UNL     1     -26.729  19.530 -11.592  1.00  0.00    -0.383 N 
ATOM     41  H12 UNL     1     -26.652  20.542 -11.696  1.00  0.00     0.157 HD
ATOM     42  H11 UNL     1     -27.204  19.162 -10.767  1.00  0.00     0.157 HD
ENDBRANCH  35  40
ENDBRANCH   1  28
BRANCH   5  43
HETATM   43  O6  UNL     1     -26.695  19.201 -19.496  1.00  0.00    -0.388 OA
ATOM     44  H6  UNL     1     -26.183  18.722 -20.137  1.00  0.00     0.210 HD
ENDBRANCH   5  43
TORSDOF 11
ENDMDL
MODEL 3
REMARK VINA RESULT: -8.933123005      1.478      2.118
REMARK  11 active torsions:
REMARK  status: ('A' for Active; 'I' for Inactive)
REMARK    1  A    between atoms: N1_1  and  C1_4 
REMARK    2  A    between atoms: N6_15  and  C5_16 
REMARK    3  A    between atoms: C6_18  and  N7_19 
REMARK       I    between atoms: N7_19  and  C7_21 
REMARK    4  A    between atoms: C7_21  and  C8_23 
REMARK    5  A    between atoms: C8_23  and  N8_24 
REMARK    6  A    between atoms: C8_23  and  C9_28 
REMARK    7  A    between atoms: C9_28  and  N9_29 
REMARK    8  A    between atoms: C9_28  and  S1_33 
REMARK    9  A    between atoms: S1_33  and  N10_34 
REMARK   10  A    between atoms: C10_39  and  O5_40 
REMARK   11  A    between atoms: C11_42  and  O6_43 
ROOT
HETATM    1  C5  UNL     1     -18.944  19.052 -18.181  1.00  0.00     0.278 C 
HETATM    2  O1  UNL     1     -20.257  19.020 -17.725  1.00  0.00    -0.335 OA
HETATM    3  C6  UNL     1     -20.407  17.692 -17.345  1.00  0.00     0.257 C 
HETATM    4  C10 UNL     1     -19.962  16.964 -18.566  1.00  0.00     0.200 C 
HETATM    5  C11 UNL     1     -18.675  17.743 -18.891  1.00  0.00     0.201 C 
ENDROOT
BRANCH   3   6
HETATM    6  N7  UNL     1     -21.747  17.394 -16.897  1.00  0.00    -0.330 N 
HETATM    7  C7  UNL     1     -22.218  17.651 -15.601  1.00  0.00     0.253 C 
HETATM    8  O2  UNL     1     -21.406  18.188 -14.765  1.00  0.00    -0.271 OA
ATOM      9  H7  UNL     1     -22.391  16.969 -17.564  1.00  0.00     0.165 HD
BRANCH   7  10
HETATM   10  C8  UNL     1     -23.575  17.355 -15.132  1.00  0.00     0.321 C 
BRANCH  10  11
HETATM   11  N8  UNL     1     -24.431  17.356 -16.358  1.00  0.00    -0.063 N 
ATOM     12  H83 UNL     1     -24.882  18.252 -16.543  1.00  0.00     0.275 HD
ATOM     13  H82 UNL     1     -23.900  17.309 -17.228  1.00  0.00     0.275 HD
ATOM     14  H81 UNL     1     -25.085  16.584 -16.235  1.00  0.00     0.275 HD
ENDBRANCH  10  11
BRANCH  10  15
HETATM   15  C9  UNL     1     -24.186  18.387 -14.218  1.00  0.00     0.364 C 
BRANCH  15  16
HETATM   16  N9  UNL     1     -25.229  19.043 -15.047  1.00  0.00    -0.057 N 
ATOM     17  H93 UNL     1     -24.958  19.188 -16.020  1.00  0.00     0.276 HD
ATOM     18  H92 UNL     1     -26.038  18.454 -15.242  1.00  0.00     0.276 HD
ATOM     19  H91 UNL     1     -25.450  19.903 -14.543  1.00  0.00     0.276 HD
ENDBRANCH  15  16
BRANCH  15  20
HETATM   20  S1  UNL     1     -25.025  17.717 -12.842  1.00  0.00     0.256 S 
HETATM   21  O3  UNL     1     -26.025  16.704 -13.374  1.00  0.00    -0.204 OA
HETATM   22  O4  UNL     1     -25.685  18.721 -11.980  1.00  0.00    -0.204 OA
BRANCH  20  23
HETATM   23  N10 UNL     1     -23.891  16.810 -11.889  1.00  0.00    -0.327 N 
ATOM     24 2H10 UNL     1     -24.135  16.034 -11.273  1.00  0.00     0.168 HD
ATOM     25 1H10 UNL     1     -22.956  17.185 -12.052  1.00  0.00     0.168 HD
ENDBRANCH  20  23
ENDBRANCH  15  20
ENDBRANCH  10  15
ENDBRANCH   7  10
ENDBRANCH   3   6
BRANCH   4  26
HETATM   26  O5  UNL     1     -19.643  15.629 -18.322  1.00  0.00    -0.388 OA
ATOM     27  H5  UNL     1     -19.354  15.470 -17.432  1.00  0.00     0.210 HD
ENDBRANCH   4  26
BRANCH   1  28
HETATM   28  N6  UNL     1     -18.089  19.264 -17.034  1.00  0.00    -0.226 N 
HETATM   29  C3  UNL     1     -16.796  19.640 -17.081  1.00  0.00     0.156 A 
HETATM   30  N3  UNL     1     -15.961  19.912 -18.100  1.00  0.00    -0.336 N 
HETATM   31  C4  UNL     1     -16.367  19.726 -15.788  1.00  0.00     0.135 A 
HETATM   32  C2  UNL     1     -14.682  20.275 -17.870  1.00  0.00     0.183 A 
ATOM     33  H3  UNL     1     -16.300  19.843 -19.060  1.00  0.00     0.168 HD
HETATM   34  N2  UNL     1     -14.253  20.362 -16.590  1.00  0.00    -0.337 N 
HETATM   35  C1  UNL     1     -15.050  20.101 -15.541  1.00  0.00     0.132 A 
ATOM     36  H2  UNL     1     -13.286  20.638 -16.415  1.00  0.00     0.168 HD
HETATM   37  N4  UNL     1     -17.386  19.407 -14.970  1.00  0.00    -0.277 N 
HETATM   38  N5  UNL     1     -18.410  19.134 -15.759  1.00  0.00    -0.015 NA
ATOM     39  H4  UNL     1     -17.372  19.381 -13.951  1.00  0.00     0.184 HD
BRANCH  35  40
HETATM   40  N1  UNL     1     -14.666  20.175 -14.308  1.00  0.00    -0.383 N 
ATOM     41  H12 UNL     1     -13.690  20.409 -14.128  1.00  0.00     0.157 HD
ATOM     42  H11 UNL     1     -15.281  20.013 -13.510  1.00  0.00     0.157 HD
ENDBRANCH  35  40
ENDBRANCH   1  28
BRANCH   5  43
HETATM   43  O6  UNL     1     -18.528  17.891 -20.249  1.00  0.00    -0.388 OA
ATOM     44  H6  UNL     1     -19.357  17.990 -20.702  1.00  0.00     0.210 HD
ENDBRANCH   5  43
TORSDOF 11
ENDMDL
MODEL 4
REMARK VINA RESULT: -8.914691749      1.571      1.970
REMARK  11 active torsions:
REMARK  status: ('A' for Active; 'I' for Inactive)
REMARK    1  A    between atoms: N1_1  and  C1_4 
REMARK    2  A    between atoms: N6_15  and  C5_16 
REMARK    3  A    between atoms: C6_18  and  N7_19 
REMARK       I    between atoms: N7_19  and  C7_21 
REMARK    4  A    between atoms: C7_21  and  C8_23 
REMARK    5  A    between atoms: C8_23  and  N8_24 
REMARK    6  A    between atoms: C8_23  and  C9_28 
REMARK    7  A    between atoms: C9_28  and  N9_29 
REMARK    8  A    between atoms: C9_28  and  S1_33 
REMARK    9  A    between atoms: S1_33  and  N10_34 
REMARK   10  A    between atoms: C10_39  and  O5_40 
REMARK   11  A    between atoms: C11_42  and  O6_43 
ROOT
HETATM    1  C5  UNL     1     -18.698  18.928 -17.959  1.00  0.00     0.278 C 
HETATM    2  O1  UNL     1     -19.898  19.202 -17.312  1.00  0.00    -0.335 OA
HETATM    3  C6  UNL     1     -20.413  17.930 -17.092  1.00  0.00     0.257 C 
HETATM    4  C10 UNL     1     -20.352  17.328 -18.454  1.00  0.00     0.200 C 
HETATM    5  C11 UNL     1     -18.929  17.742 -18.869  1.00  0.00     0.201 C 
ENDROOT
BRANCH   3   6
HETATM    6  N7  UNL     1     -21.722  17.961 -16.485  1.00  0.00    -0.330 N 
HETATM    7  C7  UNL     1     -21.961  18.324 -15.151  1.00  0.00     0.253 C 
HETATM    8  O2  UNL     1     -20.951  18.651 -14.430  1.00  0.00    -0.271 OA
ATOM      9  H7  UNL     1     -22.523  17.703 -17.060  1.00  0.00     0.165 HD
BRANCH   7  10
HETATM   10  C8  UNL     1     -23.284  18.362 -14.520  1.00  0.00     0.321 C 
BRANCH  10  11
HETATM   11  N8  UNL     1     -23.052  18.017 -13.084  1.00  0.00    -0.063 N 
ATOM     12  H83 UNL     1     -23.632  17.248 -12.748  1.00  0.00     0.275 HD
ATOM     13  H82 UNL     1     -22.151  17.573 -12.909  1.00  0.00     0.275 HD
ATOM     14  H81 UNL     1     -23.187  18.888 -12.570  1.00  0.00     0.275 HD
ENDBRANCH  10  11
BRANCH  10  15
HETATM   15  C9  UNL     1     -24.272  17.339 -15.022  1.00  0.00     0.364 C 
BRANCH  15  16
HETATM   16  N9  UNL     1     -25.026  16.929 -13.811  1.00  0.00    -0.057 N 
ATOM     17  H93 UNL     1     -25.768  16.252 -13.991  1.00  0.00     0.276 HD
ATOM     18  H92 UNL     1     -24.494  16.343 -13.167  1.00  0.00     0.276 HD
ATOM     19  H91 UNL     1     -25.352  17.806 -13.405  1.00  0.00     0.276 HD
ENDBRANCH  15  16
BRANCH  15  20
HETATM   20  S1  UNL     1     -25.461  17.976 -16.130  1.00  0.00     0.256 S 
HETATM   21  O3  UNL     1     -24.724  18.857 -17.123  1.00  0.00    -0.204 OA
HETATM   22  O4  UNL     1     -26.570  18.708 -15.482  1.00  0.00    -0.204 OA
BRANCH  20  23
HETATM   23  N10 UNL     1     -26.116  16.660 -17.055  1.00  0.00    -0.327 N 
ATOM     24 2H10 UNL     1     -26.183  15.695 -16.732  1.00  0.00     0.168 HD
ATOM     25 1H10 UNL     1     -26.418  17.019 -17.962  1.00  0.00     0.168 HD
ENDBRANCH  20  23
ENDBRANCH  15  20
ENDBRANCH  10  15
ENDBRANCH   7  10
ENDBRANCH   3   6
BRANCH   4  26
HETATM   26  O5  UNL     1     -20.442  15.937 -18.443  1.00  0.00    -0.388 OA
ATOM     27  H5  UNL     1     -19.734  15.520 -17.966  1.00  0.00     0.210 HD
ENDBRANCH   4  26
BRANCH   1  28
HETATM   28  N6  UNL     1     -17.700  18.679 -16.941  1.00  0.00    -0.226 N 
HETATM   29  C3  UNL     1     -17.608  19.322 -15.761  1.00  0.00     0.156 A 
HETATM   30  N3  UNL     1     -18.336  20.304 -15.198  1.00  0.00    -0.336 N 
HETATM   31  C4  UNL     1     -16.538  18.786 -15.106  1.00  0.00     0.135 A 
HETATM   32  C2  UNL     1     -18.026  20.782 -13.976  1.00  0.00     0.183 A 
ATOM     33  H3  UNL     1     -19.133  20.691 -15.703  1.00  0.00     0.168 HD
HETATM   34  N2  UNL     1     -16.966  20.253 -13.322  1.00  0.00    -0.337 N 
HETATM   35  C1  UNL     1     -16.211  19.272 -13.843  1.00  0.00     0.132 A 
ATOM     36  H2  UNL     1     -16.731  20.613 -12.397  1.00  0.00     0.168 HD
HETATM   37  N4  UNL     1     -15.989  17.831 -15.878  1.00  0.00    -0.277 N 
HETATM   38  N5  UNL     1     -16.719  17.795 -16.980  1.00  0.00    -0.015 NA
ATOM     39  H4  UNL     1     -15.178  17.254 -15.660  1.00  0.00     0.184 HD
BRANCH  35  40
HETATM   40  N1  UNL     1     -15.192  18.749 -13.243  1.00  0.00    -0.383 N 
ATOM     41  H12 UNL     1     -14.265  18.949 -13.618  1.00  0.00     0.157 HD
ATOM     42  H11 UNL     1     -15.263  18.151 -12.419  1.00  0.00     0.157 HD
ENDBRANCH  35  40
ENDBRANCH   1  28
BRANCH   5  43
HETATM   43  O6  UNL     1     -18.890  18.075 -20.202  1.00  0.00    -0.388 OA
ATOM     44  H6  UNL     1     -18.014  18.280 -20.506  1.00  0.00     0.210 HD
ENDBRANCH   5  43
TORSDOF 11
ENDMDL
MODEL 5
REMARK VINA RESULT: -8.880734072      1.166      1.388
REMARK  11 active torsions:
REMARK  status: ('A' for Active; 'I' for Inactive)
REMARK    1  A    between atoms: N1_1  and  C1_4 
REMARK    2  A    between atoms: N6_15  and  C5_16 
REMARK    3  A    between atoms: C6_18  and  N7_19 
REMARK       I    between atoms: N7_19  and  C7_21 
REMARK    4  A    between atoms: C7_21  and  C8_23 
REMARK    5  A    between atoms: C8_23  and  N8_24 
REMARK    6  A    between atoms: C8_23  and  C9_28 
REMARK    7  A    between atoms: C9_28  and  N9_29 
REMARK    8  A    between atoms: C9_28  and  S1_33 
REMARK    9  A    between atoms: S1_33  and  N10_34 
REMARK   10  A    between atoms: C10_39  and  O5_40 
REMARK   11  A    between atoms: C11_42  and  O6_43 
ROOT
HETATM    1  C5  UNL     1     -18.617  18.982 -17.939  1.00  0.00     0.278 C 
HETATM    2  O1  UNL     1     -19.782  19.368 -17.285  1.00  0.00    -0.335 OA
HETATM    3  C6  UNL     1     -20.400  18.149 -17.037  1.00  0.00     0.257 C 
HETATM    4  C10 UNL     1     -20.406  17.519 -18.387  1.00  0.00     0.200 C 
HETATM    5  C11 UNL     1     -18.957  17.803 -18.824  1.00  0.00     0.201 C 
ENDROOT
BRANCH   3   6
HETATM    6  N7  UNL     1     -21.695  18.302 -16.417  1.00  0.00    -0.330 N 
HETATM    7  C7  UNL     1     -21.887  18.598 -15.060  1.00  0.00     0.253 C 
HETATM    8  O2  UNL     1     -20.844  18.745 -14.327  1.00  0.00    -0.271 OA
ATOM      9  H7  UNL     1     -22.522  18.188 -17.003  1.00  0.00     0.165 HD
BRANCH   7  10
HETATM   10  C8  UNL     1     -23.195  18.758 -14.417  1.00  0.00     0.321 C 
BRANCH  10  11
HETATM   11  N8  UNL     1     -23.068  18.097 -13.082  1.00  0.00    -0.063 N 
ATOM     12  H83 UNL     1     -23.961  17.940 -12.614  1.00  0.00     0.275 HD
ATOM     13  H82 UNL     1     -22.787  17.118 -13.134  1.00  0.00     0.275 HD
ATOM     14  H81 UNL     1     -22.423  18.681 -12.550  1.00  0.00     0.275 HD
ENDBRANCH  10  11
BRANCH  10  15
HETATM   15  C9  UNL     1     -24.344  18.059 -15.100  1.00  0.00     0.364 C 
BRANCH  15  16
HETATM   16  N9  UNL     1     -23.869  16.665 -15.287  1.00  0.00    -0.057 N 
ATOM     17  H93 UNL     1     -24.402  16.132 -15.975  1.00  0.00     0.276 HD
ATOM     18  H92 UNL     1     -22.968  16.591 -15.760  1.00  0.00     0.276 HD
ATOM     19  H91 UNL     1     -23.883  16.264 -14.349  1.00  0.00     0.276 HD
ENDBRANCH  15  16
BRANCH  15  20
HETATM   20  S1  UNL     1     -25.790  17.943 -14.129  1.00  0.00     0.256 S 
HETATM   21  O3  UNL     1     -25.780  19.118 -13.166  1.00  0.00    -0.204 OA
HETATM   22  O4  UNL     1     -25.941  16.661 -13.409  1.00  0.00    -0.204 OA
BRANCH  20  23
HETATM   23  N10 UNL     1     -27.169  18.182 -15.157  1.00  0.00    -0.327 N 
ATOM     24 2H10 UNL     1     -27.406  19.059 -15.622  1.00  0.00     0.168 HD
ATOM     25 1H10 UNL     1     -27.689  17.306 -15.212  1.00  0.00     0.168 HD
ENDBRANCH  20  23
ENDBRANCH  15  20
ENDBRANCH  10  15
ENDBRANCH   7  10
ENDBRANCH   3   6
BRANCH   4  26
HETATM   26  O5  UNL     1     -20.613  16.141 -18.348  1.00  0.00    -0.388 OA
ATOM     27  H5  UNL     1     -20.523  15.725 -19.198  1.00  0.00     0.210 HD
ENDBRANCH   4  26
BRANCH   1  28
HETATM   28  N6  UNL     1     -17.632  18.668 -16.926  1.00  0.00    -0.226 N 
HETATM   29  C3  UNL     1     -17.498  19.299 -15.743  1.00  0.00     0.156 A 
HETATM   30  N3  UNL     1     -18.163  20.320 -15.173  1.00  0.00    -0.336 N 
HETATM   31  C4  UNL     1     -16.460  18.696 -15.094  1.00  0.00     0.135 A 
HETATM   32  C2  UNL     1     -17.820  20.772 -13.949  1.00  0.00     0.183 A 
ATOM     33  H3  UNL     1     -18.937  20.757 -15.673  1.00  0.00     0.168 HD
HETATM   34  N2  UNL     1     -16.792  20.177 -13.302  1.00  0.00    -0.337 N 
HETATM   35  C1  UNL     1     -16.100  19.155 -13.831  1.00  0.00     0.132 A 
ATOM     36  H2  UNL     1     -16.533  20.518 -12.376  1.00  0.00     0.168 HD
HETATM   37  N4  UNL     1     -15.972  17.714 -15.873  1.00  0.00    -0.277 N 
HETATM   38  N5  UNL     1     -16.706  17.727 -16.972  1.00  0.00    -0.015 NA
ATOM     39  H4  UNL     1     -15.196  17.088 -15.660  1.00  0.00     0.184 HD
BRANCH  35  40
HETATM   40  N1  UNL     1     -15.112  18.569 -13.236  1.00  0.00    -0.383 N 
ATOM     41  H12 UNL     1     -15.280  17.645 -12.838  1.00  0.00     0.157 HD
ATOM     42  H11 UNL     1     -14.181  18.975 -13.143  1.00  0.00     0.157 HD
ENDBRANCH  35  40
ENDBRANCH   1  28
BRANCH   5  43
HETATM   43  O6  UNL     1     -18.905  18.108 -20.163  1.00  0.00    -0.388 OA
ATOM     44  H6  UNL     1     -19.731  17.958 -20.608  1.00  0.00     0.210 HD
ENDBRANCH   5  43
TORSDOF 11
ENDMDL
