MODEL 1
REMARK VINA RESULT: -9.345306711      0.000      0.000
REMARK  9 active torsions:
REMARK  status: ('A' for Active; 'I' for Inactive)
REMARK    1  A    between atoms: N1_1  and  C1_4 
REMARK    2  A    between atoms: N4_13  and  C5_14 
REMARK    3  A    between atoms: C5_14  and  C6_15 
REMARK    4  A    between atoms: N6_20  and  C8_21 
REMARK    5  A    between atoms: C10_23  and  N7_24 
REMARK    6  A    between atoms: C11_31  and  C12_32 
REMARK    7  A    between atoms: C11_31  and  O5_35 
REMARK    8  A    between atoms: C12_32  and  O4_33 
REMARK    9  A    between atoms: O5_35  and  C13_36 
ROOT
HETATM    1  C1  UNL     1     -17.156  19.396 -16.781  1.00  0.00     0.680 A 
HETATM    2  N2  UNL     1     -17.665  19.907 -15.638  1.00  0.00    -0.154 N 
ATOM      3  H2  UNL     1     -18.665  20.077 -15.532  1.00  0.00     0.187 HD
HETATM    4  C2  UNL     1     -16.792  20.184 -14.641  1.00  0.00     0.290 A 
HETATM    5  O1  UNL     1     -17.227  20.659 -13.568  1.00  0.00    -0.265 OA
HETATM    6  C3  UNL     1     -15.435  19.966 -14.751  1.00  0.00     0.155 A 
HETATM    7  C4  UNL     1     -14.949  19.448 -15.922  1.00  0.00     0.160 A 
HETATM    8  N3  UNL     1     -15.836  19.173 -16.918  1.00  0.00    -0.174 N 
ATOM      9  H3  UNL     1     -15.489  18.786 -17.795  1.00  0.00     0.186 HD
HETATM   10  N4  UNL     1     -13.625  19.316 -15.822  1.00  0.00    -0.274 N 
HETATM   11  C7  UNL     1     -13.299  19.750 -14.602  1.00  0.00     0.333 A 
HETATM   12  O3  UNL     1     -12.130  19.782 -14.133  1.00  0.00    -0.246 OA
HETATM   13  N6  UNL     1     -14.399  20.151 -13.937  1.00  0.00    -0.263 N 
ENDROOT
BRANCH  13  14
HETATM   14  C8  UNL     1     -14.438  20.673 -12.610  1.00  0.00     0.242 C 
HETATM   15  C9  UNL     1     -14.284  22.195 -12.583  1.00  0.00     0.117 C 
HETATM   16  C10 UNL     1     -13.772  22.556 -11.222  1.00  0.00     0.391 C 
HETATM   17  N8  UNL     1     -14.155  21.614 -10.232  1.00  0.00     0.014 N 
HETATM   18  C11 UNL     1     -13.704  20.235 -10.541  1.00  0.00     0.371 C 
ATOM     19  H82 UNL     1     -13.834  21.904  -9.309  1.00  0.00     0.286 HD
ATOM     20  H81 UNL     1     -15.162  21.641 -10.074  1.00  0.00     0.286 HD
HETATM   21  O7  UNL     1     -13.322  20.201 -11.874  1.00  0.00    -0.305 OA
BRANCH  16  22
HETATM   22  N7  UNL     1     -12.365  22.901 -11.230  1.00  0.00    -0.050 N 
ATOM     23  H73 UNL     1     -12.086  23.282 -12.134  1.00  0.00     0.276 HD
ATOM     24  H72 UNL     1     -12.184  23.716 -10.645  1.00  0.00     0.276 HD
ATOM     25  H71 UNL     1     -11.768  22.118 -10.963  1.00  0.00     0.276 HD
ENDBRANCH  16  22
BRANCH  18  26
HETATM   26  C12 UNL     1     -12.548  20.022  -9.605  1.00  0.00     0.266 C 
BRANCH  26  27
HETATM   27  O4  UNL     1     -11.309  20.378 -10.104  1.00  0.00    -0.394 OA
ATOM     28  H4  UNL     1     -10.931  21.166  -9.730  1.00  0.00     0.209 HD
ENDBRANCH  26  27
ENDBRANCH  18  26
BRANCH  18  29
HETATM   29  O5  UNL     1     -14.829  19.467 -10.357  1.00  0.00    -0.241 OA
BRANCH  29  30
HETATM   30  C13 UNL     1     -15.358  18.946  -9.230  1.00  0.00     0.376 C 
HETATM   31  N9  UNL     1     -15.061  17.661  -8.697  1.00  0.00    -0.032 NA
HETATM   32  O6  UNL     1     -16.178  19.640  -8.596  1.00  0.00    -0.242 OA
ENDBRANCH  29  30
ENDBRANCH  18  29
ENDBRANCH  13  14
BRANCH  10  33
HETATM   33  C5  UNL     1     -12.744  18.800 -16.850  1.00  0.00     0.235 C 
BRANCH  33  34
HETATM   34  C6  UNL     1     -12.570  17.330 -16.733  1.00  0.00     0.249 C 
HETATM   35  N5  UNL     1     -11.263  16.805 -16.640  1.00  0.00    -0.061 NA
HETATM   36  O2  UNL     1     -13.566  16.579 -16.717  1.00  0.00    -0.275 OA
ENDBRANCH  33  34
ENDBRANCH  10  33
BRANCH   1  37
HETATM   37  N1  UNL     1     -17.990  19.135 -17.728  1.00  0.00    -0.234 N 
ATOM     38  H12 UNL     1     -17.839  18.365 -18.380  1.00  0.00     0.174 HD
ATOM     39  H11 UNL     1     -18.814  19.734 -17.798  1.00  0.00     0.174 HD
ENDBRANCH   1  37
TORSDOF 9
ENDMDL
MODEL 2
REMARK VINA RESULT: -9.114507954      2.376      4.080
REMARK  9 active torsions:
REMARK  status: ('A' for Active; 'I' for Inactive)
REMARK    1  A    between atoms: N1_1  and  C1_4 
REMARK    2  A    between atoms: N4_13  and  C5_14 
REMARK    3  A    between atoms: C5_14  and  C6_15 
REMARK    4  A    between atoms: N6_20  and  C8_21 
REMARK    5  A    between atoms: C10_23  and  N7_24 
REMARK    6  A    between atoms: C11_31  and  C12_32 
REMARK    7  A    between atoms: C11_31  and  O5_35 
REMARK    8  A    between atoms: C12_32  and  O4_33 
REMARK    9  A    between atoms: O5_35  and  C13_36 
ROOT
HETATM    1  C1  UNL     1     -20.489  19.963 -15.793  1.00  0.00     0.680 A 
HETATM    2  N2  UNL     1     -19.846  20.721 -14.877  1.00  0.00    -0.154 N 
ATOM      3  H2  UNL     1     -20.325  21.472 -14.379  1.00  0.00     0.187 HD
HETATM    4  C2  UNL     1     -18.541  20.442 -14.647  1.00  0.00     0.290 A 
HETATM    5  O1  UNL     1     -17.914  21.123 -13.805  1.00  0.00    -0.265 OA
HETATM    6  C3  UNL     1     -17.864  19.433 -15.301  1.00  0.00     0.155 A 
HETATM    7  C4  UNL     1     -18.542  18.683 -16.224  1.00  0.00     0.160 A 
HETATM    8  N3  UNL     1     -19.854  18.973 -16.447  1.00  0.00    -0.174 N 
ATOM      9  H3  UNL     1     -20.372  18.421 -17.131  1.00  0.00     0.186 HD
HETATM   10  N4  UNL     1     -17.713  17.771 -16.735  1.00  0.00    -0.274 N 
HETATM   11  C7  UNL     1     -16.536  17.959 -16.133  1.00  0.00     0.333 A 
HETATM   12  O3  UNL     1     -15.494  17.285 -16.353  1.00  0.00    -0.246 OA
HETATM   13  N6  UNL     1     -16.616  18.974 -15.253  1.00  0.00    -0.263 N 
ENDROOT
BRANCH  13  14
HETATM   14  C8  UNL     1     -15.558  19.460 -14.428  1.00  0.00     0.242 C 
HETATM   15  C9  UNL     1     -14.393  20.015 -15.249  1.00  0.00     0.117 C 
HETATM   16  C10 UNL     1     -13.176  19.949 -14.376  1.00  0.00     0.391 C 
HETATM   17  N8  UNL     1     -13.497  20.023 -12.995  1.00  0.00     0.014 N 
HETATM   18  C11 UNL     1     -14.432  18.956 -12.561  1.00  0.00     0.371 C 
ATOM     19  H82 UNL     1     -12.653  20.022 -12.424  1.00  0.00     0.286 HD
ATOM     20  H81 UNL     1     -13.860  20.946 -12.754  1.00  0.00     0.286 HD
HETATM   21  O7  UNL     1     -14.987  18.388 -13.698  1.00  0.00    -0.305 OA
BRANCH  16  22
HETATM   22  N7  UNL     1     -12.286  18.868 -14.742  1.00  0.00    -0.050 N 
ATOM     23  H73 UNL     1     -12.732  17.961 -14.601  1.00  0.00     0.276 HD
ATOM     24  H72 UNL     1     -12.152  18.830 -15.753  1.00  0.00     0.276 HD
ATOM     25  H71 UNL     1     -11.390  18.915 -14.255  1.00  0.00     0.276 HD
ENDBRANCH  16  22
BRANCH  18  26
HETATM   26  C12 UNL     1     -13.551  17.998 -11.809  1.00  0.00     0.266 C 
BRANCH  26  27
HETATM   27  O4  UNL     1     -12.936  17.031 -12.581  1.00  0.00    -0.394 OA
ATOM     28  H4  UNL     1     -12.295  16.495 -12.127  1.00  0.00     0.209 HD
ENDBRANCH  26  27
ENDBRANCH  18  26
BRANCH  18  29
HETATM   29  O5  UNL     1     -15.399  19.628 -11.853  1.00  0.00    -0.241 OA
BRANCH  29  30
HETATM   30  C13 UNL     1     -15.287  20.586 -10.908  1.00  0.00     0.376 C 
HETATM   31  N9  UNL     1     -14.690  21.863 -11.096  1.00  0.00    -0.032 NA
HETATM   32  O6  UNL     1     -15.738  20.340  -9.772  1.00  0.00    -0.242 OA
ENDBRANCH  29  30
ENDBRANCH  18  29
ENDBRANCH  13  14
BRANCH  10  33
HETATM   33  C5  UNL     1     -18.052  16.786 -17.742  1.00  0.00     0.235 C 
BRANCH  33  34
HETATM   34  C6  UNL     1     -18.570  17.425 -18.979  1.00  0.00     0.249 C 
HETATM   35  N5  UNL     1     -19.940  17.295 -19.291  1.00  0.00    -0.061 NA
HETATM   36  O2  UNL     1     -17.799  18.065 -19.724  1.00  0.00    -0.275 OA
ENDBRANCH  33  34
ENDBRANCH  10  33
BRANCH   1  37
HETATM   37  N1  UNL     1     -21.729  20.233 -16.009  1.00  0.00    -0.234 N 
ATOM     38  H12 UNL     1     -22.152  20.118 -16.931  1.00  0.00     0.174 HD
ATOM     39  H11 UNL     1     -22.276  20.567 -15.215  1.00  0.00     0.174 HD
ENDBRANCH   1  37
TORSDOF 9
ENDMDL
MODEL 3
REMARK VINA RESULT: -8.842162996      1.009      1.056
REMARK  9 active torsions:
REMARK  status: ('A' for Active; 'I' for Inactive)
REMARK    1  A    between atoms: N1_1  and  C1_4 
REMARK    2  A    between atoms: N4_13  and  C5_14 
REMARK    3  A    between atoms: C5_14  and  C6_15 
REMARK    4  A    between atoms: N6_20  and  C8_21 
REMARK    5  A    between atoms: C10_23  and  N7_24 
REMARK    6  A    between atoms: C11_31  and  C12_32 
REMARK    7  A    between atoms: C11_31  and  O5_35 
REMARK    8  A    between atoms: C12_32  and  O4_33 
REMARK    9  A    between atoms: O5_35  and  C13_36 
ROOT
HETATM    1  C1  UNL     1     -17.644  18.991 -16.212  1.00  0.00     0.680 A 
HETATM    2  N2  UNL     1     -18.063  19.673 -15.123  1.00  0.00    -0.154 N 
ATOM      3  H2  UNL     1     -19.047  19.909 -14.990  1.00  0.00     0.187 HD
HETATM    4  C2  UNL     1     -17.124  20.030 -14.215  1.00  0.00     0.290 A 
HETATM    5  O1  UNL     1     -17.476  20.663 -13.194  1.00  0.00    -0.265 OA
HETATM    6  C3  UNL     1     -15.787  19.727 -14.362  1.00  0.00     0.155 A 
HETATM    7  C4  UNL     1     -15.392  19.036 -15.476  1.00  0.00     0.160 A 
HETATM    8  N3  UNL     1     -16.346  18.682 -16.382  1.00  0.00    -0.174 N 
ATOM      9  H3  UNL     1     -16.066  18.165 -17.216  1.00  0.00     0.186 HD
HETATM   10  N4  UNL     1     -14.072  18.847 -15.425  1.00  0.00    -0.274 N 
HETATM   11  C7  UNL     1     -13.658  19.418 -14.291  1.00  0.00     0.333 A 
HETATM   12  O3  UNL     1     -12.464  19.447 -13.889  1.00  0.00    -0.246 OA
HETATM   13  N6  UNL     1     -14.699  19.960 -13.632  1.00  0.00    -0.263 N 
ENDROOT
BRANCH  13  14
HETATM   14  C8  UNL     1     -14.639  20.652 -12.386  1.00  0.00     0.242 C 
HETATM   15  C9  UNL     1     -14.264  22.125 -12.560  1.00  0.00     0.117 C 
HETATM   16  C10 UNL     1     -13.682  22.582 -11.256  1.00  0.00     0.391 C 
HETATM   17  N8  UNL     1     -14.183  21.844 -10.152  1.00  0.00     0.014 N 
HETATM   18  C11 UNL     1     -13.944  20.385 -10.275  1.00  0.00     0.371 C 
ATOM     19  H82 UNL     1     -13.807  22.202  -9.275  1.00  0.00     0.286 HD
ATOM     20  H81 UNL     1     -15.173  22.040 -10.002  1.00  0.00     0.286 HD
HETATM   21  O7  UNL     1     -13.592  20.121 -11.591  1.00  0.00    -0.305 OA
BRANCH  16  22
HETATM   22  N7  UNL     1     -12.240  22.711 -11.306  1.00  0.00    -0.050 N 
ATOM     23  H73 UNL     1     -11.861  22.943 -10.387  1.00  0.00     0.276 HD
ATOM     24  H72 UNL     1     -11.796  21.804 -11.443  1.00  0.00     0.276 HD
ATOM     25  H71 UNL     1     -11.931  23.382 -12.010  1.00  0.00     0.276 HD
ENDBRANCH  16  22
BRANCH  18  26
HETATM   26  C12 UNL     1     -12.816  20.129  -9.315  1.00  0.00     0.266 C 
BRANCH  26  27
HETATM   27  O4  UNL     1     -11.547  20.222  -9.855  1.00  0.00    -0.394 OA
ATOM     28  H4  UNL     1     -10.879  19.711  -9.414  1.00  0.00     0.209 HD
ENDBRANCH  26  27
ENDBRANCH  18  26
BRANCH  18  29
HETATM   29  O5  UNL     1     -15.166  19.822  -9.994  1.00  0.00    -0.241 OA
BRANCH  29  30
HETATM   30  C13 UNL     1     -15.477  18.707  -9.301  1.00  0.00     0.376 C 
HETATM   31  N9  UNL     1     -15.036  17.391  -9.615  1.00  0.00    -0.032 NA
HETATM   32  O6  UNL     1     -16.213  18.827  -8.302  1.00  0.00    -0.242 OA
ENDBRANCH  29  30
ENDBRANCH  18  29
ENDBRANCH  13  14
BRANCH  10  33
HETATM   33  C5  UNL     1     -13.275  18.155 -16.418  1.00  0.00     0.235 C 
BRANCH  33  34
HETATM   34  C6  UNL     1     -12.676  19.102 -17.394  1.00  0.00     0.249 C 
HETATM   35  N5  UNL     1     -11.356  19.555 -17.180  1.00  0.00    -0.061 NA
HETATM   36  O2  UNL     1     -13.335  19.486 -18.381  1.00  0.00    -0.275 OA
ENDBRANCH  33  34
ENDBRANCH  10  33
BRANCH   1  37
HETATM   37  N1  UNL     1     -18.541  18.655 -17.073  1.00  0.00    -0.234 N 
ATOM     38  H12 UNL     1     -19.537  18.739 -16.871  1.00  0.00     0.174 HD
ATOM     39  H11 UNL     1     -18.211  18.298 -17.970  1.00  0.00     0.174 HD
ENDBRANCH   1  37
TORSDOF 9
ENDMDL
MODEL 4
REMARK VINA RESULT: -8.668956861      3.093      6.011
REMARK  9 active torsions:
REMARK  status: ('A' for Active; 'I' for Inactive)
REMARK    1  A    between atoms: N1_1  and  C1_4 
REMARK    2  A    between atoms: N4_13  and  C5_14 
REMARK    3  A    between atoms: C5_14  and  C6_15 
REMARK    4  A    between atoms: N6_20  and  C8_21 
REMARK    5  A    between atoms: C10_23  and  N7_24 
REMARK    6  A    between atoms: C11_31  and  C12_32 
REMARK    7  A    between atoms: C11_31  and  O5_35 
REMARK    8  A    between atoms: C12_32  and  O4_33 
REMARK    9  A    between atoms: O5_35  and  C13_36 
ROOT
HETATM    1  C1  UNL     1     -19.875  16.620 -18.304  1.00  0.00     0.680 A 
HETATM    2  N2  UNL     1     -18.549  16.527 -18.059  1.00  0.00    -0.154 N 
ATOM      3  H2  UNL     1     -17.980  15.796 -18.488  1.00  0.00     0.187 HD
HETATM    4  C2  UNL     1     -18.007  17.441 -17.220  1.00  0.00     0.290 A 
HETATM    5  O1  UNL     1     -16.782  17.385 -16.970  1.00  0.00    -0.265 OA
HETATM    6  C3  UNL     1     -18.747  18.442 -16.624  1.00  0.00     0.155 A 
HETATM    7  C4  UNL     1     -20.088  18.511 -16.891  1.00  0.00     0.160 A 
HETATM    8  N3  UNL     1     -20.621  17.585 -17.737  1.00  0.00    -0.174 N 
ATOM      9  H3  UNL     1     -21.618  17.625 -17.946  1.00  0.00     0.186 HD
HETATM   10  N4  UNL     1     -20.612  19.539 -16.222  1.00  0.00    -0.274 N 
HETATM   11  C7  UNL     1     -19.602  20.097 -15.548  1.00  0.00     0.333 A 
HETATM   12  O3  UNL     1     -19.703  21.102 -14.795  1.00  0.00    -0.246 OA
HETATM   13  N6  UNL     1     -18.456  19.434 -15.786  1.00  0.00    -0.263 N 
ENDROOT
BRANCH  13  14
HETATM   14  C8  UNL     1     -17.174  19.742 -15.240  1.00  0.00     0.242 C 
HETATM   15  C9  UNL     1     -16.131  20.008 -16.328  1.00  0.00     0.117 C 
HETATM   16  C10 UNL     1     -14.789  19.749 -15.714  1.00  0.00     0.391 C 
HETATM   17  N8  UNL     1     -14.786  19.958 -14.311  1.00  0.00     0.014 N 
HETATM   18  C11 UNL     1     -15.785  19.124 -13.598  1.00  0.00     0.371 C 
ATOM     19  H82 UNL     1     -13.853  19.819 -13.924  1.00  0.00     0.286 HD
ATOM     20  H81 UNL     1     -14.912  20.947 -14.090  1.00  0.00     0.286 HD
HETATM   21  O7  UNL     1     -16.666  18.618 -14.542  1.00  0.00    -0.305 OA
BRANCH  16  22
HETATM   22  N7  UNL     1     -14.212  18.493 -16.149  1.00  0.00    -0.050 N 
ATOM     23  H73 UNL     1     -13.548  18.137 -15.461  1.00  0.00     0.276 HD
ATOM     24  H72 UNL     1     -14.902  17.742 -16.116  1.00  0.00     0.276 HD
ATOM     25  H71 UNL     1     -13.784  18.557 -17.072  1.00  0.00     0.276 HD
ENDBRANCH  16  22
BRANCH  18  26
HETATM   26  C12 UNL     1     -14.953  18.051 -12.952  1.00  0.00     0.266 C 
BRANCH  26  27
HETATM   27  O4  UNL     1     -15.425  17.588 -11.739  1.00  0.00    -0.394 OA
ATOM     28  H4  UNL     1     -16.369  17.502 -11.676  1.00  0.00     0.209 HD
ENDBRANCH  26  27
ENDBRANCH  18  26
BRANCH  18  29
HETATM   29  O5  UNL     1     -16.436  20.013 -12.777  1.00  0.00    -0.241 OA
BRANCH  29  30
HETATM   30  C13 UNL     1     -15.949  20.896 -11.880  1.00  0.00     0.376 C 
HETATM   31  N9  UNL     1     -15.703  20.624 -10.506  1.00  0.00    -0.032 NA
HETATM   32  O6  UNL     1     -15.689  22.049 -12.278  1.00  0.00    -0.242 OA
ENDBRANCH  29  30
ENDBRANCH  18  29
ENDBRANCH  13  14
BRANCH  10  33
HETATM   33  C5  UNL     1     -22.002  19.945 -16.243  1.00  0.00     0.235 C 
BRANCH  33  34
HETATM   34  C6  UNL     1     -22.811  19.175 -15.262  1.00  0.00     0.249 C 
HETATM   35  N5  UNL     1     -22.418  17.858 -14.942  1.00  0.00    -0.061 NA
HETATM   36  O2  UNL     1     -23.816  19.692 -14.736  1.00  0.00    -0.275 OA
ENDBRANCH  33  34
ENDBRANCH  10  33
BRANCH   1  37
HETATM   37  N1  UNL     1     -20.385  15.747 -19.101  1.00  0.00    -0.234 N 
ATOM     38  H12 UNL     1     -20.553  14.785 -18.808  1.00  0.00     0.174 HD
ATOM     39  H11 UNL     1     -20.617  16.060 -20.045  1.00  0.00     0.174 HD
ENDBRANCH   1  37
TORSDOF 9
ENDMDL
MODEL 5
REMARK VINA RESULT: -8.635485198      2.455      3.931
REMARK  9 active torsions:
REMARK  status: ('A' for Active; 'I' for Inactive)
REMARK    1  A    between atoms: N1_1  and  C1_4 
REMARK    2  A    between atoms: N4_13  and  C5_14 
REMARK    3  A    between atoms: C5_14  and  C6_15 
REMARK    4  A    between atoms: N6_20  and  C8_21 
REMARK    5  A    between atoms: C10_23  and  N7_24 
REMARK    6  A    between atoms: C11_31  and  C12_32 
REMARK    7  A    between atoms: C11_31  and  O5_35 
REMARK    8  A    between atoms: C12_32  and  O4_33 
REMARK    9  A    between atoms: O5_35  and  C13_36 
ROOT
HETATM    1  C1  UNL     1     -20.671  19.997 -15.421  1.00  0.00     0.680 A 
HETATM    2  N2  UNL     1     -20.117  20.334 -14.235  1.00  0.00    -0.154 N 
ATOM      3  H2  UNL     1     -20.693  20.621 -13.443  1.00  0.00     0.187 HD
HETATM    4  C2  UNL     1     -18.767  20.275 -14.142  1.00  0.00     0.290 A 
HETATM    5  O1  UNL     1     -18.220  20.581 -13.059  1.00  0.00    -0.265 OA
HETATM    6  C3  UNL     1     -17.960  19.891 -15.192  1.00  0.00     0.155 A 
HETATM    7  C4  UNL     1     -18.550  19.555 -16.381  1.00  0.00     0.160 A 
HETATM    8  N3  UNL     1     -19.908  19.617 -16.462  1.00  0.00    -0.174 N 
ATOM      9  H3  UNL     1     -20.361  19.369 -17.342  1.00  0.00     0.186 HD
HETATM   10  N4  UNL     1     -17.601  19.216 -17.256  1.00  0.00    -0.274 N 
HETATM   11  C7  UNL     1     -16.439  19.343 -16.611  1.00  0.00     0.333 A 
HETATM   12  O3  UNL     1     -15.305  19.111 -17.110  1.00  0.00    -0.246 OA
HETATM   13  N6  UNL     1     -16.645  19.756 -15.347  1.00  0.00    -0.263 N 
ENDROOT
BRANCH  13  14
HETATM   14  C8  UNL     1     -15.640  20.000 -14.365  1.00  0.00     0.242 C 
HETATM   15  C9  UNL     1     -14.468  20.808 -14.926  1.00  0.00     0.117 C 
HETATM   16  C10 UNL     1     -13.283  20.517 -14.055  1.00  0.00     0.391 C 
HETATM   17  N8  UNL     1     -13.658  20.162 -12.733  1.00  0.00     0.014 N 
HETATM   18  C11 UNL     1     -14.564  18.988 -12.683  1.00  0.00     0.371 C 
ATOM     19  H82 UNL     1     -12.836  20.012 -12.149  1.00  0.00     0.286 HD
ATOM     20  H81 UNL     1     -14.067  20.959 -12.244  1.00  0.00     0.286 HD
HETATM   21  O7  UNL     1     -15.053  18.773 -13.963  1.00  0.00    -0.305 OA
BRANCH  16  22
HETATM   22  N7  UNL     1     -12.336  19.621 -14.686  1.00  0.00    -0.050 N 
ATOM     23  H73 UNL     1     -12.802  18.784 -15.039  1.00  0.00     0.276 HD
ATOM     24  H72 UNL     1     -11.999  20.006 -15.568  1.00  0.00     0.276 HD
ATOM     25  H71 UNL     1     -11.559  19.376 -14.072  1.00  0.00     0.276 HD
ENDBRANCH  16  22
BRANCH  18  26
HETATM   26  C12 UNL     1     -13.673  17.873 -12.212  1.00  0.00     0.266 C 
BRANCH  26  27
HETATM   27  O4  UNL     1     -13.040  17.159 -13.211  1.00  0.00    -0.394 OA
ATOM     28  H4  UNL     1     -12.106  17.034 -13.093  1.00  0.00     0.209 HD
ENDBRANCH  26  27
ENDBRANCH  18  26
BRANCH  18  29
HETATM   29  O5  UNL     1     -15.584  19.389 -11.853  1.00  0.00    -0.241 OA
BRANCH  29  30
HETATM   30  C13 UNL     1     -15.587  20.276 -10.835  1.00  0.00     0.376 C 
HETATM   31  N9  UNL     1     -15.663  19.945  -9.454  1.00  0.00    -0.032 NA
HETATM   32  O6  UNL     1     -15.519  21.488 -11.117  1.00  0.00    -0.242 OA
ENDBRANCH  29  30
ENDBRANCH  18  29
ENDBRANCH  13  14
BRANCH  10  33
HETATM   33  C5  UNL     1     -17.821  18.797 -18.625  1.00  0.00     0.235 C 
BRANCH  33  34
HETATM   34  C6  UNL     1     -18.542  17.499 -18.690  1.00  0.00     0.249 C 
HETATM   35  N5  UNL     1     -19.867  17.481 -19.177  1.00  0.00    -0.061 NA
HETATM   36  O2  UNL     1     -17.978  16.450 -18.320  1.00  0.00    -0.275 OA
ENDBRANCH  33  34
ENDBRANCH  10  33
BRANCH   1  37
HETATM   37  N1  UNL     1     -21.955  20.055 -15.505  1.00  0.00    -0.234 N 
ATOM     38  H12 UNL     1     -22.557  19.784 -14.727  1.00  0.00     0.174 HD
ATOM     39  H11 UNL     1     -22.347  20.385 -16.387  1.00  0.00     0.174 HD
ENDBRANCH   1  37
TORSDOF 9
ENDMDL
