MODEL 1
REMARK VINA RESULT: -9.473064157      0.000      0.000
REMARK  12 active torsions:
REMARK  status: ('A' for Active; 'I' for Inactive)
REMARK    1  A    between atoms: N1_1  and  C1_4 
REMARK    2  A    between atoms: N6_15  and  C4_16 
REMARK    3  A    between atoms: C4_16  and  C5_17 
REMARK    4  A    between atoms: C6_18  and  O1_19 
REMARK    5  A    between atoms: C7_21  and  O2_22 
REMARK    6  A    between atoms: N7_25  and  C9_26 
REMARK    7  A    between atoms: C10_29  and  N9_30 
REMARK    8  A    between atoms: N9_30  and  C11_32 
REMARK    9  A    between atoms: C11_32  and  C12_33 
REMARK   10  A    between atoms: C12_33  and  O3_34 
REMARK   11  A    between atoms: C13_38  and  N11_39 
REMARK   12  A    between atoms: N11_39  and  N12_41 
ROOT
HETATM    1  C5  UNL     1     -13.864  20.674 -12.144  1.00  0.00     0.153 C 
HETATM    2  C6  UNL     1     -14.938  21.522 -11.548  1.00  0.00     0.173 C 
HETATM    3  C7  UNL     1     -14.952  22.676 -12.603  1.00  0.00     0.167 C 
HETATM    4  C8  UNL     1     -14.851  21.895 -13.883  1.00  0.00     0.176 C 
HETATM    5  N7  UNL     1     -14.346  20.551 -13.509  1.00  0.00    -0.205 N 
ENDROOT
BRANCH   5   6
HETATM    6  C9  UNL     1     -14.389  19.450 -14.373  1.00  0.00     0.710 A 
HETATM    7  N8  UNL     1     -15.487  19.001 -15.008  1.00  0.00    -0.021 N 
HETATM    8  C10 UNL     1     -15.520  17.943 -15.831  1.00  0.00     0.707 A 
ATOM      9  H8  UNL     1     -16.361  19.503 -14.852  1.00  0.00     0.203 HD
HETATM   10  N10 UNL     1     -14.384  17.292 -16.030  1.00  0.00    -0.020 N 
HETATM   11  C13 UNL     1     -13.218  17.677 -15.426  1.00  0.00     0.725 A 
ATOM     12  H10 UNL     1     -14.378  16.482 -16.651  1.00  0.00     0.203 HD
HETATM   13  N13 UNL     1     -13.243  18.736 -14.618  1.00  0.00    -0.020 N 
ATOM     14  H13 UNL     1     -12.377  19.027 -14.164  1.00  0.00     0.203 HD
BRANCH   8  15
HETATM   15  N9  UNL     1     -16.653  17.649 -16.357  1.00  0.00    -0.223 N 
ATOM     16  H9  UNL     1     -16.948  16.674 -16.303  1.00  0.00     0.177 HD
BRANCH  15  17
HETATM   17  C11 UNL     1     -17.538  18.553 -17.008  1.00  0.00     0.164 C 
BRANCH  17  18
HETATM   18  C12 UNL     1     -18.205  17.873 -18.195  1.00  0.00     0.184 C 
BRANCH  18  19
HETATM   19  O3  UNL     1     -17.706  18.471 -19.361  1.00  0.00    -0.399 OA
ATOM     20  H3  UNL     1     -17.765  17.831 -20.060  1.00  0.00     0.209 HD
ENDBRANCH  18  19
ENDBRANCH  17  18
ENDBRANCH  15  17
ENDBRANCH   8  15
BRANCH  11  21
HETATM   21  N11 UNL     1     -12.155  17.020 -15.644  1.00  0.00    -0.138 N 
ATOM     22  H11 UNL     1     -11.738  16.496 -14.874  1.00  0.00     0.205 HD
BRANCH  21  23
HETATM   23  N12 UNL     1     -11.541  16.982 -16.869  1.00  0.00    -0.331 N 
ATOM     24 2H12 UNL     1     -11.459  16.074 -17.327  1.00  0.00     0.177 HD
ATOM     25 1H12 UNL     1     -11.171  17.814 -17.329  1.00  0.00     0.177 HD
ENDBRANCH  21  23
ENDBRANCH  11  21
ENDBRANCH   5   6
BRANCH   1  26
HETATM   26  C4  UNL     1     -13.494  19.409 -11.467  1.00  0.00     0.179 C 
BRANCH  26  27
HETATM   27  N6  UNL     1     -13.440  19.613 -10.067  1.00  0.00    -0.269 N 
HETATM   28  N5  UNL     1     -12.534  20.477  -9.555  1.00  0.00    -0.238 N 
HETATM   29  N4  UNL     1     -12.700  20.593  -8.276  1.00  0.00    -0.269 N 
ATOM     30  H5  UNL     1     -11.823  20.967 -10.098  1.00  0.00     0.208 HD
HETATM   31  C3  UNL     1     -13.734  19.801  -7.877  1.00  0.00     0.154 A 
ATOM     32  H4  UNL     1     -12.142  21.186  -7.662  1.00  0.00     0.190 HD
HETATM   33  N3  UNL     1     -14.298  19.538  -6.699  1.00  0.00    -0.335 N 
HETATM   34  C14 UNL     1     -14.168  19.195  -9.067  1.00  0.00     0.141 A 
HETATM   35  C2  UNL     1     -15.313  18.662  -6.663  1.00  0.00     0.183 A 
ATOM     36  H3  UNL     1     -13.966  19.990  -5.848  1.00  0.00     0.168 HD
HETATM   37  N2  UNL     1     -15.757  18.060  -7.763  1.00  0.00    -0.337 N 
HETATM   38  C1  UNL     1     -15.199  18.313  -8.972  1.00  0.00     0.132 A 
ATOM     39  H2  UNL     1     -16.531  17.398  -7.695  1.00  0.00     0.168 HD
BRANCH  38  40
HETATM   40  N1  UNL     1     -15.611  17.692  -9.999  1.00  0.00    -0.383 N 
ATOM     41  H12 UNL     1     -16.600  17.467 -10.106  1.00  0.00     0.157 HD
ATOM     42  H11 UNL     1     -14.955  17.449 -10.741  1.00  0.00     0.157 HD
ENDBRANCH  38  40
ENDBRANCH  26  27
ENDBRANCH   1  26
BRANCH   2  43
HETATM   43  O1  UNL     1     -16.223  20.999 -11.653  1.00  0.00    -0.391 OA
ATOM     44  H1  UNL     1     -16.703  20.949 -10.834  1.00  0.00     0.210 HD
ENDBRANCH   2  43
BRANCH   3  45
HETATM   45  O2  UNL     1     -13.802  23.407 -12.310  1.00  0.00    -0.391 OA
ATOM     46  H2  UNL     1     -13.797  24.094 -12.967  1.00  0.00     0.210 HD
ENDBRANCH   3  45
TORSDOF 12
ENDMDL
MODEL 2
REMARK VINA RESULT: -9.340280582      2.935      5.259
REMARK  12 active torsions:
REMARK  status: ('A' for Active; 'I' for Inactive)
REMARK    1  A    between atoms: N1_1  and  C1_4 
REMARK    2  A    between atoms: N6_15  and  C4_16 
REMARK    3  A    between atoms: C4_16  and  C5_17 
REMARK    4  A    between atoms: C6_18  and  O1_19 
REMARK    5  A    between atoms: C7_21  and  O2_22 
REMARK    6  A    between atoms: N7_25  and  C9_26 
REMARK    7  A    between atoms: C10_29  and  N9_30 
REMARK    8  A    between atoms: N9_30  and  C11_32 
REMARK    9  A    between atoms: C11_32  and  C12_33 
REMARK   10  A    between atoms: C12_33  and  O3_34 
REMARK   11  A    between atoms: C13_38  and  N11_39 
REMARK   12  A    between atoms: N11_39  and  N12_41 
ROOT
HETATM    1  C5  UNL     1     -14.760  18.739 -16.181  1.00  0.00     0.153 C 
HETATM    2  C6  UNL     1     -13.893  19.875 -15.751  1.00  0.00     0.173 C 
HETATM    3  C7  UNL     1     -13.408  20.358 -17.157  1.00  0.00     0.167 C 
HETATM    4  C8  UNL     1     -14.688  20.281 -17.943  1.00  0.00     0.176 C 
HETATM    5  N7  UNL     1     -15.595  19.398 -17.170  1.00  0.00    -0.205 N 
ENDROOT
BRANCH   5   6
HETATM    6  C9  UNL     1     -16.970  19.307 -17.420  1.00  0.00     0.710 A 
HETATM    7  N8  UNL     1     -17.943  19.697 -16.575  1.00  0.00    -0.021 N 
HETATM    8  C10 UNL     1     -19.257  19.603 -16.820  1.00  0.00     0.707 A 
ATOM      9  H8  UNL     1     -17.658  20.095 -15.680  1.00  0.00     0.203 HD
HETATM   10  N10 UNL     1     -19.623  19.084 -17.983  1.00  0.00    -0.020 N 
HETATM   11  C13 UNL     1     -18.703  18.660 -18.904  1.00  0.00     0.725 A 
ATOM     12  H10 UNL     1     -20.617  18.999 -18.198  1.00  0.00     0.203 HD
HETATM   13  N13 UNL     1     -17.409  18.778 -18.607  1.00  0.00    -0.020 N 
ATOM     14  H13 UNL     1     -16.719  18.463 -19.290  1.00  0.00     0.203 HD
BRANCH   8  15
HETATM   15  N9  UNL     1     -20.053  20.023 -15.905  1.00  0.00    -0.223 N 
ATOM     16  H9  UNL     1     -20.871  20.549 -16.211  1.00  0.00     0.177 HD
BRANCH  15  17
HETATM   17  C11 UNL     1     -19.903  19.824 -14.505  1.00  0.00     0.164 C 
BRANCH  17  18
HETATM   18  C12 UNL     1     -19.251  21.042 -13.867  1.00  0.00     0.184 C 
BRANCH  18  19
HETATM   19  O3  UNL     1     -19.620  21.061 -12.514  1.00  0.00    -0.399 OA
ATOM     20  H3  UNL     1     -19.016  20.498 -12.044  1.00  0.00     0.209 HD
ENDBRANCH  18  19
ENDBRANCH  17  18
ENDBRANCH  15  17
ENDBRANCH   8  15
BRANCH  11  21
HETATM   21  N11 UNL     1     -19.101  18.166 -20.003  1.00  0.00    -0.138 N 
ATOM     22  H11 UNL     1     -18.510  17.480 -20.472  1.00  0.00     0.205 HD
BRANCH  21  23
HETATM   23  N12 UNL     1     -20.291  18.514 -20.588  1.00  0.00    -0.331 N 
ATOM     24 2H12 UNL     1     -21.049  17.832 -20.555  1.00  0.00     0.177 HD
ATOM     25 1H12 UNL     1     -20.442  19.413 -21.045  1.00  0.00     0.177 HD
ENDBRANCH  21  23
ENDBRANCH  11  21
ENDBRANCH   5   6
BRANCH   1  26
HETATM   26  C4  UNL     1     -15.472  17.953 -15.146  1.00  0.00     0.179 C 
BRANCH  26  27
HETATM   27  N6  UNL     1     -14.610  17.712 -14.050  1.00  0.00    -0.269 N 
HETATM   28  N5  UNL     1     -13.639  16.776 -14.160  1.00  0.00    -0.238 N 
HETATM   29  N4  UNL     1     -12.905  16.766 -13.094  1.00  0.00    -0.269 N 
ATOM     30  H5  UNL     1     -13.504  16.167 -14.967  1.00  0.00     0.208 HD
HETATM   31  C3  UNL     1     -13.362  17.704 -12.217  1.00  0.00     0.154 A 
ATOM     32  H4  UNL     1     -12.107  16.151 -12.935  1.00  0.00     0.190 HD
HETATM   33  N3  UNL     1     -12.992  18.087 -10.996  1.00  0.00    -0.335 N 
HETATM   34  C14 UNL     1     -14.457  18.277 -12.882  1.00  0.00     0.141 A 
HETATM   35  C2  UNL     1     -13.701  19.053 -10.393  1.00  0.00     0.183 A 
ATOM     36  H3  UNL     1     -12.192  17.657 -10.532  1.00  0.00     0.168 HD
HETATM   37  N2  UNL     1     -14.748  19.624 -10.981  1.00  0.00    -0.337 N 
HETATM   38  C1  UNL     1     -15.142  19.250 -12.224  1.00  0.00     0.132 A 
ATOM     39  H2  UNL     1     -15.263  20.355 -10.490  1.00  0.00     0.168 HD
BRANCH  38  40
HETATM   40  N1  UNL     1     -16.171  19.777 -12.744  1.00  0.00    -0.383 N 
ATOM     41  H12 UNL     1     -16.111  20.687 -13.202  1.00  0.00     0.157 HD
ATOM     42  H11 UNL     1     -17.057  19.272 -12.739  1.00  0.00     0.157 HD
ENDBRANCH  38  40
ENDBRANCH  26  27
ENDBRANCH   1  26
BRANCH   2  43
HETATM   43  O1  UNL     1     -14.579  20.986 -15.269  1.00  0.00    -0.391 OA
ATOM     44  H1  UNL     1     -15.026  20.852 -14.441  1.00  0.00     0.210 HD
ENDBRANCH   2  43
BRANCH   3  45
HETATM   45  O2  UNL     1     -12.471  19.397 -17.533  1.00  0.00    -0.391 OA
ATOM     46  H2  UNL     1     -11.641  19.778 -17.274  1.00  0.00     0.210 HD
ENDBRANCH   3  45
TORSDOF 12
ENDMDL
MODEL 3
REMARK VINA RESULT: -9.337977301      2.595      4.048
REMARK  12 active torsions:
REMARK  status: ('A' for Active; 'I' for Inactive)
REMARK    1  A    between atoms: N1_1  and  C1_4 
REMARK    2  A    between atoms: N6_15  and  C4_16 
REMARK    3  A    between atoms: C4_16  and  C5_17 
REMARK    4  A    between atoms: C6_18  and  O1_19 
REMARK    5  A    between atoms: C7_21  and  O2_22 
REMARK    6  A    between atoms: N7_25  and  C9_26 
REMARK    7  A    between atoms: C10_29  and  N9_30 
REMARK    8  A    between atoms: N9_30  and  C11_32 
REMARK    9  A    between atoms: C11_32  and  C12_33 
REMARK   10  A    between atoms: C12_33  and  O3_34 
REMARK   11  A    between atoms: C13_38  and  N11_39 
REMARK   12  A    between atoms: N11_39  and  N12_41 
ROOT
HETATM    1  C5  UNL     1     -14.273  19.971 -12.576  1.00  0.00     0.153 C 
HETATM    2  C6  UNL     1     -15.570  20.419 -11.987  1.00  0.00     0.173 C 
HETATM    3  C7  UNL     1     -15.395  21.964 -12.157  1.00  0.00     0.167 C 
HETATM    4  C8  UNL     1     -14.815  22.035 -13.542  1.00  0.00     0.176 C 
HETATM    5  N7  UNL     1     -14.296  20.679 -13.844  1.00  0.00    -0.205 N 
ENDROOT
BRANCH   5   6
HETATM    6  C9  UNL     1     -13.942  20.264 -15.134  1.00  0.00     0.710 A 
HETATM    7  N8  UNL     1     -12.746  19.758 -15.489  1.00  0.00    -0.021 N 
HETATM    8  C10 UNL     1     -12.415  19.367 -16.727  1.00  0.00     0.707 A 
ATOM      9  H8  UNL     1     -12.038  19.665 -14.760  1.00  0.00     0.203 HD
HETATM   10  N10 UNL     1     -13.336  19.490 -17.672  1.00  0.00    -0.020 N 
HETATM   11  C13 UNL     1     -14.579  19.995 -17.403  1.00  0.00     0.725 A 
ATOM     12  H10 UNL     1     -13.112  19.201 -18.624  1.00  0.00     0.203 HD
HETATM   13  N13 UNL     1     -14.855  20.368 -16.154  1.00  0.00    -0.020 N 
ATOM     14  H13 UNL     1     -15.780  20.745 -15.947  1.00  0.00     0.203 HD
BRANCH   8  15
HETATM   15  N9  UNL     1     -11.229  18.905 -16.895  1.00  0.00    -0.223 N 
ATOM     16  H9  UNL     1     -11.121  18.142 -17.563  1.00  0.00     0.177 HD
BRANCH  15  17
HETATM   17  C11 UNL     1     -10.050  19.356 -16.238  1.00  0.00     0.164 C 
BRANCH  17  18
HETATM   18  C12 UNL     1      -9.121  20.037 -17.232  1.00  0.00     0.184 C 
BRANCH  18  19
HETATM   19  O3  UNL     1      -9.070  19.236 -18.383  1.00  0.00    -0.399 OA
ATOM     20  H3  UNL     1      -9.204  18.336 -18.111  1.00  0.00     0.209 HD
ENDBRANCH  18  19
ENDBRANCH  17  18
ENDBRANCH  15  17
ENDBRANCH   8  15
BRANCH  11  21
HETATM   21  N11 UNL     1     -15.427  20.098 -18.341  1.00  0.00    -0.138 N 
ATOM     22  H11 UNL     1     -15.154  20.585 -19.194  1.00  0.00     0.205 HD
BRANCH  21  23
HETATM   23  N12 UNL     1     -16.696  19.584 -18.257  1.00  0.00    -0.331 N 
ATOM     24 2H12 UNL     1     -17.134  19.558 -17.337  1.00  0.00     0.177 HD
ATOM     25 1H12 UNL     1     -17.206  19.234 -19.068  1.00  0.00     0.177 HD
ENDBRANCH  21  23
ENDBRANCH  11  21
ENDBRANCH   5   6
BRANCH   1  26
HETATM   26  C4  UNL     1     -13.984  18.519 -12.644  1.00  0.00     0.179 C 
BRANCH  26  27
HETATM   27  N6  UNL     1     -14.543  17.866 -11.519  1.00  0.00    -0.269 N 
HETATM   28  N5  UNL     1     -15.474  16.902 -11.704  1.00  0.00    -0.238 N 
HETATM   29  N4  UNL     1     -15.794  16.366 -10.570  1.00  0.00    -0.269 N 
ATOM     30  H5  UNL     1     -15.866  16.636 -12.607  1.00  0.00     0.208 HD
HETATM   31  C3  UNL     1     -15.083  16.959  -9.569  1.00  0.00     0.154 A 
ATOM     32  H4  UNL     1     -16.474  15.617 -10.445  1.00  0.00     0.190 HD
HETATM   33  N3  UNL     1     -15.042  16.805  -8.247  1.00  0.00    -0.335 N 
HETATM   34  C14 UNL     1     -14.300  17.913 -10.237  1.00  0.00     0.141 A 
HETATM   35  C2  UNL     1     -14.221  17.597  -7.542  1.00  0.00     0.183 A 
ATOM     36  H3  UNL     1     -15.620  16.104  -7.783  1.00  0.00     0.168 HD
HETATM   37  N2  UNL     1     -13.461  18.517  -8.129  1.00  0.00    -0.337 N 
HETATM   38  C1  UNL     1     -13.486  18.691  -9.473  1.00  0.00     0.132 A 
ATOM     39  H2  UNL     1     -12.850  19.102  -7.558  1.00  0.00     0.168 HD
BRANCH  38  40
HETATM   40  N1  UNL     1     -12.788  19.606 -10.004  1.00  0.00    -0.383 N 
ATOM     41  H12 UNL     1     -12.776  20.545  -9.605  1.00  0.00     0.157 HD
ATOM     42  H11 UNL     1     -12.204  19.395 -10.813  1.00  0.00     0.157 HD
ENDBRANCH  38  40
ENDBRANCH  26  27
ENDBRANCH   1  26
BRANCH   2  43
HETATM   43  O1  UNL     1     -16.691  20.153 -12.768  1.00  0.00    -0.391 OA
ATOM     44  H1  UNL     1     -17.461  19.880 -12.283  1.00  0.00     0.210 HD
ENDBRANCH   2  43
BRANCH   3  45
HETATM   45  O2  UNL     1     -14.484  22.306 -11.160  1.00  0.00    -0.391 OA
ATOM     46  H2  UNL     1     -14.989  22.854 -10.571  1.00  0.00     0.210 HD
ENDBRANCH   3  45
TORSDOF 12
ENDMDL
MODEL 4
REMARK VINA RESULT: -9.327320543      2.090      3.278
REMARK  12 active torsions:
REMARK  status: ('A' for Active; 'I' for Inactive)
REMARK    1  A    between atoms: N1_1  and  C1_4 
REMARK    2  A    between atoms: N6_15  and  C4_16 
REMARK    3  A    between atoms: C4_16  and  C5_17 
REMARK    4  A    between atoms: C6_18  and  O1_19 
REMARK    5  A    between atoms: C7_21  and  O2_22 
REMARK    6  A    between atoms: N7_25  and  C9_26 
REMARK    7  A    between atoms: C10_29  and  N9_30 
REMARK    8  A    between atoms: N9_30  and  C11_32 
REMARK    9  A    between atoms: C11_32  and  C12_33 
REMARK   10  A    between atoms: C12_33  and  O3_34 
REMARK   11  A    between atoms: C13_38  and  N11_39 
REMARK   12  A    between atoms: N11_39  and  N12_41 
ROOT
HETATM    1  C5  UNL     1     -13.655  20.859 -12.237  1.00  0.00     0.153 C 
HETATM    2  C6  UNL     1     -14.942  21.376 -11.685  1.00  0.00     0.173 C 
HETATM    3  C7  UNL     1     -15.131  22.611 -12.626  1.00  0.00     0.167 C 
HETATM    4  C8  UNL     1     -14.745  22.021 -13.954  1.00  0.00     0.176 C 
HETATM    5  N7  UNL     1     -13.979  20.788 -13.651  1.00  0.00    -0.205 N 
ENDROOT
BRANCH   5   6
HETATM    6  C9  UNL     1     -13.693  19.809 -14.611  1.00  0.00     0.710 A 
HETATM    7  N8  UNL     1     -12.505  19.640 -15.222  1.00  0.00    -0.021 N 
HETATM    8  C10 UNL     1     -12.242  18.703 -16.143  1.00  0.00     0.707 A 
ATOM      9  H8  UNL     1     -11.748  20.273 -14.964  1.00  0.00     0.203 HD
HETATM   10  N10 UNL     1     -13.228  17.883 -16.477  1.00  0.00    -0.020 N 
HETATM   11  C13 UNL     1     -14.469  17.981 -15.909  1.00  0.00     0.725 A 
ATOM     12  H10 UNL     1     -13.057  17.160 -17.176  1.00  0.00     0.203 HD
HETATM   13  N13 UNL     1     -14.675  18.932 -14.998  1.00  0.00    -0.020 N 
ATOM     14  H13 UNL     1     -15.599  19.010 -14.571  1.00  0.00     0.203 HD
BRANCH   8  15
HETATM   15  N9  UNL     1     -11.053  18.678 -16.626  1.00  0.00    -0.223 N 
ATOM     16  H9  UNL     1     -10.902  18.098 -17.451  1.00  0.00     0.177 HD
BRANCH  15  17
HETATM   17  C11 UNL     1      -9.925  19.384 -16.121  1.00  0.00     0.164 C 
BRANCH  17  18
HETATM   18  C12 UNL     1      -9.194  20.088 -17.254  1.00  0.00     0.184 C 
BRANCH  18  19
HETATM   19  O3  UNL     1      -9.109  19.188 -18.328  1.00  0.00    -0.399 OA
ATOM     20  H3  UNL     1      -9.989  19.055 -18.659  1.00  0.00     0.209 HD
ENDBRANCH  18  19
ENDBRANCH  17  18
ENDBRANCH  15  17
ENDBRANCH   8  15
BRANCH  11  21
HETATM   21  N11 UNL     1     -15.384  17.177 -16.263  1.00  0.00    -0.138 N 
ATOM     22  H11 UNL     1     -15.170  16.180 -16.296  1.00  0.00     0.205 HD
BRANCH  21  23
HETATM   23  N12 UNL     1     -16.646  17.588 -16.604  1.00  0.00    -0.331 N 
ATOM     24 2H12 UNL     1     -16.789  17.933 -17.553  1.00  0.00     0.177 HD
ATOM     25 1H12 UNL     1     -17.432  17.562 -15.954  1.00  0.00     0.177 HD
ENDBRANCH  21  23
ENDBRANCH  11  21
ENDBRANCH   5   6
BRANCH   1  26
HETATM   26  C4  UNL     1     -13.063  19.637 -11.642  1.00  0.00     0.179 C 
BRANCH  26  27
HETATM   27  N6  UNL     1     -13.160  19.696 -10.230  1.00  0.00    -0.269 N 
HETATM   28  N5  UNL     1     -12.315  20.494  -9.538  1.00  0.00    -0.238 N 
HETATM   29  N4  UNL     1     -12.617  20.481  -8.280  1.00  0.00    -0.269 N 
ATOM     30  H5  UNL     1     -11.550  21.029  -9.949  1.00  0.00     0.208 HD
HETATM   31  C3  UNL     1     -13.688  19.662  -8.077  1.00  0.00     0.154 A 
ATOM     32  H4  UNL     1     -12.129  21.002  -7.552  1.00  0.00     0.190 HD
HETATM   33  N3  UNL     1     -14.375  19.286  -6.999  1.00  0.00    -0.335 N 
HETATM   34  C14 UNL     1     -13.991  19.186  -9.362  1.00  0.00     0.141 A 
HETATM   35  C2  UNL     1     -15.387  18.422  -7.162  1.00  0.00     0.183 A 
ATOM     36  H3  UNL     1     -14.137  19.646  -6.075  1.00  0.00     0.168 HD
HETATM   37  N2  UNL     1     -15.711  17.940  -8.359  1.00  0.00    -0.337 N 
HETATM   38  C1  UNL     1     -15.026  18.309  -9.470  1.00  0.00     0.132 A 
ATOM     39  H2  UNL     1     -16.487  17.283  -8.443  1.00  0.00     0.168 HD
BRANCH  38  40
HETATM   40  N1  UNL     1     -15.324  17.801 -10.593  1.00  0.00    -0.383 N 
ATOM     41  H12 UNL     1     -16.187  18.066 -11.068  1.00  0.00     0.157 HD
ATOM     42  H11 UNL     1     -14.680  17.151 -11.042  1.00  0.00     0.157 HD
ENDBRANCH  38  40
ENDBRANCH  26  27
ENDBRANCH   1  26
BRANCH   2  43
HETATM   43  O1  UNL     1     -16.059  20.599 -11.977  1.00  0.00    -0.391 OA
ATOM     44  H1  UNL     1     -16.586  20.357 -11.224  1.00  0.00     0.210 HD
ENDBRANCH   2  43
BRANCH   3  45
HETATM   45  O2  UNL     1     -14.209  23.539 -12.145  1.00  0.00    -0.391 OA
ATOM     46  H2  UNL     1     -13.530  23.548 -12.809  1.00  0.00     0.210 HD
ENDBRANCH   3  45
TORSDOF 12
ENDMDL
MODEL 5
REMARK VINA RESULT: -9.316074369      3.257      6.429
REMARK  12 active torsions:
REMARK  status: ('A' for Active; 'I' for Inactive)
REMARK    1  A    between atoms: N1_1  and  C1_4 
REMARK    2  A    between atoms: N6_15  and  C4_16 
REMARK    3  A    between atoms: C4_16  and  C5_17 
REMARK    4  A    between atoms: C6_18  and  O1_19 
REMARK    5  A    between atoms: C7_21  and  O2_22 
REMARK    6  A    between atoms: N7_25  and  C9_26 
REMARK    7  A    between atoms: C10_29  and  N9_30 
REMARK    8  A    between atoms: N9_30  and  C11_32 
REMARK    9  A    between atoms: C11_32  and  C12_33 
REMARK   10  A    between atoms: C12_33  and  O3_34 
REMARK   11  A    between atoms: C13_38  and  N11_39 
REMARK   12  A    between atoms: N11_39  and  N12_41 
ROOT
HETATM    1  C5  UNL     1     -14.875  19.850 -13.098  1.00  0.00     0.153 C 
HETATM    2  C6  UNL     1     -14.662  20.522 -11.781  1.00  0.00     0.173 C 
HETATM    3  C7  UNL     1     -14.323  19.263 -10.918  1.00  0.00     0.167 C 
HETATM    4  C8  UNL     1     -13.410  18.515 -11.849  1.00  0.00     0.176 C 
HETATM    5  N7  UNL     1     -13.652  19.072 -13.202  1.00  0.00    -0.205 N 
ENDROOT
BRANCH   5   6
HETATM    6  C9  UNL     1     -12.799  18.842 -14.289  1.00  0.00     0.710 A 
HETATM    7  N8  UNL     1     -11.711  19.574 -14.593  1.00  0.00    -0.021 N 
HETATM    8  C10 UNL     1     -10.902  19.349 -15.637  1.00  0.00     0.707 A 
ATOM      9  H8  UNL     1     -11.485  20.359 -13.982  1.00  0.00     0.203 HD
HETATM   10  N10 UNL     1     -11.199  18.330 -16.429  1.00  0.00    -0.020 N 
HETATM   11  C13 UNL     1     -12.287  17.531 -16.198  1.00  0.00     0.725 A 
ATOM     12  H10 UNL     1     -10.602  18.134 -17.233  1.00  0.00     0.203 HD
HETATM   13  N13 UNL     1     -13.057  17.800 -15.144  1.00  0.00    -0.020 N 
ATOM     14  H13 UNL     1     -13.869  17.209 -14.967  1.00  0.00     0.203 HD
BRANCH   8  15
HETATM   15  N9  UNL     1      -9.904  20.144 -15.783  1.00  0.00    -0.223 N 
ATOM     16  H9  UNL     1      -9.530  20.575 -14.938  1.00  0.00     0.177 HD
BRANCH  15  17
HETATM   17  C11 UNL     1      -9.270  20.480 -17.012  1.00  0.00     0.164 C 
BRANCH  17  18
HETATM   18  C12 UNL     1      -8.352  19.351 -17.457  1.00  0.00     0.184 C 
BRANCH  18  19
HETATM   19  O3  UNL     1      -8.797  18.912 -18.712  1.00  0.00    -0.399 OA
ATOM     20  H3  UNL     1      -8.180  18.260 -19.023  1.00  0.00     0.209 HD
ENDBRANCH  18  19
ENDBRANCH  17  18
ENDBRANCH  15  17
ENDBRANCH   8  15
BRANCH  11  21
HETATM   21  N11 UNL     1     -12.534  16.569 -16.986  1.00  0.00    -0.138 N 
ATOM     22  H11 UNL     1     -11.889  16.390 -17.755  1.00  0.00     0.205 HD
BRANCH  21  23
HETATM   23  N12 UNL     1     -13.631  15.758 -16.849  1.00  0.00    -0.331 N 
ATOM     24 2H12 UNL     1     -13.748  15.269 -15.962  1.00  0.00     0.177 HD
ATOM     25 1H12 UNL     1     -14.319  15.628 -17.590  1.00  0.00     0.177 HD
ENDBRANCH  21  23
ENDBRANCH  11  21
ENDBRANCH   5   6
BRANCH   1  26
HETATM   26  C4  UNL     1     -15.221  20.681 -14.275  1.00  0.00     0.179 C 
BRANCH  26  27
HETATM   27  N6  UNL     1     -16.531  20.370 -14.713  1.00  0.00    -0.269 N 
HETATM   28  N5  UNL     1     -17.578  20.582 -13.883  1.00  0.00    -0.238 N 
HETATM   29  N4  UNL     1     -18.691  20.322 -14.492  1.00  0.00    -0.269 N 
ATOM     30  H5  UNL     1     -17.502  20.900 -12.917  1.00  0.00     0.208 HD
HETATM   31  C3  UNL     1     -18.429  19.921 -15.768  1.00  0.00     0.154 A 
ATOM     32  H4  UNL     1     -19.620  20.406 -14.080  1.00  0.00     0.190 HD
HETATM   33  N3  UNL     1     -19.189  19.527 -16.788  1.00  0.00    -0.335 N 
HETATM   34  C14 UNL     1     -17.029  19.968 -15.851  1.00  0.00     0.141 A 
HETATM   35  C2  UNL     1     -18.582  19.166 -17.929  1.00  0.00     0.183 A 
ATOM     36  H3  UNL     1     -20.205  19.501 -16.705  1.00  0.00     0.168 HD
HETATM   37  N2  UNL     1     -17.259  19.192 -18.055  1.00  0.00    -0.337 N 
HETATM   38  C1  UNL     1     -16.465  19.589 -17.030  1.00  0.00     0.132 A 
ATOM     39  H2  UNL     1     -16.833  18.908 -18.939  1.00  0.00     0.168 HD
BRANCH  38  40
HETATM   40  N1  UNL     1     -15.204  19.560 -17.160  1.00  0.00    -0.383 N 
ATOM     41  H12 UNL     1     -14.639  18.931 -16.590  1.00  0.00     0.157 HD
ATOM     42  H11 UNL     1     -14.754  20.143 -17.866  1.00  0.00     0.157 HD
ENDBRANCH  38  40
ENDBRANCH  26  27
ENDBRANCH   1  26
BRANCH   2  43
HETATM   43  O1  UNL     1     -13.497  21.276 -11.690  1.00  0.00    -0.391 OA
ATOM     44  H1  UNL     1     -13.393  21.756 -10.876  1.00  0.00     0.210 HD
ENDBRANCH   2  43
BRANCH   3  45
HETATM   45  O2  UNL     1     -15.557  18.641 -10.737  1.00  0.00    -0.391 OA
ATOM     46  H2  UNL     1     -15.543  18.372  -9.826  1.00  0.00     0.210 HD
ENDBRANCH   3  45
TORSDOF 12
ENDMDL
