MODEL 1
REMARK VINA RESULT: -9.940068952      0.000      0.000
REMARK  10 active torsions:
REMARK  status: ('A' for Active; 'I' for Inactive)
REMARK    1  A    between atoms: N1_1  and  N2_4 
REMARK       I    between atoms: N2_4  and  C1_6 
REMARK    2  A    between atoms: N4_8  and  N5_10 
REMARK    3  A    between atoms: C3_13  and  C4_14 
REMARK    4  A    between atoms: C5_19  and  N7_20 
REMARK    5  A    between atoms: N7_20  and  N8_21 
REMARK    6  A    between atoms: C6_24  and  O3_25 
REMARK    7  A    between atoms: O3_25  and  C7_26 
REMARK    8  A    between atoms: C10_31  and  C11_32 
REMARK    9  A    between atoms: C11_32  and  N9_33 
REMARK   10  A    between atoms: C14_40  and  O7_41 
ROOT
HETATM    1  N5  UNL     1     -16.572  19.599 -16.442  1.00  0.00    -0.301 N 
ATOM      2  H5  UNL     1     -16.327  19.817 -17.408  1.00  0.00     0.186 HD
HETATM    3  C2  UNL     1     -15.682  19.753 -15.520  1.00  0.00     0.068 C 
HETATM    4  C3  UNL     1     -14.356  20.236 -15.919  1.00  0.00     0.230 C 
HETATM    5  N6  UNL     1     -13.287  19.944 -15.031  1.00  0.00    -0.383 N 
ATOM      6  H6  UNL     1     -12.337  20.270 -15.211  1.00  0.00     0.156 HD
HETATM    7  C5  UNL     1     -13.605  19.173 -13.875  1.00  0.00     0.225 C 
HETATM    8  C6  UNL     1     -14.884  19.599 -13.185  1.00  0.00     0.203 C 
HETATM    9  C14 UNL     1     -16.070  19.426 -14.114  1.00  0.00     0.200 C 
ENDROOT
BRANCH   8  10
HETATM   10  O3  UNL     1     -15.093  18.795 -12.084  1.00  0.00    -0.335 OA
BRANCH  10  11
HETATM   11  C7  UNL     1     -14.578  18.865 -10.823  1.00  0.00     0.125 C 
HETATM   12  C8  UNL     1     -13.707  17.867 -10.460  1.00  0.00     0.123 C 
HETATM   13  C9  UNL     1     -12.643  17.911  -9.546  1.00  0.00     0.290 C 
HETATM   14  O4  UNL     1     -11.784  17.004  -9.669  1.00  0.00    -0.260 OA
HETATM   15  O5  UNL     1     -12.449  18.771  -8.601  1.00  0.00    -0.278 OA
HETATM   16  C10 UNL     1     -13.187  19.803  -8.270  1.00  0.00     0.086 C 
HETATM   17  C12 UNL     1     -14.308  20.379  -8.840  1.00  0.00     0.092 C 
HETATM   18  C13 UNL     1     -14.952  19.913  -9.997  1.00  0.00     0.207 C 
HETATM   19  O6  UNL     1     -15.989  20.498 -10.343  1.00  0.00    -0.285 OA
BRANCH  16  20
HETATM   20  C11 UNL     1     -12.711  20.483  -7.030  1.00  0.00     0.294 C 
BRANCH  20  21
HETATM   21  N9  UNL     1     -12.445  19.578  -5.955  1.00  0.00    -0.074 N 
ATOM     22  H93 UNL     1     -11.525  19.151  -6.061  1.00  0.00     0.274 HD
ATOM     23  H92 UNL     1     -12.296  20.086  -5.083  1.00  0.00     0.274 HD
ATOM     24  H91 UNL     1     -13.165  18.864  -5.841  1.00  0.00     0.274 HD
ENDBRANCH  20  21
ENDBRANCH  16  20
ENDBRANCH  10  11
ENDBRANCH   8  10
BRANCH   7  25
HETATM   25  N7  UNL     1     -13.633  17.736 -14.169  1.00  0.00    -0.120 NA
BRANCH  25  26
HETATM   26  N8  UNL     1     -12.556  17.349 -14.937  1.00  0.00    -0.346 N 
ATOM     27  H82 UNL     1     -12.011  18.000 -15.503  1.00  0.00     0.172 HD
ATOM     28  H81 UNL     1     -12.379  16.347 -14.865  1.00  0.00     0.172 HD
ENDBRANCH  25  26
ENDBRANCH   7  25
BRANCH   9  29
HETATM   29  O7  UNL     1     -16.610  18.160 -14.020  1.00  0.00    -0.387 OA
ATOM     30  H7  UNL     1     -16.351  17.731 -13.214  1.00  0.00     0.210 HD
ENDBRANCH   9  29
BRANCH   4  31
HETATM   31  C4  UNL     1     -14.030  19.793 -17.318  1.00  0.00     0.202 C 
HETATM   32  O1  UNL     1     -13.144  18.924 -17.486  1.00  0.00    -0.646 OA
HETATM   33  O2  UNL     1     -14.659  20.297 -18.424  1.00  0.00    -0.646 OA
ENDBRANCH   4  31
BRANCH   1  34
HETATM   34  N4  UNL     1     -17.854  19.147 -16.158  1.00  0.00    -0.272 N 
HETATM   35  C1  UNL     1     -18.787  19.051 -17.028  1.00  0.00     0.221 C 
HETATM   36  N2  UNL     1     -18.511  19.428 -18.364  1.00  0.00    -0.279 N 
HETATM   37  N3  UNL     1     -20.080  18.583 -16.689  1.00  0.00    -0.061 NA
ATOM     38  H2  UNL     1     -19.090  20.119 -18.840  1.00  0.00     0.189 HD
ATOM     39  H4  UNL     1     -18.064  18.874 -15.198  1.00  0.00     0.189 HD
BRANCH  36  40
HETATM   40  N1  UNL     1     -17.430  18.835 -19.015  1.00  0.00    -0.343 N 
ATOM     41  H12 UNL     1     -16.532  18.759 -18.538  1.00  0.00     0.176 HD
ATOM     42  H11 UNL     1     -17.562  18.487 -19.965  1.00  0.00     0.176 HD
ENDBRANCH  36  40
ENDBRANCH   1  34
TORSDOF 10
ENDMDL
MODEL 2
REMARK VINA RESULT: -9.882988087      4.567      8.219
REMARK  10 active torsions:
REMARK  status: ('A' for Active; 'I' for Inactive)
REMARK    1  A    between atoms: N1_1  and  N2_4 
REMARK       I    between atoms: N2_4  and  C1_6 
REMARK    2  A    between atoms: N4_8  and  N5_10 
REMARK    3  A    between atoms: C3_13  and  C4_14 
REMARK    4  A    between atoms: C5_19  and  N7_20 
REMARK    5  A    between atoms: N7_20  and  N8_21 
REMARK    6  A    between atoms: C6_24  and  O3_25 
REMARK    7  A    between atoms: O3_25  and  C7_26 
REMARK    8  A    between atoms: C10_31  and  C11_32 
REMARK    9  A    between atoms: C11_32  and  N9_33 
REMARK   10  A    between atoms: C14_40  and  O7_41 
ROOT
HETATM    1  N5  UNL     1     -24.173  18.939 -14.910  1.00  0.00    -0.301 N 
ATOM      2  H5  UNL     1     -25.136  18.943 -15.246  1.00  0.00     0.186 HD
HETATM    3  C2  UNL     1     -23.222  19.228 -15.733  1.00  0.00     0.068 C 
HETATM    4  C3  UNL     1     -23.584  19.548 -17.117  1.00  0.00     0.230 C 
HETATM    5  N6  UNL     1     -22.562  19.384 -18.090  1.00  0.00    -0.383 N 
ATOM      6  H6  UNL     1     -22.714  19.615 -19.071  1.00  0.00     0.156 HD
HETATM    7  C5  UNL     1     -21.311  18.881 -17.627  1.00  0.00     0.225 C 
HETATM    8  C6  UNL     1     -20.838  19.507 -16.331  1.00  0.00     0.203 C 
HETATM    9  C14 UNL     1     -21.821  19.214 -15.213  1.00  0.00     0.200 C 
ENDROOT
BRANCH   8  10
HETATM   10  O3  UNL     1     -19.625  18.954 -15.979  1.00  0.00    -0.335 OA
BRANCH  10  11
HETATM   11  C7  UNL     1     -18.409  19.538 -15.777  1.00  0.00     0.125 C 
HETATM   12  C8  UNL     1     -18.306  20.384 -14.701  1.00  0.00     0.123 C 
HETATM   13  C9  UNL     1     -17.182  20.688 -13.918  1.00  0.00     0.290 C 
HETATM   14  O4  UNL     1     -17.423  21.184 -12.791  1.00  0.00    -0.260 OA
HETATM   15  O5  UNL     1     -15.938  20.518 -14.225  1.00  0.00    -0.278 OA
HETATM   16  C10 UNL     1     -15.427  20.022 -15.326  1.00  0.00     0.086 C 
HETATM   17  C12 UNL     1     -15.991  19.436 -16.443  1.00  0.00     0.092 C 
HETATM   18  C13 UNL     1     -17.368  19.251 -16.646  1.00  0.00     0.207 C 
HETATM   19  O6  UNL     1     -17.722  18.771 -17.733  1.00  0.00    -0.285 OA
BRANCH  16  20
HETATM   20  C11 UNL     1     -13.938  20.116 -15.368  1.00  0.00     0.294 C 
BRANCH  20  21
HETATM   21  N9  UNL     1     -13.402  20.016 -16.690  1.00  0.00    -0.074 N 
ATOM     22  H93 UNL     1     -13.412  19.050 -17.013  1.00  0.00     0.274 HD
ATOM     23  H92 UNL     1     -14.040  20.429 -17.371  1.00  0.00     0.274 HD
ATOM     24  H91 UNL     1     -12.468  20.418 -16.778  1.00  0.00     0.274 HD
ENDBRANCH  20  21
ENDBRANCH  16  20
ENDBRANCH  10  11
ENDBRANCH   8  10
BRANCH   7  25
HETATM   25  N7  UNL     1     -21.318  17.418 -17.520  1.00  0.00    -0.120 NA
BRANCH  25  26
HETATM   26  N8  UNL     1     -20.109  16.872 -17.893  1.00  0.00    -0.346 N 
ATOM     27  H82 UNL     1     -19.457  16.452 -17.230  1.00  0.00     0.172 HD
ATOM     28  H81 UNL     1     -19.956  16.941 -18.899  1.00  0.00     0.172 HD
ENDBRANCH  25  26
ENDBRANCH   7  25
BRANCH   9  29
HETATM   29  O7  UNL     1     -21.529  18.024 -14.579  1.00  0.00    -0.387 OA
ATOM     30  H7  UNL     1     -22.170  17.821 -13.908  1.00  0.00     0.210 HD
ENDBRANCH   9  29
BRANCH   4  31
HETATM   31  C4  UNL     1     -24.833  18.814 -17.520  1.00  0.00     0.202 C 
HETATM   32  O1  UNL     1     -25.690  19.413 -18.211  1.00  0.00    -0.646 OA
HETATM   33  O2  UNL     1     -25.080  17.516 -17.167  1.00  0.00    -0.646 OA
ENDBRANCH   4  31
BRANCH   1  34
HETATM   34  N4  UNL     1     -23.924  18.623 -13.580  1.00  0.00    -0.272 N 
HETATM   35  C1  UNL     1     -24.763  18.031 -12.818  1.00  0.00     0.221 C 
HETATM   36  N2  UNL     1     -26.025  17.671 -13.348  1.00  0.00    -0.279 N 
HETATM   37  N3  UNL     1     -24.462  17.729 -11.467  1.00  0.00    -0.061 NA
ATOM     38  H2  UNL     1     -26.886  17.976 -12.893  1.00  0.00     0.189 HD
ATOM     39  H4  UNL     1     -23.018  18.879 -13.189  1.00  0.00     0.189 HD
BRANCH  36  40
HETATM   40  N1  UNL     1     -26.068  16.894 -14.504  1.00  0.00    -0.343 N 
ATOM     41  H12 UNL     1     -26.141  15.879 -14.428  1.00  0.00     0.176 HD
ATOM     42  H11 UNL     1     -26.025  17.361 -15.410  1.00  0.00     0.176 HD
ENDBRANCH  36  40
ENDBRANCH   1  34
TORSDOF 10
ENDMDL
MODEL 3
REMARK VINA RESULT: -9.646385171      2.032      3.434
REMARK  10 active torsions:
REMARK  status: ('A' for Active; 'I' for Inactive)
REMARK    1  A    between atoms: N1_1  and  N2_4 
REMARK       I    between atoms: N2_4  and  C1_6 
REMARK    2  A    between atoms: N4_8  and  N5_10 
REMARK    3  A    between atoms: C3_13  and  C4_14 
REMARK    4  A    between atoms: C5_19  and  N7_20 
REMARK    5  A    between atoms: N7_20  and  N8_21 
REMARK    6  A    between atoms: C6_24  and  O3_25 
REMARK    7  A    between atoms: O3_25  and  C7_26 
REMARK    8  A    between atoms: C10_31  and  C11_32 
REMARK    9  A    between atoms: C11_32  and  N9_33 
REMARK   10  A    between atoms: C14_40  and  O7_41 
ROOT
HETATM    1  N5  UNL     1     -14.773  17.164 -16.229  1.00  0.00    -0.301 N 
ATOM      2  H5  UNL     1     -15.301  17.033 -17.092  1.00  0.00     0.186 HD
HETATM    3  C2  UNL     1     -15.347  17.737 -15.225  1.00  0.00     0.068 C 
HETATM    4  C3  UNL     1     -16.739  18.169 -15.384  1.00  0.00     0.230 C 
HETATM    5  N6  UNL     1     -17.186  19.190 -14.503  1.00  0.00    -0.383 N 
ATOM      6  H6  UNL     1     -18.148  19.528 -14.520  1.00  0.00     0.156 HD
HETATM    7  C5  UNL     1     -16.224  19.717 -13.593  1.00  0.00     0.225 C 
HETATM    8  C6  UNL     1     -15.360  18.663 -12.932  1.00  0.00     0.203 C 
HETATM    9  C14 UNL     1     -14.549  17.915 -13.974  1.00  0.00     0.200 C 
ENDROOT
BRANCH   8  10
HETATM   10  O3  UNL     1     -14.473  19.279 -12.074  1.00  0.00    -0.335 OA
BRANCH  10  11
HETATM   11  C7  UNL     1     -14.200  19.042 -10.759  1.00  0.00     0.125 C 
HETATM   12  C8  UNL     1     -13.419  17.947 -10.483  1.00  0.00     0.123 C 
HETATM   13  C9  UNL     1     -12.542  17.735  -9.408  1.00  0.00     0.290 C 
HETATM   14  O4  UNL     1     -11.682  16.837  -9.579  1.00  0.00    -0.260 OA
HETATM   15  O5  UNL     1     -12.519  18.353  -8.274  1.00  0.00    -0.278 OA
HETATM   16  C10 UNL     1     -13.298  19.321  -7.854  1.00  0.00     0.086 C 
HETATM   17  C12 UNL     1     -14.290  20.064  -8.468  1.00  0.00     0.092 C 
HETATM   18  C13 UNL     1     -14.712  19.898  -9.797  1.00  0.00     0.207 C 
HETATM   19  O6  UNL     1     -15.662  20.596 -10.181  1.00  0.00    -0.285 OA
BRANCH  16  20
HETATM   20  C11 UNL     1     -13.054  19.685  -6.427  1.00  0.00     0.294 C 
BRANCH  20  21
HETATM   21  N9  UNL     1     -12.410  18.649  -5.682  1.00  0.00    -0.074 N 
ATOM     22  H93 UNL     1     -11.398  18.701  -5.789  1.00  0.00     0.274 HD
ATOM     23  H92 UNL     1     -12.483  18.825  -4.679  1.00  0.00     0.274 HD
ATOM     24  H91 UNL     1     -12.750  17.715  -5.911  1.00  0.00     0.274 HD
ENDBRANCH  20  21
ENDBRANCH  16  20
ENDBRANCH  10  11
ENDBRANCH   8  10
BRANCH   7  25
HETATM   25  N7  UNL     1     -15.390  20.749 -14.219  1.00  0.00    -0.120 NA
BRANCH  25  26
HETATM   26  N8  UNL     1     -15.070  21.756 -13.333  1.00  0.00    -0.346 N 
ATOM     27  H82 UNL     1     -14.134  21.886 -12.950  1.00  0.00     0.172 HD
ATOM     28  H81 UNL     1     -15.877  22.341 -13.117  1.00  0.00     0.172 HD
ENDBRANCH  25  26
ENDBRANCH   7  25
BRANCH   9  29
HETATM   29  O7  UNL     1     -13.346  18.540 -14.227  1.00  0.00    -0.387 OA
ATOM     30  H7  UNL     1     -12.775  17.994 -14.754  1.00  0.00     0.210 HD
ENDBRANCH   9  29
BRANCH   4  31
HETATM   31  C4  UNL     1     -17.019  18.534 -16.816  1.00  0.00     0.202 C 
HETATM   32  O1  UNL     1     -17.782  17.802 -17.488  1.00  0.00    -0.646 OA
HETATM   33  O2  UNL     1     -16.478  19.633 -17.423  1.00  0.00    -0.646 OA
ENDBRANCH   4  31
BRANCH   1  34
HETATM   34  N4  UNL     1     -13.458  16.721 -16.170  1.00  0.00    -0.272 N 
HETATM   35  C1  UNL     1     -12.480  17.307 -16.750  1.00  0.00     0.221 C 
HETATM   36  N2  UNL     1     -12.740  18.477 -17.502  1.00  0.00    -0.279 N 
HETATM   37  N3  UNL     1     -11.154  16.816 -16.659  1.00  0.00    -0.061 NA
ATOM     38  H2  UNL     1     -12.449  18.543 -18.478  1.00  0.00     0.189 HD
ATOM     39  H4  UNL     1     -13.260  15.878 -15.631  1.00  0.00     0.189 HD
BRANCH  36  40
HETATM   40  N1  UNL     1     -13.401  19.537 -16.883  1.00  0.00    -0.343 N 
ATOM     41  H12 UNL     1     -13.366  19.630 -15.868  1.00  0.00     0.176 HD
ATOM     42  H11 UNL     1     -13.910  20.202 -17.465  1.00  0.00     0.176 HD
ENDBRANCH  36  40
ENDBRANCH   1  34
TORSDOF 10
ENDMDL
MODEL 4
REMARK VINA RESULT: -9.603424336      3.834      5.392
REMARK  10 active torsions:
REMARK  status: ('A' for Active; 'I' for Inactive)
REMARK    1  A    between atoms: N1_1  and  N2_4 
REMARK       I    between atoms: N2_4  and  C1_6 
REMARK    2  A    between atoms: N4_8  and  N5_10 
REMARK    3  A    between atoms: C3_13  and  C4_14 
REMARK    4  A    between atoms: C5_19  and  N7_20 
REMARK    5  A    between atoms: N7_20  and  N8_21 
REMARK    6  A    between atoms: C6_24  and  O3_25 
REMARK    7  A    between atoms: O3_25  and  C7_26 
REMARK    8  A    between atoms: C10_31  and  C11_32 
REMARK    9  A    between atoms: C11_32  and  N9_33 
REMARK   10  A    between atoms: C14_40  and  O7_41 
ROOT
HETATM    1  N5  UNL     1     -21.639  19.437 -17.229  1.00  0.00    -0.301 N 
ATOM      2  H5  UNL     1     -22.128  19.278 -18.109  1.00  0.00     0.186 HD
HETATM    3  C2  UNL     1     -20.354  19.560 -17.240  1.00  0.00     0.068 C 
HETATM    4  C3  UNL     1     -19.666  19.464 -18.531  1.00  0.00     0.230 C 
HETATM    5  N6  UNL     1     -18.289  19.118 -18.485  1.00  0.00    -0.383 N 
ATOM      6  H6  UNL     1     -17.723  19.062 -19.332  1.00  0.00     0.156 HD
HETATM    7  C5  UNL     1     -17.736  18.854 -17.199  1.00  0.00     0.225 C 
HETATM    8  C6  UNL     1     -18.161  19.842 -16.132  1.00  0.00     0.203 C 
HETATM    9  C14 UNL     1     -19.664  19.792 -15.934  1.00  0.00     0.200 C 
ENDROOT
BRANCH   8  10
HETATM   10  O3  UNL     1     -17.569  19.498 -14.935  1.00  0.00    -0.335 OA
BRANCH  10  11
HETATM   11  C7  UNL     1     -16.518  20.059 -14.271  1.00  0.00     0.125 C 
HETATM   12  C8  UNL     1     -15.264  19.641 -14.642  1.00  0.00     0.123 C 
HETATM   13  C9  UNL     1     -14.048  20.339 -14.591  1.00  0.00     0.290 C 
HETATM   14  O4  UNL     1     -13.132  19.888 -15.321  1.00  0.00    -0.260 OA
HETATM   15  O5  UNL     1     -13.767  21.384 -13.884  1.00  0.00    -0.278 OA
HETATM   16  C10 UNL     1     -14.539  22.042 -13.054  1.00  0.00     0.086 C 
HETATM   17  C12 UNL     1     -15.881  21.938 -12.735  1.00  0.00     0.092 C 
HETATM   18  C13 UNL     1     -16.767  20.998 -13.282  1.00  0.00     0.207 C 
HETATM   19  O6  UNL     1     -17.926  20.987 -12.841  1.00  0.00    -0.285 OA
BRANCH  16  20
HETATM   20  C11 UNL     1     -13.814  23.116 -12.314  1.00  0.00     0.294 C 
BRANCH  20  21
HETATM   21  N9  UNL     1     -12.504  22.727 -11.893  1.00  0.00    -0.074 N 
ATOM     22  H93 UNL     1     -12.456  21.720 -11.744  1.00  0.00     0.274 HD
ATOM     23  H92 UNL     1     -11.836  22.816 -12.658  1.00  0.00     0.274 HD
ATOM     24  H91 UNL     1     -12.179  23.231 -11.067  1.00  0.00     0.274 HD
ENDBRANCH  20  21
ENDBRANCH  16  20
ENDBRANCH  10  11
ENDBRANCH   8  10
BRANCH   7  25
HETATM   25  N7  UNL     1     -18.002  17.480 -16.763  1.00  0.00    -0.120 NA
BRANCH  25  26
HETATM   26  N8  UNL     1     -17.875  16.579 -17.799  1.00  0.00    -0.346 N 
ATOM     27  H82 UNL     1     -17.070  15.962 -17.907  1.00  0.00     0.172 HD
ATOM     28  H81 UNL     1     -18.675  16.612 -18.430  1.00  0.00     0.172 HD
ENDBRANCH  25  26
ENDBRANCH   7  25
BRANCH   9  29
HETATM   29  O7  UNL     1     -20.023  18.845 -14.998  1.00  0.00    -0.387 OA
ATOM     30  H7  UNL     1     -19.338  18.199 -14.877  1.00  0.00     0.210 HD
ENDBRANCH   9  29
BRANCH   4  31
HETATM   31  C4  UNL     1     -20.418  18.558 -19.465  1.00  0.00     0.202 C 
HETATM   32  O1  UNL     1     -21.069  19.067 -20.407  1.00  0.00    -0.646 OA
HETATM   33  O2  UNL     1     -20.426  17.196 -19.336  1.00  0.00    -0.646 OA
ENDBRANCH   4  31
BRANCH   1  34
HETATM   34  N4  UNL     1     -22.375  19.514 -16.053  1.00  0.00    -0.272 N 
HETATM   35  C1  UNL     1     -23.118  18.570 -15.612  1.00  0.00     0.221 C 
HETATM   36  N2  UNL     1     -23.206  17.371 -16.358  1.00  0.00    -0.279 N 
HETATM   37  N3  UNL     1     -23.850  18.697 -14.406  1.00  0.00    -0.061 NA
ATOM     38  H2  UNL     1     -24.112  17.006 -16.651  1.00  0.00     0.189 HD
ATOM     39  H4  UNL     1     -22.319  20.374 -15.509  1.00  0.00     0.189 HD
BRANCH  36  40
HETATM   40  N1  UNL     1     -22.029  16.699 -16.685  1.00  0.00    -0.343 N 
ATOM     41  H12 UNL     1     -21.247  16.701 -16.030  1.00  0.00     0.176 HD
ATOM     42  H11 UNL     1     -21.975  16.215 -17.582  1.00  0.00     0.176 HD
ENDBRANCH  36  40
ENDBRANCH   1  34
TORSDOF 10
ENDMDL
MODEL 5
REMARK VINA RESULT: -9.540537437      1.375      1.814
REMARK  10 active torsions:
REMARK  status: ('A' for Active; 'I' for Inactive)
REMARK    1  A    between atoms: N1_1  and  N2_4 
REMARK       I    between atoms: N2_4  and  C1_6 
REMARK    2  A    between atoms: N4_8  and  N5_10 
REMARK    3  A    between atoms: C3_13  and  C4_14 
REMARK    4  A    between atoms: C5_19  and  N7_20 
REMARK    5  A    between atoms: N7_20  and  N8_21 
REMARK    6  A    between atoms: C6_24  and  O3_25 
REMARK    7  A    between atoms: O3_25  and  C7_26 
REMARK    8  A    between atoms: C10_31  and  C11_32 
REMARK    9  A    between atoms: C11_32  and  N9_33 
REMARK   10  A    between atoms: C14_40  and  O7_41 
ROOT
HETATM    1  N5  UNL     1     -16.607  19.564 -16.445  1.00  0.00    -0.301 N 
ATOM      2  H5  UNL     1     -16.383  19.879 -17.388  1.00  0.00     0.186 HD
HETATM    3  C2  UNL     1     -15.705  19.647 -15.525  1.00  0.00     0.068 C 
HETATM    4  C3  UNL     1     -14.397  20.196 -15.895  1.00  0.00     0.230 C 
HETATM    5  N6  UNL     1     -13.306  19.843 -15.055  1.00  0.00    -0.383 N 
ATOM      6  H6  UNL     1     -12.367  20.206 -15.216  1.00  0.00     0.156 HD
HETATM    7  C5  UNL     1     -13.590  18.957 -13.976  1.00  0.00     0.225 C 
HETATM    8  C6  UNL     1     -14.865  19.286 -13.228  1.00  0.00     0.203 C 
HETATM    9  C14 UNL     1     -16.063  19.177 -14.153  1.00  0.00     0.200 C 
ENDROOT
BRANCH   8  10
HETATM   10  O3  UNL     1     -15.039  18.374 -12.208  1.00  0.00    -0.335 OA
BRANCH  10  11
HETATM   11  C7  UNL     1     -14.675  18.431 -10.895  1.00  0.00     0.125 C 
HETATM   12  C8  UNL     1     -13.979  19.546 -10.499  1.00  0.00     0.123 C 
HETATM   13  C9  UNL     1     -13.940  20.164  -9.240  1.00  0.00     0.290 C 
HETATM   14  O4  UNL     1     -13.541  21.354  -9.231  1.00  0.00    -0.260 OA
HETATM   15  O5  UNL     1     -14.263  19.651  -8.099  1.00  0.00    -0.278 OA
HETATM   16  C10 UNL     1     -14.707  18.444  -7.840  1.00  0.00     0.086 C 
HETATM   17  C12 UNL     1     -15.072  17.384  -8.649  1.00  0.00     0.092 C 
HETATM   18  C13 UNL     1     -15.020  17.386 -10.051  1.00  0.00     0.207 C 
HETATM   19  O6  UNL     1     -15.316  16.331 -10.632  1.00  0.00    -0.285 OA
BRANCH  16  20
HETATM   20  C11 UNL     1     -14.839  18.175  -6.378  1.00  0.00     0.294 C 
BRANCH  20  21
HETATM   21  N9  UNL     1     -15.953  18.841  -5.779  1.00  0.00    -0.074 N 
ATOM     22  H93 UNL     1     -15.749  19.829  -5.634  1.00  0.00     0.274 HD
ATOM     23  H92 UNL     1     -16.725  18.924  -6.441  1.00  0.00     0.274 HD
ATOM     24  H91 UNL     1     -16.265  18.405  -4.911  1.00  0.00     0.274 HD
ENDBRANCH  20  21
ENDBRANCH  16  20
ENDBRANCH  10  11
ENDBRANCH   8  10
BRANCH   7  25
HETATM   25  N7  UNL     1     -13.593  17.555 -14.407  1.00  0.00    -0.120 NA
BRANCH  25  26
HETATM   26  N8  UNL     1     -12.498  17.258 -15.191  1.00  0.00    -0.346 N 
ATOM     27  H82 UNL     1     -11.639  17.808 -15.182  1.00  0.00     0.172 HD
ATOM     28  H81 UNL     1     -12.657  16.432 -15.767  1.00  0.00     0.172 HD
ENDBRANCH  25  26
ENDBRANCH   7  25
BRANCH   9  29
HETATM   29  O7  UNL     1     -16.574  17.896 -14.174  1.00  0.00    -0.387 OA
ATOM     30  H7  UNL     1     -17.499  17.894 -14.389  1.00  0.00     0.210 HD
ENDBRANCH   9  29
BRANCH   4  31
HETATM   31  C4  UNL     1     -14.085  19.898 -17.335  1.00  0.00     0.202 C 
HETATM   32  O1  UNL     1     -13.152  19.105 -17.601  1.00  0.00    -0.646 OA
HETATM   33  O2  UNL     1     -14.776  20.455 -18.376  1.00  0.00    -0.646 OA
ENDBRANCH   4  31
BRANCH   1  34
HETATM   34  N4  UNL     1     -17.875  19.057 -16.187  1.00  0.00    -0.272 N 
HETATM   35  C1  UNL     1     -18.796  18.956 -17.069  1.00  0.00     0.221 C 
HETATM   36  N2  UNL     1     -18.522  19.385 -18.389  1.00  0.00    -0.279 N 
HETATM   37  N3  UNL     1     -20.075  18.432 -16.757  1.00  0.00    -0.061 NA
ATOM     38  H2  UNL     1     -19.122  20.070 -18.849  1.00  0.00     0.189 HD
ATOM     39  H4  UNL     1     -18.083  18.746 -15.238  1.00  0.00     0.189 HD
BRANCH  36  40
HETATM   40  N1  UNL     1     -17.415  18.852 -19.049  1.00  0.00    -0.343 N 
ATOM     41  H12 UNL     1     -17.321  17.840 -19.140  1.00  0.00     0.176 HD
ATOM     42  H11 UNL     1     -16.718  19.492 -19.429  1.00  0.00     0.176 HD
ENDBRANCH  36  40
ENDBRANCH   1  34
TORSDOF 10
ENDMDL
