MODEL 1
REMARK VINA RESULT: -4.606316809      0.000      0.000
REMARK  2 active torsions:
REMARK  status: ('A' for Active; 'I' for Inactive)
REMARK    1  A    between atoms: N1_1  and  C1_4 
REMARK    2  A    between atoms: N4_13  and  C5_14 
ROOT
HETATM    1  C1  UNL     1     -44.592  17.197  -7.634  1.00  0.00     0.680 A 
HETATM    2  N2  UNL     1     -43.356  17.704  -7.481  1.00  0.00    -0.154 N 
ATOM      3  H2  UNL     1     -43.255  18.702  -7.292  1.00  0.00     0.187 HD
HETATM    4  C2  UNL     1     -42.254  16.948  -7.565  1.00  0.00     0.290 A 
HETATM    5  O1  UNL     1     -41.092  17.388  -7.427  1.00  0.00    -0.265 OA
HETATM    6  C3  UNL     1     -42.402  15.605  -7.820  1.00  0.00     0.148 A 
HETATM    7  N3  UNL     1     -41.524  14.593  -7.963  1.00  0.00    -0.344 N 
ATOM      8  H3  UNL     1     -40.511  14.691  -7.895  1.00  0.00     0.167 HD
HETATM    9  C4  UNL     1     -42.163  13.444  -8.205  1.00  0.00     0.193 A 
HETATM   10  N4  UNL     1     -43.496  13.740  -8.216  1.00  0.00    -0.269 N 
HETATM   11  C6  UNL     1     -43.676  15.051  -7.984  1.00  0.00     0.163 A 
HETATM   12  N5  UNL     1     -44.732  15.884  -7.883  1.00  0.00    -0.174 N 
ATOM     13  H5  UNL     1     -45.672  15.503  -8.000  1.00  0.00     0.186 HD
ENDROOT
BRANCH   1  14
HETATM   14  N1  UNL     1     -45.610  18.007  -7.535  1.00  0.00    -0.234 N 
ATOM     15  H12 UNL     1     -46.305  18.110  -8.274  1.00  0.00     0.174 HD
ATOM     16  H11 UNL     1     -45.707  18.558  -6.683  1.00  0.00     0.174 HD
ENDBRANCH   1  14
BRANCH  10  17
HETATM   17  C5  UNL     1     -44.545  12.800  -8.441  1.00  0.00     0.362 C 
HETATM   18  O2  UNL     1     -45.566  13.079  -9.107  1.00  0.00    -0.283 OA
ENDBRANCH  10  17
TORSDOF 2
ENDMDL
MODEL 2
REMARK VINA RESULT: -4.562890589      7.731      8.961
REMARK  2 active torsions:
REMARK  status: ('A' for Active; 'I' for Inactive)
REMARK    1  A    between atoms: N1_1  and  C1_4 
REMARK    2  A    between atoms: N4_13  and  C5_14 
ROOT
HETATM    1  C1  UNL     1     -49.184  11.669 -11.285  1.00  0.00     0.680 A 
HETATM    2  N2  UNL     1     -49.334  10.765 -12.269  1.00  0.00    -0.154 N 
ATOM      3  H2  UNL     1     -49.357  11.091 -13.236  1.00  0.00     0.187 HD
HETATM    4  C2  UNL     1     -49.452   9.453 -12.028  1.00  0.00     0.290 A 
HETATM    5  O1  UNL     1     -49.592   8.587 -12.920  1.00  0.00    -0.265 OA
HETATM    6  C3  UNL     1     -49.420   9.025 -10.721  1.00  0.00     0.148 A 
HETATM    7  N3  UNL     1     -49.510   7.808 -10.150  1.00  0.00    -0.344 N 
ATOM      8  H3  UNL     1     -49.628   6.933 -10.662  1.00  0.00     0.167 HD
HETATM    9  C4  UNL     1     -49.422   7.904  -8.819  1.00  0.00     0.193 A 
HETATM   10  N4  UNL     1     -49.271   9.232  -8.539  1.00  0.00    -0.269 N 
HETATM   11  C6  UNL     1     -49.266   9.944  -9.678  1.00  0.00     0.163 A 
HETATM   12  N5  UNL     1     -49.153  11.246 -10.010  1.00  0.00    -0.174 N 
ATOM     13  H5  UNL     1     -49.041  11.935  -9.266  1.00  0.00     0.186 HD
ENDROOT
BRANCH   1  14
HETATM   14  N1  UNL     1     -49.076  12.927 -11.612  1.00  0.00    -0.234 N 
ATOM     15  H12 UNL     1     -48.419  13.257 -12.319  1.00  0.00     0.174 HD
ATOM     16  H11 UNL     1     -49.674  13.603 -11.137  1.00  0.00     0.174 HD
ENDBRANCH   1  14
BRANCH  10  17
HETATM   17  C5  UNL     1     -49.139   9.786  -7.230  1.00  0.00     0.362 C 
HETATM   18  O2  UNL     1     -48.819  10.979  -7.036  1.00  0.00    -0.283 OA
ENDBRANCH  10  17
TORSDOF 2
ENDMDL
MODEL 3
REMARK VINA RESULT: -4.509155031      1.919      4.853
REMARK  2 active torsions:
REMARK  status: ('A' for Active; 'I' for Inactive)
REMARK    1  A    between atoms: N1_1  and  C1_4 
REMARK    2  A    between atoms: N4_13  and  C5_14 
ROOT
HETATM    1  C1  UNL     1     -42.167  14.903  -8.185  1.00  0.00     0.680 A 
HETATM    2  N2  UNL     1     -43.485  15.092  -7.994  1.00  0.00    -0.154 N 
ATOM      3  H2  UNL     1     -44.114  14.295  -8.090  1.00  0.00     0.187 HD
HETATM    4  C2  UNL     1     -44.001  16.288  -7.684  1.00  0.00     0.290 A 
HETATM    5  O1  UNL     1     -45.220  16.497  -7.500  1.00  0.00    -0.265 OA
HETATM    6  C3  UNL     1     -43.144  17.356  -7.558  1.00  0.00     0.148 A 
HETATM    7  N3  UNL     1     -43.333  18.657  -7.263  1.00  0.00    -0.344 N 
ATOM      8  H3  UNL     1     -44.240  19.082  -7.069  1.00  0.00     0.167 HD
HETATM    9  C4  UNL     1     -42.168  19.314  -7.259  1.00  0.00     0.193 A 
HETATM   10  N4  UNL     1     -41.207  18.393  -7.562  1.00  0.00    -0.269 N 
HETATM   11  C6  UNL     1     -41.769  17.188  -7.751  1.00  0.00     0.163 A 
HETATM   12  N5  UNL     1     -41.334  15.950  -8.061  1.00  0.00    -0.174 N 
ATOM     13  H5  UNL     1     -40.334  15.802  -8.208  1.00  0.00     0.186 HD
ENDROOT
BRANCH   1  14
HETATM   14  N1  UNL     1     -41.751  13.704  -8.485  1.00  0.00    -0.234 N 
ATOM     15  H12 UNL     1     -41.503  13.014  -7.775  1.00  0.00     0.174 HD
ATOM     16  H11 UNL     1     -41.672  13.452  -9.470  1.00  0.00     0.174 HD
ENDBRANCH   1  14
BRANCH  10  17
HETATM   17  C5  UNL     1     -39.810  18.666  -7.666  1.00  0.00     0.362 C 
HETATM   18  O2  UNL     1     -38.944  17.766  -7.617  1.00  0.00    -0.283 OA
ENDBRANCH  10  17
TORSDOF 2
ENDMDL
MODEL 4
REMARK VINA RESULT: -4.427908438      3.393      5.181
REMARK  2 active torsions:
REMARK  status: ('A' for Active; 'I' for Inactive)
REMARK    1  A    between atoms: N1_1  and  C1_4 
REMARK    2  A    between atoms: N4_13  and  C5_14 
ROOT
HETATM    1  C1  UNL     1     -47.998  12.056  -7.308  1.00  0.00     0.680 A 
HETATM    2  N2  UNL     1     -48.777  13.135  -7.113  1.00  0.00    -0.154 N 
ATOM      3  H2  UNL     1     -49.748  12.995  -6.832  1.00  0.00     0.187 HD
HETATM    4  C2  UNL     1     -48.326  14.386  -7.274  1.00  0.00     0.290 A 
HETATM    5  O1  UNL     1     -49.024  15.409  -7.101  1.00  0.00    -0.265 OA
HETATM    6  C3  UNL     1     -47.016  14.562  -7.654  1.00  0.00     0.148 A 
HETATM    7  N3  UNL     1     -46.269  15.657  -7.896  1.00  0.00    -0.344 N 
ATOM      8  H3  UNL     1     -46.605  16.617  -7.824  1.00  0.00     0.167 HD
HETATM    9  C4  UNL     1     -45.025  15.311  -8.243  1.00  0.00     0.193 A 
HETATM   10  N4  UNL     1     -44.984  13.946  -8.220  1.00  0.00    -0.269 N 
HETATM   11  C6  UNL     1     -46.184  13.458  -7.864  1.00  0.00     0.163 A 
HETATM   12  N5  UNL     1     -46.719  12.234  -7.679  1.00  0.00    -0.174 N 
ATOM     13  H5  UNL     1     -46.132  11.413  -7.827  1.00  0.00     0.186 HD
ENDROOT
BRANCH   1  14
HETATM   14  N1  UNL     1     -48.521  10.875  -7.128  1.00  0.00    -0.234 N 
ATOM     15  H12 UNL     1     -49.426  10.737  -6.678  1.00  0.00     0.174 HD
ATOM     16  H11 UNL     1     -47.999  10.061  -7.451  1.00  0.00     0.174 HD
ENDBRANCH   1  14
BRANCH  10  17
HETATM   17  C5  UNL     1     -43.839  13.153  -8.527  1.00  0.00     0.362 C 
HETATM   18  O2  UNL     1     -43.873  12.219  -9.358  1.00  0.00    -0.283 OA
ENDBRANCH  10  17
TORSDOF 2
ENDMDL
MODEL 5
REMARK VINA RESULT: -4.426823728      2.221      4.977
REMARK  2 active torsions:
REMARK  status: ('A' for Active; 'I' for Inactive)
REMARK    1  A    between atoms: N1_1  and  C1_4 
REMARK    2  A    between atoms: N4_13  and  C5_14 
ROOT
HETATM    1  C1  UNL     1     -42.065  15.027  -8.174  1.00  0.00     0.680 A 
HETATM    2  N2  UNL     1     -43.213  15.184  -8.856  1.00  0.00    -0.154 N 
ATOM      3  H2  UNL     1     -43.794  14.364  -9.035  1.00  0.00     0.187 HD
HETATM    4  C2  UNL     1     -43.621  16.376  -9.310  1.00  0.00     0.290 A 
HETATM    5  O1  UNL     1     -44.683  16.556  -9.947  1.00  0.00    -0.265 OA
HETATM    6  C3  UNL     1     -42.829  17.473  -9.065  1.00  0.00     0.148 A 
HETATM    7  N3  UNL     1     -42.947  18.779  -9.375  1.00  0.00    -0.344 N 
ATOM      8  H3  UNL     1     -43.726  19.185  -9.893  1.00  0.00     0.167 HD
HETATM    9  C4  UNL     1     -41.901  19.470  -8.909  1.00  0.00     0.193 A 
HETATM   10  N4  UNL     1     -41.092  18.567  -8.281  1.00  0.00    -0.269 N 
HETATM   11  C6  UNL     1     -41.630  17.338  -8.358  1.00  0.00     0.163 A 
HETATM   12  N5  UNL     1     -41.295  16.102  -7.937  1.00  0.00    -0.174 N 
ATOM     13  H5  UNL     1     -40.424  15.978  -7.420  1.00  0.00     0.186 HD
ENDROOT
BRANCH   1  14
HETATM   14  N1  UNL     1     -41.745  13.829  -7.769  1.00  0.00    -0.234 N 
ATOM     15  H12 UNL     1     -40.968  13.652  -7.132  1.00  0.00     0.174 HD
ATOM     16  H11 UNL     1     -42.297  13.041  -8.108  1.00  0.00     0.174 HD
ENDBRANCH   1  14
BRANCH  10  17
HETATM   17  C5  UNL     1     -39.857  18.877  -7.637  1.00  0.00     0.362 C 
HETATM   18  O2  UNL     1     -38.940  18.038  -7.504  1.00  0.00    -0.283 OA
ENDBRANCH  10  17
TORSDOF 2
ENDMDL
