MODEL 1
REMARK VINA RESULT: -4.911801484      0.000      0.000
REMARK  2 active torsions:
REMARK  status: ('A' for Active; 'I' for Inactive)
REMARK    1  A    between atoms: N1_1  and  C1_5 
REMARK    2  A    between atoms: C1_5  and  C2_6 
REMARK       I    between atoms: C2_6  and  N2_8 
ROOT
HETATM    1  C2  UNL     1     -44.673  13.654  -8.516  1.00  0.00     0.259 C 
HETATM    2  O1  UNL     1     -44.308  12.577  -9.133  1.00  0.00    -0.271 OA
HETATM    3  N2  UNL     1     -43.661  14.609  -8.242  1.00  0.00    -0.213 N 
HETATM    4  C3  UNL     1     -42.334  14.472  -8.473  1.00  0.00     0.336 A 
HETATM    5  O2  UNL     1     -41.840  13.411  -8.946  1.00  0.00    -0.246 OA
HETATM    6  N3  UNL     1     -41.664  15.575  -8.138  1.00  0.00    -0.291 N 
ATOM      7  H3  UNL     1     -40.657  15.724  -8.214  1.00  0.00     0.172 HD
HETATM    8  C4  UNL     1     -42.571  16.450  -7.681  1.00  0.00     0.156 A 
HETATM    9  N4  UNL     1     -42.666  17.693  -7.201  1.00  0.00    -0.335 N 
ATOM     10  H4  UNL     1     -41.900  18.350  -7.052  1.00  0.00     0.168 HD
HETATM   11  C5  UNL     1     -43.962  17.908  -6.955  1.00  0.00     0.183 A 
HETATM   12  N5  UNL     1     -44.663  16.792  -7.284  1.00  0.00    -0.335 N 
ATOM     13  H5  UNL     1     -45.673  16.680  -7.197  1.00  0.00     0.168 HD
HETATM   14  C6  UNL     1     -43.812  15.859  -7.742  1.00  0.00     0.164 A 
ENDROOT
BRANCH   1  15
HETATM   15  C1  UNL     1     -46.078  13.755  -8.173  1.00  0.00     0.333 C 
BRANCH  15  16
HETATM   16  N1  UNL     1     -46.483  12.763  -7.197  1.00  0.00    -0.071 N 
ATOM     17  H13 UNL     1     -46.317  11.818  -7.543  1.00  0.00     0.274 HD
ATOM     18  H12 UNL     1     -45.851  12.757  -6.396  1.00  0.00     0.274 HD
ATOM     19  H11 UNL     1     -47.451  12.881  -6.900  1.00  0.00     0.274 HD
ENDBRANCH  15  16
ENDBRANCH   1  15
TORSDOF 2
ENDMDL
MODEL 2
REMARK VINA RESULT: -4.855677730      2.067      3.718
REMARK  2 active torsions:
REMARK  status: ('A' for Active; 'I' for Inactive)
REMARK    1  A    between atoms: N1_1  and  C1_5 
REMARK    2  A    between atoms: C1_5  and  C2_6 
REMARK       I    between atoms: C2_6  and  N2_8 
ROOT
HETATM    1  C2  UNL     1     -43.747  17.009  -7.557  1.00  0.00     0.259 C 
HETATM    2  O1  UNL     1     -42.803  17.832  -7.233  1.00  0.00    -0.271 OA
HETATM    3  N2  UNL     1     -43.364  15.672  -7.836  1.00  0.00    -0.213 N 
HETATM    4  C3  UNL     1     -42.102  15.187  -7.893  1.00  0.00     0.336 A 
HETATM    5  O2  UNL     1     -41.090  15.924  -7.730  1.00  0.00    -0.246 OA
HETATM    6  N3  UNL     1     -42.093  13.876  -8.138  1.00  0.00    -0.291 N 
ATOM      7  H3  UNL     1     -41.271  13.279  -8.229  1.00  0.00     0.172 HD
HETATM    8  C4  UNL     1     -43.374  13.498  -8.241  1.00  0.00     0.156 A 
HETATM    9  N4  UNL     1     -44.124  12.412  -8.453  1.00  0.00    -0.335 N 
ATOM     10  H4  UNL     1     -43.789  11.463  -8.620  1.00  0.00     0.168 HD
HETATM   11  C5  UNL     1     -45.397  12.814  -8.402  1.00  0.00     0.183 A 
HETATM   12  N5  UNL     1     -45.429  14.150  -8.159  1.00  0.00    -0.335 N 
ATOM     13  H5  UNL     1     -46.273  14.716  -8.070  1.00  0.00     0.168 HD
HETATM   14  C6  UNL     1     -44.169  14.605  -8.055  1.00  0.00     0.164 A 
ENDROOT
BRANCH   1  15
HETATM   15  C1  UNL     1     -45.090  17.554  -7.598  1.00  0.00     0.333 C 
BRANCH  15  16
HETATM   16  N1  UNL     1     -45.806  17.357  -6.354  1.00  0.00    -0.071 N 
ATOM     17  H13 UNL     1     -46.434  18.139  -6.164  1.00  0.00     0.274 HD
ATOM     18  H12 UNL     1     -46.496  16.611  -6.441  1.00  0.00     0.274 HD
ATOM     19  H11 UNL     1     -45.181  17.189  -5.567  1.00  0.00     0.274 HD
ENDBRANCH  15  16
ENDBRANCH   1  15
TORSDOF 2
ENDMDL
MODEL 3
REMARK VINA RESULT: -4.804370953      6.186      8.317
REMARK  2 active torsions:
REMARK  status: ('A' for Active; 'I' for Inactive)
REMARK    1  A    between atoms: N1_1  and  C1_5 
REMARK    2  A    between atoms: C1_5  and  C2_6 
REMARK       I    between atoms: C2_6  and  N2_8 
ROOT
HETATM    1  C2  UNL     1     -48.940  10.485  -7.626  1.00  0.00     0.259 C 
HETATM    2  O1  UNL     1     -49.039   9.835  -6.513  1.00  0.00    -0.271 OA
HETATM    3  N2  UNL     1     -49.028   9.725  -8.821  1.00  0.00    -0.213 N 
HETATM    4  C3  UNL     1     -49.108   8.378  -8.920  1.00  0.00     0.336 A 
HETATM    5  O2  UNL     1     -49.076   7.626  -7.906  1.00  0.00    -0.246 OA
HETATM    6  N3  UNL     1     -49.220   7.987 -10.190  1.00  0.00    -0.291 N 
ATOM      7  H3  UNL     1     -49.295   7.027 -10.528  1.00  0.00     0.172 HD
HETATM    8  C4  UNL     1     -49.213   9.101 -10.935  1.00  0.00     0.156 A 
HETATM    9  N4  UNL     1     -49.292   9.501 -12.207  1.00  0.00    -0.335 N 
ATOM     10  H4  UNL     1     -49.385   8.905 -13.029  1.00  0.00     0.168 HD
HETATM   11  C5  UNL     1     -49.227  10.836 -12.190  1.00  0.00     0.183 A 
HETATM   12  N5  UNL     1     -49.107  11.255 -10.904  1.00  0.00    -0.335 N 
ATOM     13  H5  UNL     1     -49.038  12.227 -10.602  1.00  0.00     0.168 HD
HETATM   14  C6  UNL     1     -49.094  10.184 -10.094  1.00  0.00     0.164 A 
ENDROOT
BRANCH   1  15
HETATM   15  C1  UNL     1     -48.747  11.918  -7.521  1.00  0.00     0.333 C 
BRANCH  15  16
HETATM   16  N1  UNL     1     -47.507  12.262  -6.854  1.00  0.00    -0.071 N 
ATOM     17  H13 UNL     1     -47.472  13.258  -6.636  1.00  0.00     0.274 HD
ATOM     18  H12 UNL     1     -47.483  11.886  -5.906  1.00  0.00     0.274 HD
ATOM     19  H11 UNL     1     -46.686  11.973  -7.385  1.00  0.00     0.274 HD
ENDBRANCH  15  16
ENDBRANCH   1  15
TORSDOF 2
ENDMDL
MODEL 4
REMARK VINA RESULT: -4.692713623      1.460      3.905
REMARK  2 active torsions:
REMARK  status: ('A' for Active; 'I' for Inactive)
REMARK    1  A    between atoms: N1_1  and  C1_5 
REMARK    2  A    between atoms: C1_5  and  C2_6 
REMARK       I    between atoms: C2_6  and  N2_8 
ROOT
HETATM    1  C2  UNL     1     -43.675  15.862  -8.109  1.00  0.00     0.259 C 
HETATM    2  O1  UNL     1     -42.390  15.981  -8.202  1.00  0.00    -0.271 OA
HETATM    3  N2  UNL     1     -44.204  14.549  -8.211  1.00  0.00    -0.213 N 
HETATM    4  C3  UNL     1     -43.516  13.418  -8.490  1.00  0.00     0.336 A 
HETATM    5  O2  UNL     1     -42.277  13.427  -8.735  1.00  0.00    -0.246 OA
HETATM    6  N3  UNL     1     -44.309  12.346  -8.470  1.00  0.00    -0.291 N 
ATOM      7  H3  UNL     1     -44.034  11.380  -8.648  1.00  0.00     0.172 HD
HETATM    8  C4  UNL     1     -45.539  12.786  -8.169  1.00  0.00     0.156 A 
HETATM    9  N4  UNL     1     -46.782  12.341  -7.969  1.00  0.00    -0.335 N 
ATOM     10  H4  UNL     1     -47.101  11.373  -8.027  1.00  0.00     0.168 HD
HETATM   11  C5  UNL     1     -47.527  13.411  -7.676  1.00  0.00     0.183 A 
HETATM   12  N5  UNL     1     -46.738  14.516  -7.698  1.00  0.00    -0.335 N 
ATOM     13  H5  UNL     1     -47.049  15.470  -7.510  1.00  0.00     0.168 HD
HETATM   14  C6  UNL     1     -45.483  14.151  -8.007  1.00  0.00     0.164 A 
ENDROOT
BRANCH   1  15
HETATM   15  C1  UNL     1     -44.424  17.087  -7.915  1.00  0.00     0.333 C 
BRANCH  15  16
HETATM   16  N1  UNL     1     -44.771  17.309  -6.525  1.00  0.00    -0.071 N 
ATOM     17  H13 UNL     1     -44.915  16.425  -6.037  1.00  0.00     0.274 HD
ATOM     18  H12 UNL     1     -43.970  17.659  -5.998  1.00  0.00     0.274 HD
ATOM     19  H11 UNL     1     -45.577  17.924  -6.419  1.00  0.00     0.274 HD
ENDBRANCH  15  16
ENDBRANCH   1  15
TORSDOF 2
ENDMDL
MODEL 5
REMARK VINA RESULT: -4.618087692      2.339      3.021
REMARK  2 active torsions:
REMARK  status: ('A' for Active; 'I' for Inactive)
REMARK    1  A    between atoms: N1_1  and  C1_5 
REMARK    2  A    between atoms: C1_5  and  C2_6 
REMARK       I    between atoms: C2_6  and  N2_8 
ROOT
HETATM    1  C2  UNL     1     -46.397  14.293  -8.273  1.00  0.00     0.259 C 
HETATM    2  O1  UNL     1     -47.496  14.967  -8.373  1.00  0.00    -0.271 OA
HETATM    3  N2  UNL     1     -45.187  15.010  -8.465  1.00  0.00    -0.213 N 
HETATM    4  C3  UNL     1     -45.064  16.305  -8.838  1.00  0.00     0.336 A 
HETATM    5  O2  UNL     1     -46.065  17.029  -9.097  1.00  0.00    -0.246 OA
HETATM    6  N3  UNL     1     -43.785  16.679  -8.887  1.00  0.00    -0.291 N 
ATOM      7  H3  UNL     1     -43.429  17.601  -9.141  1.00  0.00     0.172 HD
HETATM    8  C4  UNL     1     -43.059  15.608  -8.538  1.00  0.00     0.156 A 
HETATM    9  N4  UNL     1     -41.792  15.225  -8.356  1.00  0.00    -0.335 N 
ATOM     10  H4  UNL     1     -40.958  15.798  -8.482  1.00  0.00     0.168 HD
HETATM   11  C5  UNL     1     -41.833  13.945  -7.974  1.00  0.00     0.183 A 
HETATM   12  N5  UNL     1     -43.129  13.541  -7.923  1.00  0.00    -0.335 N 
ATOM     13  H5  UNL     1     -43.449  12.609  -7.660  1.00  0.00     0.168 HD
HETATM   14  C6  UNL     1     -43.921  14.568  -8.275  1.00  0.00     0.164 A 
ENDROOT
BRANCH   1  15
HETATM   15  C1  UNL     1     -46.531  12.881  -7.978  1.00  0.00     0.333 C 
BRANCH  15  16
HETATM   16  N1  UNL     1     -47.003  12.640  -6.629  1.00  0.00    -0.071 N 
ATOM     17  H13 UNL     1     -47.695  13.336  -6.352  1.00  0.00     0.274 HD
ATOM     18  H12 UNL     1     -47.587  11.804  -6.588  1.00  0.00     0.274 HD
ATOM     19  H11 UNL     1     -46.242  12.589  -5.953  1.00  0.00     0.274 HD
ENDBRANCH  15  16
ENDBRANCH   1  15
TORSDOF 2
ENDMDL
