MODEL 1
REMARK VINA RESULT: -5.026033287      0.000      0.000
REMARK  1 active torsions:
REMARK  status: ('A' for Active; 'I' for Inactive)
REMARK    1  A    between atoms: C1_4  and  C2_6 
ROOT
HETATM    1  C2  UNL     1     -43.712  16.209  -8.067  1.00  0.00     0.117 A 
HETATM    2  C3  UNL     1     -44.850  16.979  -7.724  1.00  0.00     0.140 A 
HETATM    3  N3  UNL     1     -45.857  16.111  -7.625  1.00  0.00    -0.198 N 
ATOM      4  H3  UNL     1     -46.819  16.357  -7.389  1.00  0.00     0.183 HD
HETATM    5  C4  UNL     1     -45.425  14.870  -7.882  1.00  0.00     0.706 A 
HETATM    6  N4  UNL     1     -46.129  13.729  -7.884  1.00  0.00    -0.132 N 
ATOM      7  H4  UNL     1     -47.126  13.754  -7.669  1.00  0.00     0.205 HD
HETATM    8  N5  UNL     1     -45.550  12.571  -8.161  1.00  0.00    -0.292 N 
ATOM      9  H5  UNL     1     -46.098  11.711  -8.159  1.00  0.00     0.186 HD
HETATM   10  C5  UNL     1     -44.242  12.533  -8.442  1.00  0.00     0.183 A 
HETATM   11  C6  UNL     1     -43.527  13.740  -8.435  1.00  0.00     0.283 A 
HETATM   12  O1  UNL     1     -42.318  13.693  -8.697  1.00  0.00    -0.266 OA
HETATM   13  N6  UNL     1     -44.092  14.922  -8.157  1.00  0.00    -0.104 N 
ENDROOT
BRANCH   1  14
HETATM   14  C1  UNL     1     -42.395  16.758  -8.274  1.00  0.00     0.139 C 
HETATM   15  N1  UNL     1     -42.062  16.896  -9.560  1.00  0.00    -0.386 N 
ATOM     16  H12 UNL     1     -41.131  17.284  -9.707  1.00  0.00     0.157 HD
ATOM     17  H11 UNL     1     -42.757  16.603 -10.247  1.00  0.00     0.157 HD
HETATM   18  N2  UNL     1     -41.440  17.161  -7.328  1.00  0.00    -0.081 NA
ENDBRANCH   1  14
TORSDOF 1
ENDMDL
MODEL 2
REMARK VINA RESULT: -5.025743640      1.766      4.503
REMARK  1 active torsions:
REMARK  status: ('A' for Active; 'I' for Inactive)
REMARK    1  A    between atoms: C1_4  and  C2_6 
ROOT
HETATM    1  C2  UNL     1     -43.292  14.447  -8.419  1.00  0.00     0.117 A 
HETATM    2  C3  UNL     1     -42.021  14.195  -7.847  1.00  0.00     0.140 A 
HETATM    3  N3  UNL     1     -41.357  15.348  -7.920  1.00  0.00    -0.198 N 
ATOM      4  H3  UNL     1     -40.403  15.495  -7.588  1.00  0.00     0.183 HD
HETATM    5  C4  UNL     1     -42.121  16.287  -8.492  1.00  0.00     0.706 A 
HETATM    6  N4  UNL     1     -41.816  17.568  -8.742  1.00  0.00    -0.132 N 
ATOM      7  H4  UNL     1     -40.895  17.924  -8.484  1.00  0.00     0.205 HD
HETATM    8  N5  UNL     1     -42.691  18.378  -9.320  1.00  0.00    -0.292 N 
ATOM      9  H5  UNL     1     -42.445  19.350  -9.505  1.00  0.00     0.186 HD
HETATM   10  C5  UNL     1     -43.900  17.914  -9.659  1.00  0.00     0.183 A 
HETATM   11  C6  UNL     1     -44.196  16.571  -9.388  1.00  0.00     0.283 A 
HETATM   12  O1  UNL     1     -45.316  16.154  -9.707  1.00  0.00    -0.266 OA
HETATM   13  N6  UNL     1     -43.327  15.735  -8.804  1.00  0.00    -0.104 N 
ENDROOT
BRANCH   1  14
HETATM   14  C1  UNL     1     -44.335  13.459  -8.543  1.00  0.00     0.139 C 
HETATM   15  N1  UNL     1     -45.436  13.745  -7.843  1.00  0.00    -0.386 N 
ATOM     16  H12 UNL     1     -46.174  13.045  -7.930  1.00  0.00     0.157 HD
ATOM     17  H11 UNL     1     -45.427  14.611  -7.306  1.00  0.00     0.157 HD
HETATM   18  N2  UNL     1     -44.348  12.267  -9.282  1.00  0.00    -0.081 NA
ENDBRANCH   1  14
TORSDOF 1
ENDMDL
MODEL 3
REMARK VINA RESULT: -4.958608232      1.833      4.050
REMARK  1 active torsions:
REMARK  status: ('A' for Active; 'I' for Inactive)
REMARK    1  A    between atoms: C1_4  and  C2_6 
ROOT
HETATM    1  C2  UNL     1     -45.466  14.195  -8.220  1.00  0.00     0.117 A 
HETATM    2  C3  UNL     1     -45.399  12.786  -8.354  1.00  0.00     0.140 A 
HETATM    3  N3  UNL     1     -44.101  12.485  -8.366  1.00  0.00    -0.198 N 
ATOM      4  H3  UNL     1     -43.721  11.542  -8.452  1.00  0.00     0.183 HD
HETATM    5  C4  UNL     1     -43.367  13.599  -8.250  1.00  0.00     0.706 A 
HETATM    6  N4  UNL     1     -42.032  13.715  -8.221  1.00  0.00    -0.132 N 
ATOM      7  H4  UNL     1     -41.454  12.877  -8.294  1.00  0.00     0.205 HD
HETATM    8  N5  UNL     1     -41.452  14.899  -8.099  1.00  0.00    -0.292 N 
ATOM      9  H5  UNL     1     -40.435  14.972  -8.079  1.00  0.00     0.186 HD
HETATM   10  C5  UNL     1     -42.207  16.001  -8.002  1.00  0.00     0.183 A 
HETATM   11  C6  UNL     1     -43.601  15.855  -8.036  1.00  0.00     0.283 A 
HETATM   12  O1  UNL     1     -44.288  16.880  -7.946  1.00  0.00    -0.266 OA
HETATM   13  N6  UNL     1     -44.208  14.667  -8.157  1.00  0.00    -0.104 N 
ENDROOT
BRANCH   1  14
HETATM   14  C1  UNL     1     -46.696  14.946  -8.164  1.00  0.00     0.139 C 
HETATM   15  N1  UNL     1     -46.972  15.615  -9.286  1.00  0.00    -0.386 N 
ATOM     16  H12 UNL     1     -47.842  16.146  -9.247  1.00  0.00     0.157 HD
ATOM     17  H11 UNL     1     -46.300  15.529 -10.049  1.00  0.00     0.157 HD
HETATM   18  N2  UNL     1     -47.619  15.063  -7.115  1.00  0.00    -0.081 NA
ENDBRANCH   1  14
TORSDOF 1
ENDMDL
MODEL 4
REMARK VINA RESULT: -4.835365699      1.722      4.440
REMARK  1 active torsions:
REMARK  status: ('A' for Active; 'I' for Inactive)
REMARK    1  A    between atoms: C1_4  and  C2_6 
ROOT
HETATM    1  C2  UNL     1     -44.812  14.101  -8.360  1.00  0.00     0.117 A 
HETATM    2  C3  UNL     1     -44.100  12.880  -8.268  1.00  0.00     0.140 A 
HETATM    3  N3  UNL     1     -42.815  13.218  -8.165  1.00  0.00    -0.198 N 
ATOM      4  H3  UNL     1     -42.043  12.556  -8.081  1.00  0.00     0.183 HD
HETATM    5  C4  UNL     1     -42.684  14.550  -8.187  1.00  0.00     0.706 A 
HETATM    6  N4  UNL     1     -41.559  15.275  -8.108  1.00  0.00    -0.132 N 
ATOM      7  H4  UNL     1     -40.661  14.800  -8.018  1.00  0.00     0.205 HD
HETATM    8  N5  UNL     1     -41.597  16.599  -8.145  1.00  0.00    -0.292 N 
ATOM      9  H5  UNL     1     -40.733  17.138  -8.084  1.00  0.00     0.186 HD
HETATM   10  C5  UNL     1     -42.774  17.226  -8.261  1.00  0.00     0.183 A 
HETATM   11  C6  UNL     1     -43.936  16.446  -8.343  1.00  0.00     0.283 A 
HETATM   12  O1  UNL     1     -45.018  17.037  -8.452  1.00  0.00    -0.266 OA
HETATM   13  N6  UNL     1     -43.921  15.107  -8.308  1.00  0.00    -0.104 N 
ENDROOT
BRANCH   1  14
HETATM   14  C1  UNL     1     -46.245  14.195  -8.487  1.00  0.00     0.139 C 
HETATM   15  N1  UNL     1     -46.860  14.607  -7.375  1.00  0.00    -0.386 N 
ATOM     16  H12 UNL     1     -47.874  14.673  -7.464  1.00  0.00     0.157 HD
ATOM     17  H11 UNL     1     -46.268  14.806  -6.570  1.00  0.00     0.157 HD
HETATM   18  N2  UNL     1     -47.061  13.920  -9.595  1.00  0.00    -0.081 NA
ENDBRANCH   1  14
TORSDOF 1
ENDMDL
MODEL 5
REMARK VINA RESULT: -4.825280343      1.779      4.442
REMARK  1 active torsions:
REMARK  status: ('A' for Active; 'I' for Inactive)
REMARK    1  A    between atoms: C1_4  and  C2_6 
ROOT
HETATM    1  C2  UNL     1     -45.028  13.636  -8.155  1.00  0.00     0.117 A 
HETATM    2  C3  UNL     1     -44.292  12.486  -8.535  1.00  0.00     0.140 A 
HETATM    3  N3  UNL     1     -43.037  12.900  -8.703  1.00  0.00    -0.198 N 
ATOM      4  H3  UNL     1     -42.257  12.303  -8.979  1.00  0.00     0.183 HD
HETATM    5  C4  UNL     1     -42.945  14.213  -8.456  1.00  0.00     0.706 A 
HETATM    6  N4  UNL     1     -41.859  14.996  -8.515  1.00  0.00    -0.132 N 
ATOM      7  H4  UNL     1     -40.960  14.589  -8.777  1.00  0.00     0.205 HD
HETATM    8  N5  UNL     1     -41.933  16.289  -8.239  1.00  0.00    -0.292 N 
ATOM      9  H5  UNL     1     -41.098  16.873  -8.288  1.00  0.00     0.186 HD
HETATM   10  C5  UNL     1     -43.110  16.827  -7.893  1.00  0.00     0.183 A 
HETATM   11  C6  UNL     1     -44.232  15.988  -7.839  1.00  0.00     0.283 A 
HETATM   12  O1  UNL     1     -45.314  16.497  -7.520  1.00  0.00    -0.266 OA
HETATM   13  N6  UNL     1     -44.180  14.678  -8.114  1.00  0.00    -0.104 N 
ENDROOT
BRANCH   1  14
HETATM   14  C1  UNL     1     -46.442  13.635  -7.872  1.00  0.00     0.139 C 
HETATM   15  N1  UNL     1     -47.181  14.235  -8.810  1.00  0.00    -0.386 N 
ATOM     16  H12 UNL     1     -48.181  14.235  -8.610  1.00  0.00     0.157 HD
ATOM     17  H11 UNL     1     -46.681  14.623  -9.610  1.00  0.00     0.157 HD
HETATM   18  N2  UNL     1     -47.129  13.101  -6.772  1.00  0.00    -0.081 NA
ENDBRANCH   1  14
TORSDOF 1
ENDMDL
