MODEL 1
REMARK VINA RESULT: -4.870643527      0.000      0.000
REMARK  2 active torsions:
REMARK  status: ('A' for Active; 'I' for Inactive)
REMARK    1  A    between atoms: C3_4  and  N2_5 
REMARK    2  A    between atoms: N2_5  and  N3_7 
ROOT
HETATM    1  N1  UNL     1     -45.608  13.156  -8.691  1.00  0.00    -0.191 NA
HETATM    2  C1  UNL     1     -44.813  13.954  -8.455  1.00  0.00     0.109 C 
HETATM    3  C2  UNL     1     -43.790  14.929  -8.171  1.00  0.00     0.157 A 
HETATM    4  C3  UNL     1     -44.120  16.160  -7.669  1.00  0.00     0.150 A 
HETATM    5  N4  UNL     1     -43.087  17.018  -7.431  1.00  0.00    -0.292 N 
ATOM      6  H4  UNL     1     -43.307  17.941  -7.056  1.00  0.00     0.172 HD
HETATM    7  C4  UNL     1     -41.801  16.722  -7.658  1.00  0.00     0.328 A 
HETATM    8  O1  UNL     1     -40.874  17.568  -7.415  1.00  0.00    -0.247 OA
HETATM    9  N5  UNL     1     -41.519  15.504  -8.150  1.00  0.00    -0.274 N 
ATOM     10  H5  UNL     1     -40.543  15.268  -8.327  1.00  0.00     0.173 HD
HETATM   11  C5  UNL     1     -42.452  14.585  -8.421  1.00  0.00     0.274 A 
HETATM   12  O2  UNL     1     -42.184  13.464  -8.876  1.00  0.00    -0.266 OA
ENDROOT
BRANCH   4  13
HETATM   13  N2  UNL     1     -45.442  16.584  -7.389  1.00  0.00    -0.291 N 
ATOM     14  H2  UNL     1     -46.193  16.348  -8.038  1.00  0.00     0.188 HD
BRANCH  13  15
HETATM   15  N3  UNL     1     -45.731  17.308  -6.260  1.00  0.00    -0.344 N 
ATOM     16  H32 UNL     1     -44.958  17.623  -5.675  1.00  0.00     0.176 HD
ATOM     17  H31 UNL     1     -46.695  17.527  -6.005  1.00  0.00     0.176 HD
ENDBRANCH  13  15
ENDBRANCH   4  13
TORSDOF 2
ENDMDL
MODEL 2
REMARK VINA RESULT: -4.480333066      2.262      4.050
REMARK  2 active torsions:
REMARK  status: ('A' for Active; 'I' for Inactive)
REMARK    1  A    between atoms: C3_4  and  N2_5 
REMARK    2  A    between atoms: N2_5  and  N3_7 
ROOT
HETATM    1  N1  UNL     1     -42.600  15.731  -9.286  1.00  0.00    -0.191 NA
HETATM    2  C1  UNL     1     -43.528  15.186  -8.877  1.00  0.00     0.109 C 
HETATM    3  C2  UNL     1     -44.674  14.470  -8.376  1.00  0.00     0.157 A 
HETATM    4  C3  UNL     1     -45.723  15.143  -7.807  1.00  0.00     0.150 A 
HETATM    5  N4  UNL     1     -46.765  14.384  -7.361  1.00  0.00    -0.292 N 
ATOM      6  H4  UNL     1     -47.558  14.862  -6.934  1.00  0.00     0.172 HD
HETATM    7  C4  UNL     1     -46.808  13.049  -7.450  1.00  0.00     0.328 A 
HETATM    8  O1  UNL     1     -47.813  12.389  -7.014  1.00  0.00    -0.247 OA
HETATM    9  N5  UNL     1     -45.760  12.426  -8.014  1.00  0.00    -0.274 N 
ATOM     10  H5  UNL     1     -45.783  11.410  -8.087  1.00  0.00     0.173 HD
HETATM   11  C5  UNL     1     -44.687  13.070  -8.486  1.00  0.00     0.274 A 
HETATM   12  O2  UNL     1     -43.724  12.489  -9.004  1.00  0.00    -0.266 OA
ENDROOT
BRANCH   4  13
HETATM   13  N2  UNL     1     -45.787  16.551  -7.659  1.00  0.00    -0.291 N 
ATOM     14  H2  UNL     1     -46.221  17.112  -8.392  1.00  0.00     0.188 HD
BRANCH  13  15
HETATM   15  N3  UNL     1     -45.277  17.172  -6.548  1.00  0.00    -0.344 N 
ATOM     16  H32 UNL     1     -45.253  18.191  -6.530  1.00  0.00     0.176 HD
ATOM     17  H31 UNL     1     -44.927  16.633  -5.756  1.00  0.00     0.176 HD
ENDBRANCH  13  15
ENDBRANCH   4  13
TORSDOF 2
ENDMDL
MODEL 3
REMARK VINA RESULT: -4.422329642      4.557      7.208
REMARK  2 active torsions:
REMARK  status: ('A' for Active; 'I' for Inactive)
REMARK    1  A    between atoms: C3_4  and  N2_5 
REMARK    2  A    between atoms: N2_5  and  N3_7 
ROOT
HETATM    1  N1  UNL     1     -46.341  14.895  -9.233  1.00  0.00    -0.191 NA
HETATM    2  C1  UNL     1     -46.909  13.917  -9.016  1.00  0.00     0.109 C 
HETATM    3  C2  UNL     1     -47.614  12.699  -8.705  1.00  0.00     0.157 A 
HETATM    4  C3  UNL     1     -48.170  11.942  -9.703  1.00  0.00     0.150 A 
HETATM    5  N4  UNL     1     -48.817  10.805  -9.316  1.00  0.00    -0.292 N 
ATOM      6  H4  UNL     1     -49.238  10.224 -10.040  1.00  0.00     0.172 HD
HETATM    7  C4  UNL     1     -48.932  10.406  -8.043  1.00  0.00     0.328 A 
HETATM    8  O1  UNL     1     -49.551   9.330  -7.741  1.00  0.00    -0.247 OA
HETATM    9  N5  UNL     1     -48.373  11.177  -7.095  1.00  0.00    -0.274 N 
ATOM     10  H5  UNL     1     -48.455  10.882  -6.123  1.00  0.00     0.173 HD
HETATM   11  C5  UNL     1     -47.715  12.310  -7.361  1.00  0.00     0.274 A 
HETATM   12  O2  UNL     1     -47.203  13.016  -6.480  1.00  0.00    -0.266 OA
ENDROOT
BRANCH   4  13
HETATM   13  N2  UNL     1     -48.111  12.262 -11.082  1.00  0.00    -0.291 N 
ATOM     14  H2  UNL     1     -47.585  13.082 -11.384  1.00  0.00     0.188 HD
BRANCH  13  15
HETATM   15  N3  UNL     1     -48.751  11.490 -12.018  1.00  0.00    -0.344 N 
ATOM     16  H32 UNL     1     -49.465  10.835 -11.700  1.00  0.00     0.176 HD
ATOM     17  H31 UNL     1     -48.522  11.564 -13.009  1.00  0.00     0.176 HD
ENDBRANCH  13  15
ENDBRANCH   4  13
TORSDOF 2
ENDMDL
MODEL 4
REMARK VINA RESULT: -4.375810291      1.365      3.426
REMARK  2 active torsions:
REMARK  status: ('A' for Active; 'I' for Inactive)
REMARK    1  A    between atoms: C3_4  and  N2_5 
REMARK    2  A    between atoms: N2_5  and  N3_7 
ROOT
HETATM    1  N1  UNL     1     -43.609  19.420  -6.518  1.00  0.00    -0.191 NA
HETATM    2  C1  UNL     1     -43.419  18.364  -6.936  1.00  0.00     0.109 C 
HETATM    3  C2  UNL     1     -43.143  17.050  -7.459  1.00  0.00     0.157 A 
HETATM    4  C3  UNL     1     -44.164  16.173  -7.713  1.00  0.00     0.150 A 
HETATM    5  N4  UNL     1     -43.810  14.951  -8.208  1.00  0.00    -0.292 N 
ATOM      6  H4  UNL     1     -44.552  14.281  -8.406  1.00  0.00     0.172 HD
HETATM    7  C4  UNL     1     -42.546  14.581  -8.449  1.00  0.00     0.328 A 
HETATM    8  O1  UNL     1     -42.274  13.421  -8.913  1.00  0.00    -0.247 OA
HETATM    9  N5  UNL     1     -41.574  15.470  -8.186  1.00  0.00    -0.274 N 
ATOM     10  H5  UNL     1     -40.608  15.198  -8.365  1.00  0.00     0.173 HD
HETATM   11  C5  UNL     1     -41.807  16.694  -7.700  1.00  0.00     0.274 A 
HETATM   12  O2  UNL     1     -40.905  17.508  -7.460  1.00  0.00    -0.266 OA
ENDROOT
BRANCH   4  13
HETATM   13  N2  UNL     1     -45.536  16.453  -7.499  1.00  0.00    -0.291 N 
ATOM     14  H2  UNL     1     -45.822  17.403  -7.261  1.00  0.00     0.188 HD
BRANCH  13  15
HETATM   15  N3  UNL     1     -46.487  15.471  -7.606  1.00  0.00    -0.344 N 
ATOM     16  H32 UNL     1     -47.015  15.399  -8.475  1.00  0.00     0.176 HD
ATOM     17  H31 UNL     1     -46.667  14.824  -6.838  1.00  0.00     0.176 HD
ENDBRANCH  13  15
ENDBRANCH   4  13
TORSDOF 2
ENDMDL
MODEL 5
REMARK VINA RESULT: -4.360717943      5.604      7.023
REMARK  2 active torsions:
REMARK  status: ('A' for Active; 'I' for Inactive)
REMARK    1  A    between atoms: C3_4  and  N2_5 
REMARK    2  A    between atoms: N2_5  and  N3_7 
ROOT
HETATM    1  N1  UNL     1     -47.076  14.520  -9.982  1.00  0.00    -0.191 NA
HETATM    2  C1  UNL     1     -47.484  13.579  -9.459  1.00  0.00     0.109 C 
HETATM    3  C2  UNL     1     -48.004  12.388  -8.838  1.00  0.00     0.157 A 
HETATM    4  C3  UNL     1     -47.917  12.212  -7.482  1.00  0.00     0.150 A 
HETATM    5  N4  UNL     1     -48.436  11.055  -6.982  1.00  0.00    -0.292 N 
ATOM      6  H4  UNL     1     -48.384  10.901  -5.975  1.00  0.00     0.172 HD
HETATM    7  C4  UNL     1     -49.011  10.107  -7.734  1.00  0.00     0.328 A 
HETATM    8  O1  UNL     1     -49.481   9.041  -7.208  1.00  0.00    -0.247 OA
HETATM    9  N5  UNL     1     -49.077  10.317  -9.059  1.00  0.00    -0.274 N 
ATOM     10  H5  UNL     1     -49.513   9.602  -9.640  1.00  0.00     0.173 HD
HETATM   11  C5  UNL     1     -48.601  11.415  -9.655  1.00  0.00     0.274 A 
HETATM   12  O2  UNL     1     -48.665  11.601 -10.879  1.00  0.00    -0.266 OA
ENDROOT
BRANCH   4  13
HETATM   13  N2  UNL     1     -47.332  13.144  -6.588  1.00  0.00    -0.291 N 
ATOM     14  H2  UNL     1     -46.320  13.148  -6.460  1.00  0.00     0.188 HD
BRANCH  13  15
HETATM   15  N3  UNL     1     -48.103  14.040  -5.893  1.00  0.00    -0.344 N 
ATOM     16  H32 UNL     1     -47.634  14.730  -5.305  1.00  0.00     0.176 HD
ATOM     17  H31 UNL     1     -49.121  14.023  -5.957  1.00  0.00     0.176 HD
ENDBRANCH  13  15
ENDBRANCH   4  13
TORSDOF 2
ENDMDL
