MODEL 1
REMARK VINA RESULT: -7.592433886      0.000      0.000
REMARK  15 active torsions:
REMARK  status: ('A' for Active; 'I' for Inactive)
REMARK    1  A    between atoms: C2_2  and  C4_4 
REMARK    2  A    between atoms: C4_4  and  C5_5 
REMARK    3  A    between atoms: C5_5  and  C6_6 
REMARK    4  A    between atoms: C5_5  and  N1_13 
REMARK    5  A    between atoms: C6_6  and  C7_7 
REMARK    6  A    between atoms: C7_7  and  C8_8 
REMARK       I    between atoms: N1_13  and  C12_15 
REMARK    7  A    between atoms: C12_15  and  C13_17 
REMARK    8  A    between atoms: C13_17  and  C14_18 
REMARK    9  A    between atoms: C14_18  and  N2_19 
REMARK   10  A    between atoms: C14_18  and  C20_28 
REMARK       I    between atoms: N2_19  and  C15_21 
REMARK   11  A    between atoms: C15_21  and  O3_23 
REMARK   12  A    between atoms: O3_23  and  C16_24 
REMARK       I    between atoms: C20_28  and  N3_30 
REMARK   13  A    between atoms: N3_30  and  C21_32 
REMARK   14  A    between atoms: C21_32  and  C22_33 
REMARK   15  A    between atoms: C21_32  and  C23_35 
ROOT
HETATM    1  C14 UNL     1       5.816 -26.654   4.653  1.00  0.00     0.187 C 
ENDROOT
BRANCH   1   2
HETATM    2  C13 UNL     1       6.457 -26.503   3.299  1.00  0.00     0.137 C 
BRANCH   2   3
HETATM    3  C12 UNL     1       7.915 -26.539   3.263  1.00  0.00     0.220 C 
HETATM    4  N1  UNL     1       8.605 -27.546   3.967  1.00  0.00    -0.356 N 
ATOM      5  H1  UNL     1       8.051 -28.228   4.485  1.00  0.00     0.162 HD
HETATM    6  O1  UNL     1       8.561 -25.695   2.621  1.00  0.00    -0.274 OA
BRANCH   4   7
HETATM    7  C5  UNL     1      10.067 -27.681   4.005  1.00  0.00     0.084 C 
BRANCH   7   8
HETATM    8  C4  UNL     1      10.427 -29.115   4.145  1.00  0.00     0.029 C 
BRANCH   8   9
HETATM    9  C2  UNL     1      11.324 -29.654   3.052  1.00  0.00    -0.021 C 
HETATM   10  C1  UNL     1      11.531 -31.163   3.243  1.00  0.00     0.009 C 
HETATM   11  C3  UNL     1      12.681 -29.029   3.021  1.00  0.00     0.009 C 
ENDBRANCH   8   9
ENDBRANCH   7   8
BRANCH   7  12
HETATM   12  C6  UNL     1      10.537 -26.821   5.106  1.00  0.00     0.026 C 
BRANCH  12  13
HETATM   13  C7  UNL     1      11.439 -25.681   4.863  1.00  0.00     0.009 C 
BRANCH  13  14
HETATM   14  C8  UNL     1      10.890 -24.317   4.931  1.00  0.00     0.020 C 
HETATM   15  C9  UNL     1       9.494 -24.342   5.630  1.00  0.00     0.010 C 
HETATM   16  C10 UNL     1       9.846 -22.877   5.995  1.00  0.00     0.038 C 
HETATM   17  C11 UNL     1      11.305 -23.437   6.056  1.00  0.00     0.174 C 
HETATM   18  F1  UNL     1      11.354 -24.102   7.283  1.00  0.00    -0.249 F 
ENDBRANCH  13  14
ENDBRANCH  12  13
ENDBRANCH   7  12
ENDBRANCH   4   7
ENDBRANCH   2   3
ENDBRANCH   1   2
BRANCH   1  19
HETATM   19  N2  UNL     1       5.359 -25.272   4.963  1.00  0.00    -0.323 N 
HETATM   20  C15 UNL     1       4.934 -24.909   6.259  1.00  0.00     0.362 C 
HETATM   21  O2  UNL     1       4.945 -25.772   7.164  1.00  0.00    -0.238 OA
ATOM     22  H2  UNL     1       5.353 -24.572   4.222  1.00  0.00     0.165 HD
BRANCH  20  23
HETATM   23  O3  UNL     1       4.504 -23.634   6.572  1.00  0.00    -0.294 OA
BRANCH  23  24
HETATM   24  C16 UNL     1       5.358 -22.531   6.817  1.00  0.00     0.061 C 
HETATM   25  C17 UNL     1       4.511 -21.402   7.345  1.00  0.00     0.046 C 
HETATM   26  C18 UNL     1       6.451 -22.849   7.800  1.00  0.00     0.046 C 
HETATM   27  C19 UNL     1       6.016 -22.046   5.538  1.00  0.00     0.046 C 
ENDBRANCH  23  24
ENDBRANCH  20  23
ENDBRANCH   1  19
BRANCH   1  28
HETATM   28  C20 UNL     1       4.568 -27.458   4.637  1.00  0.00     0.241 C 
HETATM   29  O4  UNL     1       3.741 -27.169   3.703  1.00  0.00    -0.271 OA
HETATM   30  N3  UNL     1       4.265 -28.482   5.570  1.00  0.00    -0.346 N 
ATOM     31  H3  UNL     1       4.941 -28.684   6.306  1.00  0.00     0.163 HD
BRANCH  30  32
HETATM   32  C21 UNL     1       3.046 -29.251   5.527  1.00  0.00     0.183 C 
BRANCH  32  33
HETATM   33  C22 UNL     1       3.269 -30.737   5.557  1.00  0.00     0.120 C 
HETATM   34  S1  UNL     1       3.852 -31.369   3.969  1.00  0.00    -0.095 SA
ENDBRANCH  32  33
BRANCH  32  35
HETATM   35  C23 UNL     1       2.051 -28.847   6.526  1.00  0.00     0.254 C 
HETATM   36  N4  UNL     1       0.952 -29.697   6.788  1.00  0.00    -0.060 NA
HETATM   37  O5  UNL     1       2.146 -27.774   7.151  1.00  0.00    -0.275 OA
ENDBRANCH  32  35
ENDBRANCH  30  32
ENDBRANCH   1  28
TORSDOF 15
ENDMDL
MODEL 2
REMARK VINA RESULT: -7.495249866      1.483      1.790
REMARK  15 active torsions:
REMARK  status: ('A' for Active; 'I' for Inactive)
REMARK    1  A    between atoms: C2_2  and  C4_4 
REMARK    2  A    between atoms: C4_4  and  C5_5 
REMARK    3  A    between atoms: C5_5  and  C6_6 
REMARK    4  A    between atoms: C5_5  and  N1_13 
REMARK    5  A    between atoms: C6_6  and  C7_7 
REMARK    6  A    between atoms: C7_7  and  C8_8 
REMARK       I    between atoms: N1_13  and  C12_15 
REMARK    7  A    between atoms: C12_15  and  C13_17 
REMARK    8  A    between atoms: C13_17  and  C14_18 
REMARK    9  A    between atoms: C14_18  and  N2_19 
REMARK   10  A    between atoms: C14_18  and  C20_28 
REMARK       I    between atoms: N2_19  and  C15_21 
REMARK   11  A    between atoms: C15_21  and  O3_23 
REMARK   12  A    between atoms: O3_23  and  C16_24 
REMARK       I    between atoms: C20_28  and  N3_30 
REMARK   13  A    between atoms: N3_30  and  C21_32 
REMARK   14  A    between atoms: C21_32  and  C22_33 
REMARK   15  A    between atoms: C21_32  and  C23_35 
ROOT
HETATM    1  C14 UNL     1       6.030 -26.278   5.203  1.00  0.00     0.187 C 
ENDROOT
BRANCH   1   2
HETATM    2  C13 UNL     1       6.462 -26.488   3.776  1.00  0.00     0.137 C 
BRANCH   2   3
HETATM    3  C12 UNL     1       7.898 -26.569   3.537  1.00  0.00     0.220 C 
HETATM    4  N1  UNL     1       8.675 -27.493   4.263  1.00  0.00    -0.356 N 
ATOM      5  H1  UNL     1       8.197 -28.085   4.942  1.00  0.00     0.162 HD
HETATM    6  O1  UNL     1       8.451 -25.835   2.701  1.00  0.00    -0.274 OA
BRANCH   4   7
HETATM    7  C5  UNL     1      10.126 -27.662   4.109  1.00  0.00     0.084 C 
BRANCH   7   8
HETATM    8  C4  UNL     1      10.465 -29.106   4.180  1.00  0.00     0.029 C 
BRANCH   8   9
HETATM    9  C2  UNL     1      11.379 -29.599   3.080  1.00  0.00    -0.021 C 
HETATM   10  C1  UNL     1      11.499 -31.127   3.145  1.00  0.00     0.009 C 
HETATM   11  C3  UNL     1      12.767 -29.050   3.155  1.00  0.00     0.009 C 
ENDBRANCH   8   9
ENDBRANCH   7   8
BRANCH   7  12
HETATM   12  C6  UNL     1      10.755 -26.832   5.152  1.00  0.00     0.026 C 
BRANCH  12  13
HETATM   13  C7  UNL     1      11.677 -25.734   4.812  1.00  0.00     0.009 C 
BRANCH  13  14
HETATM   14  C8  UNL     1      11.193 -24.347   4.911  1.00  0.00     0.020 C 
HETATM   15  C9  UNL     1       9.750 -24.331   5.510  1.00  0.00     0.010 C 
HETATM   16  C10 UNL     1      10.147 -22.905   5.971  1.00  0.00     0.038 C 
HETATM   17  C11 UNL     1      11.569 -23.544   6.105  1.00  0.00     0.174 C 
HETATM   18  F1  UNL     1      11.497 -24.267   7.297  1.00  0.00    -0.249 F 
ENDBRANCH  13  14
ENDBRANCH  12  13
ENDBRANCH   7  12
ENDBRANCH   4   7
ENDBRANCH   2   3
ENDBRANCH   1   2
BRANCH   1  19
HETATM   19  N2  UNL     1       5.437 -24.913   5.175  1.00  0.00    -0.323 N 
HETATM   20  C15 UNL     1       5.918 -23.882   6.011  1.00  0.00     0.362 C 
HETATM   21  O2  UNL     1       6.866 -24.127   6.790  1.00  0.00    -0.238 OA
ATOM     22  H2  UNL     1       4.665 -24.719   4.538  1.00  0.00     0.165 HD
BRANCH  20  23
HETATM   23  O3  UNL     1       5.384 -22.608   6.005  1.00  0.00    -0.294 OA
BRANCH  23  24
HETATM   24  C16 UNL     1       4.886 -21.936   7.148  1.00  0.00     0.061 C 
HETATM   25  C17 UNL     1       3.810 -22.797   7.756  1.00  0.00     0.046 C 
HETATM   26  C18 UNL     1       5.954 -21.659   8.170  1.00  0.00     0.046 C 
HETATM   27  C19 UNL     1       4.251 -20.609   6.775  1.00  0.00     0.046 C 
ENDBRANCH  23  24
ENDBRANCH  20  23
ENDBRANCH   1  19
BRANCH   1  28
HETATM   28  C20 UNL     1       4.910 -27.155   5.625  1.00  0.00     0.241 C 
HETATM   29  O4  UNL     1       4.292 -26.787   6.684  1.00  0.00    -0.271 OA
HETATM   30  N3  UNL     1       4.515 -28.332   4.939  1.00  0.00    -0.346 N 
ATOM     31  H3  UNL     1       5.030 -28.602   4.102  1.00  0.00     0.163 HD
BRANCH  30  32
HETATM   32  C21 UNL     1       3.418 -29.163   5.369  1.00  0.00     0.183 C 
BRANCH  32  33
HETATM   33  C22 UNL     1       2.070 -28.653   4.943  1.00  0.00     0.120 C 
HETATM   34  S1  UNL     1       0.959 -28.416   6.347  1.00  0.00    -0.095 SA
ENDBRANCH  32  33
BRANCH  32  35
HETATM   35  C23 UNL     1       3.576 -30.581   5.028  1.00  0.00     0.254 C 
HETATM   36  N4  UNL     1       3.967 -30.936   3.716  1.00  0.00    -0.060 NA
HETATM   37  O5  UNL     1       3.376 -31.484   5.862  1.00  0.00    -0.275 OA
ENDBRANCH  32  35
ENDBRANCH  30  32
ENDBRANCH   1  28
TORSDOF 15
ENDMDL
MODEL 3
REMARK VINA RESULT: -7.281268705      2.535      5.731
REMARK  15 active torsions:
REMARK  status: ('A' for Active; 'I' for Inactive)
REMARK    1  A    between atoms: C2_2  and  C4_4 
REMARK    2  A    between atoms: C4_4  and  C5_5 
REMARK    3  A    between atoms: C5_5  and  C6_6 
REMARK    4  A    between atoms: C5_5  and  N1_13 
REMARK    5  A    between atoms: C6_6  and  C7_7 
REMARK    6  A    between atoms: C7_7  and  C8_8 
REMARK       I    between atoms: N1_13  and  C12_15 
REMARK    7  A    between atoms: C12_15  and  C13_17 
REMARK    8  A    between atoms: C13_17  and  C14_18 
REMARK    9  A    between atoms: C14_18  and  N2_19 
REMARK   10  A    between atoms: C14_18  and  C20_28 
REMARK       I    between atoms: N2_19  and  C15_21 
REMARK   11  A    between atoms: C15_21  and  O3_23 
REMARK   12  A    between atoms: O3_23  and  C16_24 
REMARK       I    between atoms: C20_28  and  N3_30 
REMARK   13  A    between atoms: N3_30  and  C21_32 
REMARK   14  A    between atoms: C21_32  and  C22_33 
REMARK   15  A    between atoms: C21_32  and  C23_35 
ROOT
HETATM    1  C14 UNL     1       3.375 -28.003   5.053  1.00  0.00     0.187 C 
ENDROOT
BRANCH   1   2
HETATM    2  C13 UNL     1       3.985 -28.266   6.404  1.00  0.00     0.137 C 
BRANCH   2   3
HETATM    3  C12 UNL     1       5.266 -27.623   6.674  1.00  0.00     0.220 C 
HETATM    4  N1  UNL     1       5.913 -26.900   5.653  1.00  0.00    -0.356 N 
ATOM      5  H1  UNL     1       5.454 -26.849   4.744  1.00  0.00     0.162 HD
HETATM    6  O1  UNL     1       5.800 -27.703   7.794  1.00  0.00    -0.274 OA
BRANCH   4   7
HETATM    7  C5  UNL     1       7.203 -26.215   5.808  1.00  0.00     0.084 C 
BRANCH   7   8
HETATM    8  C4  UNL     1       6.996 -24.926   6.516  1.00  0.00     0.029 C 
BRANCH   8   9
HETATM    9  C2  UNL     1       7.220 -23.693   5.668  1.00  0.00    -0.021 C 
HETATM   10  C1  UNL     1       8.475 -22.952   6.147  1.00  0.00     0.009 C 
HETATM   11  C3  UNL     1       6.092 -22.714   5.714  1.00  0.00     0.009 C 
ENDBRANCH   8   9
ENDBRANCH   7   8
BRANCH   7  12
HETATM   12  C6  UNL     1       7.772 -26.087   4.455  1.00  0.00     0.026 C 
BRANCH  12  13
HETATM   13  C7  UNL     1       9.005 -26.795   4.066  1.00  0.00     0.009 C 
BRANCH  13  14
HETATM   14  C8  UNL     1      10.182 -26.702   4.945  1.00  0.00     0.020 C 
HETATM   15  C9  UNL     1      11.480 -26.978   4.122  1.00  0.00     0.010 C 
HETATM   16  C10 UNL     1      12.149 -26.109   5.218  1.00  0.00     0.038 C 
HETATM   17  C11 UNL     1      10.773 -25.363   5.206  1.00  0.00     0.174 C 
HETATM   18  F1  UNL     1      10.841 -24.561   4.065  1.00  0.00    -0.249 F 
ENDBRANCH  13  14
ENDBRANCH  12  13
ENDBRANCH   7  12
ENDBRANCH   4   7
ENDBRANCH   2   3
ENDBRANCH   1   2
BRANCH   1  19
HETATM   19  N2  UNL     1       3.929 -29.101   4.216  1.00  0.00    -0.323 N 
HETATM   20  C15 UNL     1       4.666 -28.835   3.042  1.00  0.00     0.362 C 
HETATM   21  O2  UNL     1       4.855 -27.646   2.702  1.00  0.00    -0.238 OA
ATOM     22  H2  UNL     1       3.774 -30.069   4.497  1.00  0.00     0.165 HD
BRANCH  20  23
HETATM   23  O3  UNL     1       5.189 -29.836   2.247  1.00  0.00    -0.294 OA
BRANCH  23  24
HETATM   24  C16 UNL     1       4.419 -30.774   1.517  1.00  0.00     0.061 C 
HETATM   25  C17 UNL     1       5.020 -30.892   0.141  1.00  0.00     0.046 C 
HETATM   26  C18 UNL     1       4.377 -32.127   2.173  1.00  0.00     0.046 C 
HETATM   27  C19 UNL     1       2.987 -30.300   1.349  1.00  0.00     0.046 C 
ENDBRANCH  23  24
ENDBRANCH  20  23
ENDBRANCH   1  19
BRANCH   1  28
HETATM   28  C20 UNL     1       1.907 -28.214   5.009  1.00  0.00     0.241 C 
HETATM   29  O4  UNL     1       1.300 -27.653   4.031  1.00  0.00    -0.271 OA
HETATM   30  N3  UNL     1       1.179 -28.973   5.960  1.00  0.00    -0.346 N 
ATOM     31  H3  UNL     1       1.690 -29.403   6.731  1.00  0.00     0.163 HD
BRANCH  30  32
HETATM   32  C21 UNL     1      -0.248 -29.167   5.889  1.00  0.00     0.183 C 
BRANCH  32  33
HETATM   33  C22 UNL     1      -0.649 -30.507   5.341  1.00  0.00     0.120 C 
HETATM   34  S1  UNL     1       0.699 -31.706   5.423  1.00  0.00    -0.095 SA
ENDBRANCH  32  33
BRANCH  32  35
HETATM   35  C23 UNL     1      -0.951 -28.878   7.143  1.00  0.00     0.254 C 
HETATM   36  N4  UNL     1      -1.629 -29.924   7.811  1.00  0.00    -0.060 NA
HETATM   37  O5  UNL     1      -0.969 -27.736   7.639  1.00  0.00    -0.275 OA
ENDBRANCH  32  35
ENDBRANCH  30  32
ENDBRANCH   1  28
TORSDOF 15
ENDMDL
MODEL 4
REMARK VINA RESULT: -7.261225882      1.655      2.168
REMARK  15 active torsions:
REMARK  status: ('A' for Active; 'I' for Inactive)
REMARK    1  A    between atoms: C2_2  and  C4_4 
REMARK    2  A    between atoms: C4_4  and  C5_5 
REMARK    3  A    between atoms: C5_5  and  C6_6 
REMARK    4  A    between atoms: C5_5  and  N1_13 
REMARK    5  A    between atoms: C6_6  and  C7_7 
REMARK    6  A    between atoms: C7_7  and  C8_8 
REMARK       I    between atoms: N1_13  and  C12_15 
REMARK    7  A    between atoms: C12_15  and  C13_17 
REMARK    8  A    between atoms: C13_17  and  C14_18 
REMARK    9  A    between atoms: C14_18  and  N2_19 
REMARK   10  A    between atoms: C14_18  and  C20_28 
REMARK       I    between atoms: N2_19  and  C15_21 
REMARK   11  A    between atoms: C15_21  and  O3_23 
REMARK   12  A    between atoms: O3_23  and  C16_24 
REMARK       I    between atoms: C20_28  and  N3_30 
REMARK   13  A    between atoms: N3_30  and  C21_32 
REMARK   14  A    between atoms: C21_32  and  C22_33 
REMARK   15  A    between atoms: C21_32  and  C23_35 
ROOT
HETATM    1  C14 UNL     1       5.802 -26.785   4.844  1.00  0.00     0.187 C 
ENDROOT
BRANCH   1   2
HETATM    2  C13 UNL     1       6.372 -26.356   3.518  1.00  0.00     0.137 C 
BRANCH   2   3
HETATM    3  C12 UNL     1       7.818 -26.467   3.367  1.00  0.00     0.220 C 
HETATM    4  N1  UNL     1       8.527 -27.424   4.118  1.00  0.00    -0.356 N 
ATOM      5  H1  UNL     1       7.995 -28.019   4.753  1.00  0.00     0.162 HD
HETATM    6  O1  UNL     1       8.439 -25.728   2.583  1.00  0.00    -0.274 OA
BRANCH   4   7
HETATM    7  C5  UNL     1       9.980 -27.624   4.050  1.00  0.00     0.084 C 
BRANCH   7   8
HETATM    8  C4  UNL     1      10.284 -29.076   4.133  1.00  0.00     0.029 C 
BRANCH   8   9
HETATM    9  C2  UNL     1      11.260 -29.581   3.094  1.00  0.00    -0.021 C 
HETATM   10  C1  UNL     1      11.467 -31.092   3.263  1.00  0.00     0.009 C 
HETATM   11  C3  UNL     1      12.610 -28.946   3.173  1.00  0.00     0.009 C 
ENDBRANCH   8   9
ENDBRANCH   7   8
BRANCH   7  12
HETATM   12  C6  UNL     1      10.565 -26.813   5.134  1.00  0.00     0.026 C 
BRANCH  12  13
HETATM   13  C7  UNL     1      11.493 -25.704   4.853  1.00  0.00     0.009 C 
BRANCH  13  14
HETATM   14  C8  UNL     1      10.986 -24.323   4.916  1.00  0.00     0.020 C 
HETATM   15  C9  UNL     1       9.578 -24.307   5.591  1.00  0.00     0.010 C 
HETATM   16  C10 UNL     1       9.969 -22.854   5.966  1.00  0.00     0.038 C 
HETATM   17  C11 UNL     1      11.409 -23.460   6.050  1.00  0.00     0.174 C 
HETATM   18  F1  UNL     1      11.416 -24.129   7.276  1.00  0.00    -0.249 F 
ENDBRANCH  13  14
ENDBRANCH  12  13
ENDBRANCH   7  12
ENDBRANCH   4   7
ENDBRANCH   2   3
ENDBRANCH   1   2
BRANCH   1  19
HETATM   19  N2  UNL     1       5.245 -25.520   5.394  1.00  0.00    -0.323 N 
HETATM   20  C15 UNL     1       5.676 -25.001   6.634  1.00  0.00     0.362 C 
HETATM   21  O2  UNL     1       6.549 -25.622   7.280  1.00  0.00    -0.238 OA
ATOM     22  H2  UNL     1       4.534 -25.017   4.864  1.00  0.00     0.165 HD
BRANCH  20  23
HETATM   23  O3  UNL     1       5.174 -23.830   7.167  1.00  0.00    -0.294 OA
BRANCH  23  24
HETATM   24  C16 UNL     1       5.712 -22.540   6.935  1.00  0.00     0.061 C 
HETATM   25  C17 UNL     1       6.809 -22.312   7.942  1.00  0.00     0.046 C 
HETATM   26  C18 UNL     1       6.258 -22.380   5.543  1.00  0.00     0.046 C 
HETATM   27  C19 UNL     1       4.668 -21.460   7.147  1.00  0.00     0.046 C 
ENDBRANCH  23  24
ENDBRANCH  20  23
ENDBRANCH   1  19
BRANCH   1  28
HETATM   28  C20 UNL     1       4.626 -27.683   4.727  1.00  0.00     0.241 C 
HETATM   29  O4  UNL     1       4.296 -28.299   5.800  1.00  0.00    -0.271 OA
HETATM   30  N3  UNL     1       3.888 -27.882   3.533  1.00  0.00    -0.346 N 
ATOM     31  H3  UNL     1       4.179 -27.383   2.693  1.00  0.00     0.163 HD
BRANCH  30  32
HETATM   32  C21 UNL     1       2.745 -28.758   3.449  1.00  0.00     0.183 C 
BRANCH  32  33
HETATM   33  C22 UNL     1       1.437 -28.071   3.723  1.00  0.00     0.120 C 
HETATM   34  S1  UNL     1       0.580 -28.783   5.144  1.00  0.00    -0.095 SA
ENDBRANCH  32  33
BRANCH  32  35
HETATM   35  C23 UNL     1       2.681 -29.537   2.208  1.00  0.00     0.254 C 
HETATM   36  N4  UNL     1       3.864 -29.746   1.463  1.00  0.00    -0.060 NA
HETATM   37  O5  UNL     1       1.612 -30.021   1.791  1.00  0.00    -0.275 OA
ENDBRANCH  32  35
ENDBRANCH  30  32
ENDBRANCH   1  28
TORSDOF 15
ENDMDL
MODEL 5
REMARK VINA RESULT: -7.239503451      2.708      5.890
REMARK  15 active torsions:
REMARK  status: ('A' for Active; 'I' for Inactive)
REMARK    1  A    between atoms: C2_2  and  C4_4 
REMARK    2  A    between atoms: C4_4  and  C5_5 
REMARK    3  A    between atoms: C5_5  and  C6_6 
REMARK    4  A    between atoms: C5_5  and  N1_13 
REMARK    5  A    between atoms: C6_6  and  C7_7 
REMARK    6  A    between atoms: C7_7  and  C8_8 
REMARK       I    between atoms: N1_13  and  C12_15 
REMARK    7  A    between atoms: C12_15  and  C13_17 
REMARK    8  A    between atoms: C13_17  and  C14_18 
REMARK    9  A    between atoms: C14_18  and  N2_19 
REMARK   10  A    between atoms: C14_18  and  C20_28 
REMARK       I    between atoms: N2_19  and  C15_21 
REMARK   11  A    between atoms: C15_21  and  O3_23 
REMARK   12  A    between atoms: O3_23  and  C16_24 
REMARK       I    between atoms: C20_28  and  N3_30 
REMARK   13  A    between atoms: N3_30  and  C21_32 
REMARK   14  A    between atoms: C21_32  and  C22_33 
REMARK   15  A    between atoms: C21_32  and  C23_35 
ROOT
HETATM    1  C14 UNL     1       3.420 -29.205   5.574  1.00  0.00     0.187 C 
ENDROOT
BRANCH   1   2
HETATM    2  C13 UNL     1       3.881 -27.953   4.875  1.00  0.00     0.137 C 
BRANCH   2   3
HETATM    3  C12 UNL     1       5.079 -27.314   5.408  1.00  0.00     0.220 C 
HETATM    4  N1  UNL     1       6.103 -26.910   4.529  1.00  0.00    -0.356 N 
ATOM      5  H1  UNL     1       5.968 -27.080   3.533  1.00  0.00     0.162 HD
HETATM    6  O1  UNL     1       5.213 -27.119   6.628  1.00  0.00    -0.274 OA
BRANCH   4   7
HETATM    7  C5  UNL     1       7.351 -26.261   4.950  1.00  0.00     0.084 C 
BRANCH   7   8
HETATM    8  C4  UNL     1       7.135 -24.795   5.052  1.00  0.00     0.029 C 
BRANCH   8   9
HETATM    9  C2  UNL     1       7.741 -24.148   6.278  1.00  0.00    -0.021 C 
HETATM   10  C1  UNL     1       6.628 -23.705   7.238  1.00  0.00     0.009 C 
HETATM   11  C3  UNL     1       8.565 -22.937   5.979  1.00  0.00     0.009 C 
ENDBRANCH   8   9
ENDBRANCH   7   8
BRANCH   7  12
HETATM   12  C6  UNL     1       8.380 -26.662   3.974  1.00  0.00     0.026 C 
BRANCH  12  13
HETATM   13  C7  UNL     1       9.568 -27.433   4.379  1.00  0.00     0.009 C 
BRANCH  13  14
HETATM   14  C8  UNL     1      10.897 -26.817   4.230  1.00  0.00     0.020 C 
HETATM   15  C9  UNL     1      11.002 -25.557   5.146  1.00  0.00     0.010 C 
HETATM   16  C10 UNL     1      12.520 -25.869   5.103  1.00  0.00     0.038 C 
HETATM   17  C11 UNL     1      12.025 -27.352   5.038  1.00  0.00     0.174 C 
HETATM   18  F1  UNL     1      11.668 -27.640   6.356  1.00  0.00    -0.249 F 
ENDBRANCH  13  14
ENDBRANCH  12  13
ENDBRANCH   7  12
ENDBRANCH   4   7
ENDBRANCH   2   3
ENDBRANCH   1   2
BRANCH   1  19
HETATM   19  N2  UNL     1       1.939 -29.124   5.464  1.00  0.00    -0.323 N 
HETATM   20  C15 UNL     1       1.162 -28.452   6.433  1.00  0.00     0.362 C 
HETATM   21  O2  UNL     1       1.738 -27.913   7.403  1.00  0.00    -0.238 OA
ATOM     22  H2  UNL     1       1.474 -29.564   4.671  1.00  0.00     0.165 HD
BRANCH  20  23
HETATM   23  O3  UNL     1      -0.214 -28.365   6.354  1.00  0.00    -0.294 OA
BRANCH  23  24
HETATM   24  C16 UNL     1      -1.114 -29.365   6.797  1.00  0.00     0.061 C 
HETATM   25  C17 UNL     1      -1.927 -29.810   5.609  1.00  0.00     0.046 C 
HETATM   26  C18 UNL     1      -0.413 -30.548   7.406  1.00  0.00     0.046 C 
HETATM   27  C19 UNL     1      -2.080 -28.820   7.832  1.00  0.00     0.046 C 
ENDBRANCH  23  24
ENDBRANCH  20  23
ENDBRANCH   1  19
BRANCH   1  28
HETATM   28  C20 UNL     1       3.774 -30.455   4.857  1.00  0.00     0.241 C 
HETATM   29  O4  UNL     1       3.586 -31.537   5.515  1.00  0.00    -0.271 OA
HETATM   30  N3  UNL     1       4.288 -30.500   3.536  1.00  0.00    -0.346 N 
ATOM     31  H3  UNL     1       4.432 -29.621   3.041  1.00  0.00     0.163 HD
BRANCH  30  32
HETATM   32  C21 UNL     1       4.618 -31.731   2.861  1.00  0.00     0.183 C 
BRANCH  32  33
HETATM   33  C22 UNL     1       3.541 -32.218   1.933  1.00  0.00     0.120 C 
HETATM   34  S1  UNL     1       2.499 -33.476   2.704  1.00  0.00    -0.095 SA
ENDBRANCH  32  33
BRANCH  32  35
HETATM   35  C23 UNL     1       5.922 -31.712   2.190  1.00  0.00     0.254 C 
HETATM   36  N4  UNL     1       6.584 -32.934   1.932  1.00  0.00    -0.060 NA
HETATM   37  O5  UNL     1       6.465 -30.646   1.839  1.00  0.00    -0.275 OA
ENDBRANCH  32  35
ENDBRANCH  30  32
ENDBRANCH   1  28
TORSDOF 15
ENDMDL
