MODEL 1
REMARK VINA RESULT: -7.922475141      0.000      0.000
REMARK  14 active torsions:
REMARK  status: ('A' for Active; 'I' for Inactive)
REMARK    1  A    between atoms: C1_2  and  C2_4 
REMARK    2  A    between atoms: C2_4  and  C3_5 
REMARK    3  A    between atoms: C3_5  and  O3_6 
REMARK    4  A    between atoms: C3_5  and  C4_8 
REMARK    5  A    between atoms: C4_8  and  C5_9 
REMARK    6  A    between atoms: C4_8  and  C12_16 
REMARK    7  A    between atoms: C5_9  and  C6_10 
REMARK       I    between atoms: C12_16  and  N1_18 
REMARK    8  A    between atoms: N1_18  and  C13_20 
REMARK    9  A    between atoms: C13_20  and  C14_21 
REMARK   10  A    between atoms: C14_21  and  C15_22 
REMARK   11  A    between atoms: C14_21  and  N2_25 
REMARK   12  A    between atoms: N2_25  and  C16_26 
REMARK   13  A    between atoms: N2_25  and  C18_30 
REMARK   14  A    between atoms: C16_26  and  C17_27 
ROOT
HETATM    1  C12 UNL     1       5.937 -24.441   5.689  1.00  0.00     0.224 C 
HETATM    2  O4  UNL     1       5.027 -24.032   4.937  1.00  0.00    -0.273 OA
HETATM    3  N1  UNL     1       6.024 -25.846   5.974  1.00  0.00    -0.358 N 
ATOM      4  H1  UNL     1       6.778 -26.161   6.583  1.00  0.00     0.162 HD
ENDROOT
BRANCH   3   5
HETATM    5  C13 UNL     1       5.133 -26.827   5.466  1.00  0.00     0.159 C 
BRANCH   5   6
HETATM    6  C14 UNL     1       4.900 -27.954   6.408  1.00  0.00     0.204 C 
BRANCH   6   7
HETATM    7  C15 UNL     1       5.019 -27.624   7.834  1.00  0.00     0.198 C 
HETATM    8  O5  UNL     1       5.587 -28.348   8.669  1.00  0.00    -0.646 OA
HETATM    9  O6  UNL     1       4.478 -26.428   8.361  1.00  0.00    -0.646 OA
ENDBRANCH   6   7
BRANCH   6  10
HETATM   10  N2  UNL     1       3.577 -28.537   6.107  1.00  0.00    -0.349 N 
BRANCH  10  11
HETATM   11  C16 UNL     1       2.424 -27.905   6.632  1.00  0.00     0.237 C 
BRANCH  11  12
HETATM   12  C17 UNL     1       1.217 -27.910   5.795  1.00  0.00     0.191 C 
HETATM   13  O7  UNL     1       0.131 -28.418   6.175  1.00  0.00    -0.647 OA
HETATM   14  O8  UNL     1       1.227 -27.348   4.541  1.00  0.00    -0.647 OA
ENDBRANCH  11  12
ENDBRANCH  10  11
BRANCH  10  15
HETATM   15  C18 UNL     1       3.599 -29.718   5.291  1.00  0.00     0.074 A 
HETATM   16  C19 UNL     1       3.413 -31.019   5.680  1.00  0.00     0.039 A 
HETATM   17  C20 UNL     1       3.469 -31.961   4.719  1.00  0.00     0.034 A 
HETATM   18  C21 UNL     1       3.704 -31.539   3.441  1.00  0.00     0.076 A 
HETATM   19 CL1  UNL     1       3.831 -32.541   1.980  1.00  0.00    -0.076 Cl
HETATM   20  S1  UNL     1       3.842 -29.851   3.611  1.00  0.00    -0.060 SA
ENDBRANCH  10  15
ENDBRANCH   6  10
ENDBRANCH   5   6
ENDBRANCH   3   5
BRANCH   1  21
HETATM   21  C4  UNL     1       6.878 -23.479   6.256  1.00  0.00     0.107 C 
BRANCH  21  22
HETATM   22  C3  UNL     1       6.288 -23.109   7.628  1.00  0.00     0.141 C 
BRANCH  22  23
HETATM   23  C2  UNL     1       6.128 -21.634   7.808  1.00  0.00     0.145 C 
BRANCH  23  24
HETATM   24  C1  UNL     1       4.847 -21.069   7.398  1.00  0.00     0.175 C 
HETATM   25  O1  UNL     1       3.942 -21.598   6.744  1.00  0.00    -0.648 OA
HETATM   26  O2  UNL     1       4.616 -19.739   7.806  1.00  0.00    -0.648 OA
ENDBRANCH  23  24
ENDBRANCH  22  23
BRANCH  22  27
HETATM   27  O3  UNL     1       5.120 -23.757   7.821  1.00  0.00    -0.394 OA
ATOM     28  H3  UNL     1       5.263 -24.634   8.160  1.00  0.00     0.210 HD
ENDBRANCH  22  27
ENDBRANCH  21  22
BRANCH  21  29
HETATM   29  C5  UNL     1       8.245 -23.980   6.422  1.00  0.00     0.021 C 
BRANCH  29  30
HETATM   30  C6  UNL     1       9.259 -23.872   5.351  1.00  0.00    -0.014 C 
HETATM   31  C7  UNL     1      10.650 -23.645   6.031  1.00  0.00     0.005 C 
HETATM   32  C8  UNL     1      11.760 -24.252   5.249  1.00  0.00     0.000 C 
HETATM   33  C9  UNL     1      11.640 -25.769   5.176  1.00  0.00     0.000 C 
HETATM   34  C10 UNL     1      10.169 -26.166   5.139  1.00  0.00     0.000 C 
HETATM   35  C11 UNL     1       9.444 -25.036   4.434  1.00  0.00     0.005 C 
ENDBRANCH  29  30
ENDBRANCH  21  29
ENDBRANCH   1  21
TORSDOF 14
ENDMDL
MODEL 2
REMARK VINA RESULT: -7.898588184      1.263      1.505
REMARK  14 active torsions:
REMARK  status: ('A' for Active; 'I' for Inactive)
REMARK    1  A    between atoms: C1_2  and  C2_4 
REMARK    2  A    between atoms: C2_4  and  C3_5 
REMARK    3  A    between atoms: C3_5  and  O3_6 
REMARK    4  A    between atoms: C3_5  and  C4_8 
REMARK    5  A    between atoms: C4_8  and  C5_9 
REMARK    6  A    between atoms: C4_8  and  C12_16 
REMARK    7  A    between atoms: C5_9  and  C6_10 
REMARK       I    between atoms: C12_16  and  N1_18 
REMARK    8  A    between atoms: N1_18  and  C13_20 
REMARK    9  A    between atoms: C13_20  and  C14_21 
REMARK   10  A    between atoms: C14_21  and  C15_22 
REMARK   11  A    between atoms: C14_21  and  N2_25 
REMARK   12  A    between atoms: N2_25  and  C16_26 
REMARK   13  A    between atoms: N2_25  and  C18_30 
REMARK   14  A    between atoms: C16_26  and  C17_27 
ROOT
HETATM    1  C12 UNL     1       6.056 -24.688   5.655  1.00  0.00     0.224 C 
HETATM    2  O4  UNL     1       5.187 -24.313   4.839  1.00  0.00    -0.273 OA
HETATM    3  N1  UNL     1       6.136 -26.081   5.993  1.00  0.00    -0.358 N 
ATOM      4  H1  UNL     1       6.857 -26.368   6.654  1.00  0.00     0.162 HD
ENDROOT
BRANCH   3   5
HETATM    5  C13 UNL     1       5.281 -27.087   5.472  1.00  0.00     0.159 C 
BRANCH   5   6
HETATM    6  C14 UNL     1       4.740 -27.998   6.515  1.00  0.00     0.204 C 
BRANCH   6   7
HETATM    7  C15 UNL     1       4.991 -27.593   7.904  1.00  0.00     0.198 C 
HETATM    8  O5  UNL     1       4.539 -26.555   8.417  1.00  0.00    -0.646 OA
HETATM    9  O6  UNL     1       5.786 -28.380   8.769  1.00  0.00    -0.646 OA
ENDBRANCH   6   7
BRANCH   6  10
HETATM   10  N2  UNL     1       3.296 -28.174   6.266  1.00  0.00    -0.349 N 
BRANCH  10  11
HETATM   11  C16 UNL     1       2.440 -27.057   6.424  1.00  0.00     0.237 C 
BRANCH  11  12
HETATM   12  C17 UNL     1       2.203 -26.220   5.241  1.00  0.00     0.191 C 
HETATM   13  O7  UNL     1       2.185 -24.963   5.292  1.00  0.00    -0.647 OA
HETATM   14  O8  UNL     1       1.987 -26.788   4.009  1.00  0.00    -0.647 OA
ENDBRANCH  11  12
ENDBRANCH  10  11
BRANCH  10  15
HETATM   15  C18 UNL     1       2.897 -29.498   5.878  1.00  0.00     0.074 A 
HETATM   16  C19 UNL     1       3.687 -30.519   5.419  1.00  0.00     0.039 A 
HETATM   17  C20 UNL     1       3.077 -31.685   5.128  1.00  0.00     0.034 A 
HETATM   18  C21 UNL     1       1.726 -31.748   5.316  1.00  0.00     0.076 A 
HETATM   19 CL1  UNL     1       0.659 -33.138   5.022  1.00  0.00    -0.076 Cl
HETATM   20  S1  UNL     1       1.342 -30.192   5.890  1.00  0.00    -0.060 SA
ENDBRANCH  10  15
ENDBRANCH   6  10
ENDBRANCH   5   6
ENDBRANCH   3   5
BRANCH   1  21
HETATM   21  C4  UNL     1       6.958 -23.699   6.238  1.00  0.00     0.107 C 
BRANCH  21  22
HETATM   22  C3  UNL     1       6.341 -23.358   7.605  1.00  0.00     0.141 C 
BRANCH  22  23
HETATM   23  C2  UNL     1       6.207 -21.886   7.827  1.00  0.00     0.145 C 
BRANCH  23  24
HETATM   24  C1  UNL     1       4.954 -21.279   7.389  1.00  0.00     0.175 C 
HETATM   25  O1  UNL     1       4.071 -21.761   6.671  1.00  0.00    -0.648 OA
HETATM   26  O2  UNL     1       4.725 -19.966   7.851  1.00  0.00    -0.648 OA
ENDBRANCH  23  24
ENDBRANCH  22  23
BRANCH  22  27
HETATM   27  O3  UNL     1       5.155 -23.987   7.749  1.00  0.00    -0.394 OA
ATOM     28  H3  UNL     1       5.234 -24.751   8.309  1.00  0.00     0.210 HD
ENDBRANCH  22  27
ENDBRANCH  21  22
BRANCH  21  29
HETATM   29  C5  UNL     1       8.339 -24.156   6.417  1.00  0.00     0.021 C 
BRANCH  29  30
HETATM   30  C6  UNL     1       9.375 -23.958   5.380  1.00  0.00    -0.014 C 
HETATM   31  C7  UNL     1      10.741 -23.728   6.107  1.00  0.00     0.005 C 
HETATM   32  C8  UNL     1      11.888 -24.257   5.322  1.00  0.00     0.000 C 
HETATM   33  C9  UNL     1      11.817 -25.771   5.163  1.00  0.00     0.000 C 
HETATM   34  C10 UNL     1      10.361 -26.209   5.066  1.00  0.00     0.000 C 
HETATM   35  C11 UNL     1       9.618 -25.064   4.406  1.00  0.00     0.005 C 
ENDBRANCH  29  30
ENDBRANCH  21  29
ENDBRANCH   1  21
TORSDOF 14
ENDMDL
MODEL 3
REMARK VINA RESULT: -7.686554477      1.636      1.913
REMARK  14 active torsions:
REMARK  status: ('A' for Active; 'I' for Inactive)
REMARK    1  A    between atoms: C1_2  and  C2_4 
REMARK    2  A    between atoms: C2_4  and  C3_5 
REMARK    3  A    between atoms: C3_5  and  O3_6 
REMARK    4  A    between atoms: C3_5  and  C4_8 
REMARK    5  A    between atoms: C4_8  and  C5_9 
REMARK    6  A    between atoms: C4_8  and  C12_16 
REMARK    7  A    between atoms: C5_9  and  C6_10 
REMARK       I    between atoms: C12_16  and  N1_18 
REMARK    8  A    between atoms: N1_18  and  C13_20 
REMARK    9  A    between atoms: C13_20  and  C14_21 
REMARK   10  A    between atoms: C14_21  and  C15_22 
REMARK   11  A    between atoms: C14_21  and  N2_25 
REMARK   12  A    between atoms: N2_25  and  C16_26 
REMARK   13  A    between atoms: N2_25  and  C18_30 
REMARK   14  A    between atoms: C16_26  and  C17_27 
ROOT
HETATM    1  C12 UNL     1       5.639 -25.154   4.940  1.00  0.00     0.224 C 
HETATM    2  O4  UNL     1       4.706 -24.467   4.472  1.00  0.00    -0.273 OA
HETATM    3  N1  UNL     1       5.548 -26.586   4.874  1.00  0.00    -0.358 N 
ATOM      4  H1  UNL     1       6.324 -27.128   5.254  1.00  0.00     0.162 HD
ENDROOT
BRANCH   3   5
HETATM    5  C13 UNL     1       4.456 -27.299   4.317  1.00  0.00     0.159 C 
BRANCH   5   6
HETATM    6  C14 UNL     1       3.922 -28.355   5.217  1.00  0.00     0.204 C 
BRANCH   6   7
HETATM    7  C15 UNL     1       3.684 -27.944   6.607  1.00  0.00     0.198 C 
HETATM    8  O5  UNL     1       2.556 -27.847   7.120  1.00  0.00    -0.646 OA
HETATM    9  O6  UNL     1       4.755 -27.622   7.473  1.00  0.00    -0.646 OA
ENDBRANCH   6   7
BRANCH   6  10
HETATM   10  N2  UNL     1       2.692 -28.900   4.608  1.00  0.00    -0.349 N 
BRANCH  10  11
HETATM   11  C16 UNL     1       1.653 -28.002   4.261  1.00  0.00     0.237 C 
BRANCH  11  12
HETATM   12  C17 UNL     1       0.653 -28.474   3.296  1.00  0.00     0.191 C 
HETATM   13  O7  UNL     1       0.811 -28.373   2.052  1.00  0.00    -0.647 OA
HETATM   14  O8  UNL     1      -0.517 -29.055   3.721  1.00  0.00    -0.647 OA
ENDBRANCH  11  12
ENDBRANCH  10  11
BRANCH  10  15
HETATM   15  C18 UNL     1       2.678 -30.324   4.424  1.00  0.00     0.074 A 
HETATM   16  C19 UNL     1       3.342 -31.062   3.479  1.00  0.00     0.039 A 
HETATM   17  C20 UNL     1       3.177 -32.398   3.517  1.00  0.00     0.034 A 
HETATM   18  C21 UNL     1       2.364 -32.902   4.493  1.00  0.00     0.076 A 
HETATM   19 CL1  UNL     1       1.961 -34.607   4.789  1.00  0.00    -0.076 Cl
HETATM   20  S1  UNL     1       1.853 -31.509   5.327  1.00  0.00    -0.060 SA
ENDBRANCH  10  15
ENDBRANCH   6  10
ENDBRANCH   5   6
ENDBRANCH   3   5
BRANCH   1  21
HETATM   21  C4  UNL     1       6.786 -24.480   5.541  1.00  0.00     0.107 C 
BRANCH  21  22
HETATM   22  C3  UNL     1       6.399 -24.275   7.015  1.00  0.00     0.141 C 
BRANCH  22  23
HETATM   23  C2  UNL     1       6.583 -22.863   7.469  1.00  0.00     0.145 C 
BRANCH  23  24
HETATM   24  C1  UNL     1       5.409 -22.000   7.386  1.00  0.00     0.175 C 
HETATM   25  O1  UNL     1       4.406 -22.126   6.677  1.00  0.00    -0.648 OA
HETATM   26  O2  UNL     1       5.428 -20.871   8.232  1.00  0.00    -0.648 OA
ENDBRANCH  23  24
ENDBRANCH  22  23
BRANCH  22  27
HETATM   27  O3  UNL     1       5.134 -24.698   7.225  1.00  0.00    -0.394 OA
ATOM     28  H3  UNL     1       4.916 -25.432   6.662  1.00  0.00     0.210 HD
ENDBRANCH  22  27
ENDBRANCH  21  22
BRANCH  21  29
HETATM   29  C5  UNL     1       8.048 -25.221   5.458  1.00  0.00     0.021 C 
BRANCH  29  30
HETATM   30  C6  UNL     1       9.233 -24.681   4.758  1.00  0.00    -0.014 C 
HETATM   31  C7  UNL     1      10.167 -24.029   5.831  1.00  0.00     0.005 C 
HETATM   32  C8  UNL     1      11.604 -24.144   5.466  1.00  0.00     0.000 C 
HETATM   33  C9  UNL     1      12.065 -25.595   5.424  1.00  0.00     0.000 C 
HETATM   34  C10 UNL     1      10.923 -26.482   4.942  1.00  0.00     0.000 C 
HETATM   35  C11 UNL     1      10.098 -25.632   3.997  1.00  0.00     0.005 C 
ENDBRANCH  29  30
ENDBRANCH  21  29
ENDBRANCH   1  21
TORSDOF 14
ENDMDL
MODEL 4
REMARK VINA RESULT: -7.666768662      2.224      2.724
REMARK  14 active torsions:
REMARK  status: ('A' for Active; 'I' for Inactive)
REMARK    1  A    between atoms: C1_2  and  C2_4 
REMARK    2  A    between atoms: C2_4  and  C3_5 
REMARK    3  A    between atoms: C3_5  and  O3_6 
REMARK    4  A    between atoms: C3_5  and  C4_8 
REMARK    5  A    between atoms: C4_8  and  C5_9 
REMARK    6  A    between atoms: C4_8  and  C12_16 
REMARK    7  A    between atoms: C5_9  and  C6_10 
REMARK       I    between atoms: C12_16  and  N1_18 
REMARK    8  A    between atoms: N1_18  and  C13_20 
REMARK    9  A    between atoms: C13_20  and  C14_21 
REMARK   10  A    between atoms: C14_21  and  C15_22 
REMARK   11  A    between atoms: C14_21  and  N2_25 
REMARK   12  A    between atoms: N2_25  and  C16_26 
REMARK   13  A    between atoms: N2_25  and  C18_30 
REMARK   14  A    between atoms: C16_26  and  C17_27 
ROOT
HETATM    1  C12 UNL     1       6.972 -24.901   5.237  1.00  0.00     0.224 C 
HETATM    2  O4  UNL     1       6.559 -25.087   4.072  1.00  0.00    -0.273 OA
HETATM    3  N1  UNL     1       6.625 -25.852   6.256  1.00  0.00    -0.358 N 
ATOM      4  H1  UNL     1       6.978 -25.688   7.198  1.00  0.00     0.162 HD
ENDROOT
BRANCH   3   5
HETATM    5  C13 UNL     1       5.825 -27.005   6.044  1.00  0.00     0.159 C 
BRANCH   5   6
HETATM    6  C14 UNL     1       4.418 -26.836   6.492  1.00  0.00     0.204 C 
BRANCH   6   7
HETATM    7  C15 UNL     1       4.044 -25.479   6.913  1.00  0.00     0.198 C 
HETATM    8  O5  UNL     1       4.348 -24.983   8.011  1.00  0.00    -0.646 OA
HETATM    9  O6  UNL     1       3.292 -24.628   6.070  1.00  0.00    -0.646 OA
ENDBRANCH   6   7
BRANCH   6  10
HETATM   10  N2  UNL     1       3.531 -27.320   5.416  1.00  0.00    -0.349 N 
BRANCH  10  11
HETATM   11  C16 UNL     1       3.863 -27.010   4.074  1.00  0.00     0.237 C 
BRANCH  11  12
HETATM   12  C17 UNL     1       3.685 -28.072   3.076  1.00  0.00     0.191 C 
HETATM   13  O7  UNL     1       4.645 -28.753   2.631  1.00  0.00    -0.647 OA
HETATM   14  O8  UNL     1       2.439 -28.370   2.579  1.00  0.00    -0.647 OA
ENDBRANCH  11  12
ENDBRANCH  10  11
BRANCH  10  15
HETATM   15  C18 UNL     1       2.392 -28.077   5.853  1.00  0.00     0.074 A 
HETATM   16  C19 UNL     1       1.196 -27.607   6.329  1.00  0.00     0.039 A 
HETATM   17  C20 UNL     1       0.268 -28.523   6.669  1.00  0.00     0.034 A 
HETATM   18  C21 UNL     1       0.599 -29.839   6.510  1.00  0.00     0.076 A 
HETATM   19 CL1  UNL     1      -0.410 -31.256   6.870  1.00  0.00    -0.076 Cl
HETATM   20  S1  UNL     1       2.185 -29.767   5.895  1.00  0.00    -0.060 SA
ENDBRANCH  10  15
ENDBRANCH   6  10
ENDBRANCH   5   6
ENDBRANCH   3   5
BRANCH   1  21
HETATM   21  C4  UNL     1       7.788 -23.725   5.524  1.00  0.00     0.107 C 
BRANCH  21  22
HETATM   22  C3  UNL     1       7.006 -22.953   6.601  1.00  0.00     0.141 C 
BRANCH  22  23
HETATM   23  C2  UNL     1       5.752 -22.336   6.073  1.00  0.00     0.145 C 
BRANCH  23  24
HETATM   24  C1  UNL     1       4.920 -21.634   7.044  1.00  0.00     0.175 C 
HETATM   25  O1  UNL     1       3.695 -21.473   7.040  1.00  0.00    -0.648 OA
HETATM   26  O2  UNL     1       5.612 -21.064   8.133  1.00  0.00    -0.648 OA
ENDBRANCH  23  24
ENDBRANCH  22  23
BRANCH  22  27
HETATM   27  O3  UNL     1       6.752 -23.757   7.655  1.00  0.00    -0.394 OA
ATOM     28  H3  UNL     1       7.187 -23.445   8.441  1.00  0.00     0.210 HD
ENDBRANCH  22  27
ENDBRANCH  21  22
BRANCH  21  29
HETATM   29  C5  UNL     1       9.140 -24.018   6.007  1.00  0.00     0.021 C 
BRANCH  29  30
HETATM   30  C6  UNL     1      10.265 -24.286   5.085  1.00  0.00    -0.014 C 
HETATM   31  C7  UNL     1      11.517 -24.648   5.951  1.00  0.00     0.005 C 
HETATM   32  C8  UNL     1      12.409 -25.619   5.264  1.00  0.00     0.000 C 
HETATM   33  C9  UNL     1      11.725 -26.962   5.044  1.00  0.00     0.000 C 
HETATM   34  C10 UNL     1      10.238 -26.745   4.789  1.00  0.00     0.000 C 
HETATM   35  C11 UNL     1      10.121 -25.399   4.100  1.00  0.00     0.005 C 
ENDBRANCH  29  30
ENDBRANCH  21  29
ENDBRANCH   1  21
TORSDOF 14
ENDMDL
MODEL 5
REMARK VINA RESULT: -7.578226594      2.379      2.941
REMARK  14 active torsions:
REMARK  status: ('A' for Active; 'I' for Inactive)
REMARK    1  A    between atoms: C1_2  and  C2_4 
REMARK    2  A    between atoms: C2_4  and  C3_5 
REMARK    3  A    between atoms: C3_5  and  O3_6 
REMARK    4  A    between atoms: C3_5  and  C4_8 
REMARK    5  A    between atoms: C4_8  and  C5_9 
REMARK    6  A    between atoms: C4_8  and  C12_16 
REMARK    7  A    between atoms: C5_9  and  C6_10 
REMARK       I    between atoms: C12_16  and  N1_18 
REMARK    8  A    between atoms: N1_18  and  C13_20 
REMARK    9  A    between atoms: C13_20  and  C14_21 
REMARK   10  A    between atoms: C14_21  and  C15_22 
REMARK   11  A    between atoms: C14_21  and  N2_25 
REMARK   12  A    between atoms: N2_25  and  C16_26 
REMARK   13  A    between atoms: N2_25  and  C18_30 
REMARK   14  A    between atoms: C16_26  and  C17_27 
ROOT
HETATM    1  C12 UNL     1       5.794 -25.452   4.760  1.00  0.00     0.224 C 
HETATM    2  O4  UNL     1       4.837 -24.727   4.412  1.00  0.00    -0.273 OA
HETATM    3  N1  UNL     1       5.769 -26.846   4.416  1.00  0.00    -0.358 N 
ATOM      4  H1  UNL     1       6.563 -27.419   4.701  1.00  0.00     0.162 HD
ENDROOT
BRANCH   3   5
HETATM    5  C13 UNL     1       4.718 -27.482   3.707  1.00  0.00     0.159 C 
BRANCH   5   6
HETATM    6  C14 UNL     1       3.877 -28.360   4.563  1.00  0.00     0.204 C 
BRANCH   6   7
HETATM    7  C15 UNL     1       3.034 -27.667   5.546  1.00  0.00     0.198 C 
HETATM    8  O5  UNL     1       3.167 -27.777   6.776  1.00  0.00    -0.646 OA
HETATM    9  O6  UNL     1       1.985 -26.808   5.141  1.00  0.00    -0.646 OA
ENDBRANCH   6   7
BRANCH   6  10
HETATM   10  N2  UNL     1       3.065 -29.221   3.681  1.00  0.00    -0.349 N 
BRANCH  10  11
HETATM   11  C16 UNL     1       3.061 -28.953   2.290  1.00  0.00     0.237 C 
BRANCH  11  12
HETATM   12  C17 UNL     1       3.556 -30.013   1.402  1.00  0.00     0.191 C 
HETATM   13  O7  UNL     1       2.834 -30.970   1.021  1.00  0.00    -0.647 OA
HETATM   14  O8  UNL     1       4.850 -29.999   0.943  1.00  0.00    -0.647 OA
ENDBRANCH  11  12
ENDBRANCH  10  11
BRANCH  10  15
HETATM   15  C18 UNL     1       2.342 -30.270   4.344  1.00  0.00     0.074 A 
HETATM   16  C19 UNL     1       2.842 -31.415   4.909  1.00  0.00     0.039 A 
HETATM   17  C20 UNL     1       1.958 -32.250   5.488  1.00  0.00     0.034 A 
HETATM   18  C21 UNL     1       0.642 -31.885   5.463  1.00  0.00     0.076 A 
HETATM   19 CL1  UNL     1      -0.739 -32.775   6.138  1.00  0.00    -0.076 Cl
HETATM   20  S1  UNL     1       0.670 -30.396   4.637  1.00  0.00    -0.060 SA
ENDBRANCH  10  15
ENDBRANCH   6  10
ENDBRANCH   5   6
ENDBRANCH   3   5
BRANCH   1  21
HETATM   21  C4  UNL     1       6.901 -24.860   5.505  1.00  0.00     0.107 C 
BRANCH  21  22
HETATM   22  C3  UNL     1       6.417 -24.815   6.965  1.00  0.00     0.141 C 
BRANCH  22  23
HETATM   23  C2  UNL     1       6.220 -23.421   7.465  1.00  0.00     0.145 C 
BRANCH  23  24
HETATM   24  C1  UNL     1       4.910 -22.827   7.223  1.00  0.00     0.175 C 
HETATM   25  O1  UNL     1       3.810 -23.172   7.669  1.00  0.00    -0.648 OA
HETATM   26  O2  UNL     1       4.903 -21.708   6.364  1.00  0.00    -0.648 OA
ENDBRANCH  23  24
ENDBRANCH  22  23
BRANCH  22  27
HETATM   27  O3  UNL     1       5.293 -25.550   7.104  1.00  0.00    -0.394 OA
ATOM     28  H3  UNL     1       4.905 -25.753   6.260  1.00  0.00     0.210 HD
ENDBRANCH  22  27
ENDBRANCH  21  22
BRANCH  21  29
HETATM   29  C5  UNL     1       8.163 -25.600   5.424  1.00  0.00     0.021 C 
BRANCH  29  30
HETATM   30  C6  UNL     1       9.311 -25.115   4.628  1.00  0.00    -0.014 C 
HETATM   31  C7  UNL     1      10.213 -24.250   5.569  1.00  0.00     0.005 C 
HETATM   32  C8  UNL     1      11.652 -24.342   5.203  1.00  0.00     0.000 C 
HETATM   33  C9  UNL     1      12.195 -25.754   5.385  1.00  0.00     0.000 C 
HETATM   34  C10 UNL     1      11.102 -26.768   5.068  1.00  0.00     0.000 C 
HETATM   35  C11 UNL     1      10.223 -26.125   4.013  1.00  0.00     0.005 C 
ENDBRANCH  29  30
ENDBRANCH  21  29
ENDBRANCH   1  21
TORSDOF 14
ENDMDL
