MODEL 1
REMARK VINA RESULT: -7.978360037      0.000      0.000
REMARK  13 active torsions:
REMARK  status: ('A' for Active; 'I' for Inactive)
REMARK    1  A    between atoms: C2_2  and  N1_3 
REMARK    2  A    between atoms: C2_2  and  C12_26 
REMARK       I    between atoms: N1_3  and  C3_5 
REMARK    3  A    between atoms: C3_5  and  C4_7 
REMARK    4  A    between atoms: C4_7  and  N2_8 
REMARK    5  A    between atoms: N2_8  and  C5_10 
REMARK    6  A    between atoms: C5_10  and  C6_11 
REMARK    7  A    between atoms: C5_10  and  C10_20 
REMARK    8  A    between atoms: C7_14  and  C8_15 
REMARK    9  A    between atoms: C10_20  and  N5_22 
REMARK       I    between atoms: C12_26  and  N6_28 
REMARK   10  A    between atoms: N6_28  and  C13_30 
REMARK   11  A    between atoms: C13_30  and  C14_31 
REMARK   12  A    between atoms: C13_30  and  O4_33 
REMARK   13  A    between atoms: O4_33  and  C15_34 
ROOT
HETATM    1  N1  UNL     1       6.211 -22.654   7.275  1.00  0.00    -0.347 N 
ATOM      2  H1  UNL     1       6.556 -22.942   8.191  1.00  0.00     0.163 HD
HETATM    3  C3  UNL     1       5.350 -21.536   7.160  1.00  0.00     0.235 C 
HETATM    4  O1  UNL     1       4.974 -21.225   5.976  1.00  0.00    -0.272 OA
ENDROOT
BRANCH   1   5
HETATM    5  C2  UNL     1       6.605 -23.395   6.073  1.00  0.00     0.172 C 
HETATM    6  C1  UNL     1       8.059 -23.237   5.740  1.00  0.00     0.042 C 
BRANCH   5   7
HETATM    7  C12 UNL     1       6.254 -24.847   6.282  1.00  0.00     0.242 C 
HETATM    8  O3  UNL     1       7.180 -25.682   6.283  1.00  0.00    -0.271 OA
HETATM    9  N6  UNL     1       4.919 -25.231   6.479  1.00  0.00    -0.331 N 
ATOM     10  H6  UNL     1       4.165 -24.542   6.473  1.00  0.00     0.165 HD
BRANCH   9  11
HETATM   11  C13 UNL     1       4.642 -26.668   6.694  1.00  0.00     0.252 C 
BRANCH  11  12
HETATM   12  C14 UNL     1       4.261 -26.801   8.182  1.00  0.00     0.275 C 
HETATM   13  F1  UNL     1       5.003 -27.773   8.799  1.00  0.00    -0.251 F 
ENDBRANCH  11  12
BRANCH  11  14
HETATM   14  O4  UNL     1       3.604 -27.097   5.936  1.00  0.00    -0.358 OA
BRANCH  14  15
HETATM   15  C15 UNL     1       3.898 -28.089   4.997  1.00  0.00     0.132 C 
HETATM   16  C16 UNL     1       3.017 -27.781   3.800  1.00  0.00     0.016 C 
HETATM   17  C17 UNL     1       3.087 -28.804   2.717  1.00  0.00     0.012 C 
HETATM   18  C21 UNL     1       1.565 -27.683   4.237  1.00  0.00     0.012 C 
HETATM   19  C18 UNL     1       2.644 -30.135   3.265  1.00  0.00    -0.013 C 
HETATM   20  C19 UNL     1       1.256 -30.086   3.855  1.00  0.00     0.009 C 
HETATM   21  C24 UNL     1       3.592 -30.465   4.401  1.00  0.00     0.012 C 
HETATM   22  C20 UNL     1       1.164 -28.984   4.895  1.00  0.00    -0.013 C 
HETATM   23  C22 UNL     1       2.084 -29.323   6.033  1.00  0.00     0.012 C 
HETATM   24  C23 UNL     1       3.500 -29.449   5.506  1.00  0.00     0.016 C 
ENDBRANCH  14  15
ENDBRANCH  11  14
ENDBRANCH   9  11
ENDBRANCH   5   7
ENDBRANCH   1   5
BRANCH   3  25
HETATM   25  C4  UNL     1       4.867 -20.725   8.320  1.00  0.00     0.218 C 
BRANCH  25  26
HETATM   26  N2  UNL     1       3.476 -20.502   8.213  1.00  0.00    -0.401 N 
ATOM     27  H2  UNL     1       2.807 -21.219   8.490  1.00  0.00     0.154 HD
BRANCH  26  28
HETATM   28  C5  UNL     1       3.038 -19.255   7.710  1.00  0.00     0.164 C 
BRANCH  28  29
HETATM   29  C6  UNL     1       1.936 -19.380   6.690  1.00  0.00     0.076 A 
HETATM   30  N3  UNL     1       1.148 -20.417   6.454  1.00  0.00    -0.348 N 
HETATM   31  C7  UNL     1       0.265 -20.362   5.511  1.00  0.00     0.105 A 
ATOM     32  H3  UNL     1       1.238 -21.262   7.018  1.00  0.00     0.166 HD
HETATM   33  C9  UNL     1       0.187 -19.201   4.783  1.00  0.00     0.086 A 
HETATM   34  S1  UNL     1       1.404 -18.254   5.514  1.00  0.00    -0.084 SA
BRANCH  31  35
HETATM   35  C8  UNL     1      -0.647 -21.495   5.203  1.00  0.00     0.281 C 
HETATM   36  N4  UNL     1      -1.599 -21.962   6.151  1.00  0.00    -0.056 NA
HETATM   37  O2  UNL     1      -0.612 -22.084   4.099  1.00  0.00    -0.269 OA
ENDBRANCH  31  35
ENDBRANCH  28  29
BRANCH  28  38
HETATM   38  C10 UNL     1       2.538 -18.334   8.816  1.00  0.00     0.208 C 
HETATM   39  C11 UNL     1       1.611 -17.271   8.250  1.00  0.00     0.042 C 
BRANCH  38  40
HETATM   40  N5  UNL     1       1.810 -19.120   9.774  1.00  0.00    -0.073 N 
ATOM     41  H53 UNL     1       1.764 -20.105   9.516  1.00  0.00     0.274 HD
ATOM     42  H52 UNL     1       2.313 -19.227  10.654  1.00  0.00     0.274 HD
ATOM     43  H51 UNL     1       0.886 -18.706   9.900  1.00  0.00     0.274 HD
ENDBRANCH  38  40
ENDBRANCH  28  38
ENDBRANCH  26  28
ENDBRANCH  25  26
ENDBRANCH   3  25
TORSDOF 13
ENDMDL
MODEL 2
REMARK VINA RESULT: -7.965042312      6.785      9.025
REMARK  13 active torsions:
REMARK  status: ('A' for Active; 'I' for Inactive)
REMARK    1  A    between atoms: C2_2  and  N1_3 
REMARK    2  A    between atoms: C2_2  and  C12_26 
REMARK       I    between atoms: N1_3  and  C3_5 
REMARK    3  A    between atoms: C3_5  and  C4_7 
REMARK    4  A    between atoms: C4_7  and  N2_8 
REMARK    5  A    between atoms: N2_8  and  C5_10 
REMARK    6  A    between atoms: C5_10  and  C6_11 
REMARK    7  A    between atoms: C5_10  and  C10_20 
REMARK    8  A    between atoms: C7_14  and  C8_15 
REMARK    9  A    between atoms: C10_20  and  N5_22 
REMARK       I    between atoms: C12_26  and  N6_28 
REMARK   10  A    between atoms: N6_28  and  C13_30 
REMARK   11  A    between atoms: C13_30  and  C14_31 
REMARK   12  A    between atoms: C13_30  and  O4_33 
REMARK   13  A    between atoms: O4_33  and  C15_34 
ROOT
HETATM    1  N1  UNL     1       9.324 -25.261   5.123  1.00  0.00    -0.347 N 
ATOM      2  H1  UNL     1       9.155 -25.030   6.102  1.00  0.00     0.163 HD
HETATM    3  C3  UNL     1       8.243 -25.601   4.275  1.00  0.00     0.235 C 
HETATM    4  O1  UNL     1       8.534 -25.860   3.055  1.00  0.00    -0.272 OA
ENDROOT
BRANCH   1   5
HETATM    5  C2  UNL     1      10.689 -25.242   4.588  1.00  0.00     0.172 C 
HETATM    6  C1  UNL     1      11.564 -24.222   5.255  1.00  0.00     0.042 C 
BRANCH   5   7
HETATM    7  C12 UNL     1      11.269 -26.628   4.734  1.00  0.00     0.242 C 
HETATM    8  O3  UNL     1      11.708 -26.967   5.850  1.00  0.00    -0.271 OA
HETATM    9  N6  UNL     1      11.299 -27.500   3.636  1.00  0.00    -0.331 N 
ATOM     10  H6  UNL     1      10.941 -27.214   2.724  1.00  0.00     0.165 HD
BRANCH   9  11
HETATM   11  C13 UNL     1      11.865 -28.851   3.847  1.00  0.00     0.252 C 
BRANCH  11  12
HETATM   12  C14 UNL     1      10.678 -29.825   3.726  1.00  0.00     0.275 C 
HETATM   13  F1  UNL     1       9.523 -29.164   3.399  1.00  0.00    -0.251 F 
ENDBRANCH  11  12
BRANCH  11  14
HETATM   14  O4  UNL     1      12.786 -29.161   2.902  1.00  0.00    -0.358 OA
BRANCH  14  15
HETATM   15  C15 UNL     1      13.329 -30.446   2.973  1.00  0.00     0.132 C 
HETATM   16  C16 UNL     1      14.698 -30.267   3.605  1.00  0.00     0.016 C 
HETATM   17  C17 UNL     1      15.507 -31.518   3.660  1.00  0.00     0.012 C 
HETATM   18  C21 UNL     1      15.501 -29.243   2.821  1.00  0.00     0.012 C 
HETATM   19  C18 UNL     1      15.727 -32.028   2.260  1.00  0.00    -0.013 C 
HETATM   20  C19 UNL     1      16.394 -31.007   1.370  1.00  0.00     0.009 C 
HETATM   21  C24 UNL     1      14.350 -32.284   1.678  1.00  0.00     0.012 C 
HETATM   22  C20 UNL     1      15.614 -29.705   1.385  1.00  0.00    -0.013 C 
HETATM   23  C22 UNL     1      14.259 -29.952   0.786  1.00  0.00     0.012 C 
HETATM   24  C23 UNL     1      13.545 -31.016   1.596  1.00  0.00     0.016 C 
ENDBRANCH  14  15
ENDBRANCH  11  14
ENDBRANCH   9  11
ENDBRANCH   5   7
ENDBRANCH   1   5
BRANCH   3  25
HETATM   25  C4  UNL     1       6.818 -25.675   4.722  1.00  0.00     0.218 C 
BRANCH  25  26
HETATM   26  N2  UNL     1       6.644 -26.753   5.619  1.00  0.00    -0.401 N 
ATOM     27  H2  UNL     1       6.825 -27.713   5.327  1.00  0.00     0.154 HD
BRANCH  26  28
HETATM   28  C5  UNL     1       6.213 -26.462   6.934  1.00  0.00     0.164 C 
BRANCH  28  29
HETATM   29  C6  UNL     1       5.831 -25.017   7.127  1.00  0.00     0.076 A 
HETATM   30  N3  UNL     1       4.621 -24.494   7.232  1.00  0.00    -0.348 N 
HETATM   31  C7  UNL     1       4.473 -23.216   7.368  1.00  0.00     0.105 A 
ATOM     32  H3  UNL     1       3.801 -25.100   7.207  1.00  0.00     0.166 HD
HETATM   33  C9  UNL     1       5.610 -22.446   7.395  1.00  0.00     0.086 A 
HETATM   34  S1  UNL     1       6.830 -23.628   7.225  1.00  0.00    -0.084 SA
BRANCH  31  35
HETATM   35  C8  UNL     1       3.138 -22.574   7.491  1.00  0.00     0.281 C 
HETATM   36  N4  UNL     1       2.843 -21.670   8.549  1.00  0.00    -0.056 NA
HETATM   37  O2  UNL     1       2.221 -22.804   6.670  1.00  0.00    -0.269 OA
ENDBRANCH  31  35
ENDBRANCH  28  29
BRANCH  28  38
HETATM   38  C10 UNL     1       5.019 -27.312   7.348  1.00  0.00     0.208 C 
HETATM   39  C11 UNL     1       4.341 -27.914   6.128  1.00  0.00     0.042 C 
BRANCH  38  40
HETATM   40  N5  UNL     1       5.484 -28.379   8.190  1.00  0.00    -0.073 N 
ATOM     41  H53 UNL     1       6.500 -28.467   8.184  1.00  0.00     0.274 HD
ATOM     42  H52 UNL     1       5.367 -28.174   9.182  1.00  0.00     0.274 HD
ATOM     43  H51 UNL     1       5.017 -29.242   7.913  1.00  0.00     0.274 HD
ENDBRANCH  38  40
ENDBRANCH  28  38
ENDBRANCH  26  28
ENDBRANCH  25  26
ENDBRANCH   3  25
TORSDOF 13
ENDMDL
MODEL 3
REMARK VINA RESULT: -7.962837688      1.506      2.080
REMARK  13 active torsions:
REMARK  status: ('A' for Active; 'I' for Inactive)
REMARK    1  A    between atoms: C2_2  and  N1_3 
REMARK    2  A    between atoms: C2_2  and  C12_26 
REMARK       I    between atoms: N1_3  and  C3_5 
REMARK    3  A    between atoms: C3_5  and  C4_7 
REMARK    4  A    between atoms: C4_7  and  N2_8 
REMARK    5  A    between atoms: N2_8  and  C5_10 
REMARK    6  A    between atoms: C5_10  and  C6_11 
REMARK    7  A    between atoms: C5_10  and  C10_20 
REMARK    8  A    between atoms: C7_14  and  C8_15 
REMARK    9  A    between atoms: C10_20  and  N5_22 
REMARK       I    between atoms: C12_26  and  N6_28 
REMARK   10  A    between atoms: N6_28  and  C13_30 
REMARK   11  A    between atoms: C13_30  and  C14_31 
REMARK   12  A    between atoms: C13_30  and  O4_33 
REMARK   13  A    between atoms: O4_33  and  C15_34 
ROOT
HETATM    1  N1  UNL     1       7.204 -23.406   6.707  1.00  0.00    -0.347 N 
ATOM      2  H1  UNL     1       7.575 -23.540   7.647  1.00  0.00     0.163 HD
HETATM    3  C3  UNL     1       6.196 -22.440   6.472  1.00  0.00     0.235 C 
HETATM    4  O1  UNL     1       5.794 -22.317   5.262  1.00  0.00    -0.272 OA
ENDROOT
BRANCH   1   5
HETATM    5  C2  UNL     1       7.712 -24.211   5.592  1.00  0.00     0.172 C 
HETATM    6  C1  UNL     1       9.208 -24.178   5.483  1.00  0.00     0.042 C 
BRANCH   5   7
HETATM    7  C12 UNL     1       7.217 -25.625   5.772  1.00  0.00     0.242 C 
HETATM    8  O3  UNL     1       7.848 -26.545   5.216  1.00  0.00    -0.271 OA
HETATM    9  N6  UNL     1       6.080 -25.881   6.553  1.00  0.00    -0.331 N 
ATOM     10  H6  UNL     1       5.566 -25.123   7.002  1.00  0.00     0.165 HD
BRANCH   9  11
HETATM   11  C13 UNL     1       5.653 -27.290   6.703  1.00  0.00     0.252 C 
BRANCH  11  12
HETATM   12  C14 UNL     1       5.103 -27.409   8.138  1.00  0.00     0.275 C 
HETATM   13  F1  UNL     1       5.755 -28.387   8.841  1.00  0.00    -0.251 F 
ENDBRANCH  11  12
BRANCH  11  14
HETATM   14  O4  UNL     1       4.670 -27.612   5.828  1.00  0.00    -0.358 OA
BRANCH  14  15
HETATM   15  C15 UNL     1       3.510 -28.157   6.382  1.00  0.00     0.132 C 
HETATM   16  C16 UNL     1       3.208 -29.388   5.547  1.00  0.00     0.016 C 
HETATM   17  C17 UNL     1       1.923 -30.058   5.898  1.00  0.00     0.012 C 
HETATM   18  C21 UNL     1       3.136 -29.012   4.076  1.00  0.00     0.012 C 
HETATM   19  C18 UNL     1       0.787 -29.091   5.689  1.00  0.00    -0.013 C 
HETATM   20  C19 UNL     1       0.735 -28.554   4.280  1.00  0.00     0.009 C 
HETATM   21  C24 UNL     1       1.062 -27.909   6.599  1.00  0.00     0.012 C 
HETATM   22  C20 UNL     1       2.074 -27.951   3.895  1.00  0.00    -0.013 C 
HETATM   23  C22 UNL     1       2.334 -26.764   4.778  1.00  0.00     0.012 C 
HETATM   24  C23 UNL     1       2.344 -27.216   6.225  1.00  0.00     0.016 C 
ENDBRANCH  14  15
ENDBRANCH  11  14
ENDBRANCH   9  11
ENDBRANCH   5   7
ENDBRANCH   1   5
BRANCH   3  25
HETATM   25  C4  UNL     1       5.589 -21.584   7.537  1.00  0.00     0.218 C 
BRANCH  25  26
HETATM   26  N2  UNL     1       4.590 -20.753   6.984  1.00  0.00    -0.401 N 
ATOM     27  H2  UNL     1       4.631 -20.462   6.008  1.00  0.00     0.154 HD
BRANCH  26  28
HETATM   28  C5  UNL     1       3.531 -20.335   7.823  1.00  0.00     0.164 C 
BRANCH  28  29
HETATM   29  C6  UNL     1       2.250 -20.067   7.074  1.00  0.00     0.076 A 
HETATM   30  N3  UNL     1       1.421 -20.940   6.527  1.00  0.00    -0.348 N 
HETATM   31  C7  UNL     1       0.372 -20.531   5.890  1.00  0.00     0.105 A 
ATOM     32  H3  UNL     1       1.608 -21.939   6.608  1.00  0.00     0.166 HD
HETATM   33  C9  UNL     1       0.168 -19.175   5.812  1.00  0.00     0.086 A 
HETATM   34  S1  UNL     1       1.514 -18.573   6.671  1.00  0.00    -0.084 SA
BRANCH  31  35
HETATM   35  C8  UNL     1      -0.594 -21.465   5.258  1.00  0.00     0.281 C 
HETATM   36  N4  UNL     1      -0.408 -21.941   3.930  1.00  0.00    -0.056 NA
HETATM   37  O2  UNL     1      -1.611 -21.871   5.867  1.00  0.00    -0.269 OA
ENDBRANCH  31  35
ENDBRANCH  28  29
BRANCH  28  38
HETATM   38  C10 UNL     1       3.222 -21.356   8.910  1.00  0.00     0.208 C 
HETATM   39  C11 UNL     1       2.150 -20.831   9.851  1.00  0.00     0.042 C 
BRANCH  38  40
HETATM   40  N5  UNL     1       2.741 -22.559   8.287  1.00  0.00    -0.073 N 
ATOM     41  H53 UNL     1       3.496 -23.190   8.021  1.00  0.00     0.274 HD
ATOM     42  H52 UNL     1       2.266 -23.177   8.945  1.00  0.00     0.274 HD
ATOM     43  H51 UNL     1       2.150 -22.302   7.496  1.00  0.00     0.274 HD
ENDBRANCH  38  40
ENDBRANCH  28  38
ENDBRANCH  26  28
ENDBRANCH  25  26
ENDBRANCH   3  25
TORSDOF 13
ENDMDL
MODEL 4
REMARK VINA RESULT: -7.944517279      6.944      9.089
REMARK  13 active torsions:
REMARK  status: ('A' for Active; 'I' for Inactive)
REMARK    1  A    between atoms: C2_2  and  N1_3 
REMARK    2  A    between atoms: C2_2  and  C12_26 
REMARK       I    between atoms: N1_3  and  C3_5 
REMARK    3  A    between atoms: C3_5  and  C4_7 
REMARK    4  A    between atoms: C4_7  and  N2_8 
REMARK    5  A    between atoms: N2_8  and  C5_10 
REMARK    6  A    between atoms: C5_10  and  C6_11 
REMARK    7  A    between atoms: C5_10  and  C10_20 
REMARK    8  A    between atoms: C7_14  and  C8_15 
REMARK    9  A    between atoms: C10_20  and  N5_22 
REMARK       I    between atoms: C12_26  and  N6_28 
REMARK   10  A    between atoms: N6_28  and  C13_30 
REMARK   11  A    between atoms: C13_30  and  C14_31 
REMARK   12  A    between atoms: C13_30  and  O4_33 
REMARK   13  A    between atoms: O4_33  and  C15_34 
ROOT
HETATM    1  N1  UNL     1       9.339 -25.603   4.978  1.00  0.00    -0.347 N 
ATOM      2  H1  UNL     1       9.212 -25.402   5.970  1.00  0.00     0.163 HD
HETATM    3  C3  UNL     1       8.214 -25.809   4.144  1.00  0.00     0.235 C 
HETATM    4  O1  UNL     1       8.454 -26.039   2.908  1.00  0.00    -0.272 OA
ENDROOT
BRANCH   1   5
HETATM    5  C2  UNL     1      10.689 -25.680   4.409  1.00  0.00     0.172 C 
HETATM    6  C1  UNL     1      11.665 -24.771   5.097  1.00  0.00     0.042 C 
BRANCH   5   7
HETATM    7  C12 UNL     1      11.146 -27.116   4.482  1.00  0.00     0.242 C 
HETATM    8  O3  UNL     1      11.529 -27.557   5.583  1.00  0.00    -0.271 OA
HETATM    9  N6  UNL     1      11.127 -27.922   3.334  1.00  0.00    -0.331 N 
ATOM     10  H6  UNL     1      10.816 -27.554   2.434  1.00  0.00     0.165 HD
BRANCH   9  11
HETATM   11  C13 UNL     1      11.573 -29.326   3.473  1.00  0.00     0.252 C 
BRANCH  11  12
HETATM   12  C14 UNL     1      10.317 -30.188   3.245  1.00  0.00     0.275 C 
HETATM   13  F1  UNL     1      10.473 -31.020   2.168  1.00  0.00    -0.251 F 
ENDBRANCH  11  12
BRANCH  11  14
HETATM   14  O4  UNL     1      12.503 -29.651   2.542  1.00  0.00    -0.358 OA
BRANCH  14  15
HETATM   15  C15 UNL     1      13.798 -29.871   3.018  1.00  0.00     0.132 C 
HETATM   16  C16 UNL     1      14.714 -29.536   1.855  1.00  0.00     0.016 C 
HETATM   17  C17 UNL     1      16.153 -29.825   2.115  1.00  0.00     0.012 C 
HETATM   18  C21 UNL     1      14.306 -30.335   0.628  1.00  0.00     0.012 C 
HETATM   19  C18 UNL     1      16.319 -31.294   2.403  1.00  0.00    -0.013 C 
HETATM   20  C19 UNL     1      15.800 -32.166   1.286  1.00  0.00     0.009 C 
HETATM   21  C24 UNL     1      15.466 -31.588   3.622  1.00  0.00     0.012 C 
HETATM   22  C20 UNL     1      14.360 -31.809   0.964  1.00  0.00    -0.013 C 
HETATM   23  C22 UNL     1      13.510 -32.124   2.162  1.00  0.00     0.012 C 
HETATM   24  C23 UNL     1      14.011 -31.325   3.349  1.00  0.00     0.016 C 
ENDBRANCH  14  15
ENDBRANCH  11  14
ENDBRANCH   9  11
ENDBRANCH   5   7
ENDBRANCH   1   5
BRANCH   3  25
HETATM   25  C4  UNL     1       6.798 -25.778   4.624  1.00  0.00     0.218 C 
BRANCH  25  26
HETATM   26  N2  UNL     1       6.558 -26.857   5.504  1.00  0.00    -0.401 N 
ATOM     27  H2  UNL     1       6.619 -27.822   5.180  1.00  0.00     0.154 HD
BRANCH  26  28
HETATM   28  C5  UNL     1       6.231 -26.561   6.847  1.00  0.00     0.164 C 
BRANCH  28  29
HETATM   29  C6  UNL     1       5.885 -25.110   7.068  1.00  0.00     0.076 A 
HETATM   30  N3  UNL     1       4.688 -24.561   7.191  1.00  0.00    -0.348 N 
HETATM   31  C7  UNL     1       4.572 -23.282   7.349  1.00  0.00     0.105 A 
ATOM     32  H3  UNL     1       3.854 -25.146   7.161  1.00  0.00     0.166 HD
HETATM   33  C9  UNL     1       5.727 -22.540   7.381  1.00  0.00     0.086 A 
HETATM   34  S1  UNL     1       6.917 -23.747   7.181  1.00  0.00    -0.084 SA
BRANCH  31  35
HETATM   35  C8  UNL     1       3.254 -22.611   7.493  1.00  0.00     0.281 C 
HETATM   36  N4  UNL     1       2.992 -21.709   8.561  1.00  0.00    -0.056 NA
HETATM   37  O2  UNL     1       2.322 -22.813   6.681  1.00  0.00    -0.269 OA
ENDBRANCH  31  35
ENDBRANCH  28  29
BRANCH  28  38
HETATM   38  C10 UNL     1       5.059 -27.394   7.350  1.00  0.00     0.208 C 
HETATM   39  C11 UNL     1       4.334 -28.055   6.189  1.00  0.00     0.042 C 
BRANCH  38  40
HETATM   40  N5  UNL     1       5.564 -28.419   8.222  1.00  0.00    -0.073 N 
ATOM     41  H53 UNL     1       6.244 -29.024   7.761  1.00  0.00     0.274 HD
ATOM     42  H52 UNL     1       6.176 -28.047   8.948  1.00  0.00     0.274 HD
ATOM     43  H51 UNL     1       4.775 -28.940   8.605  1.00  0.00     0.274 HD
ENDBRANCH  38  40
ENDBRANCH  28  38
ENDBRANCH  26  28
ENDBRANCH  25  26
ENDBRANCH   3  25
TORSDOF 13
ENDMDL
MODEL 5
REMARK VINA RESULT: -7.835136487      6.540     10.463
REMARK  13 active torsions:
REMARK  status: ('A' for Active; 'I' for Inactive)
REMARK    1  A    between atoms: C2_2  and  N1_3 
REMARK    2  A    between atoms: C2_2  and  C12_26 
REMARK       I    between atoms: N1_3  and  C3_5 
REMARK    3  A    between atoms: C3_5  and  C4_7 
REMARK    4  A    between atoms: C4_7  and  N2_8 
REMARK    5  A    between atoms: N2_8  and  C5_10 
REMARK    6  A    between atoms: C5_10  and  C6_11 
REMARK    7  A    between atoms: C5_10  and  C10_20 
REMARK    8  A    between atoms: C7_14  and  C8_15 
REMARK    9  A    between atoms: C10_20  and  N5_22 
REMARK       I    between atoms: C12_26  and  N6_28 
REMARK   10  A    between atoms: N6_28  and  C13_30 
REMARK   11  A    between atoms: C13_30  and  C14_31 
REMARK   12  A    between atoms: C13_30  and  O4_33 
REMARK   13  A    between atoms: O4_33  and  C15_34 
ROOT
HETATM    1  N1  UNL     1      10.497 -24.492   5.035  1.00  0.00    -0.347 N 
ATOM      2  H1  UNL     1      10.235 -24.658   4.064  1.00  0.00     0.163 HD
HETATM    3  C3  UNL     1      11.734 -24.971   5.529  1.00  0.00     0.235 C 
HETATM    4  O1  UNL     1      12.000 -24.708   6.754  1.00  0.00    -0.272 OA
ENDROOT
BRANCH   1   5
HETATM    5  C2  UNL     1       9.595 -23.757   5.926  1.00  0.00     0.172 C 
HETATM    6  C1  UNL     1       9.870 -22.282   5.949  1.00  0.00     0.042 C 
BRANCH   5   7
HETATM    7  C12 UNL     1       8.177 -24.033   5.489  1.00  0.00     0.242 C 
HETATM    8  O3  UNL     1       7.353 -23.099   5.539  1.00  0.00    -0.271 OA
HETATM    9  N6  UNL     1       7.814 -25.310   5.034  1.00  0.00    -0.331 N 
ATOM     10  H6  UNL     1       8.493 -26.071   5.000  1.00  0.00     0.165 HD
BRANCH   9  11
HETATM   11  C13 UNL     1       6.413 -25.513   4.605  1.00  0.00     0.252 C 
BRANCH  11  12
HETATM   12  C14 UNL     1       6.493 -26.122   3.192  1.00  0.00     0.275 C 
HETATM   13  F1  UNL     1       7.664 -25.779   2.568  1.00  0.00    -0.251 F 
ENDBRANCH  11  12
BRANCH  11  14
HETATM   14  O4  UNL     1       5.761 -26.378   5.419  1.00  0.00    -0.358 OA
BRANCH  14  15
HETATM   15  C15 UNL     1       4.599 -26.953   4.899  1.00  0.00     0.132 C 
HETATM   16  C16 UNL     1       3.466 -26.054   5.360  1.00  0.00     0.016 C 
HETATM   17  C17 UNL     1       2.109 -26.564   5.012  1.00  0.00     0.012 C 
HETATM   18  C21 UNL     1       3.515 -25.892   6.870  1.00  0.00     0.012 C 
HETATM   19  C18 UNL     1       1.902 -27.907   5.661  1.00  0.00    -0.013 C 
HETATM   20  C19 UNL     1       2.079 -27.860   7.158  1.00  0.00     0.009 C 
HETATM   21  C24 UNL     1       2.990 -28.814   5.119  1.00  0.00     0.012 C 
HETATM   22  C20 UNL     1       3.428 -27.259   7.512  1.00  0.00    -0.013 C 
HETATM   23  C22 UNL     1       4.506 -28.170   6.998  1.00  0.00     0.012 C 
HETATM   24  C23 UNL     1       4.358 -28.315   5.496  1.00  0.00     0.016 C 
ENDBRANCH  14  15
ENDBRANCH  11  14
ENDBRANCH   9  11
ENDBRANCH   5   7
ENDBRANCH   1   5
BRANCH   3  25
HETATM   25  C4  UNL     1      12.717 -25.752   4.716  1.00  0.00     0.218 C 
BRANCH  25  26
HETATM   26  N2  UNL     1      12.483 -27.137   4.869  1.00  0.00    -0.401 N 
ATOM     27  H2  UNL     1      12.655 -27.603   5.759  1.00  0.00     0.154 HD
BRANCH  26  28
HETATM   28  C5  UNL     1      12.003 -27.859   3.752  1.00  0.00     0.164 C 
BRANCH  28  29
HETATM   29  C6  UNL     1      12.994 -28.866   3.226  1.00  0.00     0.076 A 
HETATM   30  N3  UNL     1      14.275 -28.690   2.947  1.00  0.00    -0.348 N 
HETATM   31  C7  UNL     1      14.978 -29.666   2.471  1.00  0.00     0.105 A 
ATOM     32  H3  UNL     1      14.711 -27.781   3.107  1.00  0.00     0.166 HD
HETATM   33  C9  UNL     1      14.343 -30.867   2.274  1.00  0.00     0.086 A 
HETATM   34  S1  UNL     1      12.757 -30.507   2.794  1.00  0.00    -0.084 SA
BRANCH  31  35
HETATM   35  C8  UNL     1      16.420 -29.525   2.141  1.00  0.00     0.281 C 
HETATM   36  N4  UNL     1      17.361 -30.540   2.472  1.00  0.00    -0.056 NA
HETATM   37  O2  UNL     1      16.865 -28.509   1.559  1.00  0.00    -0.269 OA
ENDBRANCH  31  35
ENDBRANCH  28  29
BRANCH  28  38
HETATM   38  C10 UNL     1      10.711 -28.605   4.062  1.00  0.00     0.208 C 
HETATM   39  C11 UNL     1      10.372 -28.499   5.540  1.00  0.00     0.042 C 
BRANCH  38  40
HETATM   40  N5  UNL     1       9.646 -28.014   3.300  1.00  0.00    -0.073 N 
ATOM     41  H53 UNL     1       9.442 -27.057   3.590  1.00  0.00     0.274 HD
ATOM     42  H52 UNL     1       9.917 -27.814   2.338  1.00  0.00     0.274 HD
ATOM     43  H51 UNL     1       8.828 -28.621   3.357  1.00  0.00     0.274 HD
ENDBRANCH  38  40
ENDBRANCH  28  38
ENDBRANCH  26  28
ENDBRANCH  25  26
ENDBRANCH   3  25
TORSDOF 13
ENDMDL
