MODEL 1
REMARK VINA RESULT: -7.240314325      0.000      0.000
REMARK  16 active torsions:
REMARK  status: ('A' for Active; 'I' for Inactive)
REMARK    1  A    between atoms: O1_2  and  C2_3 
REMARK    2  A    between atoms: C2_3  and  C3_5 
REMARK    3  A    between atoms: C3_5  and  C4_6 
REMARK    4  A    between atoms: C4_6  and  C5_7 
REMARK    5  A    between atoms: C4_6  and  C10_16 
REMARK    6  A    between atoms: C5_7  and  C6_8 
REMARK       I    between atoms: C6_8  and  N1_10 
REMARK    7  A    between atoms: N1_10  and  C7_12 
REMARK    8  A    between atoms: C7_12  and  C8_13 
REMARK    9  A    between atoms: C8_13  and  C9_14 
REMARK   10  A    between atoms: C10_16  and  C11_17 
REMARK   11  A    between atoms: C10_16  and  N2_21 
REMARK   12  A    between atoms: C11_17  and  C12_18 
REMARK       I    between atoms: N2_21  and  C15_23 
REMARK   13  A    between atoms: C15_23  and  C16_25 
REMARK   14  A    between atoms: C17_26  and  O5_27 
REMARK   15  A    between atoms: C18_29  and  C19_30 
REMARK   16  A    between atoms: C19_30  and  O6_33 
ROOT
HETATM    1  C10 UNL     1       7.890 -25.598   4.628  1.00  0.00     0.118 C 
ENDROOT
BRANCH   1   2
HETATM    2  C4  UNL     1       9.243 -26.193   4.400  1.00  0.00    -0.024 C 
BRANCH   2   3
HETATM    3  C3  UNL     1      10.426 -25.348   4.404  1.00  0.00     0.091 C 
BRANCH   3   4
HETATM    4  C2  UNL     1      11.504 -25.456   5.369  1.00  0.00     0.283 C 
HETATM    5  O2  UNL     1      11.765 -24.648   6.304  1.00  0.00    -0.260 OA
BRANCH   4   6
HETATM    6  O1  UNL     1      12.377 -26.527   5.324  1.00  0.00    -0.323 OA
HETATM    7  C1  UNL     1      12.983 -27.007   4.138  1.00  0.00     0.213 C 
ENDBRANCH   4   6
ENDBRANCH   3   4
ENDBRANCH   2   3
BRANCH   2   8
HETATM    8  C5  UNL     1       9.213 -27.496   3.725  1.00  0.00     0.083 C 
BRANCH   8   9
HETATM    9  C6  UNL     1       9.996 -28.637   4.073  1.00  0.00     0.241 C 
HETATM   10  O3  UNL     1      10.393 -29.072   5.168  1.00  0.00    -0.269 OA
HETATM   11  N1  UNL     1      10.440 -29.481   2.972  1.00  0.00    -0.357 N 
ATOM     12  H1  UNL     1      10.175 -29.222   2.022  1.00  0.00     0.162 HD
BRANCH  11  13
HETATM   13  C7  UNL     1      11.231 -30.658   3.164  1.00  0.00     0.125 C 
BRANCH  13  14
HETATM   14  C8  UNL     1      11.871 -31.031   1.859  1.00  0.00     0.051 C 
BRANCH  14  15
HETATM   15  C9  UNL     1      12.763 -29.911   1.370  1.00  0.00     0.224 C 
HETATM   16  F1  UNL     1      12.407 -29.555   0.093  1.00  0.00    -0.255 F 
ENDBRANCH  14  15
ENDBRANCH  13  14
ENDBRANCH  11  13
ENDBRANCH   8   9
ENDBRANCH   2   8
ENDBRANCH   1   2
BRANCH   1  17
HETATM   17  C11 UNL     1       7.634 -24.244   5.039  1.00  0.00     0.034 C 
BRANCH  17  18
HETATM   18  C12 UNL     1       8.167 -23.740   6.356  1.00  0.00    -0.021 C 
HETATM   19  C13 UNL     1       7.000 -23.135   7.183  1.00  0.00     0.009 C 
HETATM   20  C14 UNL     1       9.138 -22.610   6.205  1.00  0.00     0.009 C 
ENDBRANCH  17  18
ENDBRANCH   1  17
BRANCH   1  21
HETATM   21  N2  UNL     1       7.088 -26.498   5.500  1.00  0.00    -0.352 N 
HETATM   22  C15 UNL     1       5.731 -26.776   5.294  1.00  0.00     0.226 C 
HETATM   23  O4  UNL     1       5.183 -26.205   4.298  1.00  0.00    -0.273 OA
ATOM     24  H2  UNL     1       7.554 -26.939   6.294  1.00  0.00     0.163 HD
BRANCH  22  25
HETATM   25  C16 UNL     1       4.962 -27.684   6.178  1.00  0.00     0.125 C 
HETATM   26  C17 UNL     1       4.099 -28.606   5.422  1.00  0.00     0.149 C 
HETATM   27  C18 UNL     1       2.722 -28.143   5.281  1.00  0.00     0.111 C 
HETATM   28  S1  UNL     1       2.441 -27.267   6.869  1.00  0.00    -0.148 SA
HETATM   29  C22 UNL     1       4.212 -26.894   7.168  1.00  0.00     0.016 C 
HETATM   30  C23 UNL     1       4.573 -27.294   8.608  1.00  0.00     0.028 C 
HETATM   31  C24 UNL     1       4.345 -25.408   7.098  1.00  0.00     0.028 C 
BRANCH  26  32
HETATM   32  O5  UNL     1       4.650 -28.863   4.171  1.00  0.00    -0.393 OA
ATOM     33  H5  UNL     1       5.545 -28.545   4.136  1.00  0.00     0.210 HD
ENDBRANCH  26  32
BRANCH  27  34
HETATM   34  C19 UNL     1       1.669 -29.206   5.192  1.00  0.00     0.065 C 
HETATM   35  C20 UNL     1       0.507 -28.823   4.319  1.00  0.00     0.047 C 
HETATM   36  C21 UNL     1       1.117 -29.491   6.583  1.00  0.00     0.047 C 
BRANCH  34  37
HETATM   37  O6  UNL     1       2.185 -30.415   4.723  1.00  0.00    -0.389 OA
ATOM     38  H6  UNL     1       1.681 -31.160   5.030  1.00  0.00     0.210 HD
ENDBRANCH  34  37
ENDBRANCH  27  34
ENDBRANCH  22  25
ENDBRANCH   1  21
TORSDOF 16
ENDMDL
MODEL 2
REMARK VINA RESULT: -7.231992778      1.266      1.453
REMARK  16 active torsions:
REMARK  status: ('A' for Active; 'I' for Inactive)
REMARK    1  A    between atoms: O1_2  and  C2_3 
REMARK    2  A    between atoms: C2_3  and  C3_5 
REMARK    3  A    between atoms: C3_5  and  C4_6 
REMARK    4  A    between atoms: C4_6  and  C5_7 
REMARK    5  A    between atoms: C4_6  and  C10_16 
REMARK    6  A    between atoms: C5_7  and  C6_8 
REMARK       I    between atoms: C6_8  and  N1_10 
REMARK    7  A    between atoms: N1_10  and  C7_12 
REMARK    8  A    between atoms: C7_12  and  C8_13 
REMARK    9  A    between atoms: C8_13  and  C9_14 
REMARK   10  A    between atoms: C10_16  and  C11_17 
REMARK   11  A    between atoms: C10_16  and  N2_21 
REMARK   12  A    between atoms: C11_17  and  C12_18 
REMARK       I    between atoms: N2_21  and  C15_23 
REMARK   13  A    between atoms: C15_23  and  C16_25 
REMARK   14  A    between atoms: C17_26  and  O5_27 
REMARK   15  A    between atoms: C18_29  and  C19_30 
REMARK   16  A    between atoms: C19_30  and  O6_33 
ROOT
HETATM    1  C10 UNL     1       8.014 -25.008   5.274  1.00  0.00     0.118 C 
ENDROOT
BRANCH   1   2
HETATM    2  C4  UNL     1       9.275 -25.696   4.858  1.00  0.00    -0.024 C 
BRANCH   2   3
HETATM    3  C3  UNL     1      10.495 -24.931   4.655  1.00  0.00     0.091 C 
BRANCH   3   4
HETATM    4  C2  UNL     1      11.598 -24.888   5.596  1.00  0.00     0.283 C 
HETATM    5  O2  UNL     1      11.806 -24.005   6.475  1.00  0.00    -0.260 OA
BRANCH   4   6
HETATM    6  O1  UNL     1      12.561 -25.879   5.591  1.00  0.00    -0.323 OA
HETATM    7  C1  UNL     1      12.896 -26.653   4.453  1.00  0.00     0.213 C 
ENDBRANCH   4   6
ENDBRANCH   3   4
ENDBRANCH   2   3
BRANCH   2   8
HETATM    8  C5  UNL     1       9.059 -27.008   4.236  1.00  0.00     0.083 C 
BRANCH   8   9
HETATM    9  C6  UNL     1       9.899 -28.152   4.383  1.00  0.00     0.241 C 
HETATM   10  O3  UNL     1      10.307 -28.761   5.386  1.00  0.00    -0.269 OA
HETATM   11  N1  UNL     1      10.399 -28.753   3.154  1.00  0.00    -0.357 N 
ATOM     12  H1  UNL     1      10.130 -28.336   2.263  1.00  0.00     0.162 HD
BRANCH  11  13
HETATM   13  C7  UNL     1      11.250 -29.904   3.141  1.00  0.00     0.125 C 
BRANCH  13  14
HETATM   14  C8  UNL     1      12.374 -29.666   2.176  1.00  0.00     0.051 C 
BRANCH  14  15
HETATM   15  C9  UNL     1      13.707 -29.903   2.851  1.00  0.00     0.224 C 
HETATM   16  F1  UNL     1      14.582 -28.898   2.520  1.00  0.00    -0.255 F 
ENDBRANCH  14  15
ENDBRANCH  13  14
ENDBRANCH  11  13
ENDBRANCH   8   9
ENDBRANCH   2   8
ENDBRANCH   1   2
BRANCH   1  17
HETATM   17  C11 UNL     1       7.934 -23.884   6.166  1.00  0.00     0.034 C 
BRANCH  17  18
HETATM   18  C12 UNL     1       6.593 -23.293   6.518  1.00  0.00    -0.021 C 
HETATM   19  C13 UNL     1       6.174 -22.279   5.419  1.00  0.00     0.009 C 
HETATM   20  C14 UNL     1       6.617 -22.483   7.777  1.00  0.00     0.009 C 
ENDBRANCH  17  18
ENDBRANCH   1  17
BRANCH   1  21
HETATM   21  N2  UNL     1       7.018 -26.018   5.723  1.00  0.00    -0.352 N 
HETATM   22  C15 UNL     1       5.791 -26.240   5.085  1.00  0.00     0.226 C 
HETATM   23  O4  UNL     1       5.545 -25.514   4.069  1.00  0.00    -0.273 OA
ATOM     24  H2  UNL     1       7.242 -26.582   6.543  1.00  0.00     0.163 HD
BRANCH  22  25
HETATM   25  C16 UNL     1       4.823 -27.259   5.554  1.00  0.00     0.125 C 
HETATM   26  C17 UNL     1       4.245 -28.037   4.446  1.00  0.00     0.149 C 
HETATM   27  C18 UNL     1       2.957 -27.532   3.980  1.00  0.00     0.111 C 
HETATM   28  S1  UNL     1       2.200 -26.908   5.531  1.00  0.00    -0.148 SA
HETATM   29  C22 UNL     1       3.795 -26.619   6.389  1.00  0.00     0.016 C 
HETATM   30  C23 UNL     1       3.730 -27.245   7.793  1.00  0.00     0.028 C 
HETATM   31  C24 UNL     1       3.900 -25.143   6.591  1.00  0.00     0.028 C 
BRANCH  26  32
HETATM   32  O5  UNL     1       5.145 -28.107   3.388  1.00  0.00    -0.393 OA
ATOM     33  H5  UNL     1       5.513 -27.249   3.214  1.00  0.00     0.210 HD
ENDBRANCH  26  32
BRANCH  27  34
HETATM   34  C19 UNL     1       2.007 -28.550   3.425  1.00  0.00     0.065 C 
HETATM   35  C20 UNL     1       0.564 -28.141   3.535  1.00  0.00     0.047 C 
HETATM   36  C21 UNL     1       2.166 -29.861   4.184  1.00  0.00     0.047 C 
BRANCH  34  37
HETATM   37  O6  UNL     1       2.274 -28.839   2.087  1.00  0.00    -0.389 OA
ATOM     38  H6  UNL     1       1.623 -28.466   1.504  1.00  0.00     0.210 HD
ENDBRANCH  34  37
ENDBRANCH  27  34
ENDBRANCH  22  25
ENDBRANCH   1  21
TORSDOF 16
ENDMDL
MODEL 3
REMARK VINA RESULT: -7.169879065      1.044      1.219
REMARK  16 active torsions:
REMARK  status: ('A' for Active; 'I' for Inactive)
REMARK    1  A    between atoms: O1_2  and  C2_3 
REMARK    2  A    between atoms: C2_3  and  C3_5 
REMARK    3  A    between atoms: C3_5  and  C4_6 
REMARK    4  A    between atoms: C4_6  and  C5_7 
REMARK    5  A    between atoms: C4_6  and  C10_16 
REMARK    6  A    between atoms: C5_7  and  C6_8 
REMARK       I    between atoms: C6_8  and  N1_10 
REMARK    7  A    between atoms: N1_10  and  C7_12 
REMARK    8  A    between atoms: C7_12  and  C8_13 
REMARK    9  A    between atoms: C8_13  and  C9_14 
REMARK   10  A    between atoms: C10_16  and  C11_17 
REMARK   11  A    between atoms: C10_16  and  N2_21 
REMARK   12  A    between atoms: C11_17  and  C12_18 
REMARK       I    between atoms: N2_21  and  C15_23 
REMARK   13  A    between atoms: C15_23  and  C16_25 
REMARK   14  A    between atoms: C17_26  and  O5_27 
REMARK   15  A    between atoms: C18_29  and  C19_30 
REMARK   16  A    between atoms: C19_30  and  O6_33 
ROOT
HETATM    1  C10 UNL     1       8.194 -25.497   5.163  1.00  0.00     0.118 C 
ENDROOT
BRANCH   1   2
HETATM    2  C4  UNL     1       9.440 -26.173   4.688  1.00  0.00    -0.024 C 
BRANCH   2   3
HETATM    3  C3  UNL     1      10.645 -25.398   4.437  1.00  0.00     0.091 C 
BRANCH   3   4
HETATM    4  C2  UNL     1      11.761 -25.303   5.358  1.00  0.00     0.283 C 
HETATM    5  O2  UNL     1      11.935 -24.423   6.247  1.00  0.00    -0.260 OA
BRANCH   4   6
HETATM    6  O1  UNL     1      12.780 -26.236   5.320  1.00  0.00    -0.323 OA
HETATM    7  C1  UNL     1      13.068 -27.050   4.197  1.00  0.00     0.213 C 
ENDBRANCH   4   6
ENDBRANCH   3   4
ENDBRANCH   2   3
BRANCH   2   8
HETATM    8  C5  UNL     1       9.206 -27.481   4.066  1.00  0.00     0.083 C 
BRANCH   8   9
HETATM    9  C6  UNL     1      10.020 -28.642   4.228  1.00  0.00     0.241 C 
HETATM   10  O3  UNL     1      10.551 -29.154   5.228  1.00  0.00    -0.269 OA
HETATM   11  N1  UNL     1      10.314 -29.403   3.021  1.00  0.00    -0.357 N 
ATOM     12  H1  UNL     1       9.932 -29.076   2.133  1.00  0.00     0.162 HD
BRANCH  11  13
HETATM   13  C7  UNL     1      11.116 -30.588   3.024  1.00  0.00     0.125 C 
BRANCH  13  14
HETATM   14  C8  UNL     1      12.426 -30.291   2.357  1.00  0.00     0.051 C 
BRANCH  14  15
HETATM   15  C9  UNL     1      12.361 -30.642   0.887  1.00  0.00     0.224 C 
HETATM   16  F1  UNL     1      12.421 -29.498   0.131  1.00  0.00    -0.255 F 
ENDBRANCH  14  15
ENDBRANCH  13  14
ENDBRANCH  11  13
ENDBRANCH   8   9
ENDBRANCH   2   8
ENDBRANCH   1   2
BRANCH   1  17
HETATM   17  C11 UNL     1       8.138 -24.439   6.136  1.00  0.00     0.034 C 
BRANCH  17  18
HETATM   18  C12 UNL     1       7.909 -23.017   5.694  1.00  0.00    -0.021 C 
HETATM   19  C13 UNL     1       9.204 -22.192   5.930  1.00  0.00     0.009 C 
HETATM   20  C14 UNL     1       6.868 -22.308   6.503  1.00  0.00     0.009 C 
ENDBRANCH  17  18
ENDBRANCH   1  17
BRANCH   1  21
HETATM   21  N2  UNL     1       7.184 -26.521   5.546  1.00  0.00    -0.352 N 
HETATM   22  C15 UNL     1       5.827 -26.441   5.208  1.00  0.00     0.226 C 
HETATM   23  O4  UNL     1       5.471 -25.418   4.541  1.00  0.00    -0.273 OA
ATOM     24  H2  UNL     1       7.498 -27.328   6.085  1.00  0.00     0.163 HD
BRANCH  22  25
HETATM   25  C16 UNL     1       4.847 -27.482   5.599  1.00  0.00     0.125 C 
HETATM   26  C17 UNL     1       4.256 -28.163   4.436  1.00  0.00     0.149 C 
HETATM   27  C18 UNL     1       2.974 -27.608   4.017  1.00  0.00     0.111 C 
HETATM   28  S1  UNL     1       2.229 -27.098   5.615  1.00  0.00    -0.148 SA
HETATM   29  C22 UNL     1       3.830 -26.897   6.487  1.00  0.00     0.016 C 
HETATM   30  C23 UNL     1       3.761 -27.630   7.837  1.00  0.00     0.028 C 
HETATM   31  C24 UNL     1       3.954 -25.443   6.804  1.00  0.00     0.028 C 
BRANCH  26  32
HETATM   32  O5  UNL     1       5.153 -28.161   3.372  1.00  0.00    -0.393 OA
ATOM     33  H5  UNL     1       4.853 -27.569   2.693  1.00  0.00     0.210 HD
ENDBRANCH  26  32
BRANCH  27  34
HETATM   34  C19 UNL     1       2.009 -28.566   3.386  1.00  0.00     0.065 C 
HETATM   35  C20 UNL     1       0.574 -28.135   3.508  1.00  0.00     0.047 C 
HETATM   36  C21 UNL     1       2.132 -29.927   4.060  1.00  0.00     0.047 C 
BRANCH  34  37
HETATM   37  O6  UNL     1       2.286 -28.774   2.035  1.00  0.00    -0.389 OA
ATOM     38  H6  UNL     1       2.510 -29.680   1.852  1.00  0.00     0.210 HD
ENDBRANCH  34  37
ENDBRANCH  27  34
ENDBRANCH  22  25
ENDBRANCH   1  21
TORSDOF 16
ENDMDL
MODEL 4
REMARK VINA RESULT: -7.096323845      2.185      3.097
REMARK  16 active torsions:
REMARK  status: ('A' for Active; 'I' for Inactive)
REMARK    1  A    between atoms: O1_2  and  C2_3 
REMARK    2  A    between atoms: C2_3  and  C3_5 
REMARK    3  A    between atoms: C3_5  and  C4_6 
REMARK    4  A    between atoms: C4_6  and  C5_7 
REMARK    5  A    between atoms: C4_6  and  C10_16 
REMARK    6  A    between atoms: C5_7  and  C6_8 
REMARK       I    between atoms: C6_8  and  N1_10 
REMARK    7  A    between atoms: N1_10  and  C7_12 
REMARK    8  A    between atoms: C7_12  and  C8_13 
REMARK    9  A    between atoms: C8_13  and  C9_14 
REMARK   10  A    between atoms: C10_16  and  C11_17 
REMARK   11  A    between atoms: C10_16  and  N2_21 
REMARK   12  A    between atoms: C11_17  and  C12_18 
REMARK       I    between atoms: N2_21  and  C15_23 
REMARK   13  A    between atoms: C15_23  and  C16_25 
REMARK   14  A    between atoms: C17_26  and  O5_27 
REMARK   15  A    between atoms: C18_29  and  C19_30 
REMARK   16  A    between atoms: C19_30  and  O6_33 
ROOT
HETATM    1  C10 UNL     1       5.958 -24.406   6.320  1.00  0.00     0.118 C 
ENDROOT
BRANCH   1   2
HETATM    2  C4  UNL     1       7.396 -24.638   5.982  1.00  0.00    -0.024 C 
BRANCH   2   3
HETATM    3  C3  UNL     1       8.205 -23.559   5.439  1.00  0.00     0.091 C 
BRANCH   3   4
HETATM    4  C2  UNL     1       9.552 -23.247   5.878  1.00  0.00     0.283 C 
HETATM    5  O2  UNL     1      10.001 -22.108   6.188  1.00  0.00    -0.260 OA
BRANCH   4   6
HETATM    6  O1  UNL     1      10.498 -24.247   5.993  1.00  0.00    -0.323 OA
HETATM    7  C1  UNL     1      11.868 -24.083   5.674  1.00  0.00     0.213 C 
ENDBRANCH   4   6
ENDBRANCH   3   4
ENDBRANCH   2   3
BRANCH   2   8
HETATM    8  C5  UNL     1       7.740 -26.051   5.785  1.00  0.00     0.083 C 
BRANCH   8   9
HETATM    9  C6  UNL     1       8.391 -26.601   4.641  1.00  0.00     0.241 C 
HETATM   10  O3  UNL     1       8.006 -26.791   3.475  1.00  0.00    -0.269 OA
HETATM   11  N1  UNL     1       9.768 -27.040   4.825  1.00  0.00    -0.357 N 
ATOM     12  H1  UNL     1      10.194 -26.936   5.746  1.00  0.00     0.162 HD
BRANCH  11  13
HETATM   13  C7  UNL     1      10.550 -27.611   3.771  1.00  0.00     0.125 C 
BRANCH  13  14
HETATM   14  C8  UNL     1      12.004 -27.405   4.079  1.00  0.00     0.051 C 
BRANCH  14  15
HETATM   15  C9  UNL     1      12.833 -28.516   3.473  1.00  0.00     0.224 C 
HETATM   16  F1  UNL     1      14.128 -28.091   3.303  1.00  0.00    -0.255 F 
ENDBRANCH  14  15
ENDBRANCH  13  14
ENDBRANCH  11  13
ENDBRANCH   8   9
ENDBRANCH   2   8
ENDBRANCH   1   2
BRANCH   1  17
HETATM   17  C11 UNL     1       5.477 -23.601   7.409  1.00  0.00     0.034 C 
BRANCH  17  18
HETATM   18  C12 UNL     1       4.632 -22.384   7.133  1.00  0.00    -0.021 C 
HETATM   19  C13 UNL     1       5.266 -21.150   7.832  1.00  0.00     0.009 C 
HETATM   20  C14 UNL     1       3.257 -22.474   7.722  1.00  0.00     0.009 C 
ENDBRANCH  17  18
ENDBRANCH   1  17
BRANCH   1  21
HETATM   21  N2  UNL     1       5.239 -25.709   6.365  1.00  0.00    -0.352 N 
HETATM   22  C15 UNL     1       4.551 -26.257   5.275  1.00  0.00     0.226 C 
HETATM   23  O4  UNL     1       4.558 -25.572   4.202  1.00  0.00    -0.273 OA
ATOM     24  H2  UNL     1       5.247 -26.233   7.241  1.00  0.00     0.163 HD
BRANCH  22  25
HETATM   25  C16 UNL     1       3.850 -27.560   5.350  1.00  0.00     0.125 C 
HETATM   26  C17 UNL     1       4.126 -28.416   4.185  1.00  0.00     0.149 C 
HETATM   27  C18 UNL     1       3.116 -28.327   3.135  1.00  0.00     0.111 C 
HETATM   28  S1  UNL     1       1.575 -28.074   4.100  1.00  0.00    -0.148 SA
HETATM   29  C22 UNL     1       2.410 -27.337   5.557  1.00  0.00     0.016 C 
HETATM   30  C23 UNL     1       1.903 -28.033   6.831  1.00  0.00     0.028 C 
HETATM   31  C24 UNL     1       1.943 -25.921   5.636  1.00  0.00     0.028 C 
BRANCH  26  32
HETATM   32  O5  UNL     1       5.384 -28.128   3.666  1.00  0.00    -0.393 OA
ATOM     33  H5  UNL     1       5.302 -27.739   2.804  1.00  0.00     0.210 HD
ENDBRANCH  26  32
BRANCH  27  34
HETATM   34  C19 UNL     1       2.903 -29.561   2.312  1.00  0.00     0.065 C 
HETATM   35  C20 UNL     1       1.535 -29.636   1.693  1.00  0.00     0.047 C 
HETATM   36  C21 UNL     1       3.070 -30.793   3.193  1.00  0.00     0.047 C 
BRANCH  34  37
HETATM   37  O6  UNL     1       3.848 -29.680   1.293  1.00  0.00    -0.389 OA
ATOM     38  H6  UNL     1       4.554 -30.271   1.529  1.00  0.00     0.210 HD
ENDBRANCH  34  37
ENDBRANCH  27  34
ENDBRANCH  22  25
ENDBRANCH   1  21
TORSDOF 16
ENDMDL
MODEL 5
REMARK VINA RESULT: -7.093191961      4.042      6.744
REMARK  16 active torsions:
REMARK  status: ('A' for Active; 'I' for Inactive)
REMARK    1  A    between atoms: O1_2  and  C2_3 
REMARK    2  A    between atoms: C2_3  and  C3_5 
REMARK    3  A    between atoms: C3_5  and  C4_6 
REMARK    4  A    between atoms: C4_6  and  C5_7 
REMARK    5  A    between atoms: C4_6  and  C10_16 
REMARK    6  A    between atoms: C5_7  and  C6_8 
REMARK       I    between atoms: C6_8  and  N1_10 
REMARK    7  A    between atoms: N1_10  and  C7_12 
REMARK    8  A    between atoms: C7_12  and  C8_13 
REMARK    9  A    between atoms: C8_13  and  C9_14 
REMARK   10  A    between atoms: C10_16  and  C11_17 
REMARK   11  A    between atoms: C10_16  and  N2_21 
REMARK   12  A    between atoms: C11_17  and  C12_18 
REMARK       I    between atoms: N2_21  and  C15_23 
REMARK   13  A    between atoms: C15_23  and  C16_25 
REMARK   14  A    between atoms: C17_26  and  O5_27 
REMARK   15  A    between atoms: C18_29  and  C19_30 
REMARK   16  A    between atoms: C19_30  and  O6_33 
ROOT
HETATM    1  C10 UNL     1       5.726 -25.910   4.550  1.00  0.00     0.118 C 
ENDROOT
BRANCH   1   2
HETATM    2  C4  UNL     1       5.625 -24.646   5.341  1.00  0.00    -0.024 C 
BRANCH   2   3
HETATM    3  C3  UNL     1       6.649 -23.621   5.219  1.00  0.00     0.091 C 
BRANCH   3   4
HETATM    4  C2  UNL     1       7.473 -23.154   6.318  1.00  0.00     0.283 C 
HETATM    5  O2  UNL     1       7.104 -22.428   7.283  1.00  0.00    -0.260 OA
BRANCH   4   6
HETATM    6  O1  UNL     1       8.810 -23.498   6.384  1.00  0.00    -0.323 OA
HETATM    7  C1  UNL     1       9.869 -22.641   5.999  1.00  0.00     0.213 C 
ENDBRANCH   4   6
ENDBRANCH   3   4
ENDBRANCH   2   3
BRANCH   2   8
HETATM    8  C5  UNL     1       4.756 -24.749   6.520  1.00  0.00     0.083 C 
BRANCH   8   9
HETATM    9  C6  UNL     1       3.649 -23.901   6.820  1.00  0.00     0.241 C 
HETATM   10  O3  UNL     1       2.482 -23.872   6.393  1.00  0.00    -0.269 OA
HETATM   11  N1  UNL     1       3.881 -22.854   7.806  1.00  0.00    -0.357 N 
ATOM     12  H1  UNL     1       4.807 -22.778   8.228  1.00  0.00     0.162 HD
BRANCH  11  13
HETATM   13  C7  UNL     1       2.869 -21.927   8.210  1.00  0.00     0.125 C 
BRANCH  13  14
HETATM   14  C8  UNL     1       3.055 -20.644   7.456  1.00  0.00     0.051 C 
BRANCH  14  15
HETATM   15  C9  UNL     1       4.478 -20.150   7.599  1.00  0.00     0.224 C 
HETATM   16  F1  UNL     1       4.642 -18.988   6.888  1.00  0.00    -0.255 F 
ENDBRANCH  14  15
ENDBRANCH  13  14
ENDBRANCH  11  13
ENDBRANCH   8   9
ENDBRANCH   2   8
ENDBRANCH   1   2
BRANCH   1  17
HETATM   17  C11 UNL     1       6.609 -26.129   3.437  1.00  0.00     0.034 C 
BRANCH  17  18
HETATM   18  C12 UNL     1       8.000 -26.661   3.670  1.00  0.00    -0.021 C 
HETATM   19  C13 UNL     1       8.204 -26.916   5.188  1.00  0.00     0.009 C 
HETATM   20  C14 UNL     1       9.074 -25.680   3.313  1.00  0.00     0.009 C 
ENDBRANCH  17  18
ENDBRANCH   1  17
BRANCH   1  21
HETATM   21  N2  UNL     1       4.365 -26.357   4.145  1.00  0.00    -0.352 N 
HETATM   22  C15 UNL     1       3.699 -27.447   4.721  1.00  0.00     0.226 C 
HETATM   23  O4  UNL     1       4.326 -28.071   5.635  1.00  0.00    -0.273 OA
ATOM     24  H2  UNL     1       3.889 -25.840   3.406  1.00  0.00     0.163 HD
BRANCH  22  25
HETATM   25  C16 UNL     1       2.341 -27.862   4.300  1.00  0.00     0.125 C 
HETATM   26  C17 UNL     1       1.369 -27.811   5.404  1.00  0.00     0.149 C 
HETATM   27  C18 UNL     1       1.173 -29.091   6.077  1.00  0.00     0.111 C 
HETATM   28  S1  UNL     1       1.360 -30.288   4.698  1.00  0.00    -0.148 SA
HETATM   29  C22 UNL     1       2.402 -29.188   3.665  1.00  0.00     0.016 C 
HETATM   30  C23 UNL     1       1.838 -29.162   2.234  1.00  0.00     0.028 C 
HETATM   31  C24 UNL     1       3.742 -29.842   3.577  1.00  0.00     0.028 C 
BRANCH  26  32
HETATM   32  O5  UNL     1       1.740 -26.836   6.324  1.00  0.00    -0.393 OA
ATOM     33  H5  UNL     1       2.679 -26.698   6.294  1.00  0.00     0.210 HD
ENDBRANCH  26  32
BRANCH  27  34
HETATM   34  C19 UNL     1      -0.184 -29.331   6.666  1.00  0.00     0.065 C 
HETATM   35  C20 UNL     1      -0.272 -30.602   7.463  1.00  0.00     0.047 C 
HETATM   36  C21 UNL     1      -1.213 -29.426   5.546  1.00  0.00     0.047 C 
BRANCH  34  37
HETATM   37  O6  UNL     1      -0.594 -28.277   7.483  1.00  0.00    -0.389 OA
ATOM     38  H6  UNL     1      -1.395 -28.481   7.953  1.00  0.00     0.210 HD
ENDBRANCH  34  37
ENDBRANCH  27  34
ENDBRANCH  22  25
ENDBRANCH   1  21
TORSDOF 16
ENDMDL
