MODEL 1
REMARK VINA RESULT: -7.661376556      0.000      0.000
REMARK  17 active torsions:
REMARK  status: ('A' for Active; 'I' for Inactive)
REMARK    1  A    between atoms: C2_2  and  C3_4 
REMARK    2  A    between atoms: C7_8  and  C8_9 
REMARK    3  A    between atoms: C8_9  and  O2_10 
REMARK    4  A    between atoms: C8_9  and  C9_12 
REMARK    5  A    between atoms: C9_12  and  O3_13 
REMARK    6  A    between atoms: C9_12  and  C10_15 
REMARK    7  A    between atoms: C10_15  and  O4_16 
REMARK    8  A    between atoms: C10_15  and  C11_18 
REMARK    9  A    between atoms: C11_18  and  C12_19 
REMARK   10  A    between atoms: C12_19  and  C14_21 
REMARK   11  A    between atoms: C14_21  and  O5_22 
REMARK   12  A    between atoms: C14_21  and  C15_24 
REMARK   13  A    between atoms: C16_25  and  C17_26 
REMARK   14  A    between atoms: C17_26  and  C18_27 
REMARK   15  A    between atoms: C18_27  and  C19_28 
REMARK       I    between atoms: C19_28  and  N1_30 
REMARK   16  A    between atoms: N1_30  and  C20_32 
REMARK   17  A    between atoms: C20_32  and  C21_33 
ROOT
HETATM    1  C10 UNL     1       4.394 -24.608   6.675  1.00  0.00     0.150 C 
ENDROOT
BRANCH   1   2
HETATM    2  C9  UNL     1       5.429 -23.739   7.307  1.00  0.00     0.179 C 
BRANCH   2   3
HETATM    3  C8  UNL     1       6.295 -23.151   6.160  1.00  0.00     0.174 C 
BRANCH   3   4
HETATM    4  C7  UNL     1       6.716 -24.183   5.241  1.00  0.00     0.044 C 
HETATM    5  C6  UNL     1       7.908 -24.662   4.957  1.00  0.00     0.075 A 
HETATM    6  C4  UNL     1       9.232 -24.329   5.464  1.00  0.00    -0.016 A 
HETATM    7  O7  UNL     1       8.141 -25.673   4.027  1.00  0.00    -0.341 OA
HETATM    8  C3  UNL     1      10.165 -25.065   4.899  1.00  0.00     0.025 A 
HETATM    9  C5  UNL     1       9.550 -23.271   6.477  1.00  0.00     0.052 C 
HETATM   10  C22 UNL     1       9.460 -26.011   3.991  1.00  0.00     0.162 A 
HETATM   11  C23 UNL     1       9.605 -27.402   4.603  1.00  0.00     0.045 C 
BRANCH   8  12
HETATM   12  C2  UNL     1      11.635 -25.064   5.066  1.00  0.00     0.154 C 
HETATM   13  C1  UNL     1      12.410 -26.311   4.708  1.00  0.00     0.096 C 
HETATM   14  O1  UNL     1      12.332 -24.131   5.481  1.00  0.00    -0.293 OA
ENDBRANCH   8  12
ENDBRANCH   3   4
BRANCH   3  15
HETATM   15  O2  UNL     1       5.558 -22.180   5.497  1.00  0.00    -0.389 OA
ATOM     16  H2  UNL     1       6.119 -21.462   5.229  1.00  0.00     0.210 HD
ENDBRANCH   3  15
ENDBRANCH   2   3
BRANCH   2  17
HETATM   17  O3  UNL     1       4.796 -22.696   7.993  1.00  0.00    -0.390 OA
ATOM     18  H3  UNL     1       5.438 -22.223   8.509  1.00  0.00     0.210 HD
ENDBRANCH   2  17
ENDBRANCH   1   2
BRANCH   1  19
HETATM   19  O4  UNL     1       3.193 -23.926   6.550  1.00  0.00    -0.393 OA
ATOM     20  H4  UNL     1       3.346 -23.009   6.356  1.00  0.00     0.210 HD
ENDBRANCH   1  19
BRANCH   1  21
HETATM   21  C11 UNL     1       4.107 -25.847   7.535  1.00  0.00     0.041 C 
BRANCH  21  22
HETATM   22  C12 UNL     1       5.074 -26.921   7.020  1.00  0.00     0.016 C 
HETATM   23  C13 UNL     1       5.515 -27.801   8.161  1.00  0.00     0.013 C 
BRANCH  22  24
HETATM   24  C14 UNL     1       4.408 -27.754   5.941  1.00  0.00     0.144 C 
BRANCH  24  25
HETATM   25  O5  UNL     1       4.390 -29.103   6.284  1.00  0.00    -0.391 OA
ATOM     26  H5  UNL     1       3.563 -29.507   6.049  1.00  0.00     0.210 HD
ENDBRANCH  24  25
BRANCH  24  27
HETATM   27  C15 UNL     1       5.105 -27.489   4.665  1.00  0.00     0.001 C 
HETATM   28  C16 UNL     1       4.508 -27.573   3.498  1.00  0.00    -0.028 C 
BRANCH  28  29
HETATM   29  C17 UNL     1       3.083 -27.944   3.405  1.00  0.00     0.036 C 
BRANCH  29  30
HETATM   30  C18 UNL     1       2.885 -29.220   2.586  1.00  0.00     0.106 C 
BRANCH  30  31
HETATM   31  C19 UNL     1       2.423 -30.283   3.515  1.00  0.00     0.217 C 
HETATM   32  O6  UNL     1       2.578 -31.490   3.197  1.00  0.00    -0.274 OA
HETATM   33  N1  UNL     1       1.820 -29.896   4.739  1.00  0.00    -0.360 N 
ATOM     34  H1  UNL     1       1.715 -28.903   4.945  1.00  0.00     0.162 HD
BRANCH  33  35
HETATM   35  C20 UNL     1       1.349 -30.861   5.699  1.00  0.00     0.133 C 
BRANCH  35  36
HETATM   36  C21 UNL     1       0.606 -30.176   6.818  1.00  0.00     0.104 C 
HETATM   37 BR1  UNL     1       0.690 -28.254   6.614  1.00  0.00    -0.095 Br
ENDBRANCH  35  36
ENDBRANCH  33  35
ENDBRANCH  30  31
ENDBRANCH  29  30
ENDBRANCH  28  29
ENDBRANCH  24  27
ENDBRANCH  22  24
ENDBRANCH  21  22
ENDBRANCH   1  21
TORSDOF 17
ENDMDL
MODEL 2
REMARK VINA RESULT: -7.653360708      1.479      1.591
REMARK  17 active torsions:
REMARK  status: ('A' for Active; 'I' for Inactive)
REMARK    1  A    between atoms: C2_2  and  C3_4 
REMARK    2  A    between atoms: C7_8  and  C8_9 
REMARK    3  A    between atoms: C8_9  and  O2_10 
REMARK    4  A    between atoms: C8_9  and  C9_12 
REMARK    5  A    between atoms: C9_12  and  O3_13 
REMARK    6  A    between atoms: C9_12  and  C10_15 
REMARK    7  A    between atoms: C10_15  and  O4_16 
REMARK    8  A    between atoms: C10_15  and  C11_18 
REMARK    9  A    between atoms: C11_18  and  C12_19 
REMARK   10  A    between atoms: C12_19  and  C14_21 
REMARK   11  A    between atoms: C14_21  and  O5_22 
REMARK   12  A    between atoms: C14_21  and  C15_24 
REMARK   13  A    between atoms: C16_25  and  C17_26 
REMARK   14  A    between atoms: C17_26  and  C18_27 
REMARK   15  A    between atoms: C18_27  and  C19_28 
REMARK       I    between atoms: C19_28  and  N1_30 
REMARK   16  A    between atoms: N1_30  and  C20_32 
REMARK   17  A    between atoms: C20_32  and  C21_33 
ROOT
HETATM    1  C10 UNL     1       4.535 -24.710   6.768  1.00  0.00     0.150 C 
ENDROOT
BRANCH   1   2
HETATM    2  C9  UNL     1       5.461 -23.688   7.336  1.00  0.00     0.179 C 
BRANCH   2   3
HETATM    3  C8  UNL     1       6.311 -23.136   6.160  1.00  0.00     0.174 C 
BRANCH   3   4
HETATM    4  C7  UNL     1       6.730 -24.198   5.274  1.00  0.00     0.044 C 
HETATM    5  C6  UNL     1       7.922 -24.682   4.999  1.00  0.00     0.075 A 
HETATM    6  C4  UNL     1       9.248 -24.326   5.484  1.00  0.00    -0.016 A 
HETATM    7  O7  UNL     1       8.152 -25.724   4.103  1.00  0.00    -0.341 OA
HETATM    8  C3  UNL     1      10.180 -25.077   4.938  1.00  0.00     0.025 A 
HETATM    9  C5  UNL     1       9.569 -23.232   6.457  1.00  0.00     0.052 C 
HETATM   10  C22 UNL     1       9.473 -26.056   4.068  1.00  0.00     0.162 A 
HETATM   11  C23 UNL     1       9.628 -27.425   4.727  1.00  0.00     0.045 C 
BRANCH   8  12
HETATM   12  C2  UNL     1      11.652 -25.064   5.094  1.00  0.00     0.154 C 
HETATM   13  C1  UNL     1      12.437 -26.294   4.703  1.00  0.00     0.096 C 
HETATM   14  O1  UNL     1      12.342 -24.133   5.524  1.00  0.00    -0.293 OA
ENDBRANCH   8  12
ENDBRANCH   3   4
BRANCH   3  15
HETATM   15  O2  UNL     1       5.560 -22.195   5.470  1.00  0.00    -0.389 OA
ATOM     16  H2  UNL     1       4.955 -22.623   4.877  1.00  0.00     0.210 HD
ENDBRANCH   3  15
ENDBRANCH   2   3
BRANCH   2  17
HETATM   17  O3  UNL     1       4.710 -22.648   7.895  1.00  0.00    -0.390 OA
ATOM     18  H3  UNL     1       5.177 -22.285   8.638  1.00  0.00     0.210 HD
ENDBRANCH   2  17
ENDBRANCH   1   2
BRANCH   1  19
HETATM   19  O4  UNL     1       3.282 -24.161   6.538  1.00  0.00    -0.393 OA
ATOM     20  H4  UNL     1       2.687 -24.374   7.247  1.00  0.00     0.210 HD
ENDBRANCH   1  19
BRANCH   1  21
HETATM   21  C11 UNL     1       4.328 -25.878   7.743  1.00  0.00     0.041 C 
BRANCH  21  22
HETATM   22  C12 UNL     1       5.092 -27.055   7.121  1.00  0.00     0.016 C 
HETATM   23  C13 UNL     1       5.707 -27.897   8.207  1.00  0.00     0.013 C 
BRANCH  22  24
HETATM   24  C14 UNL     1       4.159 -27.895   6.269  1.00  0.00     0.144 C 
BRANCH  24  25
HETATM   25  O5  UNL     1       4.367 -29.254   6.484  1.00  0.00    -0.391 OA
ATOM     26  H5  UNL     1       3.585 -29.757   6.289  1.00  0.00     0.210 HD
ENDBRANCH  24  25
BRANCH  24  27
HETATM   27  C15 UNL     1       4.344 -27.494   4.858  1.00  0.00     0.001 C 
HETATM   28  C16 UNL     1       3.362 -27.042   4.112  1.00  0.00    -0.028 C 
BRANCH  28  29
HETATM   29  C17 UNL     1       1.999 -26.909   4.661  1.00  0.00     0.036 C 
BRANCH  29  30
HETATM   30  C18 UNL     1       1.034 -27.909   4.023  1.00  0.00     0.106 C 
BRANCH  30  31
HETATM   31  C19 UNL     1       0.899 -29.059   4.953  1.00  0.00     0.217 C 
HETATM   32  O6  UNL     1       0.054 -29.004   5.883  1.00  0.00    -0.274 OA
HETATM   33  N1  UNL     1       1.734 -30.189   4.759  1.00  0.00    -0.360 N 
ATOM     34  H1  UNL     1       2.406 -30.180   3.992  1.00  0.00     0.162 HD
BRANCH  33  35
HETATM   35  C20 UNL     1       1.665 -31.348   5.610  1.00  0.00     0.133 C 
BRANCH  35  36
HETATM   36  C21 UNL     1       2.782 -32.308   5.290  1.00  0.00     0.104 C 
HETATM   37 BR1  UNL     1       3.895 -31.609   3.871  1.00  0.00    -0.095 Br
ENDBRANCH  35  36
ENDBRANCH  33  35
ENDBRANCH  30  31
ENDBRANCH  29  30
ENDBRANCH  28  29
ENDBRANCH  24  27
ENDBRANCH  22  24
ENDBRANCH  21  22
ENDBRANCH   1  21
TORSDOF 17
ENDMDL
MODEL 3
REMARK VINA RESULT: -7.633822886      3.353      7.538
REMARK  17 active torsions:
REMARK  status: ('A' for Active; 'I' for Inactive)
REMARK    1  A    between atoms: C2_2  and  C3_4 
REMARK    2  A    between atoms: C7_8  and  C8_9 
REMARK    3  A    between atoms: C8_9  and  O2_10 
REMARK    4  A    between atoms: C8_9  and  C9_12 
REMARK    5  A    between atoms: C9_12  and  O3_13 
REMARK    6  A    between atoms: C9_12  and  C10_15 
REMARK    7  A    between atoms: C10_15  and  O4_16 
REMARK    8  A    between atoms: C10_15  and  C11_18 
REMARK    9  A    between atoms: C11_18  and  C12_19 
REMARK   10  A    between atoms: C12_19  and  C14_21 
REMARK   11  A    between atoms: C14_21  and  O5_22 
REMARK   12  A    between atoms: C14_21  and  C15_24 
REMARK   13  A    between atoms: C16_25  and  C17_26 
REMARK   14  A    between atoms: C17_26  and  C18_27 
REMARK   15  A    between atoms: C18_27  and  C19_28 
REMARK       I    between atoms: C19_28  and  N1_30 
REMARK   16  A    between atoms: N1_30  and  C20_32 
REMARK   17  A    between atoms: C20_32  and  C21_33 
ROOT
HETATM    1  C10 UNL     1       7.480 -23.086   6.339  1.00  0.00     0.150 C 
ENDROOT
BRANCH   1   2
HETATM    2  C9  UNL     1       6.663 -23.218   7.580  1.00  0.00     0.179 C 
BRANCH   2   3
HETATM    3  C8  UNL     1       5.764 -21.956   7.674  1.00  0.00     0.174 C 
BRANCH   3   4
HETATM    4  C7  UNL     1       4.365 -22.313   7.732  1.00  0.00     0.044 C 
HETATM    5  C6  UNL     1       3.279 -21.622   7.458  1.00  0.00     0.075 A 
HETATM    6  C4  UNL     1       3.092 -20.254   6.998  1.00  0.00    -0.016 A 
HETATM    7  O7  UNL     1       1.985 -22.127   7.572  1.00  0.00    -0.341 OA
HETATM    8  C3  UNL     1       1.816 -19.964   6.848  1.00  0.00     0.025 A 
HETATM    9  C5  UNL     1       4.176 -19.251   6.742  1.00  0.00     0.052 C 
HETATM   10  C22 UNL     1       1.065 -21.211   7.159  1.00  0.00     0.162 A 
HETATM   11  C23 UNL     1       0.468 -21.707   5.844  1.00  0.00     0.045 C 
BRANCH   8  12
HETATM   12  C2  UNL     1       1.147 -18.709   6.440  1.00  0.00     0.154 C 
HETATM   13  C1  UNL     1       0.793 -18.513   4.984  1.00  0.00     0.096 C 
HETATM   14  O1  UNL     1       0.833 -17.766   7.174  1.00  0.00    -0.293 OA
ENDBRANCH   8  12
ENDBRANCH   3   4
BRANCH   3  15
HETATM   15  O2  UNL     1       6.128 -21.233   8.801  1.00  0.00    -0.389 OA
ATOM     16  H2  UNL     1       6.177 -20.306   8.600  1.00  0.00     0.210 HD
ENDBRANCH   3  15
ENDBRANCH   2   3
BRANCH   2  17
HETATM   17  O3  UNL     1       5.856 -24.357   7.478  1.00  0.00    -0.390 OA
ATOM     18  H3  UNL     1       5.386 -24.486   8.294  1.00  0.00     0.210 HD
ENDBRANCH   2  17
ENDBRANCH   1   2
BRANCH   1  19
HETATM   19  O4  UNL     1       6.664 -23.021   5.220  1.00  0.00    -0.393 OA
ATOM     20  H4  UNL     1       6.886 -22.267   4.687  1.00  0.00     0.210 HD
ENDBRANCH   1  19
BRANCH   1  21
HETATM   21  C11 UNL     1       8.397 -24.301   6.143  1.00  0.00     0.041 C 
BRANCH  21  22
HETATM   22  C12 UNL     1       9.728 -23.719   5.649  1.00  0.00     0.016 C 
HETATM   23  C13 UNL     1       9.856 -22.286   6.093  1.00  0.00     0.013 C 
BRANCH  22  24
HETATM   24  C14 UNL     1      10.889 -24.539   6.178  1.00  0.00     0.144 C 
BRANCH  24  25
HETATM   25  O5  UNL     1      11.620 -23.826   7.124  1.00  0.00    -0.391 OA
ATOM     26  H5  UNL     1      12.499 -23.644   6.815  1.00  0.00     0.210 HD
ENDBRANCH  24  25
BRANCH  24  27
HETATM   27  C15 UNL     1      11.703 -24.975   5.024  1.00  0.00     0.001 C 
HETATM   28  C16 UNL     1      11.536 -26.137   4.434  1.00  0.00    -0.028 C 
BRANCH  28  29
HETATM   29  C17 UNL     1      10.504 -27.080   4.907  1.00  0.00     0.036 C 
BRANCH  29  30
HETATM   30  C18 UNL     1       9.703 -27.667   3.744  1.00  0.00     0.106 C 
BRANCH  30  31
HETATM   31  C19 UNL     1       8.513 -26.802   3.537  1.00  0.00     0.217 C 
HETATM   32  O6  UNL     1       8.606 -25.792   2.794  1.00  0.00    -0.274 OA
HETATM   33  N1  UNL     1       7.303 -27.149   4.190  1.00  0.00    -0.360 N 
ATOM     34  H1  UNL     1       7.282 -27.977   4.785  1.00  0.00     0.162 HD
BRANCH  33  35
HETATM   35  C20 UNL     1       6.101 -26.370   4.039  1.00  0.00     0.133 C 
BRANCH  35  36
HETATM   36  C21 UNL     1       5.109 -26.711   5.122  1.00  0.00     0.104 C 
HETATM   37 BR1  UNL     1       3.497 -25.661   4.924  1.00  0.00    -0.095 Br
ENDBRANCH  35  36
ENDBRANCH  33  35
ENDBRANCH  30  31
ENDBRANCH  29  30
ENDBRANCH  28  29
ENDBRANCH  24  27
ENDBRANCH  22  24
ENDBRANCH  21  22
ENDBRANCH   1  21
TORSDOF 17
ENDMDL
MODEL 4
REMARK VINA RESULT: -7.588867579      1.264      1.296
REMARK  17 active torsions:
REMARK  status: ('A' for Active; 'I' for Inactive)
REMARK    1  A    between atoms: C2_2  and  C3_4 
REMARK    2  A    between atoms: C7_8  and  C8_9 
REMARK    3  A    between atoms: C8_9  and  O2_10 
REMARK    4  A    between atoms: C8_9  and  C9_12 
REMARK    5  A    between atoms: C9_12  and  O3_13 
REMARK    6  A    between atoms: C9_12  and  C10_15 
REMARK    7  A    between atoms: C10_15  and  O4_16 
REMARK    8  A    between atoms: C10_15  and  C11_18 
REMARK    9  A    between atoms: C11_18  and  C12_19 
REMARK   10  A    between atoms: C12_19  and  C14_21 
REMARK   11  A    between atoms: C14_21  and  O5_22 
REMARK   12  A    between atoms: C14_21  and  C15_24 
REMARK   13  A    between atoms: C16_25  and  C17_26 
REMARK   14  A    between atoms: C17_26  and  C18_27 
REMARK   15  A    between atoms: C18_27  and  C19_28 
REMARK       I    between atoms: C19_28  and  N1_30 
REMARK   16  A    between atoms: N1_30  and  C20_32 
REMARK   17  A    between atoms: C20_32  and  C21_33 
ROOT
HETATM    1  C10 UNL     1       4.471 -24.646   6.742  1.00  0.00     0.150 C 
ENDROOT
BRANCH   1   2
HETATM    2  C9  UNL     1       5.446 -23.690   7.342  1.00  0.00     0.179 C 
BRANCH   2   3
HETATM    3  C8  UNL     1       6.300 -23.116   6.180  1.00  0.00     0.174 C 
BRANCH   3   4
HETATM    4  C7  UNL     1       6.715 -24.160   5.271  1.00  0.00     0.044 C 
HETATM    5  C6  UNL     1       7.906 -24.642   4.986  1.00  0.00     0.075 A 
HETATM    6  C4  UNL     1       9.232 -24.302   5.479  1.00  0.00    -0.016 A 
HETATM    7  O7  UNL     1       8.132 -25.665   4.067  1.00  0.00    -0.341 OA
HETATM    8  C3  UNL     1      10.163 -25.045   4.917  1.00  0.00     0.025 A 
HETATM    9  C5  UNL     1       9.557 -23.230   6.476  1.00  0.00     0.052 C 
HETATM   10  C22 UNL     1       9.452 -26.002   4.026  1.00  0.00     0.162 A 
HETATM   11  C23 UNL     1       9.602 -27.386   4.655  1.00  0.00     0.045 C 
BRANCH   8  12
HETATM   12  C2  UNL     1      11.634 -25.041   5.075  1.00  0.00     0.154 C 
HETATM   13  C1  UNL     1      12.405 -26.297   4.744  1.00  0.00     0.096 C 
HETATM   14  O1  UNL     1      12.334 -24.098   5.461  1.00  0.00    -0.293 OA
ENDBRANCH   8  12
ENDBRANCH   3   4
BRANCH   3  15
HETATM   15  O2  UNL     1       5.554 -22.157   5.509  1.00  0.00    -0.389 OA
ATOM     16  H2  UNL     1       5.905 -22.011   4.639  1.00  0.00     0.210 HD
ENDBRANCH   3  15
ENDBRANCH   2   3
BRANCH   2  17
HETATM   17  O3  UNL     1       4.745 -22.649   7.962  1.00  0.00    -0.390 OA
ATOM     18  H3  UNL     1       4.988 -21.823   7.563  1.00  0.00     0.210 HD
ENDBRANCH   2  17
ENDBRANCH   1   2
BRANCH   1  19
HETATM   19  O4  UNL     1       3.243 -24.034   6.543  1.00  0.00    -0.393 OA
ATOM     20  H4  UNL     1       3.327 -23.089   6.598  1.00  0.00     0.210 HD
ENDBRANCH   1  19
BRANCH   1  21
HETATM   21  C11 UNL     1       4.219 -25.842   7.672  1.00  0.00     0.041 C 
BRANCH  21  22
HETATM   22  C12 UNL     1       5.125 -26.959   7.139  1.00  0.00     0.016 C 
HETATM   23  C13 UNL     1       5.559 -27.850   8.273  1.00  0.00     0.013 C 
BRANCH  22  24
HETATM   24  C14 UNL     1       4.395 -27.769   6.084  1.00  0.00     0.144 C 
BRANCH  24  25
HETATM   25  O5  UNL     1       4.436 -29.129   6.375  1.00  0.00    -0.391 OA
ATOM     26  H5  UNL     1       5.040 -29.586   5.802  1.00  0.00     0.210 HD
ENDBRANCH  24  25
BRANCH  24  27
HETATM   27  C15 UNL     1       4.981 -27.438   4.768  1.00  0.00     0.001 C 
HETATM   28  C16 UNL     1       4.274 -27.408   3.661  1.00  0.00    -0.028 C 
BRANCH  28  29
HETATM   29  C17 UNL     1       2.830 -27.708   3.682  1.00  0.00     0.036 C 
BRANCH  29  30
HETATM   30  C18 UNL     1       2.480 -28.862   2.742  1.00  0.00     0.106 C 
BRANCH  30  31
HETATM   31  C19 UNL     1       2.716 -30.130   3.480  1.00  0.00     0.217 C 
HETATM   32  O6  UNL     1       3.541 -30.963   3.026  1.00  0.00    -0.274 OA
HETATM   33  N1  UNL     1       1.996 -30.357   4.680  1.00  0.00    -0.360 N 
ATOM     34  H1  UNL     1       1.335 -29.650   5.001  1.00  0.00     0.162 HD
BRANCH  33  35
HETATM   35  C20 UNL     1       2.168 -31.555   5.460  1.00  0.00     0.133 C 
BRANCH  35  36
HETATM   36  C21 UNL     1       1.097 -32.563   5.126  1.00  0.00     0.104 C 
HETATM   37 BR1  UNL     1       1.882 -34.180   4.411  1.00  0.00    -0.095 Br
ENDBRANCH  35  36
ENDBRANCH  33  35
ENDBRANCH  30  31
ENDBRANCH  29  30
ENDBRANCH  28  29
ENDBRANCH  24  27
ENDBRANCH  22  24
ENDBRANCH  21  22
ENDBRANCH   1  21
TORSDOF 17
ENDMDL
MODEL 5
REMARK VINA RESULT: -7.544174870      2.189      2.696
REMARK  17 active torsions:
REMARK  status: ('A' for Active; 'I' for Inactive)
REMARK    1  A    between atoms: C2_2  and  C3_4 
REMARK    2  A    between atoms: C7_8  and  C8_9 
REMARK    3  A    between atoms: C8_9  and  O2_10 
REMARK    4  A    between atoms: C8_9  and  C9_12 
REMARK    5  A    between atoms: C9_12  and  O3_13 
REMARK    6  A    between atoms: C9_12  and  C10_15 
REMARK    7  A    between atoms: C10_15  and  O4_16 
REMARK    8  A    between atoms: C10_15  and  C11_18 
REMARK    9  A    between atoms: C11_18  and  C12_19 
REMARK   10  A    between atoms: C12_19  and  C14_21 
REMARK   11  A    between atoms: C14_21  and  O5_22 
REMARK   12  A    between atoms: C14_21  and  C15_24 
REMARK   13  A    between atoms: C16_25  and  C17_26 
REMARK   14  A    between atoms: C17_26  and  C18_27 
REMARK   15  A    between atoms: C18_27  and  C19_28 
REMARK       I    between atoms: C19_28  and  N1_30 
REMARK   16  A    between atoms: N1_30  and  C20_32 
REMARK   17  A    between atoms: C20_32  and  C21_33 
ROOT
HETATM    1  C10 UNL     1       4.231 -24.551   6.560  1.00  0.00     0.150 C 
ENDROOT
BRANCH   1   2
HETATM    2  C9  UNL     1       5.236 -23.711   7.275  1.00  0.00     0.179 C 
BRANCH   2   3
HETATM    3  C8  UNL     1       6.192 -23.126   6.201  1.00  0.00     0.174 C 
BRANCH   3   4
HETATM    4  C7  UNL     1       6.629 -24.148   5.278  1.00  0.00     0.044 C 
HETATM    5  C6  UNL     1       7.828 -24.611   4.997  1.00  0.00     0.075 A 
HETATM    6  C4  UNL     1       9.145 -24.265   5.513  1.00  0.00    -0.016 A 
HETATM    7  O7  UNL     1       8.077 -25.614   4.063  1.00  0.00    -0.341 OA
HETATM    8  C3  UNL     1      10.090 -24.987   4.948  1.00  0.00     0.025 A 
HETATM    9  C5  UNL     1       9.446 -23.209   6.534  1.00  0.00     0.052 C 
HETATM   10  C22 UNL     1       9.401 -25.935   4.031  1.00  0.00     0.162 A 
HETATM   11  C23 UNL     1       9.559 -27.329   4.635  1.00  0.00     0.045 C 
BRANCH   8  12
HETATM   12  C2  UNL     1      11.559 -24.970   5.122  1.00  0.00     0.154 C 
HETATM   13  C1  UNL     1      12.344 -26.224   4.818  1.00  0.00     0.096 C 
HETATM   14  O1  UNL     1      12.248 -24.016   5.503  1.00  0.00    -0.293 OA
ENDBRANCH   8  12
ENDBRANCH   3   4
BRANCH   3  15
HETATM   15  O2  UNL     1       5.533 -22.109   5.524  1.00  0.00    -0.389 OA
ATOM     16  H2  UNL     1       5.803 -21.261   5.855  1.00  0.00     0.210 HD
ENDBRANCH   3  15
ENDBRANCH   2   3
BRANCH   2  17
HETATM   17  O3  UNL     1       4.576 -22.665   7.931  1.00  0.00    -0.390 OA
ATOM     18  H3  UNL     1       3.777 -22.994   8.324  1.00  0.00     0.210 HD
ENDBRANCH   2  17
ENDBRANCH   1   2
BRANCH   1  19
HETATM   19  O4  UNL     1       3.012 -23.896   6.483  1.00  0.00    -0.393 OA
ATOM     20  H4  UNL     1       2.792 -23.497   7.316  1.00  0.00     0.210 HD
ENDBRANCH   1  19
BRANCH   1  21
HETATM   21  C11 UNL     1       3.974 -25.868   7.306  1.00  0.00     0.041 C 
BRANCH  21  22
HETATM   22  C12 UNL     1       4.598 -26.955   6.420  1.00  0.00     0.016 C 
HETATM   23  C13 UNL     1       5.934 -27.366   6.979  1.00  0.00     0.013 C 
BRANCH  22  24
HETATM   24  C14 UNL     1       3.674 -28.155   6.331  1.00  0.00     0.144 C 
BRANCH  24  25
HETATM   25  O5  UNL     1       4.392 -29.347   6.352  1.00  0.00    -0.391 OA
ATOM     26  H5  UNL     1       3.812 -30.097   6.401  1.00  0.00     0.210 HD
ENDBRANCH  24  25
BRANCH  24  27
HETATM   27  C15 UNL     1       2.840 -28.000   5.119  1.00  0.00     0.001 C 
HETATM   28  C16 UNL     1       1.527 -28.024   5.151  1.00  0.00    -0.028 C 
BRANCH  28  29
HETATM   29  C17 UNL     1       0.808 -28.210   6.426  1.00  0.00     0.036 C 
BRANCH  29  30
HETATM   30  C18 UNL     1       0.400 -29.668   6.635  1.00  0.00     0.106 C 
BRANCH  30  31
HETATM   31  C19 UNL     1      -0.922 -29.672   7.313  1.00  0.00     0.217 C 
HETATM   32  O6  UNL     1      -1.593 -30.735   7.351  1.00  0.00    -0.274 OA
HETATM   33  N1  UNL     1      -1.385 -28.467   7.899  1.00  0.00    -0.360 N 
ATOM     34  H1  UNL     1      -0.803 -27.632   7.836  1.00  0.00     0.162 HD
BRANCH  33  35
HETATM   35  C20 UNL     1      -2.651 -28.384   8.580  1.00  0.00     0.133 C 
BRANCH  35  36
HETATM   36  C21 UNL     1      -3.709 -27.822   7.665  1.00  0.00     0.104 C 
HETATM   37 BR1  UNL     1      -4.617 -26.335   8.506  1.00  0.00    -0.095 Br
ENDBRANCH  35  36
ENDBRANCH  33  35
ENDBRANCH  30  31
ENDBRANCH  29  30
ENDBRANCH  28  29
ENDBRANCH  24  27
ENDBRANCH  22  24
ENDBRANCH  21  22
ENDBRANCH   1  21
TORSDOF 17
ENDMDL
