MODEL 1
REMARK VINA RESULT: -8.610695666      0.000      0.000
REMARK  10 active torsions:
REMARK  status: ('A' for Active; 'I' for Inactive)
REMARK    1  A    between atoms: O1_1  and  C1_3 
REMARK    2  A    between atoms: C4_6  and  C5_7 
REMARK    3  A    between atoms: C12_15  and  C13_16 
REMARK    4  A    between atoms: N1_17  and  C14_19 
REMARK    5  A    between atoms: C14_19  and  C15_20 
REMARK    6  A    between atoms: C15_20  and  C16_21 
REMARK    7  A    between atoms: C16_21  and  N2_22 
REMARK    8  A    between atoms: N3_32  and  C25_33 
REMARK    9  A    between atoms: C25_33  and  C26_34 
REMARK   10  A    between atoms: C26_34  and  C27_35 
ROOT
HETATM    1  C5  UNL     1     -15.720 -28.369 -12.655  1.00  0.00     0.008 C 
HETATM    2  C6  UNL     1     -16.485 -27.495 -13.313  1.00  0.00    -0.044 A 
HETATM    3  C7  UNL     1     -17.544 -27.837 -14.283  1.00  0.00     0.044 A 
HETATM    4  C8  UNL     1     -18.147 -26.540 -14.702  1.00  0.00     0.047 A 
HETATM    5  C9  UNL     1     -17.373 -25.490 -14.005  1.00  0.00    -0.005 A 
HETATM    6  C10 UNL     1     -17.500 -24.101 -14.070  1.00  0.00     0.124 A 
HETATM    7  F1  UNL     1     -18.459 -23.591 -14.880  1.00  0.00    -0.205 F 
HETATM    8  C11 UNL     1     -16.678 -23.300 -13.336  1.00  0.00     0.058 A 
HETATM    9  C12 UNL     1     -15.710 -23.839 -12.519  1.00  0.00     0.021 A 
HETATM   10  C21 UNL     1     -15.587 -25.210 -12.458  1.00  0.00     0.139 A 
HETATM   11  F2  UNL     1     -14.619 -25.691 -11.641  1.00  0.00    -0.204 F 
HETATM   12  C22 UNL     1     -16.408 -26.052 -13.192  1.00  0.00     0.019 A 
ENDROOT
BRANCH   1  13
HETATM   13  C4  UNL     1     -15.875 -29.799 -12.854  1.00  0.00     0.004 C 
HETATM   14  C3  UNL     1     -14.870 -30.621 -12.780  1.00  0.00    -0.071 C 
HETATM   15  C2  UNL     1     -13.459 -30.301 -12.501  1.00  0.00     0.088 C 
HETATM   16  C23 UNL     1     -15.127 -32.107 -13.003  1.00  0.00     0.078 C 
HETATM   17  C1  UNL     1     -12.541 -30.878 -13.557  1.00  0.00     0.223 C 
HETATM   18  N3  UNL     1     -13.111 -31.829 -14.415  1.00  0.00    -0.367 N 
HETATM   19  C24 UNL     1     -14.131 -32.679 -13.957  1.00  0.00     0.065 C 
BRANCH  17  20
HETATM   20  O1  UNL     1     -12.087 -29.778 -14.320  1.00  0.00    -0.376 OA
ATOM     21  H1  UNL     1     -11.844 -30.130 -15.168  1.00  0.00     0.212 HD
ENDBRANCH  17  20
BRANCH  18  22
HETATM   22  C25 UNL     1     -12.846 -31.757 -15.801  1.00  0.00     0.130 C 
BRANCH  22  23
HETATM   23  C26 UNL     1     -13.343 -32.991 -16.522  1.00  0.00     0.078 C 
BRANCH  23  24
HETATM   24  C27 UNL     1     -12.401 -33.308 -17.625  1.00  0.00     0.027 A 
HETATM   25  C28 UNL     1     -12.412 -34.348 -18.517  1.00  0.00     0.114 A 
HETATM   26  N4  UNL     1     -11.364 -34.226 -19.336  1.00  0.00    -0.360 N 
HETATM   27  C29 UNL     1     -10.701 -33.105 -18.951  1.00  0.00     0.180 A 
ATOM     28  H4  UNL     1     -11.112 -34.852 -20.102  1.00  0.00     0.166 HD
HETATM   29  N5  UNL     1     -11.316 -32.538 -17.915  1.00  0.00    -0.355 N 
ATOM     30  H5  UNL     1     -11.029 -31.688 -17.431  1.00  0.00     0.166 HD
ENDBRANCH  23  24
ENDBRANCH  22  23
ENDBRANCH  18  22
ENDBRANCH   1  13
BRANCH   9  31
HETATM   31  C13 UNL     1     -14.854 -22.948 -11.750  1.00  0.00     0.097 C 
HETATM   32  N1  UNL     1     -13.684 -22.565 -12.180  1.00  0.00    -0.398 N 
ATOM     33  H1  UNL     1     -13.336 -22.887 -13.083  1.00  0.00     0.158 HD
BRANCH  32  34
HETATM   34  C14 UNL     1     -12.871 -21.662 -11.344  1.00  0.00     0.120 C 
BRANCH  34  35
HETATM   35  C15 UNL     1     -12.140 -20.778 -12.311  1.00  0.00     0.050 C 
BRANCH  35  36
HETATM   36  C16 UNL     1     -11.907 -21.431 -13.645  1.00  0.00     0.274 C 
BRANCH  36  37
HETATM   37  N2  UNL     1     -11.219 -20.577 -14.575  1.00  0.00     0.088 N 
HETATM   38  C17 UNL     1     -11.216 -19.197 -14.209  1.00  0.00     0.272 C 
HETATM   39  C18 UNL     1     -10.237 -18.621 -15.221  1.00  0.00     0.032 C 
HETATM   40  C19 UNL     1      -9.079 -19.604 -15.002  1.00  0.00     0.032 C 
HETATM   41  C20 UNL     1      -9.852 -20.906 -14.797  1.00  0.00     0.272 C 
ENDBRANCH  36  37
ENDBRANCH  35  36
ENDBRANCH  34  35
ENDBRANCH  32  34
ENDBRANCH   9  31
TORSDOF 10
ENDMDL
MODEL 2
REMARK VINA RESULT: -8.514429685      1.866      2.485
REMARK  10 active torsions:
REMARK  status: ('A' for Active; 'I' for Inactive)
REMARK    1  A    between atoms: O1_1  and  C1_3 
REMARK    2  A    between atoms: C4_6  and  C5_7 
REMARK    3  A    between atoms: C12_15  and  C13_16 
REMARK    4  A    between atoms: N1_17  and  C14_19 
REMARK    5  A    between atoms: C14_19  and  C15_20 
REMARK    6  A    between atoms: C15_20  and  C16_21 
REMARK    7  A    between atoms: C16_21  and  N2_22 
REMARK    8  A    between atoms: N3_32  and  C25_33 
REMARK    9  A    between atoms: C25_33  and  C26_34 
REMARK   10  A    between atoms: C26_34  and  C27_35 
ROOT
HETATM    1  C5  UNL     1     -16.236 -28.506 -12.609  1.00  0.00     0.008 C 
HETATM    2  C6  UNL     1     -16.873 -27.536 -13.269  1.00  0.00    -0.044 A 
HETATM    3  C7  UNL     1     -17.971 -27.730 -14.237  1.00  0.00     0.044 A 
HETATM    4  C8  UNL     1     -18.386 -26.363 -14.660  1.00  0.00     0.047 A 
HETATM    5  C9  UNL     1     -17.473 -25.429 -13.967  1.00  0.00    -0.005 A 
HETATM    6  C10 UNL     1     -17.404 -24.036 -14.037  1.00  0.00     0.124 A 
HETATM    7  F1  UNL     1     -18.284 -23.399 -14.847  1.00  0.00    -0.205 F 
HETATM    8  C11 UNL     1     -16.477 -23.355 -13.307  1.00  0.00     0.058 A 
HETATM    9  C12 UNL     1     -15.593 -24.022 -12.490  1.00  0.00     0.021 A 
HETATM   10  C21 UNL     1     -15.663 -25.396 -12.424  1.00  0.00     0.139 A 
HETATM   11  F2  UNL     1     -14.770 -26.005 -11.606  1.00  0.00    -0.204 F 
HETATM   12  C22 UNL     1     -16.594 -26.117 -13.154  1.00  0.00     0.019 A 
ENDROOT
BRANCH   1  13
HETATM   13  C4  UNL     1     -16.591 -29.901 -12.803  1.00  0.00     0.004 C 
HETATM   14  C3  UNL     1     -16.409 -30.795 -11.876  1.00  0.00    -0.071 C 
HETATM   15  C2  UNL     1     -15.845 -30.601 -10.528  1.00  0.00     0.088 C 
HETATM   16  C23 UNL     1     -16.811 -32.237 -12.167  1.00  0.00     0.078 C 
HETATM   17  C1  UNL     1     -14.711 -31.566 -10.258  1.00  0.00     0.223 C 
HETATM   18  N3  UNL     1     -14.584 -32.634 -11.158  1.00  0.00    -0.367 N 
HETATM   19  C24 UNL     1     -15.721 -33.180 -11.779  1.00  0.00     0.065 C 
BRANCH  17  20
HETATM   20  O1  UNL     1     -13.528 -30.793 -10.287  1.00  0.00    -0.376 OA
ATOM     21  H1  UNL     1     -13.743 -30.005 -10.774  1.00  0.00     0.212 HD
ENDBRANCH  17  20
BRANCH  18  22
HETATM   22  C25 UNL     1     -13.303 -32.988 -11.636  1.00  0.00     0.130 C 
BRANCH  22  23
HETATM   23  C26 UNL     1     -13.331 -33.285 -13.120  1.00  0.00     0.078 C 
BRANCH  23  24
HETATM   24  C27 UNL     1     -12.826 -32.096 -13.851  1.00  0.00     0.027 A 
HETATM   25  C28 UNL     1     -12.026 -32.023 -14.962  1.00  0.00     0.114 A 
HETATM   26  N4  UNL     1     -11.831 -30.739 -15.271  1.00  0.00    -0.360 N 
HETATM   27  C29 UNL     1     -12.513 -30.011 -14.348  1.00  0.00     0.180 A 
ATOM     28  H4  UNL     1     -11.278 -30.375 -16.047  1.00  0.00     0.166 HD
HETATM   29  N5  UNL     1     -13.120 -30.819 -13.481  1.00  0.00    -0.355 N 
ATOM     30  H5  UNL     1     -13.697 -30.535 -12.690  1.00  0.00     0.166 HD
ENDBRANCH  23  24
ENDBRANCH  22  23
ENDBRANCH  18  22
ENDBRANCH   1  13
BRANCH   9  31
HETATM   31  C13 UNL     1     -14.619 -23.257 -11.724  1.00  0.00     0.097 C 
HETATM   32  N1  UNL     1     -13.745 -22.476 -12.294  1.00  0.00    -0.398 N 
ATOM     33  H1  UNL     1     -13.724 -22.380 -13.309  1.00  0.00     0.158 HD
BRANCH  32  34
HETATM   34  C14 UNL     1     -12.788 -21.733 -11.454  1.00  0.00     0.120 C 
BRANCH  34  35
HETATM   35  C15 UNL     1     -12.117 -20.762 -12.380  1.00  0.00     0.050 C 
BRANCH  35  36
HETATM   36  C16 UNL     1     -11.901 -21.318 -13.760  1.00  0.00     0.274 C 
BRANCH  36  37
HETATM   37  N2  UNL     1     -11.197 -20.412 -14.626  1.00  0.00     0.088 N 
HETATM   38  C17 UNL     1     -11.153 -19.066 -14.153  1.00  0.00     0.272 C 
HETATM   39  C18 UNL     1     -10.167 -18.438 -15.125  1.00  0.00     0.032 C 
HETATM   40  C19 UNL     1      -9.034 -19.465 -14.994  1.00  0.00     0.032 C 
HETATM   41  C20 UNL     1      -9.840 -20.758 -14.885  1.00  0.00     0.272 C 
ENDBRANCH  36  37
ENDBRANCH  35  36
ENDBRANCH  34  35
ENDBRANCH  32  34
ENDBRANCH   9  31
TORSDOF 10
ENDMDL
MODEL 3
REMARK VINA RESULT: -8.502972232      1.501      2.360
REMARK  10 active torsions:
REMARK  status: ('A' for Active; 'I' for Inactive)
REMARK    1  A    between atoms: O1_1  and  C1_3 
REMARK    2  A    between atoms: C4_6  and  C5_7 
REMARK    3  A    between atoms: C12_15  and  C13_16 
REMARK    4  A    between atoms: N1_17  and  C14_19 
REMARK    5  A    between atoms: C14_19  and  C15_20 
REMARK    6  A    between atoms: C15_20  and  C16_21 
REMARK    7  A    between atoms: C16_21  and  N2_22 
REMARK    8  A    between atoms: N3_32  and  C25_33 
REMARK    9  A    between atoms: C25_33  and  C26_34 
REMARK   10  A    between atoms: C26_34  and  C27_35 
ROOT
HETATM    1  C5  UNL     1     -15.544 -30.160 -14.439  1.00  0.00     0.008 C 
HETATM    2  C6  UNL     1     -16.570 -29.354 -14.718  1.00  0.00    -0.044 A 
HETATM    3  C7  UNL     1     -17.744 -29.706 -15.541  1.00  0.00     0.044 A 
HETATM    4  C8  UNL     1     -18.631 -28.509 -15.519  1.00  0.00     0.047 A 
HETATM    5  C9  UNL     1     -17.910 -27.485 -14.733  1.00  0.00    -0.005 A 
HETATM    6  C10 UNL     1     -18.278 -26.171 -14.434  1.00  0.00     0.124 A 
HETATM    7  F1  UNL     1     -19.463 -25.721 -14.913  1.00  0.00    -0.205 F 
HETATM    8  C11 UNL     1     -17.460 -25.382 -13.683  1.00  0.00     0.058 A 
HETATM    9  C12 UNL     1     -16.260 -25.859 -13.205  1.00  0.00     0.021 A 
HETATM   10  C21 UNL     1     -15.900 -27.155 -13.503  1.00  0.00     0.139 A 
HETATM   11  F2  UNL     1     -14.710 -27.576 -13.011  1.00  0.00    -0.204 F 
HETATM   12  C22 UNL     1     -16.710 -27.983 -14.265  1.00  0.00     0.019 A 
ENDROOT
BRANCH   1  13
HETATM   13  C4  UNL     1     -15.499 -31.519 -14.949  1.00  0.00     0.004 C 
HETATM   14  C3  UNL     1     -14.453 -32.278 -14.802  1.00  0.00    -0.071 C 
HETATM   15  C2  UNL     1     -13.181 -31.948 -14.136  1.00  0.00     0.088 C 
HETATM   16  C23 UNL     1     -14.494 -33.692 -15.373  1.00  0.00     0.078 C 
HETATM   17  C1  UNL     1     -11.996 -32.227 -15.034  1.00  0.00     0.223 C 
HETATM   18  N3  UNL     1     -12.257 -32.998 -16.176  1.00  0.00    -0.367 N 
HETATM   19  C24 UNL     1     -13.257 -33.984 -16.155  1.00  0.00     0.065 C 
BRANCH  17  20
HETATM   20  O1  UNL     1     -11.504 -30.962 -15.431  1.00  0.00    -0.376 OA
ATOM     21  H1  UNL     1     -11.816 -30.827 -16.319  1.00  0.00     0.212 HD
ENDBRANCH  17  20
BRANCH  18  22
HETATM   22  C25 UNL     1     -11.701 -32.610 -17.415  1.00  0.00     0.130 C 
BRANCH  22  23
HETATM   23  C26 UNL     1     -11.950 -33.653 -18.483  1.00  0.00     0.078 C 
BRANCH  23  24
HETATM   24  C27 UNL     1     -11.126 -33.320 -19.672  1.00  0.00     0.027 A 
HETATM   25  C28 UNL     1      -9.835 -32.864 -19.746  1.00  0.00     0.114 A 
HETATM   26  N4  UNL     1      -9.506 -32.705 -21.030  1.00  0.00    -0.360 N 
HETATM   27  C29 UNL     1     -10.597 -33.063 -21.756  1.00  0.00     0.180 A 
ATOM     28  H4  UNL     1      -8.611 -32.377 -21.395  1.00  0.00     0.166 HD
HETATM   29  N5  UNL     1     -11.586 -33.438 -20.948  1.00  0.00    -0.355 N 
ATOM     30  H5  UNL     1     -12.513 -33.754 -21.231  1.00  0.00     0.166 HD
ENDBRANCH  23  24
ENDBRANCH  22  23
ENDBRANCH  18  22
ENDBRANCH   1  13
BRANCH   9  31
HETATM   31  C13 UNL     1     -15.417 -24.984 -12.404  1.00  0.00     0.097 C 
HETATM   32  N1  UNL     1     -15.089 -23.785 -12.797  1.00  0.00    -0.398 N 
ATOM     33  H1  UNL     1     -15.422 -23.425 -13.691  1.00  0.00     0.158 HD
BRANCH  32  34
HETATM   34  C14 UNL     1     -14.229 -22.955 -11.932  1.00  0.00     0.120 C 
BRANCH  34  35
HETATM   35  C15 UNL     1     -13.214 -22.342 -12.852  1.00  0.00     0.050 C 
BRANCH  35  36
HETATM   36  C16 UNL     1     -12.598 -21.089 -12.297  1.00  0.00     0.274 C 
BRANCH  36  37
HETATM   37  N2  UNL     1     -11.442 -20.658 -13.035  1.00  0.00     0.088 N 
HETATM   38  C17 UNL     1     -10.924 -21.638 -13.934  1.00  0.00     0.272 C 
HETATM   39  C18 UNL     1      -9.903 -20.822 -14.711  1.00  0.00     0.032 C 
HETATM   40  C19 UNL     1     -10.805 -19.643 -15.102  1.00  0.00     0.032 C 
HETATM   41  C20 UNL     1     -11.634 -19.491 -13.828  1.00  0.00     0.272 C 
ENDBRANCH  36  37
ENDBRANCH  35  36
ENDBRANCH  34  35
ENDBRANCH  32  34
ENDBRANCH   9  31
TORSDOF 10
ENDMDL
MODEL 4
REMARK VINA RESULT: -8.473091729      1.071      1.202
REMARK  10 active torsions:
REMARK  status: ('A' for Active; 'I' for Inactive)
REMARK    1  A    between atoms: O1_1  and  C1_3 
REMARK    2  A    between atoms: C4_6  and  C5_7 
REMARK    3  A    between atoms: C12_15  and  C13_16 
REMARK    4  A    between atoms: N1_17  and  C14_19 
REMARK    5  A    between atoms: C14_19  and  C15_20 
REMARK    6  A    between atoms: C15_20  and  C16_21 
REMARK    7  A    between atoms: C16_21  and  N2_22 
REMARK    8  A    between atoms: N3_32  and  C25_33 
REMARK    9  A    between atoms: C25_33  and  C26_34 
REMARK   10  A    between atoms: C26_34  and  C27_35 
ROOT
HETATM    1  C5  UNL     1     -16.062 -27.685 -14.268  1.00  0.00     0.008 C 
HETATM    2  C6  UNL     1     -17.024 -26.766 -14.167  1.00  0.00    -0.044 A 
HETATM    3  C7  UNL     1     -18.377 -26.866 -14.750  1.00  0.00     0.044 A 
HETATM    4  C8  UNL     1     -19.096 -25.631 -14.324  1.00  0.00     0.047 A 
HETATM    5  C9  UNL     1     -18.113 -24.833 -13.561  1.00  0.00    -0.005 A 
HETATM    6  C10 UNL     1     -18.257 -23.577 -12.967  1.00  0.00     0.124 A 
HETATM    7  F1  UNL     1     -19.456 -22.956 -13.082  1.00  0.00    -0.205 F 
HETATM    8  C11 UNL     1     -17.214 -23.009 -12.298  1.00  0.00     0.058 A 
HETATM    9  C12 UNL     1     -16.005 -23.657 -12.194  1.00  0.00     0.021 A 
HETATM   10  C21 UNL     1     -15.867 -24.895 -12.780  1.00  0.00     0.139 A 
HETATM   11  F2  UNL     1     -14.656 -25.491 -12.650  1.00  0.00    -0.204 F 
HETATM   12  C22 UNL     1     -16.907 -25.500 -13.468  1.00  0.00     0.019 A 
ENDROOT
BRANCH   1  13
HETATM   13  C4  UNL     1     -16.282 -28.921 -14.999  1.00  0.00     0.004 C 
HETATM   14  C3  UNL     1     -15.790 -30.057 -14.600  1.00  0.00    -0.071 C 
HETATM   15  C2  UNL     1     -14.963 -30.316 -13.408  1.00  0.00     0.088 C 
HETATM   16  C23 UNL     1     -16.071 -31.304 -15.431  1.00  0.00     0.078 C 
HETATM   17  C1  UNL     1     -13.690 -31.052 -13.766  1.00  0.00     0.223 C 
HETATM   18  N3  UNL     1     -13.643 -31.611 -15.052  1.00  0.00    -0.367 N 
HETATM   19  C24 UNL     1     -14.816 -32.077 -15.668  1.00  0.00     0.065 C 
BRANCH  17  20
HETATM   20  O1  UNL     1     -12.646 -30.109 -13.632  1.00  0.00    -0.376 OA
ATOM     21  H1  UNL     1     -12.659 -29.832 -12.722  1.00  0.00     0.212 HD
ENDBRANCH  17  20
BRANCH  18  22
HETATM   22  C25 UNL     1     -12.470 -31.467 -15.825  1.00  0.00     0.130 C 
BRANCH  22  23
HETATM   23  C26 UNL     1     -11.710 -32.773 -15.923  1.00  0.00     0.078 C 
BRANCH  23  24
HETATM   24  C27 UNL     1     -11.729 -33.228 -17.336  1.00  0.00     0.027 A 
HETATM   25  C28 UNL     1     -12.460 -34.226 -17.927  1.00  0.00     0.114 A 
HETATM   26  N4  UNL     1     -12.152 -34.277 -19.225  1.00  0.00    -0.360 N 
HETATM   27  C29 UNL     1     -11.226 -33.306 -19.441  1.00  0.00     0.180 A 
ATOM     28  H4  UNL     1     -12.536 -34.919 -19.919  1.00  0.00     0.166 HD
HETATM   29  N5  UNL     1     -10.960 -32.662 -18.306  1.00  0.00    -0.355 N 
ATOM     30  H5  UNL     1     -10.304 -31.891 -18.187  1.00  0.00     0.166 HD
ENDBRANCH  23  24
ENDBRANCH  22  23
ENDBRANCH  18  22
ENDBRANCH   1  13
BRANCH   9  31
HETATM   31  C13 UNL     1     -14.917 -23.016 -11.468  1.00  0.00     0.097 C 
HETATM   32  N1  UNL     1     -13.936 -22.413 -12.078  1.00  0.00    -0.398 N 
ATOM     33  H1  UNL     1     -13.907 -22.374 -13.096  1.00  0.00     0.158 HD
BRANCH  32  34
HETATM   34  C14 UNL     1     -12.867 -21.787 -11.276  1.00  0.00     0.120 C 
BRANCH  34  35
HETATM   35  C15 UNL     1     -12.087 -20.946 -12.243  1.00  0.00     0.050 C 
BRANCH  35  36
HETATM   36  C16 UNL     1     -11.883 -21.616 -13.573  1.00  0.00     0.274 C 
BRANCH  36  37
HETATM   37  N2  UNL     1     -11.228 -20.768 -14.533  1.00  0.00     0.088 N 
HETATM   38  C17 UNL     1     -11.331 -19.373 -14.247  1.00  0.00     0.272 C 
HETATM   39  C18 UNL     1     -10.365 -18.787 -15.265  1.00  0.00     0.032 C 
HETATM   40  C19 UNL     1      -9.149 -19.671 -14.959  1.00  0.00     0.032 C 
HETATM   41  C20 UNL     1      -9.835 -21.011 -14.699  1.00  0.00     0.272 C 
ENDBRANCH  36  37
ENDBRANCH  35  36
ENDBRANCH  34  35
ENDBRANCH  32  34
ENDBRANCH   9  31
TORSDOF 10
ENDMDL
MODEL 5
REMARK VINA RESULT: -8.470915627      2.072      2.414
REMARK  10 active torsions:
REMARK  status: ('A' for Active; 'I' for Inactive)
REMARK    1  A    between atoms: O1_1  and  C1_3 
REMARK    2  A    between atoms: C4_6  and  C5_7 
REMARK    3  A    between atoms: C12_15  and  C13_16 
REMARK    4  A    between atoms: N1_17  and  C14_19 
REMARK    5  A    between atoms: C14_19  and  C15_20 
REMARK    6  A    between atoms: C15_20  and  C16_21 
REMARK    7  A    between atoms: C16_21  and  N2_22 
REMARK    8  A    between atoms: N3_32  and  C25_33 
REMARK    9  A    between atoms: C25_33  and  C26_34 
REMARK   10  A    between atoms: C26_34  and  C27_35 
ROOT
HETATM    1  C5  UNL     1     -16.373 -28.085 -12.362  1.00  0.00     0.008 C 
HETATM    2  C6  UNL     1     -16.960 -27.141 -13.101  1.00  0.00    -0.044 A 
HETATM    3  C7  UNL     1     -18.047 -27.361 -14.075  1.00  0.00     0.044 A 
HETATM    4  C8  UNL     1     -18.401 -26.013 -14.601  1.00  0.00     0.047 A 
HETATM    5  C9  UNL     1     -17.465 -25.067 -13.957  1.00  0.00    -0.005 A 
HETATM    6  C10 UNL     1     -17.341 -23.686 -14.123  1.00  0.00     0.124 A 
HETATM    7  F1  UNL     1     -18.181 -23.076 -14.994  1.00  0.00    -0.205 F 
HETATM    8  C11 UNL     1     -16.401 -22.991 -13.423  1.00  0.00     0.058 A 
HETATM    9  C12 UNL     1     -15.558 -23.630 -12.543  1.00  0.00     0.021 A 
HETATM   10  C21 UNL     1     -15.683 -24.993 -12.382  1.00  0.00     0.139 A 
HETATM   11  F2  UNL     1     -14.829 -25.575 -11.506  1.00  0.00    -0.204 F 
HETATM   12  C22 UNL     1     -16.628 -25.729 -13.079  1.00  0.00     0.019 A 
ENDROOT
BRANCH   1  13
HETATM   13  C4  UNL     1     -16.778 -29.475 -12.464  1.00  0.00     0.004 C 
HETATM   14  C3  UNL     1     -16.130 -30.430 -11.863  1.00  0.00    -0.071 C 
HETATM   15  C2  UNL     1     -14.933 -30.315 -11.011  1.00  0.00     0.088 C 
HETATM   16  C23 UNL     1     -16.627 -31.862 -12.027  1.00  0.00     0.078 C 
HETATM   17  C1  UNL     1     -13.831 -31.242 -11.477  1.00  0.00     0.223 C 
HETATM   18  N3  UNL     1     -14.206 -32.230 -12.400  1.00  0.00    -0.367 N 
HETATM   19  C24 UNL     1     -15.499 -32.779 -12.367  1.00  0.00     0.065 C 
BRANCH  17  20
HETATM   20  O1  UNL     1     -12.846 -30.413 -12.060  1.00  0.00    -0.376 OA
ATOM     21  H1  UNL     1     -13.186 -30.161 -12.911  1.00  0.00     0.212 HD
ENDBRANCH  17  20
BRANCH  18  22
HETATM   22  C25 UNL     1     -13.380 -32.482 -13.516  1.00  0.00     0.130 C 
BRANCH  22  23
HETATM   23  C26 UNL     1     -14.172 -32.465 -14.806  1.00  0.00     0.078 C 
BRANCH  23  24
HETATM   24  C27 UNL     1     -14.508 -31.057 -15.137  1.00  0.00     0.027 A 
HETATM   25  C28 UNL     1     -15.616 -30.542 -15.757  1.00  0.00     0.114 A 
HETATM   26  N4  UNL     1     -15.488 -29.215 -15.841  1.00  0.00    -0.360 N 
HETATM   27  C29 UNL     1     -14.294 -28.906 -15.270  1.00  0.00     0.180 A 
ATOM     28  H4  UNL     1     -16.155 -28.562 -16.253  1.00  0.00     0.166 HD
HETATM   29  N5  UNL     1     -13.690 -30.011 -14.839  1.00  0.00    -0.355 N 
ATOM     30  H5  UNL     1     -12.784 -30.064 -14.373  1.00  0.00     0.166 HD
ENDBRANCH  23  24
ENDBRANCH  22  23
ENDBRANCH  18  22
ENDBRANCH   1  13
BRANCH   9  31
HETATM   31  C13 UNL     1     -14.570 -22.850 -11.813  1.00  0.00     0.097 C 
HETATM   32  N1  UNL     1     -13.447 -22.469 -12.355  1.00  0.00    -0.398 N 
ATOM     33  H1  UNL     1     -13.232 -22.713 -13.321  1.00  0.00     0.158 HD
BRANCH  32  34
HETATM   34  C14 UNL     1     -12.492 -21.682 -11.553  1.00  0.00     0.120 C 
BRANCH  34  35
HETATM   35  C15 UNL     1     -11.974 -20.622 -12.481  1.00  0.00     0.050 C 
BRANCH  35  36
HETATM   36  C16 UNL     1     -12.005 -21.038 -13.924  1.00  0.00     0.274 C 
BRANCH  36  37
HETATM   37  N2  UNL     1     -11.168 -20.222 -14.762  1.00  0.00     0.088 N 
HETATM   38  C17 UNL     1     -11.010 -18.881 -14.299  1.00  0.00     0.272 C 
HETATM   39  C18 UNL     1      -9.916 -18.371 -15.225  1.00  0.00     0.032 C 
HETATM   40  C19 UNL     1      -8.903 -19.508 -15.026  1.00  0.00     0.032 C 
HETATM   41  C20 UNL     1      -9.843 -20.710 -14.947  1.00  0.00     0.272 C 
ENDBRANCH  36  37
ENDBRANCH  35  36
ENDBRANCH  34  35
ENDBRANCH  32  34
ENDBRANCH   9  31
TORSDOF 10
ENDMDL
