MODEL 1
REMARK VINA RESULT: -8.309486622      0.000      0.000
REMARK  9 active torsions:
REMARK  status: ('A' for Active; 'I' for Inactive)
REMARK    1  A    between atoms: C2_2  and  C4_4 
REMARK    2  A    between atoms: N1_6  and  C6_7 
REMARK    3  A    between atoms: C6_7  and  C7_8 
REMARK    4  A    between atoms: C6_7  and  C9_11 
REMARK    5  A    between atoms: C7_8  and  C8_9 
REMARK       I    between atoms: C9_11  and  N2_13 
REMARK    6  A    between atoms: N2_13  and  C10_15 
REMARK    7  A    between atoms: C21_26  and  C22_27 
REMARK    8  A    between atoms: N4_34  and  C26_35 
REMARK    9  A    between atoms: C26_35  and  C27_36 
ROOT
HETATM    1  C4  UNL     1     -17.203 -26.210 -10.869  1.00  0.00     0.095 C 
HETATM    2  C5  UNL     1     -17.183 -27.189 -12.041  1.00  0.00     0.294 C 
HETATM    3  N1  UNL     1     -15.883 -27.431 -12.499  1.00  0.00     0.105 N 
HETATM    4  C20 UNL     1     -15.067 -26.223 -12.400  1.00  0.00     0.299 C 
HETATM    5  C21 UNL     1     -15.807 -24.946 -12.321  1.00  0.00     0.141 C 
HETATM    6  N4  UNL     1     -16.851 -24.937 -11.308  1.00  0.00    -0.274 NA
ENDROOT
BRANCH   3   7
HETATM    7  C6  UNL     1     -15.699 -28.019 -13.781  1.00  0.00     0.316 C 
BRANCH   7   8
HETATM    8  C7  UNL     1     -16.864 -28.171 -14.660  1.00  0.00     0.077 C 
BRANCH   8   9
HETATM    9  C8  UNL     1     -16.693 -28.250 -16.135  1.00  0.00     0.225 C 
HETATM   10  F1  UNL     1     -16.506 -29.546 -16.581  1.00  0.00    -0.255 F 
ENDBRANCH   8   9
ENDBRANCH   7   8
BRANCH   7  11
HETATM   11  C9  UNL     1     -15.214 -29.450 -13.538  1.00  0.00     0.251 C 
HETATM   12  O1  UNL     1     -15.784 -30.083 -12.626  1.00  0.00    -0.271 OA
HETATM   13  N2  UNL     1     -14.183 -30.000 -14.304  1.00  0.00    -0.354 N 
ATOM     14  H2  UNL     1     -13.751 -29.441 -15.039  1.00  0.00     0.162 HD
BRANCH  13  15
HETATM   15  C10 UNL     1     -13.720 -31.339 -14.073  1.00  0.00     0.092 C 
HETATM   16  C11 UNL     1     -14.505 -32.385 -14.784  1.00  0.00     0.009 C 
HETATM   17  C12 UNL     1     -14.283 -32.346 -16.287  1.00  0.00     0.011 C 
HETATM   18  C16 UNL     1     -14.055 -33.734 -14.233  1.00  0.00     0.011 C 
HETATM   19  C13 UNL     1     -12.836 -32.576 -16.594  1.00  0.00    -0.013 C 
HETATM   20  C14 UNL     1     -12.358 -33.888 -16.028  1.00  0.00     0.009 C 
HETATM   21  C19 UNL     1     -12.049 -31.448 -15.956  1.00  0.00     0.011 C 
HETATM   22  C15 UNL     1     -12.587 -33.897 -14.548  1.00  0.00    -0.013 C 
HETATM   23  C17 UNL     1     -11.758 -32.790 -13.926  1.00  0.00     0.011 C 
HETATM   24  C18 UNL     1     -12.253 -31.487 -14.469  1.00  0.00     0.009 C 
ENDBRANCH  13  15
ENDBRANCH   7  11
ENDBRANCH   3   7
BRANCH   1  25
HETATM   25  C2  UNL     1     -16.432 -26.827  -9.734  1.00  0.00    -0.003 C 
HETATM   26  C1  UNL     1     -15.947 -25.821  -8.725  1.00  0.00     0.011 C 
HETATM   27  C3  UNL     1     -17.455 -27.694  -8.951  1.00  0.00     0.011 C 
ENDBRANCH   1  25
BRANCH   5  28
HETATM   28  C22 UNL     1     -14.810 -23.845 -12.102  1.00  0.00     0.031 A 
HETATM   29  C23 UNL     1     -14.496 -23.215 -10.922  1.00  0.00     0.031 A 
HETATM   30  C24 UNL     1     -13.546 -22.268 -11.171  1.00  0.00     0.063 A 
HETATM   31  C25 UNL     1     -13.256 -22.304 -12.537  1.00  0.00     0.188 A 
HETATM   32  F2  UNL     1     -12.369 -21.534 -13.223  1.00  0.00    -0.186 F 
HETATM   33  N3  UNL     1     -14.042 -23.271 -13.047  1.00  0.00    -0.335 N 
ATOM     34  H3  UNL     1     -14.055 -23.535 -14.033  1.00  0.00     0.168 HD
ENDBRANCH   5  28
BRANCH   6  35
HETATM   35  C26 UNL     1     -17.901 -24.139 -11.820  1.00  0.00     0.069 C 
BRANCH  35  36
HETATM   36  C27 UNL     1     -18.207 -24.041 -13.248  1.00  0.00    -0.035 C 
HETATM   37  C28 UNL     1     -17.891 -22.744 -13.893  1.00  0.00     0.046 C 
HETATM   38  C29 UNL     1     -19.173 -22.327 -14.569  1.00  0.00     0.062 C 
HETATM   39  C30 UNL     1     -20.024 -23.545 -14.566  1.00  0.00     0.020 A 
HETATM   40  N5  UNL     1     -21.188 -23.726 -15.221  1.00  0.00    -0.367 N 
HETATM   41  C34 UNL     1     -19.441 -24.525 -13.810  1.00  0.00    -0.005 A 
HETATM   42  C31 UNL     1     -21.854 -24.886 -15.174  1.00  0.00     0.112 A 
ATOM     43  H5  UNL     1     -21.573 -22.956 -15.769  1.00  0.00     0.165 HD
HETATM   44  C32 UNL     1     -21.324 -25.934 -14.425  1.00  0.00     0.050 A 
HETATM   45 CL1  UNL     1     -22.199 -27.466 -14.359  1.00  0.00    -0.083 Cl
HETATM   46  C33 UNL     1     -20.149 -25.740 -13.767  1.00  0.00     0.039 A 
ENDBRANCH  35  36
ENDBRANCH   6  35
TORSDOF 9
ENDMDL
MODEL 2
REMARK VINA RESULT: -8.260976847      3.629      4.884
REMARK  9 active torsions:
REMARK  status: ('A' for Active; 'I' for Inactive)
REMARK    1  A    between atoms: C2_2  and  C4_4 
REMARK    2  A    between atoms: N1_6  and  C6_7 
REMARK    3  A    between atoms: C6_7  and  C7_8 
REMARK    4  A    between atoms: C6_7  and  C9_11 
REMARK    5  A    between atoms: C7_8  and  C8_9 
REMARK       I    between atoms: C9_11  and  N2_13 
REMARK    6  A    between atoms: N2_13  and  C10_15 
REMARK    7  A    between atoms: C21_26  and  C22_27 
REMARK    8  A    between atoms: N4_34  and  C26_35 
REMARK    9  A    between atoms: C26_35  and  C27_36 
ROOT
HETATM    1  C4  UNL     1     -17.365 -24.780 -10.324  1.00  0.00     0.095 C 
HETATM    2  C5  UNL     1     -18.094 -25.349 -11.539  1.00  0.00     0.294 C 
HETATM    3  N1  UNL     1     -17.204 -25.820 -12.511  1.00  0.00     0.105 N 
HETATM    4  C20 UNL     1     -16.008 -24.984 -12.565  1.00  0.00     0.299 C 
HETATM    5  C21 UNL     1     -16.141 -23.623 -12.003  1.00  0.00     0.141 C 
HETATM    6  N4  UNL     1     -16.719 -23.596 -10.668  1.00  0.00    -0.274 NA
ENDROOT
BRANCH   3   7
HETATM    7  C6  UNL     1     -17.678 -26.048 -13.832  1.00  0.00     0.316 C 
BRANCH   7   8
HETATM    8  C7  UNL     1     -18.969 -25.471 -14.227  1.00  0.00     0.077 C 
BRANCH   8   9
HETATM    9  C8  UNL     1     -19.036 -24.125 -14.852  1.00  0.00     0.225 C 
HETATM   10  F1  UNL     1     -17.864 -23.406 -14.698  1.00  0.00    -0.255 F 
ENDBRANCH   8   9
ENDBRANCH   7   8
BRANCH   7  11
HETATM   11  C9  UNL     1     -17.877 -27.559 -13.969  1.00  0.00     0.251 C 
HETATM   12  O1  UNL     1     -19.056 -27.963 -14.017  1.00  0.00    -0.271 OA
HETATM   13  N2  UNL     1     -16.783 -28.426 -14.030  1.00  0.00    -0.354 N 
ATOM     14  H2  UNL     1     -15.838 -28.044 -13.989  1.00  0.00     0.162 HD
BRANCH  13  15
HETATM   15  C10 UNL     1     -16.965 -29.844 -14.149  1.00  0.00     0.092 C 
HETATM   16  C11 UNL     1     -17.134 -30.320 -15.550  1.00  0.00     0.009 C 
HETATM   17  C12 UNL     1     -15.848 -30.210 -16.352  1.00  0.00     0.011 C 
HETATM   18  C16 UNL     1     -17.570 -31.781 -15.476  1.00  0.00     0.011 C 
HETATM   19  C13 UNL     1     -14.778 -31.041 -15.715  1.00  0.00    -0.013 C 
HETATM   20  C14 UNL     1     -15.200 -32.482 -15.599  1.00  0.00     0.009 C 
HETATM   21  C19 UNL     1     -14.535 -30.485 -14.326  1.00  0.00     0.011 C 
HETATM   22  C15 UNL     1     -16.466 -32.561 -14.803  1.00  0.00    -0.013 C 
HETATM   23  C17 UNL     1     -16.190 -32.040 -13.406  1.00  0.00     0.011 C 
HETATM   24  C18 UNL     1     -15.797 -30.602 -13.522  1.00  0.00     0.009 C 
ENDBRANCH  13  15
ENDBRANCH   7  11
ENDBRANCH   3   7
BRANCH   1  25
HETATM   25  C2  UNL     1     -16.564 -25.891  -9.701  1.00  0.00    -0.003 C 
HETATM   26  C1  UNL     1     -15.422 -25.400  -8.852  1.00  0.00     0.011 C 
HETATM   27  C3  UNL     1     -17.519 -26.589  -8.695  1.00  0.00     0.011 C 
ENDBRANCH   1  25
BRANCH   5  28
HETATM   28  C22 UNL     1     -14.790 -22.972 -12.037  1.00  0.00     0.031 A 
HETATM   29  C23 UNL     1     -14.001 -22.611 -10.972  1.00  0.00     0.031 A 
HETATM   30  C24 UNL     1     -12.857 -22.041 -11.448  1.00  0.00     0.063 A 
HETATM   31  C25 UNL     1     -12.929 -22.042 -12.843  1.00  0.00     0.188 A 
HETATM   32  F2  UNL     1     -12.008 -21.571 -13.727  1.00  0.00    -0.186 F 
HETATM   33  N3  UNL     1     -14.109 -22.615 -13.143  1.00  0.00    -0.335 N 
ATOM     34  H3  UNL     1     -14.448 -22.760 -14.094  1.00  0.00     0.168 HD
ENDBRANCH   5  28
BRANCH   6  35
HETATM   35  C26 UNL     1     -17.494 -22.415 -10.588  1.00  0.00     0.069 C 
BRANCH  35  36
HETATM   36  C27 UNL     1     -18.314 -22.075  -9.424  1.00  0.00    -0.035 C 
HETATM   37  C28 UNL     1     -19.781 -22.095  -9.634  1.00  0.00     0.046 C 
HETATM   38  C29 UNL     1     -20.257 -20.744  -9.163  1.00  0.00     0.062 C 
HETATM   39  C30 UNL     1     -19.112 -20.174  -8.406  1.00  0.00     0.020 A 
HETATM   40  N5  UNL     1     -19.115 -19.067  -7.638  1.00  0.00    -0.367 N 
HETATM   41  C34 UNL     1     -18.006 -20.965  -8.560  1.00  0.00    -0.005 A 
HETATM   42  C31 UNL     1     -18.026 -18.666  -6.970  1.00  0.00     0.112 A 
ATOM     43  H5  UNL     1     -19.972 -18.517  -7.564  1.00  0.00     0.165 HD
HETATM   44  C32 UNL     1     -16.860 -19.420  -7.074  1.00  0.00     0.050 A 
HETATM   45 CL1  UNL     1     -15.422 -18.895  -6.194  1.00  0.00    -0.083 Cl
HETATM   46  C33 UNL     1     -16.869 -20.535  -7.853  1.00  0.00     0.039 A 
ENDBRANCH  35  36
ENDBRANCH   6  35
TORSDOF 9
ENDMDL
MODEL 3
REMARK VINA RESULT: -8.060863973      4.094      7.186
REMARK  9 active torsions:
REMARK  status: ('A' for Active; 'I' for Inactive)
REMARK    1  A    between atoms: C2_2  and  C4_4 
REMARK    2  A    between atoms: N1_6  and  C6_7 
REMARK    3  A    between atoms: C6_7  and  C7_8 
REMARK    4  A    between atoms: C6_7  and  C9_11 
REMARK    5  A    between atoms: C7_8  and  C8_9 
REMARK       I    between atoms: C9_11  and  N2_13 
REMARK    6  A    between atoms: N2_13  and  C10_15 
REMARK    7  A    between atoms: C21_26  and  C22_27 
REMARK    8  A    between atoms: N4_34  and  C26_35 
REMARK    9  A    between atoms: C26_35  and  C27_36 
ROOT
HETATM    1  C4  UNL     1     -17.951 -24.580 -12.996  1.00  0.00     0.095 C 
HETATM    2  C5  UNL     1     -18.152 -25.592 -14.121  1.00  0.00     0.294 C 
HETATM    3  N1  UNL     1     -18.681 -26.800 -13.650  1.00  0.00     0.105 N 
HETATM    4  C20 UNL     1     -18.155 -27.112 -12.324  1.00  0.00     0.299 C 
HETATM    5  C21 UNL     1     -16.895 -26.436 -11.950  1.00  0.00     0.141 C 
HETATM    6  N4  UNL     1     -16.919 -24.997 -12.160  1.00  0.00    -0.274 NA
ENDROOT
BRANCH   3   7
HETATM    7  C6  UNL     1     -18.600 -27.958 -14.473  1.00  0.00     0.316 C 
BRANCH   7   8
HETATM    8  C7  UNL     1     -17.862 -27.873 -15.738  1.00  0.00     0.077 C 
BRANCH   8   9
HETATM    9  C8  UNL     1     -16.522 -28.501 -15.876  1.00  0.00     0.225 C 
HETATM   10  F1  UNL     1     -16.516 -29.555 -16.771  1.00  0.00    -0.255 F 
ENDBRANCH   8   9
ENDBRANCH   7   8
BRANCH   7  11
HETATM   11  C9  UNL     1     -20.033 -28.297 -14.888  1.00  0.00     0.251 C 
HETATM   12  O1  UNL     1     -20.942 -27.640 -14.342  1.00  0.00    -0.271 OA
HETATM   13  N2  UNL     1     -20.291 -29.299 -15.829  1.00  0.00    -0.354 N 
ATOM     14  H2  UNL     1     -19.512 -29.805 -16.248  1.00  0.00     0.162 HD
BRANCH  13  15
HETATM   15  C10 UNL     1     -21.634 -29.626 -16.214  1.00  0.00     0.092 C 
HETATM   16  C11 UNL     1     -22.111 -28.906 -17.427  1.00  0.00     0.009 C 
HETATM   17  C12 UNL     1     -21.413 -29.382 -18.690  1.00  0.00     0.011 C 
HETATM   18  C16 UNL     1     -23.611 -29.166 -17.540  1.00  0.00     0.011 C 
HETATM   19  C13 UNL     1     -21.673 -30.842 -18.895  1.00  0.00    -0.013 C 
HETATM   20  C14 UNL     1     -23.150 -31.129 -18.975  1.00  0.00     0.009 C 
HETATM   21  C19 UNL     1     -21.090 -31.581 -17.707  1.00  0.00     0.011 C 
HETATM   22  C15 UNL     1     -23.811 -30.652 -17.719  1.00  0.00    -0.013 C 
HETATM   23  C17 UNL     1     -23.245 -31.434 -16.550  1.00  0.00     0.011 C 
HETATM   24  C18 UNL     1     -21.784 -31.126 -16.457  1.00  0.00     0.009 C 
ENDBRANCH  13  15
ENDBRANCH   7  11
ENDBRANCH   3   7
BRANCH   1  25
HETATM   25  C2  UNL     1     -19.298 -24.280 -12.394  1.00  0.00    -0.003 C 
HETATM   26  C1  UNL     1     -19.215 -23.665 -11.023  1.00  0.00     0.011 C 
HETATM   27  C3  UNL     1     -19.917 -23.165 -13.279  1.00  0.00     0.011 C 
ENDBRANCH   1  25
BRANCH   5  28
HETATM   28  C22 UNL     1     -16.586 -26.785 -10.524  1.00  0.00     0.031 A 
HETATM   29  C23 UNL     1     -17.359 -26.551  -9.412  1.00  0.00     0.031 A 
HETATM   30  C24 UNL     1     -16.700 -27.019  -8.314  1.00  0.00     0.063 A 
HETATM   31  C25 UNL     1     -15.485 -27.558  -8.744  1.00  0.00     0.188 A 
HETATM   32  F2  UNL     1     -14.513 -28.135  -7.986  1.00  0.00    -0.186 F 
HETATM   33  N3  UNL     1     -15.469 -27.393 -10.080  1.00  0.00    -0.335 N 
ATOM     34  H3  UNL     1     -14.703 -27.692 -10.683  1.00  0.00     0.168 HD
ENDBRANCH   5  28
BRANCH   6  35
HETATM   35  C26 UNL     1     -15.611 -24.624 -12.549  1.00  0.00     0.069 C 
BRANCH  35  36
HETATM   36  C27 UNL     1     -14.617 -24.101 -11.609  1.00  0.00    -0.035 C 
HETATM   37  C28 UNL     1     -15.123 -23.732 -10.265  1.00  0.00     0.046 C 
HETATM   38  C29 UNL     1     -14.661 -22.312 -10.056  1.00  0.00     0.062 C 
HETATM   39  C30 UNL     1     -13.647 -22.076 -11.116  1.00  0.00     0.020 A 
HETATM   40  N5  UNL     1     -12.816 -21.020 -11.226  1.00  0.00    -0.367 N 
HETATM   41  C34 UNL     1     -13.629 -23.126 -11.992  1.00  0.00    -0.005 A 
HETATM   42  C31 UNL     1     -11.912 -20.931 -12.209  1.00  0.00     0.112 A 
ATOM     43  H5  UNL     1     -12.879 -20.266 -10.541  1.00  0.00     0.165 HD
HETATM   44  C32 UNL     1     -11.831 -21.962 -13.142  1.00  0.00     0.050 A 
HETATM   45 CL1  UNL     1     -10.639 -21.849 -14.440  1.00  0.00    -0.083 Cl
HETATM   46  C33 UNL     1     -12.675 -23.022 -13.021  1.00  0.00     0.039 A 
ENDBRANCH  35  36
ENDBRANCH   6  35
TORSDOF 9
ENDMDL
MODEL 4
REMARK VINA RESULT: -8.051155541      3.024      4.500
REMARK  9 active torsions:
REMARK  status: ('A' for Active; 'I' for Inactive)
REMARK    1  A    between atoms: C2_2  and  C4_4 
REMARK    2  A    between atoms: N1_6  and  C6_7 
REMARK    3  A    between atoms: C6_7  and  C7_8 
REMARK    4  A    between atoms: C6_7  and  C9_11 
REMARK    5  A    between atoms: C7_8  and  C8_9 
REMARK       I    between atoms: C9_11  and  N2_13 
REMARK    6  A    between atoms: N2_13  and  C10_15 
REMARK    7  A    between atoms: C21_26  and  C22_27 
REMARK    8  A    between atoms: N4_34  and  C26_35 
REMARK    9  A    between atoms: C26_35  and  C27_36 
ROOT
HETATM    1  C4  UNL     1     -17.463 -22.971  -9.016  1.00  0.00     0.095 C 
HETATM    2  C5  UNL     1     -17.696 -24.466  -8.808  1.00  0.00     0.294 C 
HETATM    3  N1  UNL     1     -16.494 -25.166  -8.655  1.00  0.00     0.105 N 
HETATM    4  C20 UNL     1     -15.448 -24.589  -9.495  1.00  0.00     0.299 C 
HETATM    5  C21 UNL     1     -15.911 -23.767 -10.633  1.00  0.00     0.141 C 
HETATM    6  N4  UNL     1     -16.882 -22.750 -10.262  1.00  0.00    -0.274 NA
ENDROOT
BRANCH   3   7
HETATM    7  C6  UNL     1     -16.493 -26.581  -8.808  1.00  0.00     0.316 C 
BRANCH   7   8
HETATM    8  C7  UNL     1     -15.209 -27.269  -8.988  1.00  0.00     0.077 C 
BRANCH   8   9
HETATM    9  C8  UNL     1     -14.850 -28.434  -8.137  1.00  0.00     0.225 C 
HETATM   10  F1  UNL     1     -15.507 -29.592  -8.513  1.00  0.00    -0.255 F 
ENDBRANCH   8   9
ENDBRANCH   7   8
BRANCH   7  11
HETATM   11  C9  UNL     1     -17.271 -26.880 -10.092  1.00  0.00     0.251 C 
HETATM   12  O1  UNL     1     -18.514 -26.826 -10.014  1.00  0.00    -0.271 OA
HETATM   13  N2  UNL     1     -16.604 -27.202 -11.277  1.00  0.00    -0.354 N 
ATOM     14  H2  UNL     1     -15.585 -27.230 -11.288  1.00  0.00     0.162 HD
BRANCH  13  15
HETATM   15  C10 UNL     1     -17.330 -27.492 -12.481  1.00  0.00     0.092 C 
HETATM   16  C11 UNL     1     -16.666 -27.011 -13.723  1.00  0.00     0.009 C 
HETATM   17  C12 UNL     1     -15.409 -27.803 -14.045  1.00  0.00     0.011 C 
HETATM   18  C16 UNL     1     -17.674 -27.165 -14.858  1.00  0.00     0.011 C 
HETATM   19  C13 UNL     1     -15.752 -29.246 -14.242  1.00  0.00    -0.013 C 
HETATM   20  C14 UNL     1     -16.774 -29.421 -15.335  1.00  0.00     0.009 C 
HETATM   21  C19 UNL     1     -16.332 -29.760 -12.939  1.00  0.00     0.011 C 
HETATM   22  C15 UNL     1     -18.001 -28.633 -14.991  1.00  0.00    -0.013 C 
HETATM   23  C17 UNL     1     -18.587 -29.192 -13.709  1.00  0.00     0.011 C 
HETATM   24  C18 UNL     1     -17.581 -28.992 -12.620  1.00  0.00     0.009 C 
ENDBRANCH  13  15
ENDBRANCH   7  11
ENDBRANCH   3   7
BRANCH   1  25
HETATM   25  C2  UNL     1     -16.778 -22.432  -7.790  1.00  0.00    -0.003 C 
HETATM   26  C1  UNL     1     -16.187 -21.062  -7.990  1.00  0.00     0.011 C 
HETATM   27  C3  UNL     1     -17.902 -22.216  -6.740  1.00  0.00     0.011 C 
ENDBRANCH   1  25
BRANCH   5  28
HETATM   28  C22 UNL     1     -14.704 -23.168 -11.294  1.00  0.00     0.031 A 
HETATM   29  C23 UNL     1     -14.158 -23.498 -12.511  1.00  0.00     0.031 A 
HETATM   30  C24 UNL     1     -13.061 -22.716 -12.726  1.00  0.00     0.063 A 
HETATM   31  C25 UNL     1     -12.914 -21.877 -11.620  1.00  0.00     0.188 A 
HETATM   32  F2  UNL     1     -11.955 -20.934 -11.408  1.00  0.00    -0.186 F 
HETATM   33  N3  UNL     1     -13.928 -22.189 -10.791  1.00  0.00    -0.335 N 
ATOM     34  H3  UNL     1     -14.089 -21.738  -9.890  1.00  0.00     0.168 HD
ENDBRANCH   5  28
BRANCH   6  35
HETATM   35  C26 UNL     1     -17.774 -22.627 -11.354  1.00  0.00     0.069 C 
BRANCH  35  36
HETATM   36  C27 UNL     1     -17.893 -23.639 -12.405  1.00  0.00    -0.035 C 
HETATM   37  C28 UNL     1     -17.286 -23.293 -13.713  1.00  0.00     0.046 C 
HETATM   38  C29 UNL     1     -18.391 -23.501 -14.718  1.00  0.00     0.062 C 
HETATM   39  C30 UNL     1     -19.435 -24.268 -13.990  1.00  0.00     0.020 A 
HETATM   40  N5  UNL     1     -20.530 -24.852 -14.516  1.00  0.00    -0.367 N 
HETATM   41  C34 UNL     1     -19.121 -24.347 -12.661  1.00  0.00    -0.005 A 
HETATM   42  C31 UNL     1     -21.389 -25.553 -13.765  1.00  0.00     0.112 A 
ATOM     43  H5  UNL     1     -20.712 -24.756 -15.516  1.00  0.00     0.165 HD
HETATM   44  C32 UNL     1     -21.136 -25.680 -12.401  1.00  0.00     0.050 A 
HETATM   45 CL1  UNL     1     -22.265 -26.604 -11.406  1.00  0.00    -0.083 Cl
HETATM   46  C33 UNL     1     -20.028 -25.087 -11.881  1.00  0.00     0.039 A 
ENDBRANCH  35  36
ENDBRANCH   6  35
TORSDOF 9
ENDMDL
MODEL 5
REMARK VINA RESULT: -8.041369884      2.566      3.720
REMARK  9 active torsions:
REMARK  status: ('A' for Active; 'I' for Inactive)
REMARK    1  A    between atoms: C2_2  and  C4_4 
REMARK    2  A    between atoms: N1_6  and  C6_7 
REMARK    3  A    between atoms: C6_7  and  C7_8 
REMARK    4  A    between atoms: C6_7  and  C9_11 
REMARK    5  A    between atoms: C7_8  and  C8_9 
REMARK       I    between atoms: C9_11  and  N2_13 
REMARK    6  A    between atoms: N2_13  and  C10_15 
REMARK    7  A    between atoms: C21_26  and  C22_27 
REMARK    8  A    between atoms: N4_34  and  C26_35 
REMARK    9  A    between atoms: C26_35  and  C27_36 
ROOT
HETATM    1  C4  UNL     1     -18.240 -24.480 -11.243  1.00  0.00     0.095 C 
HETATM    2  C5  UNL     1     -18.133 -25.904 -10.702  1.00  0.00     0.294 C 
HETATM    3  N1  UNL     1     -17.138 -26.019  -9.723  1.00  0.00     0.105 N 
HETATM    4  C20 UNL     1     -16.005 -25.151 -10.034  1.00  0.00     0.299 C 
HETATM    5  C21 UNL     1     -15.883 -24.724 -11.444  1.00  0.00     0.141 C 
HETATM    6  N4  UNL     1     -17.110 -24.172 -11.996  1.00  0.00    -0.274 NA
ENDROOT
BRANCH   3   7
HETATM    7  C6  UNL     1     -16.659 -27.311  -9.372  1.00  0.00     0.316 C 
BRANCH   7   8
HETATM    8  C7  UNL     1     -15.209 -27.527  -9.293  1.00  0.00     0.077 C 
BRANCH   8   9
HETATM    9  C8  UNL     1     -14.626 -28.351  -8.202  1.00  0.00     0.225 C 
HETATM   10  F1  UNL     1     -15.095 -29.653  -8.207  1.00  0.00    -0.255 F 
ENDBRANCH   8   9
ENDBRANCH   7   8
BRANCH   7  11
HETATM   11  C9  UNL     1     -17.128 -28.264 -10.474  1.00  0.00     0.251 C 
HETATM   12  O1  UNL     1     -18.088 -29.009 -10.193  1.00  0.00    -0.271 OA
HETATM   13  N2  UNL     1     -16.497 -28.288 -11.721  1.00  0.00    -0.354 N 
ATOM     14  H2  UNL     1     -15.718 -27.656 -11.900  1.00  0.00     0.162 HD
BRANCH  13  15
HETATM   15  C10 UNL     1     -16.928 -29.186 -12.753  1.00  0.00     0.092 C 
HETATM   16  C11 UNL     1     -17.693 -28.531 -13.850  1.00  0.00     0.009 C 
HETATM   17  C12 UNL     1     -16.812 -27.638 -14.709  1.00  0.00     0.011 C 
HETATM   18  C16 UNL     1     -18.287 -29.644 -14.708  1.00  0.00     0.011 C 
HETATM   19  C13 UNL     1     -15.722 -28.449 -15.336  1.00  0.00    -0.013 C 
HETATM   20  C14 UNL     1     -16.285 -29.578 -16.160  1.00  0.00     0.009 C 
HETATM   21  C19 UNL     1     -14.882 -29.029 -14.215  1.00  0.00     0.011 C 
HETATM   22  C15 UNL     1     -17.145 -30.441 -15.289  1.00  0.00    -0.013 C 
HETATM   23  C17 UNL     1     -16.276 -31.044 -14.202  1.00  0.00     0.011 C 
HETATM   24  C18 UNL     1     -15.741 -29.923 -13.369  1.00  0.00     0.009 C 
ENDBRANCH  13  15
ENDBRANCH   7  11
ENDBRANCH   3   7
BRANCH   1  25
HETATM   25  C2  UNL     1     -18.622 -23.577 -10.102  1.00  0.00    -0.003 C 
HETATM   26  C1  UNL     1     -18.252 -22.136 -10.332  1.00  0.00     0.011 C 
HETATM   27  C3  UNL     1     -20.175 -23.574 -10.067  1.00  0.00     0.011 C 
ENDBRANCH   1  25
BRANCH   5  28
HETATM   28  C22 UNL     1     -14.744 -23.751 -11.537  1.00  0.00     0.031 A 
HETATM   29  C23 UNL     1     -14.359 -22.813 -10.610  1.00  0.00     0.031 A 
HETATM   30  C24 UNL     1     -13.282 -22.132 -11.097  1.00  0.00     0.063 A 
HETATM   31  C25 UNL     1     -12.985 -22.652 -12.359  1.00  0.00     0.188 A 
HETATM   32  F2  UNL     1     -11.991 -22.271 -13.206  1.00  0.00    -0.186 F 
HETATM   33  N3  UNL     1     -13.893 -23.623 -12.573  1.00  0.00    -0.335 N 
ATOM     34  H3  UNL     1     -13.932 -24.193 -13.418  1.00  0.00     0.168 HD
ENDBRANCH   5  28
BRANCH   6  35
HETATM   35  C26 UNL     1     -17.145 -24.550 -13.359  1.00  0.00     0.069 C 
BRANCH  35  36
HETATM   36  C27 UNL     1     -18.157 -24.062 -14.298  1.00  0.00    -0.035 C 
HETATM   37  C28 UNL     1     -18.240 -22.590 -14.457  1.00  0.00     0.046 C 
HETATM   38  C29 UNL     1     -19.690 -22.258 -14.211  1.00  0.00     0.062 C 
HETATM   39  C30 UNL     1     -20.400 -23.561 -14.268  1.00  0.00     0.020 A 
HETATM   40  N5  UNL     1     -21.733 -23.761 -14.292  1.00  0.00    -0.367 N 
HETATM   41  C34 UNL     1     -19.498 -24.587 -14.332  1.00  0.00    -0.005 A 
HETATM   42  C31 UNL     1     -22.264 -24.987 -14.382  1.00  0.00     0.112 A 
ATOM     43  H5  UNL     1     -22.356 -22.954 -14.241  1.00  0.00     0.165 HD
HETATM   44  C32 UNL     1     -21.409 -26.084 -14.452  1.00  0.00     0.050 A 
HETATM   45 CL1  UNL     1     -22.104 -27.703 -14.570  1.00  0.00    -0.083 Cl
HETATM   46  C33 UNL     1     -20.065 -25.870 -14.426  1.00  0.00     0.039 A 
ENDBRANCH  35  36
ENDBRANCH   6  35
TORSDOF 9
ENDMDL
