MODEL 1
REMARK VINA RESULT: -8.430449743      0.000      0.000
REMARK  10 active torsions:
REMARK  status: ('A' for Active; 'I' for Inactive)
REMARK    1  A    between atoms: C5_5  and  C6_6 
REMARK    2  A    between atoms: C6_6  and  N1_7 
REMARK    3  A    between atoms: N1_7  and  C7_9 
REMARK    4  A    between atoms: C7_9  and  C8_10 
REMARK    5  A    between atoms: C7_9  and  C20_30 
REMARK       I    between atoms: C8_10  and  N2_12 
REMARK    6  A    between atoms: C12_17  and  C13_18 
REMARK       I    between atoms: C13_18  and  N3_20 
REMARK    7  A    between atoms: N3_20  and  C14_22 
REMARK    8  A    between atoms: C23_33  and  N4_34 
REMARK    9  A    between atoms: N4_34  and  C24_35 
REMARK   10  A    between atoms: N4_34  and  C27_38 
ROOT
HETATM    1  C7  UNL     1     -17.419 -25.915 -10.959  1.00  0.00     0.177 C 
ENDROOT
BRANCH   1   2
HETATM    2  N1  UNL     1     -16.236 -25.210 -11.294  1.00  0.00    -0.385 N 
ATOM      3  H1  UNL     1     -15.961 -25.140 -12.273  1.00  0.00     0.159 HD
BRANCH   2   4
HETATM    4  C6  UNL     1     -15.437 -24.608 -10.318  1.00  0.00     0.095 C 
BRANCH   4   5
HETATM    5  C5  UNL     1     -14.525 -23.625 -11.037  1.00  0.00    -0.021 A 
HETATM    6  C4  UNL     1     -14.305 -23.785 -12.386  1.00  0.00     0.013 A 
HETATM    7  C3  UNL     1     -13.475 -22.922 -13.096  1.00  0.00     0.007 A 
HETATM    8  C2  UNL     1     -12.855 -21.883 -12.443  1.00  0.00    -0.062 A 
HETATM    9  C1  UNL     1     -11.955 -20.956 -13.211  1.00  0.00     0.048 C 
HETATM   10  C35 UNL     1     -13.072 -21.719 -11.094  1.00  0.00     0.007 A 
HETATM   11  C34 UNL     1     -13.907 -22.589 -10.386  1.00  0.00     0.013 A 
ENDBRANCH   4   5
ENDBRANCH   2   4
ENDBRANCH   1   2
BRANCH   1  12
HETATM   12  C8  UNL     1     -18.470 -25.114 -10.291  1.00  0.00     0.243 C 
HETATM   13  O1  UNL     1     -19.045 -25.614  -9.270  1.00  0.00    -0.271 OA
HETATM   14  N2  UNL     1     -18.859 -23.834 -10.749  1.00  0.00    -0.334 N 
HETATM   15  C9  UNL     1     -18.331 -23.087 -11.866  1.00  0.00     0.164 C 
HETATM   16  C12 UNL     1     -19.963 -23.043 -10.187  1.00  0.00     0.182 C 
HETATM   17  C10 UNL     1     -19.497 -22.280 -12.400  1.00  0.00     0.190 C 
HETATM   18  F1  UNL     1     -19.843 -22.653 -13.696  1.00  0.00    -0.248 F 
HETATM   19  C11 UNL     1     -20.669 -22.647 -11.521  1.00  0.00     0.074 C 
BRANCH  16  20
HETATM   20  C13 UNL     1     -19.559 -21.826  -9.489  1.00  0.00     0.241 C 
HETATM   21  O2  UNL     1     -20.254 -20.774  -9.556  1.00  0.00    -0.271 OA
HETATM   22  N3  UNL     1     -18.381 -21.765  -8.711  1.00  0.00    -0.355 N 
ATOM     23  H3  UNL     1     -17.799 -22.602  -8.674  1.00  0.00     0.162 HD
BRANCH  22  24
HETATM   24  C14 UNL     1     -17.935 -20.611  -7.963  1.00  0.00     0.084 C 
HETATM   25  C15 UNL     1     -17.887 -20.861  -6.502  1.00  0.00     0.031 C 
HETATM   26  C16 UNL     1     -17.497 -19.612  -5.755  1.00  0.00     0.081 C 
HETATM   27  C17 UNL     1     -16.287 -18.952  -6.330  1.00  0.00     0.243 C 
HETATM   28  F2  UNL     1     -16.722 -17.802  -6.995  1.00  0.00    -0.206 F 
HETATM   29  F3  UNL     1     -15.389 -18.521  -5.366  1.00  0.00    -0.206 F 
HETATM   30  C18 UNL     1     -15.623 -19.822  -7.353  1.00  0.00     0.081 C 
HETATM   31  C19 UNL     1     -16.548 -20.177  -8.469  1.00  0.00     0.031 C 
ENDBRANCH  22  24
ENDBRANCH  16  20
ENDBRANCH   1  12
BRANCH   1  32
HETATM   32  C20 UNL     1     -17.935 -26.505 -12.272  1.00  0.00     0.018 C 
HETATM   33  C21 UNL     1     -16.670 -26.765 -13.107  1.00  0.00     0.013 C 
HETATM   34  C22 UNL     1     -17.101 -27.302 -14.482  1.00  0.00     0.053 C 
HETATM   35  C23 UNL     1     -17.816 -28.587 -14.244  1.00  0.00    -0.015 C 
HETATM   36  C32 UNL     1     -19.080 -28.318 -13.470  1.00  0.00     0.053 C 
HETATM   37  C33 UNL     1     -18.682 -27.790 -12.075  1.00  0.00     0.013 C 
BRANCH  35  38
HETATM   38  N4  UNL     1     -17.905 -29.532 -15.303  1.00  0.00    -0.379 N 
BRANCH  38  39
HETATM   39  C24 UNL     1     -19.197 -29.942 -15.719  1.00  0.00     0.076 C 
HETATM   40  C25 UNL     1     -19.318 -31.476 -15.573  1.00  0.00     0.032 C 
HETATM   41  C26 UNL     1     -19.742 -29.553 -17.025  1.00  0.00     0.032 C 
ENDBRANCH  38  39
BRANCH  38  42
HETATM   42  C27 UNL     1     -16.949 -30.599 -15.244  1.00  0.00     0.084 C 
HETATM   43  C28 UNL     1     -16.309 -30.866 -13.914  1.00  0.00     0.025 C 
HETATM   44  C29 UNL     1     -14.834 -31.245 -14.227  1.00  0.00     0.002 C 
HETATM   45  C30 UNL     1     -14.571 -30.315 -15.397  1.00  0.00     0.002 C 
HETATM   46  C31 UNL     1     -15.850 -30.631 -16.208  1.00  0.00     0.025 C 
ENDBRANCH  38  42
ENDBRANCH  35  38
ENDBRANCH   1  32
TORSDOF 10
ENDMDL
MODEL 2
REMARK VINA RESULT: -8.188783351      3.439      7.441
REMARK  10 active torsions:
REMARK  status: ('A' for Active; 'I' for Inactive)
REMARK    1  A    between atoms: C5_5  and  C6_6 
REMARK    2  A    between atoms: C6_6  and  N1_7 
REMARK    3  A    between atoms: N1_7  and  C7_9 
REMARK    4  A    between atoms: C7_9  and  C8_10 
REMARK    5  A    between atoms: C7_9  and  C20_30 
REMARK       I    between atoms: C8_10  and  N2_12 
REMARK    6  A    between atoms: C12_17  and  C13_18 
REMARK       I    between atoms: C13_18  and  N3_20 
REMARK    7  A    between atoms: N3_20  and  C14_22 
REMARK    8  A    between atoms: C23_33  and  N4_34 
REMARK    9  A    between atoms: N4_34  and  C24_35 
REMARK   10  A    between atoms: N4_34  and  C27_38 
ROOT
HETATM    1  C7  UNL     1     -15.338 -22.771 -11.042  1.00  0.00     0.177 C 
ENDROOT
BRANCH   1   2
HETATM    2  N1  UNL     1     -14.145 -22.012 -10.957  1.00  0.00    -0.385 N 
ATOM      3  H1  UNL     1     -14.201 -21.024 -10.713  1.00  0.00     0.159 HD
BRANCH   2   4
HETATM    4  C6  UNL     1     -12.892 -22.582 -11.200  1.00  0.00     0.095 C 
BRANCH   4   5
HETATM    5  C5  UNL     1     -12.188 -21.690 -12.213  1.00  0.00    -0.021 A 
HETATM    6  C4  UNL     1     -11.354 -22.269 -13.142  1.00  0.00     0.013 A 
HETATM    7  C3  UNL     1     -10.677 -21.504 -14.088  1.00  0.00     0.007 A 
HETATM    8  C2  UNL     1     -10.839 -20.139 -14.102  1.00  0.00    -0.062 A 
HETATM    9  C1  UNL     1     -10.102 -19.316 -15.122  1.00  0.00     0.048 C 
HETATM   10  C35 UNL     1     -11.672 -19.556 -13.175  1.00  0.00     0.007 A 
HETATM   11  C34 UNL     1     -12.350 -20.330 -12.227  1.00  0.00     0.013 A 
ENDBRANCH   4   5
ENDBRANCH   2   4
ENDBRANCH   1   2
BRANCH   1  12
HETATM   12  C8  UNL     1     -15.832 -23.029 -12.414  1.00  0.00     0.243 C 
HETATM   13  O1  UNL     1     -14.975 -23.121 -13.352  1.00  0.00    -0.271 OA
HETATM   14  N2  UNL     1     -17.207 -23.166 -12.715  1.00  0.00    -0.334 N 
HETATM   15  C9  UNL     1     -18.329 -23.110 -11.809  1.00  0.00     0.164 C 
HETATM   16  C12 UNL     1     -17.756 -23.320 -14.070  1.00  0.00     0.182 C 
HETATM   17  C10 UNL     1     -19.471 -22.522 -12.614  1.00  0.00     0.190 C 
HETATM   18  F1  UNL     1     -19.885 -21.290 -12.113  1.00  0.00    -0.248 F 
HETATM   19  C11 UNL     1     -18.893 -22.255 -13.984  1.00  0.00     0.074 C 
BRANCH  16  20
HETATM   20  C13 UNL     1     -18.352 -24.623 -14.351  1.00  0.00     0.241 C 
HETATM   21  O2  UNL     1     -19.507 -24.718 -14.852  1.00  0.00    -0.271 OA
HETATM   22  N3  UNL     1     -17.672 -25.831 -14.079  1.00  0.00    -0.355 N 
ATOM     23  H3  UNL     1     -16.749 -25.764 -13.649  1.00  0.00     0.162 HD
BRANCH  22  24
HETATM   24  C14 UNL     1     -18.179 -27.155 -14.362  1.00  0.00     0.084 C 
HETATM   25  C15 UNL     1     -17.672 -27.699 -15.646  1.00  0.00     0.031 C 
HETATM   26  C16 UNL     1     -18.288 -29.041 -15.942  1.00  0.00     0.081 C 
HETATM   27  C17 UNL     1     -18.215 -29.976 -14.780  1.00  0.00     0.243 C 
HETATM   28  F2  UNL     1     -19.505 -30.076 -14.249  1.00  0.00    -0.206 F 
HETATM   29  F3  UNL     1     -17.846 -31.265 -15.135  1.00  0.00    -0.206 F 
HETATM   30  C18 UNL     1     -17.339 -29.432 -13.694  1.00  0.00     0.081 C 
HETATM   31  C19 UNL     1     -17.812 -28.103 -13.207  1.00  0.00     0.031 C 
ENDBRANCH  22  24
ENDBRANCH  16  20
ENDBRANCH   1  12
BRANCH   1  32
HETATM   32  C20 UNL     1     -15.047 -24.083 -10.312  1.00  0.00     0.018 C 
HETATM   33  C21 UNL     1     -15.991 -24.072  -9.098  1.00  0.00     0.013 C 
HETATM   34  C22 UNL     1     -15.718 -25.334  -8.263  1.00  0.00     0.053 C 
HETATM   35  C23 UNL     1     -16.030 -26.506  -9.128  1.00  0.00    -0.015 C 
HETATM   36  C32 UNL     1     -15.068 -26.539 -10.287  1.00  0.00     0.053 C 
HETATM   37  C33 UNL     1     -15.326 -25.290 -11.157  1.00  0.00     0.013 C 
BRANCH  35  38
HETATM   38  N4  UNL     1     -16.334 -27.753  -8.516  1.00  0.00    -0.379 N 
BRANCH  38  39
HETATM   39  C24 UNL     1     -17.477 -28.455  -8.973  1.00  0.00     0.076 C 
HETATM   40  C25 UNL     1     -17.027 -29.679  -9.803  1.00  0.00     0.032 C 
HETATM   41  C26 UNL     1     -18.559 -27.775  -9.695  1.00  0.00     0.032 C 
ENDBRANCH  38  39
BRANCH  38  42
HETATM   42  C27 UNL     1     -16.163 -27.786  -7.093  1.00  0.00     0.084 C 
HETATM   43  C28 UNL     1     -15.047 -28.634  -6.560  1.00  0.00     0.025 C 
HETATM   44  C29 UNL     1     -15.589 -29.266  -5.248  1.00  0.00     0.002 C 
HETATM   45  C30 UNL     1     -17.036 -29.492  -5.648  1.00  0.00     0.002 C 
HETATM   46  C31 UNL     1     -17.312 -28.089  -6.239  1.00  0.00     0.025 C 
ENDBRANCH  38  42
ENDBRANCH  35  38
ENDBRANCH   1  32
TORSDOF 10
ENDMDL
MODEL 3
REMARK VINA RESULT: -8.088917704      3.310      7.403
REMARK  10 active torsions:
REMARK  status: ('A' for Active; 'I' for Inactive)
REMARK    1  A    between atoms: C5_5  and  C6_6 
REMARK    2  A    between atoms: C6_6  and  N1_7 
REMARK    3  A    between atoms: N1_7  and  C7_9 
REMARK    4  A    between atoms: C7_9  and  C8_10 
REMARK    5  A    between atoms: C7_9  and  C20_30 
REMARK       I    between atoms: C8_10  and  N2_12 
REMARK    6  A    between atoms: C12_17  and  C13_18 
REMARK       I    between atoms: C13_18  and  N3_20 
REMARK    7  A    between atoms: N3_20  and  C14_22 
REMARK    8  A    between atoms: C23_33  and  N4_34 
REMARK    9  A    between atoms: N4_34  and  C24_35 
REMARK   10  A    between atoms: N4_34  and  C27_38 
ROOT
HETATM    1  C7  UNL     1     -15.233 -22.734 -10.987  1.00  0.00     0.177 C 
ENDROOT
BRANCH   1   2
HETATM    2  N1  UNL     1     -13.985 -22.065 -10.937  1.00  0.00    -0.385 N 
ATOM      3  H1  UNL     1     -13.950 -21.107 -10.591  1.00  0.00     0.159 HD
BRANCH   2   4
HETATM    4  C6  UNL     1     -12.802 -22.685 -11.349  1.00  0.00     0.095 C 
BRANCH   4   5
HETATM    5  C5  UNL     1     -12.113 -21.728 -12.311  1.00  0.00    -0.021 A 
HETATM    6  C4  UNL     1     -11.221 -22.235 -13.229  1.00  0.00     0.013 A 
HETATM    7  C3  UNL     1     -10.555 -21.408 -14.130  1.00  0.00     0.007 A 
HETATM    8  C2  UNL     1     -10.786 -20.053 -14.109  1.00  0.00    -0.062 A 
HETATM    9  C1  UNL     1     -10.061 -19.163 -15.080  1.00  0.00     0.048 C 
HETATM   10  C35 UNL     1     -11.676 -19.542 -13.193  1.00  0.00     0.007 A 
HETATM   11  C34 UNL     1     -12.343 -20.377 -12.291  1.00  0.00     0.013 A 
ENDBRANCH   4   5
ENDBRANCH   2   4
ENDBRANCH   1   2
BRANCH   1  12
HETATM   12  C8  UNL     1     -15.770 -22.980 -12.345  1.00  0.00     0.243 C 
HETATM   13  O1  UNL     1     -14.940 -23.087 -13.306  1.00  0.00    -0.271 OA
HETATM   14  N2  UNL     1     -17.154 -23.087 -12.608  1.00  0.00    -0.334 N 
HETATM   15  C9  UNL     1     -18.250 -23.010 -11.671  1.00  0.00     0.164 C 
HETATM   16  C12 UNL     1     -17.744 -23.228 -13.948  1.00  0.00     0.182 C 
HETATM   17  C10 UNL     1     -19.401 -22.397 -12.444  1.00  0.00     0.190 C 
HETATM   18  F1  UNL     1     -19.776 -21.159 -11.930  1.00  0.00    -0.248 F 
HETATM   19  C11 UNL     1     -18.856 -22.140 -13.829  1.00  0.00     0.074 C 
BRANCH  16  20
HETATM   20  C13 UNL     1     -18.375 -24.518 -14.213  1.00  0.00     0.241 C 
HETATM   21  O2  UNL     1     -19.499 -24.590 -14.783  1.00  0.00    -0.271 OA
HETATM   22  N3  UNL     1     -17.762 -25.738 -13.851  1.00  0.00    -0.355 N 
ATOM     23  H3  UNL     1     -16.866 -25.689 -13.367  1.00  0.00     0.162 HD
BRANCH  22  24
HETATM   24  C14 UNL     1     -18.305 -27.053 -14.113  1.00  0.00     0.084 C 
HETATM   25  C15 UNL     1     -17.740 -27.670 -15.338  1.00  0.00     0.031 C 
HETATM   26  C16 UNL     1     -18.391 -29.000 -15.619  1.00  0.00     0.081 C 
HETATM   27  C17 UNL     1     -18.430 -29.886 -14.418  1.00  0.00     0.243 C 
HETATM   28  F2  UNL     1     -19.754 -29.913 -13.969  1.00  0.00    -0.206 F 
HETATM   29  F3  UNL     1     -18.093 -31.201 -14.696  1.00  0.00    -0.206 F 
HETATM   30  C18 UNL     1     -17.603 -29.330 -13.300  1.00  0.00     0.081 C 
HETATM   31  C19 UNL     1     -18.051 -27.963 -12.899  1.00  0.00     0.031 C 
ENDBRANCH  22  24
ENDBRANCH  16  20
ENDBRANCH   1  12
BRANCH   1  32
HETATM   32  C20 UNL     1     -15.027 -24.051 -10.237  1.00  0.00     0.018 C 
HETATM   33  C21 UNL     1     -15.992 -23.975  -9.042  1.00  0.00     0.013 C 
HETATM   34  C22 UNL     1     -15.803 -25.239  -8.187  1.00  0.00     0.053 C 
HETATM   35  C23 UNL     1     -16.161 -26.403  -9.044  1.00  0.00    -0.015 C 
HETATM   36  C32 UNL     1     -15.181 -26.502 -10.184  1.00  0.00     0.053 C 
HETATM   37  C33 UNL     1     -15.354 -25.251 -11.073  1.00  0.00     0.013 C 
BRANCH  35  38
HETATM   38  N4  UNL     1     -16.544 -27.624  -8.425  1.00  0.00    -0.379 N 
BRANCH  38  39
HETATM   39  C24 UNL     1     -15.769 -28.779  -8.699  1.00  0.00     0.076 C 
HETATM   40  C25 UNL     1     -16.677 -29.869  -9.315  1.00  0.00     0.032 C 
HETATM   41  C26 UNL     1     -14.926 -29.400  -7.671  1.00  0.00     0.032 C 
ENDBRANCH  38  39
BRANCH  38  42
HETATM   42  C27 UNL     1     -17.957 -27.868  -8.390  1.00  0.00     0.084 C 
HETATM   43  C28 UNL     1     -18.805 -27.091  -9.352  1.00  0.00     0.025 C 
HETATM   44  C29 UNL     1     -20.115 -26.760  -8.583  1.00  0.00     0.002 C 
HETATM   45  C30 UNL     1     -19.548 -26.527  -7.194  1.00  0.00     0.002 C 
HETATM   46  C31 UNL     1     -18.665 -27.795  -7.112  1.00  0.00     0.025 C 
ENDBRANCH  38  42
ENDBRANCH  35  38
ENDBRANCH   1  32
TORSDOF 10
ENDMDL
MODEL 4
REMARK VINA RESULT: -8.081734259      3.220      6.000
REMARK  10 active torsions:
REMARK  status: ('A' for Active; 'I' for Inactive)
REMARK    1  A    between atoms: C5_5  and  C6_6 
REMARK    2  A    between atoms: C6_6  and  N1_7 
REMARK    3  A    between atoms: N1_7  and  C7_9 
REMARK    4  A    between atoms: C7_9  and  C8_10 
REMARK    5  A    between atoms: C7_9  and  C20_30 
REMARK       I    between atoms: C8_10  and  N2_12 
REMARK    6  A    between atoms: C12_17  and  C13_18 
REMARK       I    between atoms: C13_18  and  N3_20 
REMARK    7  A    between atoms: N3_20  and  C14_22 
REMARK    8  A    between atoms: C23_33  and  N4_34 
REMARK    9  A    between atoms: N4_34  and  C24_35 
REMARK   10  A    between atoms: N4_34  and  C27_38 
ROOT
HETATM    1  C7  UNL     1     -17.755 -26.384 -12.354  1.00  0.00     0.177 C 
ENDROOT
BRANCH   1   2
HETATM    2  N1  UNL     1     -18.362 -26.729 -11.121  1.00  0.00    -0.385 N 
ATOM      3  H1  UNL     1     -19.358 -26.552 -10.992  1.00  0.00     0.159 HD
BRANCH   2   4
HETATM    4  C6  UNL     1     -17.632 -27.305 -10.078  1.00  0.00     0.095 C 
BRANCH   4   5
HETATM    5  C5  UNL     1     -17.737 -26.359  -8.889  1.00  0.00    -0.021 A 
HETATM    6  C4  UNL     1     -16.642 -26.192  -8.074  1.00  0.00     0.013 A 
HETATM    7  C3  UNL     1     -16.680 -25.347  -6.968  1.00  0.00     0.007 A 
HETATM    8  C2  UNL     1     -17.835 -24.660  -6.675  1.00  0.00    -0.062 A 
HETATM    9  C1  UNL     1     -17.874 -23.753  -5.478  1.00  0.00     0.048 C 
HETATM   10  C35 UNL     1     -18.932 -24.825  -7.488  1.00  0.00     0.007 A 
HETATM   11  C34 UNL     1     -18.888 -25.675  -8.598  1.00  0.00     0.013 A 
ENDBRANCH   4   5
ENDBRANCH   2   4
ENDBRANCH   1   2
BRANCH   1  12
HETATM   12  C8  UNL     1     -16.346 -25.936 -12.267  1.00  0.00     0.243 C 
HETATM   13  O1  UNL     1     -15.435 -26.755 -12.618  1.00  0.00    -0.271 OA
HETATM   14  N2  UNL     1     -15.983 -24.651 -11.803  1.00  0.00    -0.334 N 
HETATM   15  C9  UNL     1     -16.849 -23.579 -11.374  1.00  0.00     0.164 C 
HETATM   16  C12 UNL     1     -14.601 -24.193 -11.601  1.00  0.00     0.182 C 
HETATM   17  C10 UNL     1     -16.075 -22.836 -10.304  1.00  0.00     0.190 C 
HETATM   18  F1  UNL     1     -16.695 -22.915  -9.060  1.00  0.00    -0.248 F 
HETATM   19  C11 UNL     1     -14.765 -23.577 -10.177  1.00  0.00     0.074 C 
BRANCH  16  20
HETATM   20  C13 UNL     1     -14.155 -23.147 -12.517  1.00  0.00     0.241 C 
HETATM   21  O2  UNL     1     -14.864 -22.795 -13.501  1.00  0.00    -0.271 OA
HETATM   22  N3  UNL     1     -12.920 -22.482 -12.349  1.00  0.00    -0.355 N 
ATOM     23  H3  UNL     1     -12.329 -22.778 -11.573  1.00  0.00     0.162 HD
BRANCH  22  24
HETATM   24  C14 UNL     1     -12.428 -21.413 -13.190  1.00  0.00     0.084 C 
HETATM   25  C15 UNL     1     -12.029 -20.214 -12.414  1.00  0.00     0.031 C 
HETATM   26  C16 UNL     1     -11.601 -19.098 -13.332  1.00  0.00     0.081 C 
HETATM   27  C17 UNL     1     -10.619 -19.547 -14.364  1.00  0.00     0.243 C 
HETATM   28  F2  UNL     1     -11.299 -19.599 -15.585  1.00  0.00    -0.206 F 
HETATM   29  F3  UNL     1      -9.572 -18.658 -14.547  1.00  0.00    -0.206 F 
HETATM   30  C18 UNL     1     -10.124 -20.932 -14.083  1.00  0.00     0.081 C 
HETATM   31  C19 UNL     1     -11.239 -21.923 -14.023  1.00  0.00     0.031 C 
ENDBRANCH  22  24
ENDBRANCH  16  20
ENDBRANCH   1  12
BRANCH   1  32
HETATM   32  C20 UNL     1     -17.878 -27.626 -13.238  1.00  0.00     0.018 C 
HETATM   33  C21 UNL     1     -19.174 -28.310 -12.772  1.00  0.00     0.013 C 
HETATM   34  C22 UNL     1     -19.344 -29.615 -13.568  1.00  0.00     0.053 C 
HETATM   35  C23 UNL     1     -19.467 -29.237 -15.003  1.00  0.00    -0.015 C 
HETATM   36  C32 UNL     1     -18.175 -28.615 -15.466  1.00  0.00     0.053 C 
HETATM   37  C33 UNL     1     -17.980 -27.291 -14.695  1.00  0.00     0.013 C 
BRANCH  35  38
HETATM   38  N4  UNL     1     -20.097 -30.141 -15.903  1.00  0.00    -0.379 N 
BRANCH  38  39
HETATM   39  C24 UNL     1     -21.180 -29.657 -16.678  1.00  0.00     0.076 C 
HETATM   40  C25 UNL     1     -20.738 -29.536 -18.155  1.00  0.00     0.032 C 
HETATM   41  C26 UNL     1     -21.906 -28.437 -16.308  1.00  0.00     0.032 C 
ENDBRANCH  38  39
BRANCH  38  42
HETATM   42  C27 UNL     1     -20.296 -31.465 -15.389  1.00  0.00     0.084 C 
HETATM   43  C28 UNL     1     -19.182 -32.448 -15.594  1.00  0.00     0.025 C 
HETATM   44  C29 UNL     1     -19.874 -33.811 -15.878  1.00  0.00     0.002 C 
HETATM   45  C30 UNL     1     -21.068 -33.333 -16.683  1.00  0.00     0.002 C 
HETATM   46  C31 UNL     1     -21.516 -32.193 -15.737  1.00  0.00     0.025 C 
ENDBRANCH  38  42
ENDBRANCH  35  38
ENDBRANCH   1  32
TORSDOF 10
ENDMDL
MODEL 5
REMARK VINA RESULT: -8.064355669      3.100      6.098
REMARK  10 active torsions:
REMARK  status: ('A' for Active; 'I' for Inactive)
REMARK    1  A    between atoms: C5_5  and  C6_6 
REMARK    2  A    between atoms: C6_6  and  N1_7 
REMARK    3  A    between atoms: N1_7  and  C7_9 
REMARK    4  A    between atoms: C7_9  and  C8_10 
REMARK    5  A    between atoms: C7_9  and  C20_30 
REMARK       I    between atoms: C8_10  and  N2_12 
REMARK    6  A    between atoms: C12_17  and  C13_18 
REMARK       I    between atoms: C13_18  and  N3_20 
REMARK    7  A    between atoms: N3_20  and  C14_22 
REMARK    8  A    between atoms: C23_33  and  N4_34 
REMARK    9  A    between atoms: N4_34  and  C24_35 
REMARK   10  A    between atoms: N4_34  and  C27_38 
ROOT
HETATM    1  C7  UNL     1     -17.725 -28.218 -13.852  1.00  0.00     0.177 C 
ENDROOT
BRANCH   1   2
HETATM    2  N1  UNL     1     -16.552 -27.998 -14.615  1.00  0.00    -0.385 N 
ATOM      3  H1  UNL     1     -16.640 -27.675 -15.579  1.00  0.00     0.159 HD
BRANCH   2   4
HETATM    4  C6  UNL     1     -15.278 -28.213 -14.083  1.00  0.00     0.095 C 
BRANCH   4   5
HETATM    5  C5  UNL     1     -14.734 -29.478 -14.731  1.00  0.00    -0.021 A 
HETATM    6  C4  UNL     1     -13.450 -29.877 -14.438  1.00  0.00     0.013 A 
HETATM    7  C3  UNL     1     -12.896 -31.021 -15.006  1.00  0.00     0.007 A 
HETATM    8  C2  UNL     1     -13.640 -31.776 -15.881  1.00  0.00    -0.062 A 
HETATM    9  C1  UNL     1     -13.036 -33.007 -16.496  1.00  0.00     0.048 C 
HETATM   10  C35 UNL     1     -14.924 -31.381 -16.177  1.00  0.00     0.007 A 
HETATM   11  C34 UNL     1     -15.476 -30.230 -15.603  1.00  0.00     0.013 A 
ENDBRANCH   4   5
ENDBRANCH   2   4
ENDBRANCH   1   2
BRANCH   1  12
HETATM   12  C8  UNL     1     -18.016 -27.195 -12.823  1.00  0.00     0.243 C 
HETATM   13  O1  UNL     1     -18.013 -27.556 -11.601  1.00  0.00    -0.271 OA
HETATM   14  N2  UNL     1     -18.304 -25.849 -13.147  1.00  0.00    -0.334 N 
HETATM   15  C9  UNL     1     -18.345 -25.234 -14.453  1.00  0.00     0.164 C 
HETATM   16  C12 UNL     1     -18.699 -24.819 -12.175  1.00  0.00     0.182 C 
HETATM   17  C10 UNL     1     -19.400 -24.150 -14.356  1.00  0.00     0.190 C 
HETATM   18  F1  UNL     1     -20.484 -24.397 -15.195  1.00  0.00    -0.248 F 
HETATM   19  C11 UNL     1     -19.924 -24.232 -12.943  1.00  0.00     0.074 C 
BRANCH  16  20
HETATM   20  C13 UNL     1     -17.720 -23.756 -11.968  1.00  0.00     0.241 C 
HETATM   21  O2  UNL     1     -18.079 -22.594 -11.630  1.00  0.00    -0.271 OA
HETATM   22  N3  UNL     1     -16.333 -23.974 -12.133  1.00  0.00    -0.355 N 
ATOM     23  H3  UNL     1     -16.036 -24.902 -12.432  1.00  0.00     0.162 HD
BRANCH  22  24
HETATM   24  C14 UNL     1     -15.302 -22.985 -11.911  1.00  0.00     0.084 C 
HETATM   25  C15 UNL     1     -14.436 -23.312 -10.752  1.00  0.00     0.031 C 
HETATM   26  C16 UNL     1     -13.431 -22.218 -10.506  1.00  0.00     0.081 C 
HETATM   27  C17 UNL     1     -12.708 -21.811 -11.748  1.00  0.00     0.243 C 
HETATM   28  F2  UNL     1     -13.208 -20.562 -12.127  1.00  0.00    -0.206 F 
HETATM   29  F3  UNL     1     -11.346 -21.637 -11.557  1.00  0.00    -0.206 F 
HETATM   30  C18 UNL     1     -12.990 -22.753 -12.879  1.00  0.00     0.081 C 
HETATM   31  C19 UNL     1     -14.448 -22.840 -13.183  1.00  0.00     0.031 C 
ENDBRANCH  22  24
ENDBRANCH  16  20
ENDBRANCH   1  12
BRANCH   1  32
HETATM   32  C20 UNL     1     -18.867 -28.313 -14.865  1.00  0.00     0.018 C 
HETATM   33  C21 UNL     1     -18.451 -29.446 -15.818  1.00  0.00     0.013 C 
HETATM   34  C22 UNL     1     -19.518 -29.568 -16.919  1.00  0.00     0.053 C 
HETATM   35  C23 UNL     1     -20.799 -29.924 -16.247  1.00  0.00    -0.015 C 
HETATM   36  C32 UNL     1     -21.226 -28.788 -15.355  1.00  0.00     0.053 C 
HETATM   37  C33 UNL     1     -20.181 -28.647 -14.227  1.00  0.00     0.013 C 
BRANCH  35  38
HETATM   38  N4  UNL     1     -21.821 -30.560 -17.004  1.00  0.00    -0.379 N 
BRANCH  38  39
HETATM   39  C24 UNL     1     -22.678 -31.467 -16.332  1.00  0.00     0.076 C 
HETATM   40  C25 UNL     1     -24.038 -30.783 -16.065  1.00  0.00     0.032 C 
HETATM   41  C26 UNL     1     -22.256 -32.160 -15.109  1.00  0.00     0.032 C 
ENDBRANCH  38  39
BRANCH  38  42
HETATM   42  C27 UNL     1     -21.423 -30.995 -18.311  1.00  0.00     0.084 C 
HETATM   43  C28 UNL     1     -21.789 -30.110 -19.465  1.00  0.00     0.025 C 
HETATM   44  C29 UNL     1     -22.155 -31.069 -20.631  1.00  0.00     0.002 C 
HETATM   45  C30 UNL     1     -22.836 -32.178 -19.849  1.00  0.00     0.002 C 
HETATM   46  C31 UNL     1     -21.761 -32.350 -18.749  1.00  0.00     0.025 C 
ENDBRANCH  38  42
ENDBRANCH  35  38
ENDBRANCH   1  32
TORSDOF 10
ENDMDL
