MODEL 1
REMARK VINA RESULT: -7.322269903      0.000      0.000
REMARK  9 active torsions:
REMARK  status: ('A' for Active; 'I' for Inactive)
REMARK    1  A    between atoms: C2_2  and  N1_4 
REMARK    2  A    between atoms: C6_7  and  C7_8 
REMARK       I    between atoms: C7_8  and  N2_10 
REMARK    3  A    between atoms: N2_10  and  C8_12 
REMARK    4  A    between atoms: N3_20  and  C16_21 
REMARK    5  A    between atoms: C16_21  and  C17_22 
REMARK    6  A    between atoms: C17_22  and  C18_23 
REMARK    7  A    between atoms: C18_23  and  C19_24 
REMARK    8  A    between atoms: C19_24  and  C20_25 
REMARK    9  A    between atoms: C20_25  and  C21_26 
ROOT
HETATM    1  C8  UNL     1     -17.451 -23.962 -12.986  1.00  0.00     0.084 C 
HETATM    2  C9  UNL     1     -18.393 -22.802 -13.079  1.00  0.00     0.026 C 
HETATM    3  C10 UNL     1     -19.477 -23.112 -14.077  1.00  0.00     0.011 C 
HETATM    4  C11 UNL     1     -20.059 -24.457 -13.833  1.00  0.00    -0.037 C 
HETATM    5  C12 UNL     1     -19.050 -25.588 -13.909  1.00  0.00     0.011 C 
HETATM    6  C13 UNL     1     -17.662 -24.983 -14.085  1.00  0.00     0.026 C 
HETATM    7  C14 UNL     1     -20.705 -24.501 -12.470  1.00  0.00     0.039 C 
HETATM    8  C15 UNL     1     -21.641 -25.719 -12.525  1.00  0.00     0.273 C 
HETATM    9  N3  UNL     1     -22.898 -25.243 -13.098  1.00  0.00     0.088 N 
HETATM   10  C30 UNL     1     -22.491 -24.317 -14.156  1.00  0.00     0.273 C 
HETATM   11  C31 UNL     1     -21.206 -24.736 -14.822  1.00  0.00     0.039 C 
ENDROOT
BRANCH   9  12
HETATM   12  C16 UNL     1     -23.613 -26.330 -13.711  1.00  0.00     0.272 C 
BRANCH  12  13
HETATM   13  C17 UNL     1     -22.959 -27.676 -13.589  1.00  0.00     0.030 C 
BRANCH  13  14
HETATM   14  C18 UNL     1     -22.853 -28.410 -14.933  1.00  0.00     0.003 C 
BRANCH  14  15
HETATM   15  C19 UNL     1     -21.526 -28.175 -15.535  1.00  0.00     0.029 C 
BRANCH  15  16
HETATM   16  C20 UNL     1     -20.696 -29.376 -15.874  1.00  0.00     0.124 C 
HETATM   17  C27 UNL     1     -20.882 -29.580 -17.375  1.00  0.00     0.238 C 
HETATM   18  O2  UNL     1     -21.169 -28.934 -18.384  1.00  0.00    -0.272 OA
HETATM   19  N4  UNL     1     -20.564 -30.942 -17.130  1.00  0.00    -0.323 N 
HETATM   20  C28 UNL     1     -21.174 -30.738 -15.804  1.00  0.00     0.195 C 
ATOM     21  H4  UNL     1     -20.119 -31.707 -17.636  1.00  0.00     0.165 HD
HETATM   22  C29 UNL     1     -20.505 -31.712 -14.858  1.00  0.00     0.078 C 
HETATM   23  F1  UNL     1     -22.492 -31.055 -15.921  1.00  0.00    -0.218 F 
BRANCH  16  24
HETATM   24  C21 UNL     1     -19.233 -29.192 -15.677  1.00  0.00    -0.013 A 
HETATM   25  C22 UNL     1     -18.328 -29.159 -16.717  1.00  0.00     0.012 A 
HETATM   26  C23 UNL     1     -16.980 -28.963 -16.553  1.00  0.00     0.024 A 
HETATM   27  C24 UNL     1     -16.466 -28.785 -15.295  1.00  0.00     0.035 A 
HETATM   28 CL1  UNL     1     -14.745 -28.525 -15.013  1.00  0.00    -0.084 Cl
HETATM   29  C25 UNL     1     -17.313 -28.808 -14.236  1.00  0.00     0.048 A 
HETATM   30  C26 UNL     1     -18.660 -29.007 -14.412  1.00  0.00     0.043 A 
HETATM   31 CL2  UNL     1     -19.651 -29.050 -12.988  1.00  0.00    -0.084 Cl
ENDBRANCH  16  24
ENDBRANCH  15  16
ENDBRANCH  14  15
ENDBRANCH  13  14
ENDBRANCH  12  13
ENDBRANCH   9  12
BRANCH   1  32
HETATM   32  N2  UNL     1     -16.098 -23.524 -12.990  1.00  0.00    -0.356 N 
HETATM   33  C7  UNL     1     -15.243 -23.661 -11.878  1.00  0.00     0.222 C 
HETATM   34  O1  UNL     1     -15.657 -24.192 -10.821  1.00  0.00    -0.273 OA
ATOM     35  H2  UNL     1     -15.728 -23.090 -13.836  1.00  0.00     0.162 HD
BRANCH  33  36
HETATM   36  C6  UNL     1     -13.853 -23.146 -12.043  1.00  0.00     0.081 C 
HETATM   37  C5  UNL     1     -13.583 -22.701 -13.469  1.00  0.00     0.033 C 
HETATM   38  C4  UNL     1     -13.190 -21.245 -13.515  1.00  0.00     0.118 C 
HETATM   39  N1  UNL     1     -12.129 -20.877 -12.645  1.00  0.00    -0.409 N 
HETATM   40  C33 UNL     1     -12.099 -21.608 -11.416  1.00  0.00     0.118 C 
HETATM   41  C32 UNL     1     -13.551 -22.018 -11.099  1.00  0.00     0.033 C 
BRANCH  39  42
HETATM   42  C2  UNL     1     -10.857 -20.665 -13.264  1.00  0.00     0.070 C 
HETATM   43  C1  UNL     1     -10.963 -19.758 -14.468  1.00  0.00     0.031 C 
HETATM   44  C3  UNL     1     -10.236 -21.964 -13.744  1.00  0.00     0.031 C 
ENDBRANCH  39  42
ENDBRANCH  33  36
ENDBRANCH   1  32
TORSDOF 9
ENDMDL
MODEL 2
REMARK VINA RESULT: -7.284180597      2.837      4.558
REMARK  9 active torsions:
REMARK  status: ('A' for Active; 'I' for Inactive)
REMARK    1  A    between atoms: C2_2  and  N1_4 
REMARK    2  A    between atoms: C6_7  and  C7_8 
REMARK       I    between atoms: C7_8  and  N2_10 
REMARK    3  A    between atoms: N2_10  and  C8_12 
REMARK    4  A    between atoms: N3_20  and  C16_21 
REMARK    5  A    between atoms: C16_21  and  C17_22 
REMARK    6  A    between atoms: C17_22  and  C18_23 
REMARK    7  A    between atoms: C18_23  and  C19_24 
REMARK    8  A    between atoms: C19_24  and  C20_25 
REMARK    9  A    between atoms: C20_25  and  C21_26 
ROOT
HETATM    1  C8  UNL     1     -14.153 -22.879 -10.676  1.00  0.00     0.084 C 
HETATM    2  C9  UNL     1     -14.876 -22.395  -9.457  1.00  0.00     0.026 C 
HETATM    3  C10 UNL     1     -16.335 -22.748  -9.563  1.00  0.00     0.011 C 
HETATM    4  C11 UNL     1     -16.515 -24.171  -9.952  1.00  0.00    -0.037 C 
HETATM    5  C12 UNL     1     -15.874 -24.531 -11.280  1.00  0.00     0.011 C 
HETATM    6  C13 UNL     1     -15.090 -23.323 -11.780  1.00  0.00     0.026 C 
HETATM    7  C14 UNL     1     -15.930 -25.073  -8.894  1.00  0.00     0.039 C 
HETATM    8  C15 UNL     1     -16.570 -26.445  -9.160  1.00  0.00     0.273 C 
HETATM    9  N3  UNL     1     -17.846 -26.446  -8.446  1.00  0.00     0.088 N 
HETATM   10  C30 UNL     1     -18.381 -25.099  -8.652  1.00  0.00     0.273 C 
HETATM   11  C31 UNL     1     -18.010 -24.533  -9.998  1.00  0.00     0.039 C 
ENDROOT
BRANCH   9  12
HETATM   12  C16 UNL     1     -18.757 -27.381  -9.050  1.00  0.00     0.272 C 
BRANCH  12  13
HETATM   13  C17 UNL     1     -18.268 -28.027 -10.315  1.00  0.00     0.030 C 
BRANCH  13  14
HETATM   14  C18 UNL     1     -19.344 -28.089 -11.407  1.00  0.00     0.003 C 
BRANCH  14  15
HETATM   15  C19 UNL     1     -18.886 -28.942 -12.521  1.00  0.00     0.029 C 
BRANCH  15  16
HETATM   16  C20 UNL     1     -19.193 -28.486 -13.915  1.00  0.00     0.124 C 
HETATM   17  C27 UNL     1     -20.619 -28.957 -14.186  1.00  0.00     0.238 C 
HETATM   18  O2  UNL     1     -21.648 -29.245 -13.571  1.00  0.00    -0.272 OA
HETATM   19  N4  UNL     1     -20.261 -28.933 -15.559  1.00  0.00    -0.323 N 
HETATM   20  C28 UNL     1     -18.897 -29.253 -15.103  1.00  0.00     0.195 C 
ATOM     21  H4  UNL     1     -20.731 -28.769 -16.450  1.00  0.00     0.165 HD
HETATM   22  C29 UNL     1     -17.945 -28.685 -16.134  1.00  0.00     0.078 C 
HETATM   23  F1  UNL     1     -18.791 -30.609 -15.088  1.00  0.00    -0.218 F 
BRANCH  16  24
HETATM   24  C21 UNL     1     -19.225 -27.008 -14.088  1.00  0.00    -0.013 A 
HETATM   25  C22 UNL     1     -20.381 -26.300 -14.339  1.00  0.00     0.012 A 
HETATM   26  C23 UNL     1     -20.429 -24.936 -14.474  1.00  0.00     0.024 A 
HETATM   27  C24 UNL     1     -19.280 -24.199 -14.358  1.00  0.00     0.035 A 
HETATM   28 CL1  UNL     1     -19.270 -22.443 -14.517  1.00  0.00    -0.084 Cl
HETATM   29  C25 UNL     1     -18.113 -24.846 -14.111  1.00  0.00     0.048 A 
HETATM   30  C26 UNL     1     -18.077 -26.212 -13.979  1.00  0.00     0.043 A 
HETATM   31 CL2  UNL     1     -16.529 -26.943 -13.695  1.00  0.00    -0.084 Cl
ENDBRANCH  16  24
ENDBRANCH  15  16
ENDBRANCH  14  15
ENDBRANCH  13  14
ENDBRANCH  12  13
ENDBRANCH   9  12
BRANCH   1  32
HETATM   32  N2  UNL     1     -13.262 -21.887 -11.171  1.00  0.00    -0.356 N 
HETATM   33  C7  UNL     1     -12.484 -22.065 -12.332  1.00  0.00     0.222 C 
HETATM   34  O1  UNL     1     -12.556 -23.130 -12.988  1.00  0.00    -0.273 OA
ATOM     35  H2  UNL     1     -13.181 -21.007 -10.661  1.00  0.00     0.162 HD
BRANCH  33  36
HETATM   36  C6  UNL     1     -11.595 -20.929 -12.714  1.00  0.00     0.081 C 
HETATM   37  C5  UNL     1     -10.420 -21.393 -13.556  1.00  0.00     0.033 C 
HETATM   38  C4  UNL     1     -10.411 -20.703 -14.897  1.00  0.00     0.118 C 
HETATM   39  N1  UNL     1     -10.489 -19.285 -14.848  1.00  0.00    -0.409 N 
HETATM   40  C33 UNL     1     -11.276 -18.779 -13.766  1.00  0.00     0.118 C 
HETATM   41  C32 UNL     1     -12.339 -19.847 -13.442  1.00  0.00     0.033 C 
BRANCH  39  42
HETATM   42  C2  UNL     1      -9.270 -18.582 -15.103  1.00  0.00     0.070 C 
HETATM   43  C1  UNL     1      -9.468 -17.453 -16.087  1.00  0.00     0.031 C 
HETATM   44  C3  UNL     1      -8.202 -19.491 -15.683  1.00  0.00     0.031 C 
ENDBRANCH  39  42
ENDBRANCH  33  36
ENDBRANCH   1  32
TORSDOF 9
ENDMDL
MODEL 3
REMARK VINA RESULT: -7.267100147      3.316      4.596
REMARK  9 active torsions:
REMARK  status: ('A' for Active; 'I' for Inactive)
REMARK    1  A    between atoms: C2_2  and  N1_4 
REMARK    2  A    between atoms: C6_7  and  C7_8 
REMARK       I    between atoms: C7_8  and  N2_10 
REMARK    3  A    between atoms: N2_10  and  C8_12 
REMARK    4  A    between atoms: N3_20  and  C16_21 
REMARK    5  A    between atoms: C16_21  and  C17_22 
REMARK    6  A    between atoms: C17_22  and  C18_23 
REMARK    7  A    between atoms: C18_23  and  C19_24 
REMARK    8  A    between atoms: C19_24  and  C20_25 
REMARK    9  A    between atoms: C20_25  and  C21_26 
ROOT
HETATM    1  C8  UNL     1     -13.923 -22.956 -10.811  1.00  0.00     0.084 C 
HETATM    2  C9  UNL     1     -14.858 -22.432  -9.767  1.00  0.00     0.026 C 
HETATM    3  C10 UNL     1     -16.249 -22.941 -10.035  1.00  0.00     0.011 C 
HETATM    4  C11 UNL     1     -16.244 -24.406 -10.284  1.00  0.00    -0.037 C 
HETATM    5  C12 UNL     1     -15.383 -24.827 -11.460  1.00  0.00     0.011 C 
HETATM    6  C13 UNL     1     -14.642 -23.600 -11.978  1.00  0.00     0.026 C 
HETATM    7  C14 UNL     1     -15.747 -25.135  -9.059  1.00  0.00     0.039 C 
HETATM    8  C15 UNL     1     -16.218 -26.585  -9.257  1.00  0.00     0.273 C 
HETATM    9  N3  UNL     1     -17.581 -26.647  -8.732  1.00  0.00     0.088 N 
HETATM   10  C30 UNL     1     -18.195 -25.389  -9.160  1.00  0.00     0.273 C 
HETATM   11  C31 UNL     1     -17.678 -24.923 -10.496  1.00  0.00     0.039 C 
ENDROOT
BRANCH   9  12
HETATM   12  C16 UNL     1     -18.306 -27.725  -9.349  1.00  0.00     0.272 C 
BRANCH  12  13
HETATM   13  C17 UNL     1     -17.457 -28.775 -10.007  1.00  0.00     0.030 C 
BRANCH  13  14
HETATM   14  C18 UNL     1     -16.991 -28.369 -11.411  1.00  0.00     0.003 C 
BRANCH  14  15
HETATM   15  C19 UNL     1     -18.025 -28.713 -12.407  1.00  0.00     0.029 C 
BRANCH  15  16
HETATM   16  C20 UNL     1     -17.616 -28.741 -13.849  1.00  0.00     0.124 C 
HETATM   17  C27 UNL     1     -17.592 -27.279 -14.286  1.00  0.00     0.238 C 
HETATM   18  O2  UNL     1     -17.454 -26.154 -13.803  1.00  0.00    -0.272 OA
HETATM   19  N4  UNL     1     -17.814 -27.771 -15.599  1.00  0.00    -0.323 N 
HETATM   20  C28 UNL     1     -18.541 -28.877 -14.951  1.00  0.00     0.195 C 
ATOM     21  H4  UNL     1     -17.579 -27.490 -16.552  1.00  0.00     0.165 HD
HETATM   22  C29 UNL     1     -18.429 -30.075 -15.870  1.00  0.00     0.078 C 
HETATM   23  F1  UNL     1     -19.844 -28.497 -14.861  1.00  0.00    -0.218 F 
BRANCH  16  24
HETATM   24  C21 UNL     1     -16.239 -29.250 -14.090  1.00  0.00    -0.013 A 
HETATM   25  C22 UNL     1     -15.211 -28.459 -14.558  1.00  0.00     0.012 A 
HETATM   26  C23 UNL     1     -13.931 -28.908 -14.760  1.00  0.00     0.024 A 
HETATM   27  C24 UNL     1     -13.617 -30.215 -14.492  1.00  0.00     0.035 A 
HETATM   28 CL1  UNL     1     -11.992 -30.857 -14.725  1.00  0.00    -0.084 Cl
HETATM   29  C25 UNL     1     -14.592 -31.037 -14.029  1.00  0.00     0.048 A 
HETATM   30  C26 UNL     1     -15.870 -30.577 -13.832  1.00  0.00     0.043 A 
HETATM   31 CL2  UNL     1     -17.048 -31.719 -13.267  1.00  0.00    -0.084 Cl
ENDBRANCH  16  24
ENDBRANCH  15  16
ENDBRANCH  14  15
ENDBRANCH  13  14
ENDBRANCH  12  13
ENDBRANCH   9  12
BRANCH   1  32
HETATM   32  N2  UNL     1     -13.057 -21.931 -11.285  1.00  0.00    -0.356 N 
HETATM   33  C7  UNL     1     -12.315 -22.044 -12.477  1.00  0.00     0.222 C 
HETATM   34  O1  UNL     1     -12.396 -23.077 -13.181  1.00  0.00    -0.273 OA
ATOM     35  H2  UNL     1     -12.970 -21.076 -10.736  1.00  0.00     0.162 HD
BRANCH  33  36
HETATM   36  C6  UNL     1     -11.449 -20.881 -12.831  1.00  0.00     0.081 C 
HETATM   37  C5  UNL     1     -10.324 -21.281 -13.767  1.00  0.00     0.033 C 
HETATM   38  C4  UNL     1     -10.392 -20.502 -15.057  1.00  0.00     0.118 C 
HETATM   39  N1  UNL     1     -10.469 -19.091 -14.908  1.00  0.00    -0.409 N 
HETATM   40  C33 UNL     1     -11.193 -18.662 -13.752  1.00  0.00     0.118 C 
HETATM   41  C32 UNL     1     -12.234 -19.756 -13.441  1.00  0.00     0.033 C 
BRANCH  39  42
HETATM   42  C2  UNL     1      -9.266 -18.366 -15.184  1.00  0.00     0.070 C 
HETATM   43  C1  UNL     1      -9.468 -17.335 -16.268  1.00  0.00     0.031 C 
HETATM   44  C3  UNL     1      -8.147 -19.281 -15.647  1.00  0.00     0.031 C 
ENDBRANCH  39  42
ENDBRANCH  33  36
ENDBRANCH   1  32
TORSDOF 9
ENDMDL
MODEL 4
REMARK VINA RESULT: -7.215220334      3.464      5.080
REMARK  9 active torsions:
REMARK  status: ('A' for Active; 'I' for Inactive)
REMARK    1  A    between atoms: C2_2  and  N1_4 
REMARK    2  A    between atoms: C6_7  and  C7_8 
REMARK       I    between atoms: C7_8  and  N2_10 
REMARK    3  A    between atoms: N2_10  and  C8_12 
REMARK    4  A    between atoms: N3_20  and  C16_21 
REMARK    5  A    between atoms: C16_21  and  C17_22 
REMARK    6  A    between atoms: C17_22  and  C18_23 
REMARK    7  A    between atoms: C18_23  and  C19_24 
REMARK    8  A    between atoms: C19_24  and  C20_25 
REMARK    9  A    between atoms: C20_25  and  C21_26 
ROOT
HETATM    1  C8  UNL     1     -14.027 -22.865 -10.558  1.00  0.00     0.084 C 
HETATM    2  C9  UNL     1     -14.972 -22.282  -9.554  1.00  0.00     0.026 C 
HETATM    3  C10 UNL     1     -16.363 -22.798  -9.810  1.00  0.00     0.011 C 
HETATM    4  C11 UNL     1     -16.362 -24.273  -9.981  1.00  0.00    -0.037 C 
HETATM    5  C12 UNL     1     -15.491 -24.761 -11.123  1.00  0.00     0.011 C 
HETATM    6  C13 UNL     1     -14.737 -23.566 -11.697  1.00  0.00     0.026 C 
HETATM    7  C14 UNL     1     -15.884 -24.939  -8.714  1.00  0.00     0.039 C 
HETATM    8  C15 UNL     1     -16.361 -26.395  -8.840  1.00  0.00     0.273 C 
HETATM    9  N3  UNL     1     -17.730 -26.422  -8.329  1.00  0.00     0.088 N 
HETATM   10  C30 UNL     1     -18.332 -25.185  -8.830  1.00  0.00     0.273 C 
HETATM   11  C31 UNL     1     -17.797 -24.793 -10.183  1.00  0.00     0.039 C 
ENDROOT
BRANCH   9  12
HETATM   12  C16 UNL     1     -18.455 -27.528  -8.896  1.00  0.00     0.272 C 
BRANCH  12  13
HETATM   13  C17 UNL     1     -17.655 -28.421  -9.800  1.00  0.00     0.030 C 
BRANCH  13  14
HETATM   14  C18 UNL     1     -18.132 -28.373 -11.258  1.00  0.00     0.003 C 
BRANCH  14  15
HETATM   15  C19 UNL     1     -16.997 -28.070 -12.152  1.00  0.00     0.029 C 
BRANCH  15  16
HETATM   16  C20 UNL     1     -16.881 -28.863 -13.418  1.00  0.00     0.124 C 
HETATM   17  C27 UNL     1     -16.288 -30.205 -12.997  1.00  0.00     0.238 C 
HETATM   18  O2  UNL     1     -16.215 -30.931 -12.004  1.00  0.00    -0.272 OA
HETATM   19  N4  UNL     1     -15.806 -30.298 -14.329  1.00  0.00    -0.323 N 
HETATM   20  C28 UNL     1     -15.734 -28.826 -14.295  1.00  0.00     0.195 C 
ATOM     21  H4  UNL     1     -15.603 -31.040 -14.999  1.00  0.00     0.165 HD
HETATM   22  C29 UNL     1     -15.905 -28.346 -15.721  1.00  0.00     0.078 C 
HETATM   23  F1  UNL     1     -14.489 -28.500 -13.855  1.00  0.00    -0.218 F 
BRANCH  16  24
HETATM   24  C21 UNL     1     -18.181 -29.189 -14.063  1.00  0.00    -0.013 A 
HETATM   25  C22 UNL     1     -18.650 -30.477 -14.213  1.00  0.00     0.012 A 
HETATM   26  C23 UNL     1     -19.858 -30.791 -14.782  1.00  0.00     0.024 A 
HETATM   27  C24 UNL     1     -20.676 -29.791 -15.240  1.00  0.00     0.035 A 
HETATM   28 CL1  UNL     1     -22.242 -30.123 -15.977  1.00  0.00    -0.084 Cl
HETATM   29  C25 UNL     1     -20.263 -28.504 -15.116  1.00  0.00     0.048 A 
HETATM   30  C26 UNL     1     -19.051 -28.202 -14.547  1.00  0.00     0.043 A 
HETATM   31 CL2  UNL     1     -18.605 -26.527 -14.467  1.00  0.00    -0.084 Cl
ENDBRANCH  16  24
ENDBRANCH  15  16
ENDBRANCH  14  15
ENDBRANCH  13  14
ENDBRANCH  12  13
ENDBRANCH   9  12
BRANCH   1  32
HETATM   32  N2  UNL     1     -13.151 -21.872 -11.075  1.00  0.00    -0.356 N 
HETATM   33  C7  UNL     1     -12.456 -22.019 -12.291  1.00  0.00     0.222 C 
HETATM   34  O1  UNL     1     -12.593 -23.058 -12.980  1.00  0.00    -0.273 OA
ATOM     35  H2  UNL     1     -13.019 -21.013 -10.540  1.00  0.00     0.162 HD
BRANCH  33  36
HETATM   36  C6  UNL     1     -11.571 -20.886 -12.691  1.00  0.00     0.081 C 
HETATM   37  C5  UNL     1     -10.410 -21.354 -13.550  1.00  0.00     0.033 C 
HETATM   38  C4  UNL     1     -10.423 -20.667 -14.893  1.00  0.00     0.118 C 
HETATM   39  N1  UNL     1     -10.498 -19.249 -14.847  1.00  0.00    -0.409 N 
HETATM   40  C33 UNL     1     -11.266 -18.739 -13.754  1.00  0.00     0.118 C 
HETATM   41  C32 UNL     1     -12.325 -19.805 -13.409  1.00  0.00     0.033 C 
BRANCH  39  42
HETATM   42  C2  UNL     1      -9.281 -18.548 -15.124  1.00  0.00     0.070 C 
HETATM   43  C1  UNL     1      -9.483 -17.455 -16.145  1.00  0.00     0.031 C 
HETATM   44  C3  UNL     1      -8.208 -19.471 -15.671  1.00  0.00     0.031 C 
ENDBRANCH  39  42
ENDBRANCH  33  36
ENDBRANCH   1  32
TORSDOF 9
ENDMDL
MODEL 5
REMARK VINA RESULT: -7.135182377      3.766      4.881
REMARK  9 active torsions:
REMARK  status: ('A' for Active; 'I' for Inactive)
REMARK    1  A    between atoms: C2_2  and  N1_4 
REMARK    2  A    between atoms: C6_7  and  C7_8 
REMARK       I    between atoms: C7_8  and  N2_10 
REMARK    3  A    between atoms: N2_10  and  C8_12 
REMARK    4  A    between atoms: N3_20  and  C16_21 
REMARK    5  A    between atoms: C16_21  and  C17_22 
REMARK    6  A    between atoms: C17_22  and  C18_23 
REMARK    7  A    between atoms: C18_23  and  C19_24 
REMARK    8  A    between atoms: C19_24  and  C20_25 
REMARK    9  A    between atoms: C20_25  and  C21_26 
ROOT
HETATM    1  C8  UNL     1     -13.941 -22.988 -11.214  1.00  0.00     0.084 C 
HETATM    2  C9  UNL     1     -14.676 -22.601  -9.969  1.00  0.00     0.026 C 
HETATM    3  C10 UNL     1     -16.131 -22.964 -10.109  1.00  0.00     0.011 C 
HETATM    4  C11 UNL     1     -16.289 -24.357 -10.601  1.00  0.00    -0.037 C 
HETATM    5  C12 UNL     1     -15.636 -24.614 -11.946  1.00  0.00     0.011 C 
HETATM    6  C13 UNL     1     -14.865 -23.363 -12.353  1.00  0.00     0.026 C 
HETATM    7  C14 UNL     1     -15.699 -25.326  -9.605  1.00  0.00     0.039 C 
HETATM    8  C15 UNL     1     -16.320 -26.683  -9.973  1.00  0.00     0.273 C 
HETATM    9  N3  UNL     1     -17.599 -26.751  -9.270  1.00  0.00     0.088 N 
HETATM   10  C30 UNL     1     -18.151 -25.400  -9.383  1.00  0.00     0.273 C 
HETATM   11  C31 UNL     1     -17.779 -24.734 -10.683  1.00  0.00     0.039 C 
ENDROOT
BRANCH   9  12
HETATM   12  C16 UNL     1     -18.495 -27.652  -9.946  1.00  0.00     0.272 C 
BRANCH  12  13
HETATM   13  C17 UNL     1     -17.844 -28.852 -10.572  1.00  0.00     0.030 C 
BRANCH  13  14
HETATM   14  C18 UNL     1     -18.137 -28.972 -12.074  1.00  0.00     0.003 C 
BRANCH  14  15
HETATM   15  C19 UNL     1     -17.206 -29.935 -12.695  1.00  0.00     0.029 C 
BRANCH  15  16
HETATM   16  C20 UNL     1     -16.679 -29.608 -14.059  1.00  0.00     0.124 C 
HETATM   17  C27 UNL     1     -15.736 -28.425 -13.851  1.00  0.00     0.238 C 
HETATM   18  O2  UNL     1     -15.040 -27.921 -12.968  1.00  0.00    -0.272 OA
HETATM   19  N4  UNL     1     -16.002 -28.102 -15.207  1.00  0.00    -0.323 N 
HETATM   20  C28 UNL     1     -17.327 -28.707 -14.984  1.00  0.00     0.195 C 
ATOM     21  H4  UNL     1     -15.506 -27.656 -15.979  1.00  0.00     0.165 HD
HETATM   22  C29 UNL     1     -17.800 -29.233 -16.323  1.00  0.00     0.078 C 
HETATM   23  F1  UNL     1     -18.155 -27.710 -14.572  1.00  0.00    -0.218 F 
BRANCH  16  24
HETATM   24  C21 UNL     1     -15.844 -30.677 -14.671  1.00  0.00    -0.013 A 
HETATM   25  C22 UNL     1     -14.508 -30.516 -14.971  1.00  0.00     0.012 A 
HETATM   26  C23 UNL     1     -13.720 -31.500 -15.510  1.00  0.00     0.024 A 
HETATM   27  C24 UNL     1     -14.258 -32.732 -15.781  1.00  0.00     0.035 A 
HETATM   28 CL1  UNL     1     -13.302 -34.042 -16.470  1.00  0.00    -0.084 Cl
HETATM   29  C25 UNL     1     -15.569 -32.944 -15.505  1.00  0.00     0.048 A 
HETATM   30  C26 UNL     1     -16.348 -31.951 -14.966  1.00  0.00     0.043 A 
HETATM   31 CL2  UNL     1     -18.020 -32.317 -14.681  1.00  0.00    -0.084 Cl
ENDBRANCH  16  24
ENDBRANCH  15  16
ENDBRANCH  14  15
ENDBRANCH  13  14
ENDBRANCH  12  13
ENDBRANCH   9  12
BRANCH   1  32
HETATM   32  N2  UNL     1     -13.059 -21.952 -11.630  1.00  0.00    -0.356 N 
HETATM   33  C7  UNL     1     -12.164 -22.093 -12.709  1.00  0.00     0.222 C 
HETATM   34  O1  UNL     1     -12.115 -23.164 -13.358  1.00  0.00    -0.273 OA
ATOM     35  H2  UNL     1     -13.075 -21.066 -11.124  1.00  0.00     0.162 HD
BRANCH  33  36
HETATM   36  C6  UNL     1     -11.303 -20.913 -13.015  1.00  0.00     0.081 C 
HETATM   37  C5  UNL     1     -10.232 -21.248 -14.037  1.00  0.00     0.033 C 
HETATM   38  C4  UNL     1     -10.357 -20.368 -15.256  1.00  0.00     0.118 C 
HETATM   39  N1  UNL     1     -10.408 -18.972 -14.993  1.00  0.00    -0.409 N 
HETATM   40  C33 UNL     1     -11.066 -18.631 -13.770  1.00  0.00     0.118 C 
HETATM   41  C32 UNL     1     -12.104 -19.736 -13.492  1.00  0.00     0.033 C 
BRANCH  39  42
HETATM   42  C2  UNL     1      -9.212 -18.239 -15.273  1.00  0.00     0.070 C 
HETATM   43  C1  UNL     1      -9.407 -17.257 -16.403  1.00  0.00     0.031 C 
HETATM   44  C3  UNL     1      -8.068 -19.152 -15.673  1.00  0.00     0.031 C 
ENDBRANCH  39  42
ENDBRANCH  33  36
ENDBRANCH   1  32
TORSDOF 9
ENDMDL
