MODEL 1
REMARK VINA RESULT: -8.419600935      0.000      0.000
REMARK  11 active torsions:
REMARK  status: ('A' for Active; 'I' for Inactive)
REMARK    1  A    between atoms: N1_2  and  C2_5 
REMARK    2  A    between atoms: C2_5  and  C3_6 
REMARK    3  A    between atoms: C3_6  and  C4_7 
REMARK    4  A    between atoms: C4_7  and  O1_8 
REMARK    5  A    between atoms: O1_8  and  C5_9 
REMARK    6  A    between atoms: C12_16  and  C13_17 
REMARK    7  A    between atoms: C13_17  and  N2_18 
REMARK       I    between atoms: N2_18  and  C14_20 
REMARK    8  A    between atoms: C14_20  and  C15_22 
REMARK    9  A    between atoms: C15_22  and  C19_26 
REMARK   10  A    between atoms: C24_31  and  C25_32 
REMARK   11  A    between atoms: C27_37  and  N3_38 
ROOT
HETATM    1  C5  UNL     1     -17.536 -28.893 -12.970  1.00  0.00     0.135 C 
HETATM    2  C6  UNL     1     -18.782 -29.275 -13.730  1.00  0.00     0.033 C 
HETATM    3  C7  UNL     1     -18.836 -30.730 -14.079  1.00  0.00     0.007 C 
HETATM    4  C8  UNL     1     -18.057 -31.072 -15.329  1.00  0.00    -0.012 C 
HETATM    5  C9  UNL     1     -18.036 -29.938 -16.319  1.00  0.00     0.009 C 
HETATM    6  C10 UNL     1     -16.843 -29.085 -16.273  1.00  0.00    -0.011 C 
HETATM    7  C11 UNL     1     -16.690 -28.097 -15.152  1.00  0.00     0.022 C 
HETATM    8  C12 UNL     1     -16.327 -28.581 -13.826  1.00  0.00     0.021 C 
HETATM    9  C26 UNL     1     -15.446 -29.839 -13.860  1.00  0.00     0.048 C 
HETATM   10  C27 UNL     1     -15.558 -30.690 -15.050  1.00  0.00     0.037 C 
HETATM   11  C32 UNL     1     -16.711 -31.640 -15.082  1.00  0.00     0.036 C 
HETATM   12  C33 UNL     1     -15.589 -29.890 -16.353  1.00  0.00     0.036 C 
ENDROOT
BRANCH   8  13
HETATM   13  C13 UNL     1     -15.509 -27.623 -13.004  1.00  0.00     0.076 C 
BRANCH  13  14
HETATM   14  N2  UNL     1     -15.568 -26.250 -13.101  1.00  0.00    -0.336 N 
HETATM   15  C14 UNL     1     -16.431 -25.291 -12.529  1.00  0.00     0.256 C 
HETATM   16  O2  UNL     1     -17.380 -25.573 -11.769  1.00  0.00    -0.267 OA
ATOM     17  H2  UNL     1     -14.849 -25.849 -13.703  1.00  0.00     0.168 HD
BRANCH  15  18
HETATM   18  C15 UNL     1     -16.256 -23.844 -12.810  1.00  0.00     0.045 C 
HETATM   19  C16 UNL     1     -17.142 -23.249 -13.549  1.00  0.00    -0.063 A 
HETATM   20  C17 UNL     1     -18.435 -23.339 -14.363  1.00  0.00     0.039 A 
HETATM   21  C18 UNL     1     -17.725 -22.075 -14.335  1.00  0.00     0.039 A 
BRANCH  18  22
HETATM   22  C19 UNL     1     -15.109 -23.187 -12.262  1.00  0.00    -0.005 A 
HETATM   23  C20 UNL     1     -14.000 -23.021 -13.133  1.00  0.00     0.013 A 
HETATM   24  C21 UNL     1     -12.834 -22.449 -12.703  1.00  0.00     0.001 A 
HETATM   25  C22 UNL     1     -12.769 -22.035 -11.389  1.00  0.00     0.001 A 
HETATM   26  C23 UNL     1     -13.840 -22.193 -10.547  1.00  0.00     0.017 A 
HETATM   27  C24 UNL     1     -15.038 -22.779 -10.977  1.00  0.00     0.059 A 
BRANCH  27  28
HETATM   28  C25 UNL     1     -16.100 -22.885 -10.005  1.00  0.00     0.418 C 
HETATM   29  F1  UNL     1     -17.329 -22.512 -10.492  1.00  0.00    -0.166 F 
HETATM   30  F2  UNL     1     -16.287 -24.147  -9.460  1.00  0.00    -0.166 F 
HETATM   31  F3  UNL     1     -15.873 -22.039  -8.902  1.00  0.00    -0.166 F 
ENDBRANCH  27  28
ENDBRANCH  18  22
ENDBRANCH  15  18
ENDBRANCH  13  14
ENDBRANCH   8  13
BRANCH   1  32
HETATM   32  O1  UNL     1     -17.282 -29.845 -11.980  1.00  0.00    -0.384 OA
BRANCH  32  33
HETATM   33  C4  UNL     1     -17.992 -29.521 -10.856  1.00  0.00     0.179 C 
BRANCH  33  34
HETATM   34  C3  UNL     1     -17.355 -30.034  -9.581  1.00  0.00     0.005 A 
HETATM   35  C34 UNL     1     -18.319 -30.656  -8.580  1.00  0.00     0.014 A 
HETATM   36  C35 UNL     1     -17.260 -31.487  -9.314  1.00  0.00     0.014 A 
BRANCH  34  37
HETATM   37  C2  UNL     1     -16.345 -29.091  -8.975  1.00  0.00     0.243 C 
BRANCH  37  38
HETATM   38  N1  UNL     1     -16.354 -27.787  -9.613  1.00  0.00    -0.078 N 
HETATM   39  C1  UNL     1     -15.116 -27.063  -9.286  1.00  0.00     0.267 C 
ATOM     40  H12 UNL     1     -17.187 -27.249  -9.374  1.00  0.00     0.276 HD
ATOM     41  H11 UNL     1     -16.504 -27.854 -10.619  1.00  0.00     0.276 HD
ENDBRANCH  37  38
ENDBRANCH  34  37
ENDBRANCH  33  34
ENDBRANCH  32  33
ENDBRANCH   1  32
BRANCH  10  42
HETATM   42  N3  UNL     1     -14.345 -31.519 -15.156  1.00  0.00    -0.343 N 
HETATM   43  C28 UNL     1     -14.253 -32.855 -15.771  1.00  0.00     0.127 C 
HETATM   44  C29 UNL     1     -13.066 -33.482 -15.118  1.00  0.00     0.029 C 
HETATM   45  C30 UNL     1     -12.107 -32.347 -14.954  1.00  0.00     0.104 C 
HETATM   46  C31 UNL     1     -13.046 -31.200 -14.693  1.00  0.00     0.220 C 
HETATM   47  O3  UNL     1     -12.661 -30.147 -14.139  1.00  0.00    -0.273 OA
ENDBRANCH  10  42
TORSDOF 11
ENDMDL
MODEL 2
REMARK VINA RESULT: -8.332308248      2.010      4.120
REMARK  11 active torsions:
REMARK  status: ('A' for Active; 'I' for Inactive)
REMARK    1  A    between atoms: N1_2  and  C2_5 
REMARK    2  A    between atoms: C2_5  and  C3_6 
REMARK    3  A    between atoms: C3_6  and  C4_7 
REMARK    4  A    between atoms: C4_7  and  O1_8 
REMARK    5  A    between atoms: O1_8  and  C5_9 
REMARK    6  A    between atoms: C12_16  and  C13_17 
REMARK    7  A    between atoms: C13_17  and  N2_18 
REMARK       I    between atoms: N2_18  and  C14_20 
REMARK    8  A    between atoms: C14_20  and  C15_22 
REMARK    9  A    between atoms: C15_22  and  C19_26 
REMARK   10  A    between atoms: C24_31  and  C25_32 
REMARK   11  A    between atoms: C27_37  and  N3_38 
ROOT
HETATM    1  C5  UNL     1     -16.882 -27.729 -14.762  1.00  0.00     0.135 C 
HETATM    2  C6  UNL     1     -16.926 -28.230 -16.184  1.00  0.00     0.033 C 
HETATM    3  C7  UNL     1     -17.898 -29.352 -16.383  1.00  0.00     0.007 C 
HETATM    4  C8  UNL     1     -17.336 -30.702 -16.002  1.00  0.00    -0.012 C 
HETATM    5  C9  UNL     1     -15.850 -30.788 -16.225  1.00  0.00     0.009 C 
HETATM    6  C10 UNL     1     -15.022 -30.538 -15.040  1.00  0.00    -0.011 C 
HETATM    7  C11 UNL     1     -14.857 -29.130 -14.543  1.00  0.00     0.022 C 
HETATM    8  C12 UNL     1     -15.962 -28.495 -13.835  1.00  0.00     0.021 C 
HETATM    9  C26 UNL     1     -16.824 -29.488 -13.042  1.00  0.00     0.048 C 
HETATM   10  C27 UNL     1     -16.833 -30.877 -13.515  1.00  0.00     0.037 C 
HETATM   11  C32 UNL     1     -17.742 -31.183 -14.661  1.00  0.00     0.036 C 
HETATM   12  C33 UNL     1     -15.441 -31.388 -13.887  1.00  0.00     0.036 C 
ENDROOT
BRANCH   8  13
HETATM   13  C13 UNL     1     -15.553 -27.497 -12.787  1.00  0.00     0.076 C 
BRANCH  13  14
HETATM   14  N2  UNL     1     -15.587 -26.129 -12.944  1.00  0.00    -0.336 N 
HETATM   15  C14 UNL     1     -15.237 -25.062 -12.088  1.00  0.00     0.256 C 
HETATM   16  O2  UNL     1     -14.803 -25.215 -10.928  1.00  0.00    -0.267 OA
ATOM     17  H2  UNL     1     -15.931 -25.827 -13.856  1.00  0.00     0.168 HD
BRANCH  15  18
HETATM   18  C15 UNL     1     -15.375 -23.652 -12.531  1.00  0.00     0.045 C 
HETATM   19  C16 UNL     1     -14.295 -22.958 -12.720  1.00  0.00    -0.063 A 
HETATM   20  C17 UNL     1     -12.764 -22.894 -12.703  1.00  0.00     0.039 A 
HETATM   21  C18 UNL     1     -13.502 -21.687 -13.022  1.00  0.00     0.039 A 
BRANCH  18  22
HETATM   22  C19 UNL     1     -16.695 -23.131 -12.710  1.00  0.00    -0.005 A 
HETATM   23  C20 UNL     1     -17.138 -22.980 -14.050  1.00  0.00     0.013 A 
HETATM   24  C21 UNL     1     -18.364 -22.448 -14.341  1.00  0.00     0.001 A 
HETATM   25  C22 UNL     1     -19.162 -22.060 -13.286  1.00  0.00     0.001 A 
HETATM   26  C23 UNL     1     -18.736 -22.206 -11.990  1.00  0.00     0.017 A 
HETATM   27  C24 UNL     1     -17.482 -22.749 -11.681  1.00  0.00     0.059 A 
BRANCH  27  28
HETATM   28  C25 UNL     1     -17.144 -22.862 -10.282  1.00  0.00     0.418 C 
HETATM   29  F1  UNL     1     -17.276 -24.137  -9.788  1.00  0.00    -0.166 F 
HETATM   30  F2  UNL     1     -15.859 -22.466  -9.944  1.00  0.00    -0.166 F 
HETATM   31  F3  UNL     1     -17.994 -22.072  -9.484  1.00  0.00    -0.166 F 
ENDBRANCH  27  28
ENDBRANCH  18  22
ENDBRANCH  15  18
ENDBRANCH  13  14
ENDBRANCH   8  13
BRANCH   1  32
HETATM   32  O1  UNL     1     -18.183 -27.603 -14.270  1.00  0.00    -0.384 OA
BRANCH  32  33
HETATM   33  C4  UNL     1     -18.606 -26.314 -14.452  1.00  0.00     0.179 C 
BRANCH  33  34
HETATM   34  C3  UNL     1     -19.952 -26.035 -13.815  1.00  0.00     0.005 A 
HETATM   35  C34 UNL     1     -20.867 -25.115 -14.612  1.00  0.00     0.014 A 
HETATM   36  C35 UNL     1     -21.193 -26.596 -14.392  1.00  0.00     0.014 A 
BRANCH  34  37
HETATM   37  C2  UNL     1     -19.882 -25.724 -12.340  1.00  0.00     0.243 C 
BRANCH  37  38
HETATM   38  N1  UNL     1     -18.671 -26.234 -11.724  1.00  0.00    -0.078 N 
HETATM   39  C1  UNL     1     -19.002 -27.337 -10.809  1.00  0.00     0.267 C 
ATOM     40  H12 UNL     1     -18.137 -25.498 -11.261  1.00  0.00     0.276 HD
ATOM     41  H11 UNL     1     -17.975 -26.507 -12.418  1.00  0.00     0.276 HD
ENDBRANCH  37  38
ENDBRANCH  34  37
ENDBRANCH  33  34
ENDBRANCH  32  33
ENDBRANCH   1  32
BRANCH  10  42
HETATM   42  N3  UNL     1     -17.262 -31.751 -12.411  1.00  0.00    -0.343 N 
HETATM   43  C28 UNL     1     -17.968 -33.039 -12.540  1.00  0.00     0.127 C 
HETATM   44  C29 UNL     1     -18.677 -33.207 -11.238  1.00  0.00     0.029 C 
HETATM   45  C30 UNL     1     -17.721 -32.643 -10.235  1.00  0.00     0.104 C 
HETATM   46  C31 UNL     1     -17.087 -31.529 -11.023  1.00  0.00     0.220 C 
HETATM   47  O3  UNL     1     -16.505 -30.574 -10.463  1.00  0.00    -0.273 OA
ENDBRANCH  10  42
TORSDOF 11
ENDMDL
MODEL 3
REMARK VINA RESULT: -8.231080189      0.786      1.373
REMARK  11 active torsions:
REMARK  status: ('A' for Active; 'I' for Inactive)
REMARK    1  A    between atoms: N1_2  and  C2_5 
REMARK    2  A    between atoms: C2_5  and  C3_6 
REMARK    3  A    between atoms: C3_6  and  C4_7 
REMARK    4  A    between atoms: C4_7  and  O1_8 
REMARK    5  A    between atoms: O1_8  and  C5_9 
REMARK    6  A    between atoms: C12_16  and  C13_17 
REMARK    7  A    between atoms: C13_17  and  N2_18 
REMARK       I    between atoms: N2_18  and  C14_20 
REMARK    8  A    between atoms: C14_20  and  C15_22 
REMARK    9  A    between atoms: C15_22  and  C19_26 
REMARK   10  A    between atoms: C24_31  and  C25_32 
REMARK   11  A    between atoms: C27_37  and  N3_38 
ROOT
HETATM    1  C5  UNL     1     -17.529 -28.738 -12.965  1.00  0.00     0.135 C 
HETATM    2  C6  UNL     1     -18.736 -29.120 -13.786  1.00  0.00     0.033 C 
HETATM    3  C7  UNL     1     -18.839 -30.594 -14.028  1.00  0.00     0.007 C 
HETATM    4  C8  UNL     1     -17.991 -31.070 -15.186  1.00  0.00    -0.012 C 
HETATM    5  C9  UNL     1     -17.841 -30.020 -16.254  1.00  0.00     0.009 C 
HETATM    6  C10 UNL     1     -16.612 -29.222 -16.182  1.00  0.00    -0.011 C 
HETATM    7  C11 UNL     1     -16.488 -28.157 -15.131  1.00  0.00     0.022 C 
HETATM    8  C12 UNL     1     -16.246 -28.551 -13.749  1.00  0.00     0.021 C 
HETATM    9  C26 UNL     1     -15.432 -29.846 -13.620  1.00  0.00     0.048 C 
HETATM   10  C27 UNL     1     -15.503 -30.783 -14.747  1.00  0.00     0.037 C 
HETATM   11  C32 UNL     1     -16.699 -31.678 -14.795  1.00  0.00     0.036 C 
HETATM   12  C33 UNL     1     -15.399 -30.088 -16.106  1.00  0.00     0.036 C 
ENDROOT
BRANCH   8  13
HETATM   13  C13 UNL     1     -15.441 -27.569 -12.941  1.00  0.00     0.076 C 
BRANCH  13  14
HETATM   14  N2  UNL     1     -15.513 -26.199 -13.065  1.00  0.00    -0.336 N 
HETATM   15  C14 UNL     1     -16.432 -25.245 -12.579  1.00  0.00     0.256 C 
HETATM   16  O2  UNL     1     -17.434 -25.531 -11.891  1.00  0.00    -0.267 OA
ATOM     17  H2  UNL     1     -14.754 -25.796 -13.615  1.00  0.00     0.168 HD
BRANCH  15  18
HETATM   18  C15 UNL     1     -16.256 -23.800 -12.869  1.00  0.00     0.045 C 
HETATM   19  C16 UNL     1     -17.139 -23.210 -13.615  1.00  0.00    -0.063 A 
HETATM   20  C17 UNL     1     -18.430 -23.307 -14.435  1.00  0.00     0.039 A 
HETATM   21  C18 UNL     1     -17.720 -22.043 -14.412  1.00  0.00     0.039 A 
BRANCH  18  22
HETATM   22  C19 UNL     1     -15.112 -23.139 -12.320  1.00  0.00    -0.005 A 
HETATM   23  C20 UNL     1     -14.060 -22.841 -13.226  1.00  0.00     0.013 A 
HETATM   24  C21 UNL     1     -12.900 -22.253 -12.804  1.00  0.00     0.001 A 
HETATM   25  C22 UNL     1     -12.782 -21.956 -11.462  1.00  0.00     0.001 A 
HETATM   26  C23 UNL     1     -13.798 -22.241 -10.586  1.00  0.00     0.017 A 
HETATM   27  C24 UNL     1     -14.990 -22.845 -11.008  1.00  0.00     0.059 A 
BRANCH  27  28
HETATM   28  C25 UNL     1     -15.993 -23.091  -9.999  1.00  0.00     0.418 C 
HETATM   29  F1  UNL     1     -17.266 -22.766 -10.400  1.00  0.00    -0.166 F 
HETATM   30  F2  UNL     1     -16.071 -24.397  -9.540  1.00  0.00    -0.166 F 
HETATM   31  F3  UNL     1     -15.764 -22.311  -8.848  1.00  0.00    -0.166 F 
ENDBRANCH  27  28
ENDBRANCH  18  22
ENDBRANCH  15  18
ENDBRANCH  13  14
ENDBRANCH   8  13
BRANCH   1  32
HETATM   32  O1  UNL     1     -17.397 -29.619 -11.889  1.00  0.00    -0.384 OA
BRANCH  32  33
HETATM   33  C4  UNL     1     -18.101 -29.131 -10.822  1.00  0.00     0.179 C 
BRANCH  33  34
HETATM   34  C3  UNL     1     -17.267 -29.014  -9.563  1.00  0.00     0.005 A 
HETATM   35  C34 UNL     1     -16.288 -27.848  -9.541  1.00  0.00     0.014 A 
HETATM   36  C35 UNL     1     -17.498 -27.911  -8.603  1.00  0.00     0.014 A 
BRANCH  34  37
HETATM   37  C2  UNL     1     -16.693 -30.323  -9.080  1.00  0.00     0.243 C 
BRANCH  37  38
HETATM   38  N1  UNL     1     -17.481 -31.463  -9.510  1.00  0.00    -0.078 N 
HETATM   39  C1  UNL     1     -17.160 -32.633  -8.679  1.00  0.00     0.267 C 
ATOM     40  H12 UNL     1     -17.365 -31.657 -10.505  1.00  0.00     0.276 HD
ATOM     41  H11 UNL     1     -18.480 -31.259  -9.514  1.00  0.00     0.276 HD
ENDBRANCH  37  38
ENDBRANCH  34  37
ENDBRANCH  33  34
ENDBRANCH  32  33
ENDBRANCH   1  32
BRANCH  10  42
HETATM   42  N3  UNL     1     -14.330 -31.673 -14.699  1.00  0.00    -0.343 N 
HETATM   43  C28 UNL     1     -14.318 -33.118 -14.990  1.00  0.00     0.127 C 
HETATM   44  C29 UNL     1     -13.131 -33.636 -14.250  1.00  0.00     0.029 C 
HETATM   45  C30 UNL     1     -12.121 -32.542 -14.385  1.00  0.00     0.104 C 
HETATM   46  C31 UNL     1     -13.000 -31.321 -14.365  1.00  0.00     0.220 C 
HETATM   47  O3  UNL     1     -12.550 -30.189 -14.083  1.00  0.00    -0.273 OA
ENDBRANCH  10  42
TORSDOF 11
ENDMDL
MODEL 4
REMARK VINA RESULT: -8.226216522      1.866      3.430
REMARK  11 active torsions:
REMARK  status: ('A' for Active; 'I' for Inactive)
REMARK    1  A    between atoms: N1_2  and  C2_5 
REMARK    2  A    between atoms: C2_5  and  C3_6 
REMARK    3  A    between atoms: C3_6  and  C4_7 
REMARK    4  A    between atoms: C4_7  and  O1_8 
REMARK    5  A    between atoms: O1_8  and  C5_9 
REMARK    6  A    between atoms: C12_16  and  C13_17 
REMARK    7  A    between atoms: C13_17  and  N2_18 
REMARK       I    between atoms: N2_18  and  C14_20 
REMARK    8  A    between atoms: C14_20  and  C15_22 
REMARK    9  A    between atoms: C15_22  and  C19_26 
REMARK   10  A    between atoms: C24_31  and  C25_32 
REMARK   11  A    between atoms: C27_37  and  N3_38 
ROOT
HETATM    1  C5  UNL     1     -16.789 -27.888 -14.718  1.00  0.00     0.135 C 
HETATM    2  C6  UNL     1     -16.764 -28.365 -16.149  1.00  0.00     0.033 C 
HETATM    3  C7  UNL     1     -17.621 -29.570 -16.383  1.00  0.00     0.007 C 
HETATM    4  C8  UNL     1     -16.938 -30.868 -16.015  1.00  0.00    -0.012 C 
HETATM    5  C9  UNL     1     -15.447 -30.807 -16.215  1.00  0.00     0.009 C 
HETATM    6  C10 UNL     1     -14.665 -30.501 -15.012  1.00  0.00    -0.011 C 
HETATM    7  C11 UNL     1     -14.643 -29.093 -14.489  1.00  0.00     0.022 C 
HETATM    8  C12 UNL     1     -15.814 -28.580 -13.789  1.00  0.00     0.021 C 
HETATM    9  C26 UNL     1     -16.590 -29.665 -13.027  1.00  0.00     0.048 C 
HETATM   10  C27 UNL     1     -16.458 -31.039 -13.524  1.00  0.00     0.037 C 
HETATM   11  C32 UNL     1     -17.316 -31.410 -14.690  1.00  0.00     0.036 C 
HETATM   12  C33 UNL     1     -15.018 -31.408 -13.881  1.00  0.00     0.036 C 
ENDROOT
BRANCH   8  13
HETATM   13  C13 UNL     1     -15.519 -27.567 -12.717  1.00  0.00     0.076 C 
BRANCH  13  14
HETATM   14  N2  UNL     1     -15.513 -26.201 -12.902  1.00  0.00    -0.336 N 
HETATM   15  C14 UNL     1     -16.164 -25.146 -12.227  1.00  0.00     0.256 C 
HETATM   16  O2  UNL     1     -16.934 -25.310 -11.258  1.00  0.00    -0.267 OA
ATOM     17  H2  UNL     1     -14.925 -25.893 -13.676  1.00  0.00     0.168 HD
BRANCH  15  18
HETATM   18  C15 UNL     1     -15.969 -23.736 -12.648  1.00  0.00     0.045 C 
HETATM   19  C16 UNL     1     -16.883 -23.180 -13.382  1.00  0.00    -0.063 A 
HETATM   20  C17 UNL     1     -18.228 -23.299 -14.105  1.00  0.00     0.039 A 
HETATM   21  C18 UNL     1     -17.483 -22.062 -14.233  1.00  0.00     0.039 A 
BRANCH  18  22
HETATM   22  C19 UNL     1     -14.771 -23.072 -12.232  1.00  0.00    -0.005 A 
HETATM   23  C20 UNL     1     -13.745 -22.952 -13.205  1.00  0.00     0.013 A 
HETATM   24  C21 UNL     1     -12.541 -22.377 -12.906  1.00  0.00     0.001 A 
HETATM   25  C22 UNL     1     -12.353 -21.913 -11.620  1.00  0.00     0.001 A 
HETATM   26  C23 UNL     1     -13.344 -22.027 -10.679  1.00  0.00     0.017 A 
HETATM   27  C24 UNL     1     -14.581 -22.615 -10.976  1.00  0.00     0.059 A 
BRANCH  27  28
HETATM   28  C25 UNL     1     -15.551 -22.673  -9.908  1.00  0.00     0.418 C 
HETATM   29  F1  UNL     1     -16.838 -22.434 -10.324  1.00  0.00    -0.166 F 
HETATM   30  F2  UNL     1     -15.604 -23.871  -9.212  1.00  0.00    -0.166 F 
HETATM   31  F3  UNL     1     -15.297 -21.691  -8.931  1.00  0.00    -0.166 F 
ENDBRANCH  27  28
ENDBRANCH  18  22
ENDBRANCH  15  18
ENDBRANCH  13  14
ENDBRANCH   8  13
BRANCH   1  32
HETATM   32  O1  UNL     1     -18.104 -27.896 -14.246  1.00  0.00    -0.384 OA
BRANCH  32  33
HETATM   33  C4  UNL     1     -18.673 -26.675 -14.488  1.00  0.00     0.179 C 
BRANCH  33  34
HETATM   34  C3  UNL     1     -20.048 -26.527 -13.872  1.00  0.00     0.005 A 
HETATM   35  C34 UNL     1     -20.994 -25.594 -14.616  1.00  0.00     0.014 A 
HETATM   36  C35 UNL     1     -21.240 -27.104 -14.534  1.00  0.00     0.014 A 
BRANCH  34  37
HETATM   37  C2  UNL     1     -20.036 -26.343 -12.374  1.00  0.00     0.243 C 
BRANCH  37  38
HETATM   38  N1  UNL     1     -19.139 -27.271 -11.711  1.00  0.00    -0.078 N 
HETATM   39  C1  UNL     1     -19.894 -28.441 -11.236  1.00  0.00     0.267 C 
ATOM     40  H12 UNL     1     -18.611 -26.825 -10.961  1.00  0.00     0.276 HD
ATOM     41  H11 UNL     1     -18.355 -27.538 -12.306  1.00  0.00     0.276 HD
ENDBRANCH  37  38
ENDBRANCH  34  37
ENDBRANCH  33  34
ENDBRANCH  32  33
ENDBRANCH   1  32
BRANCH  10  42
HETATM   42  N3  UNL     1     -16.818 -31.971 -12.441  1.00  0.00    -0.343 N 
HETATM   43  C28 UNL     1     -17.208 -33.384 -12.599  1.00  0.00     0.127 C 
HETATM   44  C29 UNL     1     -18.016 -33.684 -11.381  1.00  0.00     0.029 C 
HETATM   45  C30 UNL     1     -17.332 -32.911 -10.299  1.00  0.00     0.104 C 
HETATM   46  C31 UNL     1     -16.863 -31.696 -11.053  1.00  0.00     0.220 C 
HETATM   47  O3  UNL     1     -16.573 -30.630 -10.469  1.00  0.00    -0.273 OA
ENDBRANCH  10  42
TORSDOF 11
ENDMDL
MODEL 5
REMARK VINA RESULT: -8.211431489      1.459      1.976
REMARK  11 active torsions:
REMARK  status: ('A' for Active; 'I' for Inactive)
REMARK    1  A    between atoms: N1_2  and  C2_5 
REMARK    2  A    between atoms: C2_5  and  C3_6 
REMARK    3  A    between atoms: C3_6  and  C4_7 
REMARK    4  A    between atoms: C4_7  and  O1_8 
REMARK    5  A    between atoms: O1_8  and  C5_9 
REMARK    6  A    between atoms: C12_16  and  C13_17 
REMARK    7  A    between atoms: C13_17  and  N2_18 
REMARK       I    between atoms: N2_18  and  C14_20 
REMARK    8  A    between atoms: C14_20  and  C15_22 
REMARK    9  A    between atoms: C15_22  and  C19_26 
REMARK   10  A    between atoms: C24_31  and  C25_32 
REMARK   11  A    between atoms: C27_37  and  N3_38 
ROOT
HETATM    1  C5  UNL     1     -18.029 -29.171 -12.893  1.00  0.00     0.135 C 
HETATM    2  C6  UNL     1     -19.181 -29.552 -13.789  1.00  0.00     0.033 C 
HETATM    3  C7  UNL     1     -19.047 -30.927 -14.366  1.00  0.00     0.007 C 
HETATM    4  C8  UNL     1     -18.169 -30.975 -15.596  1.00  0.00    -0.012 C 
HETATM    5  C9  UNL     1     -18.227 -29.698 -16.391  1.00  0.00     0.009 C 
HETATM    6  C10 UNL     1     -17.145 -28.744 -16.127  1.00  0.00    -0.011 C 
HETATM    7  C11 UNL     1     -17.166 -27.943 -14.857  1.00  0.00     0.022 C 
HETATM    8  C12 UNL     1     -16.820 -28.597 -13.601  1.00  0.00     0.021 C 
HETATM    9  C26 UNL     1     -15.799 -29.732 -13.769  1.00  0.00     0.048 C 
HETATM   10  C27 UNL     1     -15.749 -30.383 -15.083  1.00  0.00     0.037 C 
HETATM   11  C32 UNL     1     -16.782 -31.431 -15.346  1.00  0.00     0.036 C 
HETATM   12  C33 UNL     1     -15.803 -29.388 -16.243  1.00  0.00     0.036 C 
ENDROOT
BRANCH   8  13
HETATM   13  C13 UNL     1     -16.163 -27.706 -12.582  1.00  0.00     0.076 C 
BRANCH  13  14
HETATM   14  N2  UNL     1     -16.252 -26.332 -12.562  1.00  0.00    -0.336 N 
HETATM   15  C14 UNL     1     -17.328 -25.449 -12.325  1.00  0.00     0.256 C 
HETATM   16  O2  UNL     1     -18.493 -25.823 -12.078  1.00  0.00    -0.267 OA
ATOM     17  H2  UNL     1     -15.368 -25.859 -12.755  1.00  0.00     0.168 HD
BRANCH  15  18
HETATM   18  C15 UNL     1     -17.131 -23.979 -12.363  1.00  0.00     0.045 C 
HETATM   19  C16 UNL     1     -17.610 -23.319 -13.372  1.00  0.00    -0.063 A 
HETATM   20  C17 UNL     1     -18.375 -23.337 -14.699  1.00  0.00     0.039 A 
HETATM   21  C18 UNL     1     -17.836 -22.075 -14.231  1.00  0.00     0.039 A 
BRANCH  18  22
HETATM   22  C19 UNL     1     -16.407 -23.371 -11.288  1.00  0.00    -0.005 A 
HETATM   23  C20 UNL     1     -17.136 -23.123 -10.096  1.00  0.00     0.013 A 
HETATM   24  C21 UNL     1     -16.559 -22.505  -9.022  1.00  0.00     0.001 A 
HETATM   25  C22 UNL     1     -15.237 -22.126  -9.133  1.00  0.00     0.001 A 
HETATM   26  C23 UNL     1     -14.531 -22.366 -10.284  1.00  0.00     0.017 A 
HETATM   27  C24 UNL     1     -15.113 -22.998 -11.390  1.00  0.00     0.059 A 
BRANCH  27  28
HETATM   28  C25 UNL     1     -14.271 -23.205 -12.544  1.00  0.00     0.418 C 
HETATM   29  F1  UNL     1     -14.153 -24.524 -12.907  1.00  0.00    -0.166 F 
HETATM   30  F2  UNL     1     -14.661 -22.539 -13.696  1.00  0.00    -0.166 F 
HETATM   31  F3  UNL     1     -12.952 -22.775 -12.300  1.00  0.00    -0.166 F 
ENDBRANCH  27  28
ENDBRANCH  18  22
ENDBRANCH  15  18
ENDBRANCH  13  14
ENDBRANCH   8  13
BRANCH   1  32
HETATM   32  O1  UNL     1     -17.720 -30.241 -12.049  1.00  0.00    -0.384 OA
BRANCH  32  33
HETATM   33  C4  UNL     1     -18.558 -30.213 -10.967  1.00  0.00     0.179 C 
BRANCH  33  34
HETATM   34  C3  UNL     1     -17.975 -29.473  -9.782  1.00  0.00     0.005 A 
HETATM   35  C34 UNL     1     -17.636 -30.342  -8.578  1.00  0.00     0.014 A 
HETATM   36  C35 UNL     1     -16.553 -29.644  -9.408  1.00  0.00     0.014 A 
BRANCH  34  37
HETATM   37  C2  UNL     1     -18.691 -28.188  -9.444  1.00  0.00     0.243 C 
BRANCH  37  38
HETATM   38  N1  UNL     1     -17.780 -27.067  -9.311  1.00  0.00    -0.078 N 
HETATM   39  C1  UNL     1     -18.225 -26.191  -8.216  1.00  0.00     0.267 C 
ATOM     40  H12 UNL     1     -17.668 -26.557 -10.187  1.00  0.00     0.276 HD
ATOM     41  H11 UNL     1     -16.814 -27.370  -9.191  1.00  0.00     0.276 HD
ENDBRANCH  37  38
ENDBRANCH  34  37
ENDBRANCH  33  34
ENDBRANCH  32  33
ENDBRANCH   1  32
BRANCH  10  42
HETATM   42  N3  UNL     1     -14.445 -31.051 -15.232  1.00  0.00    -0.343 N 
HETATM   43  C28 UNL     1     -14.184 -32.303 -15.966  1.00  0.00     0.127 C 
HETATM   44  C29 UNL     1     -12.942 -32.847 -15.341  1.00  0.00     0.029 C 
HETATM   45  C30 UNL     1     -12.128 -31.628 -15.045  1.00  0.00     0.104 C 
HETATM   46  C31 UNL     1     -13.201 -30.629 -14.705  1.00  0.00     0.220 C 
HETATM   47  O3  UNL     1     -12.953 -29.596 -14.045  1.00  0.00    -0.273 OA
ENDBRANCH  10  42
TORSDOF 11
ENDMDL
