MODEL 1
REMARK VINA RESULT: -8.280120980      0.000      0.000
REMARK  11 active torsions:
REMARK  status: ('A' for Active; 'I' for Inactive)
REMARK    1  A    between atoms: C2_2  and  C4_4 
REMARK    2  A    between atoms: C4_4  and  C6_6 
REMARK    3  A    between atoms: C4_4  and  C7_9 
REMARK    4  A    between atoms: C10_12  and  C11_13 
REMARK    5  A    between atoms: C12_17  and  C13_18 
REMARK    6  A    between atoms: C13_18  and  N1_19 
REMARK    7  A    between atoms: N2_28  and  C22_29 
REMARK    8  A    between atoms: C22_29  and  C23_30 
REMARK    9  A    between atoms: C23_30  and  C24_31 
REMARK   10  A    between atoms: C23_30  and  N3_37 
REMARK   11  A    between atoms: C24_31  and  C25_32 
ROOT
HETATM    1  N1  UNL     1     -16.911 -29.066 -11.961  1.00  0.00     0.094 N 
HETATM    2  C14 UNL     1     -17.913 -28.603 -11.086  1.00  0.00     0.275 C 
HETATM    3  C15 UNL     1     -18.464 -27.230 -11.349  1.00  0.00     0.066 C 
HETATM    4  C16 UNL     1     -17.621 -26.095 -10.922  1.00  0.00     0.225 C 
HETATM    5  C17 UNL     1     -17.133 -26.181  -9.518  1.00  0.00     0.036 C 
HETATM    6  C18 UNL     1     -15.662 -26.471  -9.484  1.00  0.00     0.004 C 
HETATM    7  C19 UNL     1     -15.133 -27.299 -10.612  1.00  0.00     0.038 C 
HETATM    8  C20 UNL     1     -15.643 -26.938 -11.961  1.00  0.00     0.251 C 
HETATM    9  C21 UNL     1     -16.181 -28.104 -12.716  1.00  0.00     0.308 C 
HETATM   10  N2  UNL     1     -16.552 -25.811 -11.861  1.00  0.00     0.101 N 
ENDROOT
BRANCH   1  11
HETATM   11  C13 UNL     1     -17.458 -30.032 -12.883  1.00  0.00     0.311 C 
BRANCH  11  12
HETATM   12  C12 UNL     1     -16.639 -30.398 -14.030  1.00  0.00    -0.015 A 
HETATM   13  C10 UNL     1     -17.026 -29.916 -15.289  1.00  0.00     0.056 A 
HETATM   14  C9  UNL     1     -16.209 -30.259 -16.347  1.00  0.00     0.017 A 
HETATM   15  C8  UNL     1     -15.077 -31.028 -16.197  1.00  0.00     0.009 A 
HETATM   16  C7  UNL     1     -14.689 -31.507 -14.954  1.00  0.00    -0.038 A 
HETATM   17  C34 UNL     1     -15.503 -31.166 -13.888  1.00  0.00     0.018 A 
BRANCH  13  18
HETATM   18  C11 UNL     1     -18.238 -29.098 -15.464  1.00  0.00     0.418 C 
HETATM   19  F1  UNL     1     -18.138 -27.794 -15.072  1.00  0.00    -0.166 F 
HETATM   20  F2  UNL     1     -18.497 -29.037 -16.848  1.00  0.00    -0.166 F 
HETATM   21  F3  UNL     1     -19.388 -29.723 -14.961  1.00  0.00    -0.166 F 
ENDBRANCH  13  18
BRANCH  16  22
HETATM   22  C4  UNL     1     -13.462 -32.334 -14.836  1.00  0.00     0.075 C 
HETATM   23  C5  UNL     1     -13.759 -33.401 -13.768  1.00  0.00     0.032 C 
BRANCH  22  24
HETATM   24  C2  UNL     1     -13.227 -33.082 -16.129  1.00  0.00     0.001 C 
HETATM   25  C1  UNL     1     -11.913 -32.702 -16.775  1.00  0.00     0.011 C 
HETATM   26  C3  UNL     1     -13.367 -34.574 -15.996  1.00  0.00     0.011 C 
ENDBRANCH  22  24
BRANCH  22  27
HETATM   27  C6  UNL     1     -12.286 -31.612 -14.346  1.00  0.00     0.186 C 
HETATM   28  O1  UNL     1     -12.184 -30.371 -14.366  1.00  0.00    -0.647 OA
HETATM   29  O2  UNL     1     -11.232 -32.348 -13.834  1.00  0.00    -0.647 OA
ENDBRANCH  22  27
ENDBRANCH  16  22
ENDBRANCH  11  12
ENDBRANCH   1  11
BRANCH  10  30
HETATM   30  C22 UNL     1     -17.050 -25.348 -13.105  1.00  0.00     0.298 C 
BRANCH  30  31
HETATM   31  C23 UNL     1     -17.049 -23.928 -13.418  1.00  0.00     0.116 C 
BRANCH  31  32
HETATM   32  C24 UNL     1     -16.018 -22.953 -13.150  1.00  0.00     0.031 C 
BRANCH  32  33
HETATM   33  C25 UNL     1     -14.659 -23.194 -12.664  1.00  0.00    -0.013 C 
HETATM   34  C26 UNL     1     -14.484 -23.005 -11.203  1.00  0.00     0.005 C 
HETATM   35  C27 UNL     1     -13.255 -22.108 -10.993  1.00  0.00     0.000 C 
HETATM   36  C28 UNL     1     -12.545 -22.198 -12.329  1.00  0.00     0.000 C 
HETATM   37  C29 UNL     1     -13.644 -22.253 -13.350  1.00  0.00     0.005 C 
ENDBRANCH  32  33
ENDBRANCH  31  32
BRANCH  31  38
HETATM   38  N3  UNL     1     -18.333 -23.332 -12.973  1.00  0.00    -0.343 N 
HETATM   39  C30 UNL     1     -18.436 -22.518 -11.778  1.00  0.00     0.154 C 
HETATM   40  C31 UNL     1     -19.755 -21.769 -11.863  1.00  0.00     0.252 C 
HETATM   41  N4  UNL     1     -20.876 -22.684 -11.923  1.00  0.00    -0.065 N 
HETATM   42  C32 UNL     1     -20.806 -23.622 -12.995  1.00  0.00     0.334 C 
ATOM     43  H42 UNL     1     -20.991 -23.168 -11.033  1.00  0.00     0.277 HD
ATOM     44  H41 UNL     1     -21.757 -22.170 -11.956  1.00  0.00     0.277 HD
HETATM   45  C33 UNL     1     -19.497 -23.557 -13.744  1.00  0.00     0.245 C 
HETATM   46  O3  UNL     1     -19.470 -23.700 -14.991  1.00  0.00    -0.272 OA
ENDBRANCH  31  38
ENDBRANCH  30  31
ENDBRANCH  10  30
TORSDOF 11
ENDMDL
MODEL 2
REMARK VINA RESULT: -8.247536660      2.813      5.082
REMARK  11 active torsions:
REMARK  status: ('A' for Active; 'I' for Inactive)
REMARK    1  A    between atoms: C2_2  and  C4_4 
REMARK    2  A    between atoms: C4_4  and  C6_6 
REMARK    3  A    between atoms: C4_4  and  C7_9 
REMARK    4  A    between atoms: C10_12  and  C11_13 
REMARK    5  A    between atoms: C12_17  and  C13_18 
REMARK    6  A    between atoms: C13_18  and  N1_19 
REMARK    7  A    between atoms: N2_28  and  C22_29 
REMARK    8  A    between atoms: C22_29  and  C23_30 
REMARK    9  A    between atoms: C23_30  and  C24_31 
REMARK   10  A    between atoms: C23_30  and  N3_37 
REMARK   11  A    between atoms: C24_31  and  C25_32 
ROOT
HETATM    1  N1  UNL     1     -20.478 -25.004 -12.954  1.00  0.00     0.094 N 
HETATM    2  C14 UNL     1     -20.134 -24.784 -14.303  1.00  0.00     0.275 C 
HETATM    3  C15 UNL     1     -18.668 -24.750 -14.634  1.00  0.00     0.066 C 
HETATM    4  C16 UNL     1     -17.949 -23.508 -14.287  1.00  0.00     0.225 C 
HETATM    5  C17 UNL     1     -18.602 -22.260 -14.769  1.00  0.00     0.036 C 
HETATM    6  C18 UNL     1     -19.191 -21.493 -13.623  1.00  0.00     0.004 C 
HETATM    7  C19 UNL     1     -19.686 -22.313 -12.473  1.00  0.00     0.038 C 
HETATM    8  C20 UNL     1     -18.793 -23.427 -12.055  1.00  0.00     0.251 C 
HETATM    9  C21 UNL     1     -19.497 -24.736 -11.958  1.00  0.00     0.308 C 
HETATM   10  N2  UNL     1     -17.600 -23.441 -12.881  1.00  0.00     0.101 N 
ENDROOT
BRANCH   1  11
HETATM   11  C13 UNL     1     -20.939 -26.359 -12.771  1.00  0.00     0.311 C 
BRANCH  11  12
HETATM   12  C12 UNL     1     -20.519 -27.345 -13.757  1.00  0.00    -0.015 A 
HETATM   13  C10 UNL     1     -21.448 -27.723 -14.738  1.00  0.00     0.056 A 
HETATM   14  C9  UNL     1     -21.004 -28.637 -15.673  1.00  0.00     0.017 A 
HETATM   15  C8  UNL     1     -19.731 -29.160 -15.659  1.00  0.00     0.009 A 
HETATM   16  C7  UNL     1     -18.808 -28.790 -14.690  1.00  0.00    -0.038 A 
HETATM   17  C34 UNL     1     -19.245 -27.873 -13.751  1.00  0.00     0.018 A 
BRANCH  13  18
HETATM   18  C11 UNL     1     -22.814 -27.176 -14.760  1.00  0.00     0.418 C 
HETATM   19  F1  UNL     1     -22.924 -25.862 -15.114  1.00  0.00    -0.166 F 
HETATM   20  F2  UNL     1     -23.521 -27.876 -15.758  1.00  0.00    -0.166 F 
HETATM   21  F3  UNL     1     -23.536 -27.482 -13.597  1.00  0.00    -0.166 F 
ENDBRANCH  13  18
BRANCH  16  22
HETATM   22  C4  UNL     1     -17.445 -29.378 -14.711  1.00  0.00     0.075 C 
HETATM   23  C5  UNL     1     -17.566 -30.776 -14.081  1.00  0.00     0.032 C 
BRANCH  22  24
HETATM   24  C2  UNL     1     -17.007 -29.594 -16.143  1.00  0.00     0.001 C 
HETATM   25  C1  UNL     1     -16.792 -28.289 -16.875  1.00  0.00     0.011 C 
HETATM   26  C3  UNL     1     -15.819 -30.507 -16.279  1.00  0.00     0.011 C 
ENDBRANCH  22  24
BRANCH  22  27
HETATM   27  C6  UNL     1     -16.462 -28.667 -13.892  1.00  0.00     0.186 C 
HETATM   28  O1  UNL     1     -16.132 -27.482 -14.089  1.00  0.00    -0.647 OA
HETATM   29  O2  UNL     1     -15.868 -29.347 -12.844  1.00  0.00    -0.647 OA
ENDBRANCH  22  27
ENDBRANCH  16  22
ENDBRANCH  11  12
ENDBRANCH   1  11
BRANCH  10  30
HETATM   30  C22 UNL     1     -16.652 -24.432 -12.523  1.00  0.00     0.298 C 
BRANCH  30  31
HETATM   31  C23 UNL     1     -15.476 -24.082 -11.742  1.00  0.00     0.116 C 
BRANCH  31  32
HETATM   32  C24 UNL     1     -14.131 -23.840 -12.208  1.00  0.00     0.031 C 
BRANCH  32  33
HETATM   33  C25 UNL     1     -13.547 -22.573 -12.646  1.00  0.00    -0.013 C 
HETATM   34  C26 UNL     1     -12.325 -22.710 -13.476  1.00  0.00     0.005 C 
HETATM   35  C27 UNL     1     -11.257 -21.773 -12.891  1.00  0.00     0.000 C 
HETATM   36  C28 UNL     1     -12.075 -20.833 -12.029  1.00  0.00     0.000 C 
HETATM   37  C29 UNL     1     -13.158 -21.689 -11.440  1.00  0.00     0.005 C 
ENDBRANCH  32  33
ENDBRANCH  31  32
BRANCH  31  38
HETATM   38  N3  UNL     1     -15.373 -25.001 -10.581  1.00  0.00    -0.343 N 
HETATM   39  C30 UNL     1     -15.326 -26.441 -10.737  1.00  0.00     0.154 C 
HETATM   40  C31 UNL     1     -14.822 -27.013  -9.423  1.00  0.00     0.252 C 
HETATM   41  N4  UNL     1     -15.707 -26.673  -8.328  1.00  0.00    -0.065 N 
HETATM   42  C32 UNL     1     -15.926 -25.274  -8.169  1.00  0.00     0.334 C 
ATOM     43  H42 UNL     1     -16.595 -27.166  -8.420  1.00  0.00     0.277 HD
ATOM     44  H41 UNL     1     -15.371 -27.083  -7.456  1.00  0.00     0.277 HD
HETATM   45  C33 UNL     1     -15.310 -24.456  -9.278  1.00  0.00     0.245 C 
HETATM   46  O3  UNL     1     -14.775 -23.348  -9.030  1.00  0.00    -0.272 OA
ENDBRANCH  31  38
ENDBRANCH  30  31
ENDBRANCH  10  30
TORSDOF 11
ENDMDL
MODEL 3
REMARK VINA RESULT: -8.117845726      3.014      6.323
REMARK  11 active torsions:
REMARK  status: ('A' for Active; 'I' for Inactive)
REMARK    1  A    between atoms: C2_2  and  C4_4 
REMARK    2  A    between atoms: C4_4  and  C6_6 
REMARK    3  A    between atoms: C4_4  and  C7_9 
REMARK    4  A    between atoms: C10_12  and  C11_13 
REMARK    5  A    between atoms: C12_17  and  C13_18 
REMARK    6  A    between atoms: C13_18  and  N1_19 
REMARK    7  A    between atoms: N2_28  and  C22_29 
REMARK    8  A    between atoms: C22_29  and  C23_30 
REMARK    9  A    between atoms: C23_30  and  C24_31 
REMARK   10  A    between atoms: C23_30  and  N3_37 
REMARK   11  A    between atoms: C24_31  and  C25_32 
ROOT
HETATM    1  N1  UNL     1     -17.213 -23.631 -12.644  1.00  0.00     0.094 N 
HETATM    2  C14 UNL     1     -15.844 -23.308 -12.732  1.00  0.00     0.275 C 
HETATM    3  C15 UNL     1     -14.870 -24.332 -12.221  1.00  0.00     0.066 C 
HETATM    4  C16 UNL     1     -14.717 -24.413 -10.754  1.00  0.00     0.225 C 
HETATM    5  C17 UNL     1     -14.470 -23.106 -10.084  1.00  0.00     0.036 C 
HETATM    6  C18 UNL     1     -15.676 -22.674  -9.304  1.00  0.00     0.004 C 
HETATM    7  C19 UNL     1     -17.000 -23.102  -9.855  1.00  0.00     0.038 C 
HETATM    8  C20 UNL     1     -17.066 -24.509 -10.333  1.00  0.00     0.251 C 
HETATM    9  C21 UNL     1     -17.608 -24.634 -11.714  1.00  0.00     0.308 C 
HETATM   10  N2  UNL     1     -15.787 -25.163 -10.124  1.00  0.00     0.101 N 
ENDROOT
BRANCH   1  11
HETATM   11  C13 UNL     1     -17.724 -24.000 -13.942  1.00  0.00     0.311 C 
BRANCH  11  12
HETATM   12  C12 UNL     1     -18.235 -25.355 -14.095  1.00  0.00    -0.015 A 
HETATM   13  C10 UNL     1     -19.625 -25.522 -14.181  1.00  0.00     0.056 A 
HETATM   14  C9  UNL     1     -20.071 -26.817 -14.356  1.00  0.00     0.017 A 
HETATM   15  C8  UNL     1     -19.218 -27.894 -14.442  1.00  0.00     0.009 A 
HETATM   16  C7  UNL     1     -17.842 -27.735 -14.359  1.00  0.00    -0.038 A 
HETATM   17  C34 UNL     1     -17.388 -26.440 -14.185  1.00  0.00     0.018 A 
BRANCH  13  18
HETATM   18  C11 UNL     1     -20.548 -24.380 -14.083  1.00  0.00     0.418 C 
HETATM   19  F1  UNL     1     -20.419 -23.426 -15.051  1.00  0.00    -0.166 F 
HETATM   20  F2  UNL     1     -21.852 -24.887 -14.252  1.00  0.00    -0.166 F 
HETATM   21  F3  UNL     1     -20.594 -23.832 -12.792  1.00  0.00    -0.166 F 
ENDBRANCH  13  18
BRANCH  16  22
HETATM   22  C4  UNL     1     -16.958 -28.923 -14.457  1.00  0.00     0.075 C 
HETATM   23  C5  UNL     1     -17.879 -30.155 -14.408  1.00  0.00     0.032 C 
BRANCH  22  24
HETATM   24  C2  UNL     1     -16.288 -28.947 -15.813  1.00  0.00     0.001 C 
HETATM   25  C1  UNL     1     -15.926 -30.351 -16.243  1.00  0.00     0.011 C 
HETATM   26  C3  UNL     1     -17.063 -28.224 -16.881  1.00  0.00     0.011 C 
ENDBRANCH  22  24
BRANCH  22  27
HETATM   27  C6  UNL     1     -16.031 -29.088 -13.336  1.00  0.00     0.186 C 
HETATM   28  O1  UNL     1     -16.295 -29.757 -12.318  1.00  0.00    -0.647 OA
HETATM   29  O2  UNL     1     -14.797 -28.468 -13.409  1.00  0.00    -0.647 OA
ENDBRANCH  22  27
ENDBRANCH  16  22
ENDBRANCH  11  12
ENDBRANCH   1  11
BRANCH  10  30
HETATM   30  C22 UNL     1     -15.762 -26.531 -10.492  1.00  0.00     0.298 C 
BRANCH  30  31
HETATM   31  C23 UNL     1     -16.662 -27.483  -9.860  1.00  0.00     0.116 C 
BRANCH  31  32
HETATM   32  C24 UNL     1     -18.101 -27.420  -9.756  1.00  0.00     0.031 C 
BRANCH  32  33
HETATM   33  C25 UNL     1     -19.090 -27.705 -10.796  1.00  0.00    -0.013 C 
HETATM   34  C26 UNL     1     -20.355 -26.940 -10.673  1.00  0.00     0.005 C 
HETATM   35  C27 UNL     1     -21.516 -27.939 -10.790  1.00  0.00     0.000 C 
HETATM   36  C28 UNL     1     -20.852 -29.150 -11.412  1.00  0.00     0.000 C 
HETATM   37  C29 UNL     1     -19.482 -29.200 -10.801  1.00  0.00     0.005 C 
ENDBRANCH  32  33
ENDBRANCH  31  32
BRANCH  31  38
HETATM   38  N3  UNL     1     -16.145 -27.818  -8.510  1.00  0.00    -0.343 N 
HETATM   39  C30 UNL     1     -16.273 -26.913  -7.386  1.00  0.00     0.154 C 
HETATM   40  C31 UNL     1     -16.016 -27.726  -6.129  1.00  0.00     0.252 C 
HETATM   41  N4  UNL     1     -14.687 -28.301  -6.138  1.00  0.00    -0.065 N 
HETATM   42  C32 UNL     1     -14.410 -29.111  -7.279  1.00  0.00     0.334 C 
ATOM     43  H42 UNL     1     -13.981 -27.572  -6.039  1.00  0.00     0.277 HD
ATOM     44  H41 UNL     1     -14.517 -28.825  -5.279  1.00  0.00     0.277 HD
HETATM   45  C33 UNL     1     -15.513 -29.067  -8.308  1.00  0.00     0.245 C 
HETATM   46  O3  UNL     1     -15.833 -30.102  -8.943  1.00  0.00    -0.272 OA
ENDBRANCH  31  38
ENDBRANCH  30  31
ENDBRANCH  10  30
TORSDOF 11
ENDMDL
MODEL 4
REMARK VINA RESULT: -8.106433887      1.856      2.282
REMARK  11 active torsions:
REMARK  status: ('A' for Active; 'I' for Inactive)
REMARK    1  A    between atoms: C2_2  and  C4_4 
REMARK    2  A    between atoms: C4_4  and  C6_6 
REMARK    3  A    between atoms: C4_4  and  C7_9 
REMARK    4  A    between atoms: C10_12  and  C11_13 
REMARK    5  A    between atoms: C12_17  and  C13_18 
REMARK    6  A    between atoms: C13_18  and  N1_19 
REMARK    7  A    between atoms: N2_28  and  C22_29 
REMARK    8  A    between atoms: C22_29  and  C23_30 
REMARK    9  A    between atoms: C23_30  and  C24_31 
REMARK   10  A    between atoms: C23_30  and  N3_37 
REMARK   11  A    between atoms: C24_31  and  C25_32 
ROOT
HETATM    1  N1  UNL     1     -15.503 -27.771 -12.684  1.00  0.00     0.094 N 
HETATM    2  C14 UNL     1     -16.775 -28.314 -12.411  1.00  0.00     0.275 C 
HETATM    3  C15 UNL     1     -17.856 -27.348 -12.017  1.00  0.00     0.066 C 
HETATM    4  C16 UNL     1     -17.813 -26.851 -10.627  1.00  0.00     0.225 C 
HETATM    5  C17 UNL     1     -17.688 -27.914  -9.593  1.00  0.00     0.036 C 
HETATM    6  C18 UNL     1     -16.321 -27.896  -8.975  1.00  0.00     0.004 C 
HETATM    7  C19 UNL     1     -15.206 -27.455  -9.870  1.00  0.00     0.038 C 
HETATM    8  C20 UNL     1     -15.499 -26.267 -10.716  1.00  0.00     0.251 C 
HETATM    9  C21 UNL     1     -15.195 -26.485 -12.157  1.00  0.00     0.308 C 
HETATM   10  N2  UNL     1     -16.842 -25.788 -10.446  1.00  0.00     0.101 N 
ENDROOT
BRANCH   1  11
HETATM   11  C13 UNL     1     -15.269 -27.738 -14.107  1.00  0.00     0.311 C 
BRANCH  11  12
HETATM   12  C12 UNL     1     -15.245 -29.013 -14.809  1.00  0.00    -0.015 A 
HETATM   13  C10 UNL     1     -16.200 -29.223 -15.814  1.00  0.00     0.056 A 
HETATM   14  C9  UNL     1     -16.127 -30.432 -16.477  1.00  0.00     0.017 A 
HETATM   15  C8  UNL     1     -15.181 -31.388 -16.183  1.00  0.00     0.009 A 
HETATM   16  C7  UNL     1     -14.234 -31.186 -15.190  1.00  0.00    -0.038 A 
HETATM   17  C34 UNL     1     -14.300 -29.976 -14.522  1.00  0.00     0.018 A 
BRANCH  13  18
HETATM   18  C11 UNL     1     -17.221 -28.212 -16.133  1.00  0.00     0.418 C 
HETATM   19  F1  UNL     1     -17.276 -27.137 -15.293  1.00  0.00    -0.166 F 
HETATM   20  F2  UNL     1     -16.883 -27.668 -17.388  1.00  0.00    -0.166 F 
HETATM   21  F3  UNL     1     -18.483 -28.775 -16.369  1.00  0.00    -0.166 F 
ENDBRANCH  13  18
BRANCH  16  22
HETATM   22  C4  UNL     1     -13.231 -32.243 -14.905  1.00  0.00     0.075 C 
HETATM   23  C5  UNL     1     -13.824 -33.112 -13.781  1.00  0.00     0.032 C 
BRANCH  22  24
HETATM   24  C2  UNL     1     -13.090 -33.147 -16.109  1.00  0.00     0.001 C 
HETATM   25  C1  UNL     1     -11.828 -32.858 -16.892  1.00  0.00     0.011 C 
HETATM   26  C3  UNL     1     -13.215 -34.611 -15.783  1.00  0.00     0.011 C 
ENDBRANCH  22  24
BRANCH  22  27
HETATM   27  C6  UNL     1     -11.956 -31.749 -14.381  1.00  0.00     0.186 C 
HETATM   28  O1  UNL     1     -11.554 -30.581 -14.543  1.00  0.00    -0.647 OA
HETATM   29  O2  UNL     1     -11.157 -32.625 -13.670  1.00  0.00    -0.647 OA
ENDBRANCH  22  27
ENDBRANCH  16  22
ENDBRANCH  11  12
ENDBRANCH   1  11
BRANCH  10  30
HETATM   30  C22 UNL     1     -17.201 -24.617 -11.160  1.00  0.00     0.298 C 
BRANCH  30  31
HETATM   31  C23 UNL     1     -16.576 -23.341 -10.848  1.00  0.00     0.116 C 
BRANCH  31  32
HETATM   32  C24 UNL     1     -15.171 -23.047 -10.692  1.00  0.00     0.031 C 
BRANCH  32  33
HETATM   33  C25 UNL     1     -14.331 -22.204 -11.543  1.00  0.00    -0.013 C 
HETATM   34  C26 UNL     1     -14.082 -22.748 -12.900  1.00  0.00     0.005 C 
HETATM   35  C27 UNL     1     -12.571 -22.675 -13.163  1.00  0.00     0.000 C 
HETATM   36  C28 UNL     1     -12.098 -21.689 -12.113  1.00  0.00     0.000 C 
HETATM   37  C29 UNL     1     -12.943 -21.973 -10.905  1.00  0.00     0.005 C 
ENDBRANCH  32  33
ENDBRANCH  31  32
BRANCH  31  38
HETATM   38  N3  UNL     1     -17.277 -22.727  -9.693  1.00  0.00    -0.343 N 
HETATM   39  C30 UNL     1     -16.691 -22.681  -8.368  1.00  0.00     0.154 C 
HETATM   40  C31 UNL     1     -17.477 -21.655  -7.570  1.00  0.00     0.252 C 
HETATM   41  N4  UNL     1     -18.874 -22.026  -7.470  1.00  0.00    -0.065 N 
HETATM   42  C32 UNL     1     -19.516 -22.225  -8.727  1.00  0.00     0.334 C 
ATOM     43  H42 UNL     1     -18.984 -22.849  -6.878  1.00  0.00     0.277 HD
ATOM     44  H41 UNL     1     -19.387 -21.342  -6.912  1.00  0.00     0.277 HD
HETATM   45  C33 UNL     1     -18.556 -22.159  -9.890  1.00  0.00     0.245 C 
HETATM   46  O3  UNL     1     -18.902 -21.621 -10.970  1.00  0.00    -0.272 OA
ENDBRANCH  31  38
ENDBRANCH  30  31
ENDBRANCH  10  30
TORSDOF 11
ENDMDL
MODEL 5
REMARK VINA RESULT: -8.065193370      3.104      5.224
REMARK  11 active torsions:
REMARK  status: ('A' for Active; 'I' for Inactive)
REMARK    1  A    between atoms: C2_2  and  C4_4 
REMARK    2  A    between atoms: C4_4  and  C6_6 
REMARK    3  A    between atoms: C4_4  and  C7_9 
REMARK    4  A    between atoms: C10_12  and  C11_13 
REMARK    5  A    between atoms: C12_17  and  C13_18 
REMARK    6  A    between atoms: C13_18  and  N1_19 
REMARK    7  A    between atoms: N2_28  and  C22_29 
REMARK    8  A    between atoms: C22_29  and  C23_30 
REMARK    9  A    between atoms: C23_30  and  C24_31 
REMARK   10  A    between atoms: C23_30  and  N3_37 
REMARK   11  A    between atoms: C24_31  and  C25_32 
ROOT
HETATM    1  N1  UNL     1     -19.944 -25.141 -12.255  1.00  0.00     0.094 N 
HETATM    2  C14 UNL     1     -20.000 -25.020 -13.658  1.00  0.00     0.275 C 
HETATM    3  C15 UNL     1     -18.691 -24.890 -14.383  1.00  0.00     0.066 C 
HETATM    4  C16 UNL     1     -18.047 -23.562 -14.333  1.00  0.00     0.225 C 
HETATM    5  C17 UNL     1     -18.939 -22.427 -14.699  1.00  0.00     0.036 C 
HETATM    6  C18 UNL     1     -19.280 -21.609 -13.489  1.00  0.00     0.004 C 
HETATM    7  C19 UNL     1     -19.354 -22.357 -12.194  1.00  0.00     0.038 C 
HETATM    8  C20 UNL     1     -18.265 -23.343 -11.965  1.00  0.00     0.251 C 
HETATM    9  C21 UNL     1     -18.767 -24.694 -11.589  1.00  0.00     0.308 C 
HETATM   10  N2  UNL     1     -17.343 -23.330 -13.086  1.00  0.00     0.101 N 
ENDROOT
BRANCH   1  11
HETATM   11  C13 UNL     1     -20.186 -26.508 -11.860  1.00  0.00     0.311 C 
BRANCH  11  12
HETATM   12  C12 UNL     1     -19.063 -27.432 -11.936  1.00  0.00    -0.015 A 
HETATM   13  C10 UNL     1     -18.579 -27.971 -10.734  1.00  0.00     0.056 A 
HETATM   14  C9  UNL     1     -17.535 -28.866 -10.848  1.00  0.00     0.017 A 
HETATM   15  C8  UNL     1     -16.985 -29.221 -12.059  1.00  0.00     0.009 A 
HETATM   16  C7  UNL     1     -17.460 -28.691 -13.251  1.00  0.00    -0.038 A 
HETATM   17  C34 UNL     1     -18.508 -27.795 -13.145  1.00  0.00     0.018 A 
BRANCH  13  18
HETATM   18  C11 UNL     1     -19.154 -27.594  -9.433  1.00  0.00     0.418 C 
HETATM   19  F1  UNL     1     -20.476 -27.886  -9.258  1.00  0.00    -0.166 F 
HETATM   20  F2  UNL     1     -18.488 -28.356  -8.452  1.00  0.00    -0.166 F 
HETATM   21  F3  UNL     1     -18.842 -26.277  -9.066  1.00  0.00    -0.166 F 
ENDBRANCH  13  18
BRANCH  16  22
HETATM   22  C4  UNL     1     -16.839 -29.101 -14.536  1.00  0.00     0.075 C 
HETATM   23  C5  UNL     1     -16.902 -30.638 -14.578  1.00  0.00     0.032 C 
BRANCH  22  24
HETATM   24  C2  UNL     1     -17.686 -28.609 -15.688  1.00  0.00     0.001 C 
HETATM   25  C1  UNL     1     -16.844 -28.107 -16.840  1.00  0.00     0.011 C 
HETATM   26  C3  UNL     1     -18.715 -29.607 -16.149  1.00  0.00     0.011 C 
ENDBRANCH  22  24
BRANCH  22  27
HETATM   27  C6  UNL     1     -15.419 -28.768 -14.660  1.00  0.00     0.186 C 
HETATM   28  O1  UNL     1     -14.926 -27.698 -14.253  1.00  0.00    -0.647 OA
HETATM   29  O2  UNL     1     -14.580 -29.688 -15.261  1.00  0.00    -0.647 OA
ENDBRANCH  22  27
ENDBRANCH  16  22
ENDBRANCH  11  12
ENDBRANCH   1  11
BRANCH  10  30
HETATM   30  C22 UNL     1     -16.230 -24.195 -12.938  1.00  0.00     0.298 C 
BRANCH  30  31
HETATM   31  C23 UNL     1     -15.131 -23.841 -12.055  1.00  0.00     0.116 C 
BRANCH  31  32
HETATM   32  C24 UNL     1     -13.750 -23.595 -12.398  1.00  0.00     0.031 C 
BRANCH  32  33
HETATM   33  C25 UNL     1     -13.158 -22.357 -12.906  1.00  0.00    -0.013 C 
HETATM   34  C26 UNL     1     -11.878 -22.538 -13.634  1.00  0.00     0.005 C 
HETATM   35  C27 UNL     1     -10.870 -21.529 -13.063  1.00  0.00     0.000 C 
HETATM   36  C28 UNL     1     -11.763 -20.537 -12.345  1.00  0.00     0.000 C 
HETATM   37  C29 UNL     1     -12.870 -21.363 -11.758  1.00  0.00     0.005 C 
ENDBRANCH  32  33
ENDBRANCH  31  32
BRANCH  31  38
HETATM   38  N3  UNL     1     -15.130 -24.759 -10.888  1.00  0.00    -0.343 N 
HETATM   39  C30 UNL     1     -15.156 -26.200 -11.038  1.00  0.00     0.154 C 
HETATM   40  C31 UNL     1     -14.742 -26.793  -9.703  1.00  0.00     0.252 C 
HETATM   41  N4  UNL     1     -15.653 -26.399  -8.648  1.00  0.00    -0.065 N 
HETATM   42  C32 UNL     1     -15.801 -24.989  -8.502  1.00  0.00     0.334 C 
ATOM     43  H42 UNL     1     -16.562 -26.842  -8.777  1.00  0.00     0.277 HD
ATOM     44  H41 UNL     1     -15.378 -26.823  -7.761  1.00  0.00     0.277 HD
HETATM   45  C33 UNL     1     -15.093 -24.212  -9.585  1.00  0.00     0.245 C 
HETATM   46  O3  UNL     1     -14.508 -23.134  -9.316  1.00  0.00    -0.272 OA
ENDBRANCH  31  38
ENDBRANCH  30  31
ENDBRANCH  10  30
TORSDOF 11
ENDMDL
