MODEL 1
REMARK VINA RESULT: -9.665686431      0.000      0.000
REMARK  10 active torsions:
REMARK  status: ('A' for Active; 'I' for Inactive)
REMARK    1  A    between atoms: C2_2  and  C3_3 
REMARK    2  A    between atoms: C3_3  and  C4_4 
REMARK    3  A    between atoms: C3_3  and  N5_37 
REMARK    4  A    between atoms: C4_4  and  C5_5 
REMARK       I    between atoms: C5_5  and  N1_7 
REMARK    5  A    between atoms: N1_7  and  C6_9 
REMARK    6  A    between atoms: N2_13  and  C10_14 
REMARK    7  A    between atoms: C13_17  and  C14_18 
REMARK    8  A    between atoms: C14_18  and  N3_19 
REMARK    9  A    between atoms: C17_22  and  C18_23 
REMARK   10  A    between atoms: C32_40  and  C34_42 
ROOT
HETATM    1  C6  UNL     1     -18.072 -27.542 -11.610  1.00  0.00     0.102 C 
HETATM    2  C7  UNL     1     -19.192 -28.392 -11.046  1.00  0.00     0.028 C 
HETATM    3  C8  UNL     1     -19.155 -28.339  -9.556  1.00  0.00     0.021 C 
HETATM    4  C9  UNL     1     -19.053 -26.877  -9.057  1.00  0.00     0.117 C 
HETATM    5  N2  UNL     1     -17.773 -26.447  -9.407  1.00  0.00    -0.406 N 
HETATM    6  C29 UNL     1     -17.165 -27.117 -10.503  1.00  0.00     0.142 C 
ENDROOT
BRANCH   5   7
HETATM    7  C10 UNL     1     -16.981 -25.654  -8.576  1.00  0.00     0.079 C 
HETATM    8  C11 UNL     1     -15.536 -25.751  -8.958  1.00  0.00     0.025 C 
HETATM    9  C12 UNL     1     -15.045 -24.765  -9.947  1.00  0.00     0.008 C 
HETATM   10  C13 UNL     1     -15.329 -23.372  -9.443  1.00  0.00     0.014 C 
HETATM   11  C27 UNL     1     -16.793 -23.217  -9.227  1.00  0.00     0.008 C 
HETATM   12  C28 UNL     1     -17.439 -24.244  -8.348  1.00  0.00     0.025 C 
BRANCH  10  13
HETATM   13  C14 UNL     1     -14.857 -22.325 -10.422  1.00  0.00     0.277 C 
BRANCH  13  14
HETATM   14  N3  UNL     1     -13.785 -22.812 -11.290  1.00  0.00     0.089 N 
HETATM   15  C15 UNL     1     -14.030 -22.464 -12.691  1.00  0.00     0.273 C 
HETATM   16  C16 UNL     1     -12.639 -22.764 -13.268  1.00  0.00     0.041 C 
HETATM   17  C17 UNL     1     -11.795 -21.946 -12.297  1.00  0.00     0.051 C 
HETATM   18  C26 UNL     1     -12.566 -22.062 -11.016  1.00  0.00     0.281 C 
BRANCH  17  19
HETATM   19  C18 UNL     1     -11.728 -20.535 -12.762  1.00  0.00    -0.024 A 
HETATM   20  C19 UNL     1     -12.451 -19.428 -12.405  1.00  0.00     0.096 A 
HETATM   21  N4  UNL     1     -12.011 -18.370 -13.119  1.00  0.00    -0.365 N 
HETATM   22  C20 UNL     1     -11.005 -18.735 -13.952  1.00  0.00     0.042 A 
ATOM     23  H4  UNL     1     -12.386 -17.424 -13.041  1.00  0.00     0.165 HD
HETATM   24  C21 UNL     1     -10.248 -18.035 -14.854  1.00  0.00     0.030 A 
HETATM   25  C25 UNL     1     -10.825 -20.091 -13.731  1.00  0.00    -0.001 A 
HETATM   26  C22 UNL     1      -9.264 -18.664 -15.586  1.00  0.00     0.002 A 
HETATM   27  C23 UNL     1      -9.091 -20.008 -15.361  1.00  0.00     0.001 A 
HETATM   28  C24 UNL     1      -9.837 -20.730 -14.464  1.00  0.00     0.014 A 
ENDBRANCH  17  19
ENDBRANCH  13  14
ENDBRANCH  10  13
ENDBRANCH   5   7
BRANCH   1  29
HETATM   29  N1  UNL     1     -17.283 -28.330 -12.572  1.00  0.00    -0.355 N 
HETATM   30  C5  UNL     1     -16.472 -27.709 -13.571  1.00  0.00     0.220 C 
HETATM   31  O1  UNL     1     -16.468 -26.449 -13.600  1.00  0.00    -0.274 OA
ATOM     32  H1  UNL     1     -17.317 -29.349 -12.523  1.00  0.00     0.162 HD
BRANCH  30  33
HETATM   33  C4  UNL     1     -15.694 -28.489 -14.508  1.00  0.00     0.128 C 
BRANCH  33  34
HETATM   34  C3  UNL     1     -16.318 -29.666 -15.134  1.00  0.00     0.096 C 
BRANCH  34  35
HETATM   35  C2  UNL     1     -16.464 -29.503 -16.620  1.00  0.00     0.021 C 
HETATM   36  C1  UNL     1     -16.943 -28.076 -16.956  1.00  0.00     0.007 C 
ENDBRANCH  34  35
BRANCH  34  37
HETATM   37  N5  UNL     1     -15.631 -30.909 -14.875  1.00  0.00    -0.368 N 
HETATM   38  C30 UNL     1     -15.501 -31.803 -15.937  1.00  0.00     0.065 C 
HETATM   39  C31 UNL     1     -14.033 -32.126 -16.044  1.00  0.00     0.068 C 
HETATM   40  C32 UNL     1     -13.513 -31.824 -14.649  1.00  0.00     0.090 C 
HETATM   41  C33 UNL     1     -13.554 -33.082 -13.769  1.00  0.00     0.031 C 
HETATM   42  C35 UNL     1     -14.470 -30.794 -14.095  1.00  0.00     0.082 C 
BRANCH  40  43
HETATM   43  C34 UNL     1     -12.084 -31.311 -14.670  1.00  0.00     0.399 C 
HETATM   44  F1  UNL     1     -11.307 -32.246 -14.005  1.00  0.00    -0.170 F 
HETATM   45  F2  UNL     1     -11.718 -31.205 -16.003  1.00  0.00    -0.170 F 
HETATM   46  F3  UNL     1     -12.059 -30.089 -14.055  1.00  0.00    -0.170 F 
ENDBRANCH  40  43
ENDBRANCH  34  37
ENDBRANCH  33  34
ENDBRANCH  30  33
ENDBRANCH   1  29
TORSDOF 10
ENDMDL
MODEL 2
REMARK VINA RESULT: -9.251107141      4.433     11.105
REMARK  10 active torsions:
REMARK  status: ('A' for Active; 'I' for Inactive)
REMARK    1  A    between atoms: C2_2  and  C3_3 
REMARK    2  A    between atoms: C3_3  and  C4_4 
REMARK    3  A    between atoms: C3_3  and  N5_37 
REMARK    4  A    between atoms: C4_4  and  C5_5 
REMARK       I    between atoms: C5_5  and  N1_7 
REMARK    5  A    between atoms: N1_7  and  C6_9 
REMARK    6  A    between atoms: N2_13  and  C10_14 
REMARK    7  A    between atoms: C13_17  and  C14_18 
REMARK    8  A    between atoms: C14_18  and  N3_19 
REMARK    9  A    between atoms: C17_22  and  C18_23 
REMARK   10  A    between atoms: C32_40  and  C34_42 
ROOT
HETATM    1  C6  UNL     1     -15.919 -27.992 -12.857  1.00  0.00     0.102 C 
HETATM    2  C7  UNL     1     -17.397 -27.896 -13.174  1.00  0.00     0.028 C 
HETATM    3  C8  UNL     1     -17.651 -28.449 -14.536  1.00  0.00     0.021 C 
HETATM    4  C9  UNL     1     -16.977 -29.833 -14.706  1.00  0.00     0.117 C 
HETATM    5  N2  UNL     1     -15.605 -29.583 -14.732  1.00  0.00    -0.406 N 
HETATM    6  C29 UNL     1     -15.172 -28.392 -14.087  1.00  0.00     0.142 C 
ENDROOT
BRANCH   5   7
HETATM    7  C10 UNL     1     -14.726 -30.244 -15.589  1.00  0.00     0.079 C 
HETATM    8  C11 UNL     1     -13.369 -30.381 -14.968  1.00  0.00     0.025 C 
HETATM    9  C12 UNL     1     -13.124 -31.608 -14.176  1.00  0.00     0.008 C 
HETATM   10  C13 UNL     1     -13.396 -32.816 -15.036  1.00  0.00     0.014 C 
HETATM   11  C27 UNL     1     -14.804 -32.771 -15.515  1.00  0.00     0.008 C 
HETATM   12  C28 UNL     1     -15.218 -31.514 -16.216  1.00  0.00     0.025 C 
BRANCH  10  13
HETATM   13  C14 UNL     1     -13.171 -34.098 -14.271  1.00  0.00     0.277 C 
BRANCH  13  14
HETATM   14  N3  UNL     1     -12.029 -34.859 -14.777  1.00  0.00     0.089 N 
HETATM   15  C15 UNL     1     -12.464 -36.032 -15.539  1.00  0.00     0.273 C 
HETATM   16  C16 UNL     1     -11.132 -36.397 -16.213  1.00  0.00     0.041 C 
HETATM   17  C17 UNL     1     -10.789 -35.040 -16.814  1.00  0.00     0.051 C 
HETATM   18  C26 UNL     1     -11.351 -34.083 -15.807  1.00  0.00     0.281 C 
BRANCH  17  19
HETATM   19  C18 UNL     1     -11.461 -34.895 -18.133  1.00  0.00    -0.024 A 
HETATM   20  C19 UNL     1     -12.641 -35.402 -18.608  1.00  0.00     0.096 A 
HETATM   21  N4  UNL     1     -12.817 -34.984 -19.880  1.00  0.00    -0.365 N 
HETATM   22  C20 UNL     1     -11.781 -34.203 -20.277  1.00  0.00     0.042 A 
ATOM     23  H4  UNL     1     -13.620 -35.223 -20.462  1.00  0.00     0.165 HD
HETATM   24  C21 UNL     1     -11.507 -33.552 -21.452  1.00  0.00     0.030 A 
HETATM   25  C25 UNL     1     -10.930 -34.146 -19.186  1.00  0.00    -0.001 A 
HETATM   26  C22 UNL     1     -10.357 -32.806 -21.591  1.00  0.00     0.002 A 
HETATM   27  C23 UNL     1      -9.519 -32.753 -20.504  1.00  0.00     0.001 A 
HETATM   28  C24 UNL     1      -9.771 -33.396 -19.319  1.00  0.00     0.014 A 
ENDBRANCH  17  19
ENDBRANCH  13  14
ENDBRANCH  10  13
ENDBRANCH   5   7
BRANCH   1  29
HETATM   29  N1  UNL     1     -15.416 -26.678 -12.423  1.00  0.00    -0.355 N 
HETATM   30  C5  UNL     1     -15.464 -26.267 -11.055  1.00  0.00     0.220 C 
HETATM   31  O1  UNL     1     -15.968 -27.078 -10.232  1.00  0.00    -0.274 OA
ATOM     32  H1  UNL     1     -15.021 -26.045 -13.118  1.00  0.00     0.162 HD
BRANCH  30  33
HETATM   33  C4  UNL     1     -14.962 -24.977 -10.634  1.00  0.00     0.128 C 
BRANCH  33  34
HETATM   34  C3  UNL     1     -15.511 -23.766 -11.265  1.00  0.00     0.096 C 
BRANCH  34  35
HETATM   35  C2  UNL     1     -14.768 -23.395 -12.516  1.00  0.00     0.021 C 
HETATM   36  C1  UNL     1     -13.535 -22.535 -12.170  1.00  0.00     0.007 C 
ENDBRANCH  34  35
BRANCH  34  37
HETATM   37  N5  UNL     1     -16.919 -23.847 -11.575  1.00  0.00    -0.368 N 
HETATM   38  C30 UNL     1     -17.797 -23.130 -10.763  1.00  0.00     0.065 C 
HETATM   39  C31 UNL     1     -18.625 -22.273 -11.685  1.00  0.00     0.068 C 
HETATM   40  C32 UNL     1     -18.534 -23.008 -13.011  1.00  0.00     0.090 C 
HETATM   41  C33 UNL     1     -19.696 -24.000 -13.163  1.00  0.00     0.031 C 
HETATM   42  C35 UNL     1     -17.231 -23.770 -12.942  1.00  0.00     0.082 C 
BRANCH  40  43
HETATM   43  C34 UNL     1     -18.569 -22.058 -14.195  1.00  0.00     0.399 C 
HETATM   44  F1  UNL     1     -19.558 -22.513 -15.052  1.00  0.00    -0.170 F 
HETATM   45  F2  UNL     1     -18.874 -20.804 -13.691  1.00  0.00    -0.170 F 
HETATM   46  F3  UNL     1     -17.334 -22.063 -14.784  1.00  0.00    -0.170 F 
ENDBRANCH  40  43
ENDBRANCH  34  37
ENDBRANCH  33  34
ENDBRANCH  30  33
ENDBRANCH   1  29
TORSDOF 10
ENDMDL
MODEL 3
REMARK VINA RESULT: -9.250438027      4.623     11.244
REMARK  10 active torsions:
REMARK  status: ('A' for Active; 'I' for Inactive)
REMARK    1  A    between atoms: C2_2  and  C3_3 
REMARK    2  A    between atoms: C3_3  and  C4_4 
REMARK    3  A    between atoms: C3_3  and  N5_37 
REMARK    4  A    between atoms: C4_4  and  C5_5 
REMARK       I    between atoms: C5_5  and  N1_7 
REMARK    5  A    between atoms: N1_7  and  C6_9 
REMARK    6  A    between atoms: N2_13  and  C10_14 
REMARK    7  A    between atoms: C13_17  and  C14_18 
REMARK    8  A    between atoms: C14_18  and  N3_19 
REMARK    9  A    between atoms: C17_22  and  C18_23 
REMARK   10  A    between atoms: C32_40  and  C34_42 
ROOT
HETATM    1  C6  UNL     1     -16.984 -27.213 -11.975  1.00  0.00     0.102 C 
HETATM    2  C7  UNL     1     -18.474 -27.223 -12.248  1.00  0.00     0.028 C 
HETATM    3  C8  UNL     1     -18.711 -27.405 -13.709  1.00  0.00     0.021 C 
HETATM    4  C9  UNL     1     -17.881 -28.591 -14.261  1.00  0.00     0.117 C 
HETATM    5  N2  UNL     1     -16.552 -28.170 -14.220  1.00  0.00    -0.406 N 
HETATM    6  C29 UNL     1     -16.242 -27.159 -13.269  1.00  0.00     0.142 C 
ENDROOT
BRANCH   5   7
HETATM    7  C10 UNL     1     -15.632 -28.452 -15.230  1.00  0.00     0.079 C 
HETATM    8  C11 UNL     1     -14.353 -28.985 -14.661  1.00  0.00     0.025 C 
HETATM    9  C12 UNL     1     -14.258 -30.455 -14.510  1.00  0.00     0.008 C 
HETATM   10  C13 UNL     1     -14.513 -31.109 -15.845  1.00  0.00     0.014 C 
HETATM   11  C27 UNL     1     -15.862 -30.716 -16.334  1.00  0.00     0.008 C 
HETATM   12  C28 UNL     1     -16.133 -29.244 -16.401  1.00  0.00     0.025 C 
BRANCH  10  13
HETATM   13  C14 UNL     1     -14.439 -32.613 -15.745  1.00  0.00     0.277 C 
BRANCH  13  14
HETATM   14  N3  UNL     1     -13.062 -33.103 -15.684  1.00  0.00     0.089 N 
HETATM   15  C15 UNL     1     -12.994 -34.541 -15.958  1.00  0.00     0.273 C 
HETATM   16  C16 UNL     1     -11.480 -34.678 -16.178  1.00  0.00     0.041 C 
HETATM   17  C17 UNL     1     -11.287 -33.578 -17.215  1.00  0.00     0.051 C 
HETATM   18  C26 UNL     1     -12.308 -32.560 -16.806  1.00  0.00     0.281 C 
BRANCH  17  19
HETATM   19  C18 UNL     1     -11.572 -34.117 -18.571  1.00  0.00    -0.024 A 
HETATM   20  C19 UNL     1     -12.478 -35.049 -19.003  1.00  0.00     0.096 A 
HETATM   21  N4  UNL     1     -12.348 -35.200 -20.338  1.00  0.00    -0.365 N 
HETATM   22  C20 UNL     1     -11.373 -34.390 -20.822  1.00  0.00     0.042 A 
ATOM     23  H4  UNL     1     -12.907 -35.836 -20.906  1.00  0.00     0.165 HD
HETATM   24  C21 UNL     1     -10.880 -34.182 -22.083  1.00  0.00     0.030 A 
HETATM   25  C25 UNL     1     -10.885 -33.710 -19.717  1.00  0.00    -0.001 A 
HETATM   26  C22 UNL     1      -9.865 -33.276 -22.302  1.00  0.00     0.002 A 
HETATM   27  C23 UNL     1      -9.387 -32.606 -21.203  1.00  0.00     0.001 A 
HETATM   28  C24 UNL     1      -9.864 -32.797 -19.931  1.00  0.00     0.014 A 
ENDBRANCH  17  19
ENDBRANCH  13  14
ENDBRANCH  10  13
ENDBRANCH   5   7
BRANCH   1  29
HETATM   29  N1  UNL     1     -16.628 -26.018 -11.193  1.00  0.00    -0.355 N 
HETATM   30  C5  UNL     1     -15.504 -26.001 -10.311  1.00  0.00     0.220 C 
HETATM   31  O1  UNL     1     -14.831 -27.062 -10.224  1.00  0.00    -0.274 OA
ATOM     32  H1  UNL     1     -17.200 -25.178 -11.284  1.00  0.00     0.162 HD
BRANCH  30  33
HETATM   33  C4  UNL     1     -15.155 -24.820  -9.551  1.00  0.00     0.128 C 
BRANCH  33  34
HETATM   34  C3  UNL     1     -14.780 -23.597 -10.280  1.00  0.00     0.096 C 
BRANCH  34  35
HETATM   35  C2  UNL     1     -14.623 -23.846 -11.753  1.00  0.00     0.021 C 
HETATM   36  C1  UNL     1     -13.665 -22.806 -12.370  1.00  0.00     0.007 C 
ENDBRANCH  34  35
BRANCH  34  37
HETATM   37  N5  UNL     1     -15.695 -22.495 -10.097  1.00  0.00    -0.368 N 
HETATM   38  C30 UNL     1     -17.000 -22.661 -10.558  1.00  0.00     0.065 C 
HETATM   39  C31 UNL     1     -17.904 -22.351  -9.394  1.00  0.00     0.068 C 
HETATM   40  C32 UNL     1     -17.039 -21.468  -8.512  1.00  0.00     0.090 C 
HETATM   41  C33 UNL     1     -17.249 -19.986  -8.854  1.00  0.00     0.031 C 
HETATM   42  C35 UNL     1     -15.619 -21.863  -8.846  1.00  0.00     0.082 C 
BRANCH  40  43
HETATM   43  C34 UNL     1     -17.344 -21.659  -7.036  1.00  0.00     0.399 C 
HETATM   44  F1  UNL     1     -16.624 -20.698  -6.346  1.00  0.00    -0.170 F 
HETATM   45  F2  UNL     1     -18.709 -21.474  -6.885  1.00  0.00    -0.170 F 
HETATM   46  F3  UNL     1     -16.978 -22.930  -6.686  1.00  0.00    -0.170 F 
ENDBRANCH  40  43
ENDBRANCH  34  37
ENDBRANCH  33  34
ENDBRANCH  30  33
ENDBRANCH   1  29
TORSDOF 10
ENDMDL
MODEL 4
REMARK VINA RESULT: -9.205823707      5.108     12.087
REMARK  10 active torsions:
REMARK  status: ('A' for Active; 'I' for Inactive)
REMARK    1  A    between atoms: C2_2  and  C3_3 
REMARK    2  A    between atoms: C3_3  and  C4_4 
REMARK    3  A    between atoms: C3_3  and  N5_37 
REMARK    4  A    between atoms: C4_4  and  C5_5 
REMARK       I    between atoms: C5_5  and  N1_7 
REMARK    5  A    between atoms: N1_7  and  C6_9 
REMARK    6  A    between atoms: N2_13  and  C10_14 
REMARK    7  A    between atoms: C13_17  and  C14_18 
REMARK    8  A    between atoms: C14_18  and  N3_19 
REMARK    9  A    between atoms: C17_22  and  C18_23 
REMARK   10  A    between atoms: C32_40  and  C34_42 
ROOT
HETATM    1  C6  UNL     1     -14.941 -29.582 -14.340  1.00  0.00     0.102 C 
HETATM    2  C7  UNL     1     -16.084 -30.074 -15.204  1.00  0.00     0.028 C 
HETATM    3  C8  UNL     1     -15.548 -30.944 -16.290  1.00  0.00     0.021 C 
HETATM    4  C9  UNL     1     -14.581 -32.010 -15.719  1.00  0.00     0.117 C 
HETATM    5  N2  UNL     1     -13.448 -31.308 -15.306  1.00  0.00    -0.406 N 
HETATM    6  C29 UNL     1     -13.642 -29.937 -14.984  1.00  0.00     0.142 C 
ENDROOT
BRANCH   5   7
HETATM    7  C10 UNL     1     -12.149 -31.781 -15.491  1.00  0.00     0.079 C 
HETATM    8  C11 UNL     1     -11.647 -32.472 -14.260  1.00  0.00     0.025 C 
HETATM    9  C12 UNL     1     -11.895 -33.929 -14.171  1.00  0.00     0.008 C 
HETATM   10  C13 UNL     1     -11.316 -34.607 -15.388  1.00  0.00     0.014 C 
HETATM   11  C27 UNL     1     -11.945 -34.039 -16.611  1.00  0.00     0.008 C 
HETATM   12  C28 UNL     1     -11.881 -32.549 -16.751  1.00  0.00     0.025 C 
BRANCH  10  13
HETATM   13  C14 UNL     1     -11.553 -36.097 -15.353  1.00  0.00     0.277 C 
BRANCH  13  14
HETATM   14  N3  UNL     1     -10.538 -36.843 -16.094  1.00  0.00     0.089 N 
HETATM   15  C15 UNL     1     -11.147 -37.821 -16.999  1.00  0.00     0.273 C 
HETATM   16  C16 UNL     1      -9.919 -38.164 -17.856  1.00  0.00     0.041 C 
HETATM   17  C17 UNL     1      -9.498 -36.752 -18.247  1.00  0.00     0.051 C 
HETATM   18  C26 UNL     1      -9.878 -35.951 -17.038  1.00  0.00     0.281 C 
BRANCH  17  19
HETATM   19  C18 UNL     1     -10.263 -36.319 -19.447  1.00  0.00    -0.024 A 
HETATM   20  C19 UNL     1     -11.185 -36.975 -20.218  1.00  0.00     0.096 A 
HETATM   21  N4  UNL     1     -11.597 -36.150 -21.205  1.00  0.00    -0.365 N 
HETATM   22  C20 UNL     1     -10.973 -34.948 -21.119  1.00  0.00     0.042 A 
ATOM     23  H4  UNL     1     -12.283 -36.398 -21.918  1.00  0.00     0.165 HD
HETATM   24  C21 UNL     1     -11.055 -33.806 -21.871  1.00  0.00     0.030 A 
HETATM   25  C25 UNL     1     -10.137 -35.051 -20.019  1.00  0.00    -0.001 A 
HETATM   26  C22 UNL     1     -10.296 -32.700 -21.554  1.00  0.00     0.002 A 
HETATM   27  C23 UNL     1      -9.470 -32.808 -20.462  1.00  0.00     0.001 A 
HETATM   28  C24 UNL     1      -9.371 -33.941 -19.695  1.00  0.00     0.014 A 
ENDBRANCH  17  19
ENDBRANCH  13  14
ENDBRANCH  10  13
ENDBRANCH   5   7
BRANCH   1  29
HETATM   29  N1  UNL     1     -15.005 -28.117 -14.215  1.00  0.00    -0.355 N 
HETATM   30  C5  UNL     1     -15.478 -27.481 -13.026  1.00  0.00     0.220 C 
HETATM   31  O1  UNL     1     -15.849 -28.233 -12.085  1.00  0.00    -0.274 OA
ATOM     32  H1  UNL     1     -14.703 -27.539 -15.000  1.00  0.00     0.162 HD
BRANCH  30  33
HETATM   33  C4  UNL     1     -15.532 -26.040 -12.907  1.00  0.00     0.128 C 
BRANCH  33  34
HETATM   34  C3  UNL     1     -16.055 -25.455 -11.661  1.00  0.00     0.096 C 
BRANCH  34  35
HETATM   35  C2  UNL     1     -15.105 -24.457 -11.064  1.00  0.00     0.021 C 
HETATM   36  C1  UNL     1     -14.299 -23.756 -12.177  1.00  0.00     0.007 C 
ENDBRANCH  34  35
BRANCH  34  37
HETATM   37  N5  UNL     1     -17.349 -24.829 -11.799  1.00  0.00    -0.368 N 
HETATM   38  C30 UNL     1     -17.682 -23.835 -10.879  1.00  0.00     0.065 C 
HETATM   39  C31 UNL     1     -18.080 -22.626 -11.686  1.00  0.00     0.068 C 
HETATM   40  C32 UNL     1     -18.493 -23.225 -13.020  1.00  0.00     0.090 C 
HETATM   41  C33 UNL     1     -19.998 -23.525 -13.038  1.00  0.00     0.031 C 
HETATM   42  C35 UNL     1     -17.722 -24.521 -13.116  1.00  0.00     0.082 C 
BRANCH  40  43
HETATM   43  C34 UNL     1     -18.183 -22.298 -14.183  1.00  0.00     0.399 C 
HETATM   44  F1  UNL     1     -18.812 -22.824 -15.299  1.00  0.00    -0.170 F 
HETATM   45  F2  UNL     1     -18.699 -21.055 -13.850  1.00  0.00    -0.170 F 
HETATM   46  F3  UNL     1     -16.825 -22.241 -14.334  1.00  0.00    -0.170 F 
ENDBRANCH  40  43
ENDBRANCH  34  37
ENDBRANCH  33  34
ENDBRANCH  30  33
ENDBRANCH   1  29
TORSDOF 10
ENDMDL
MODEL 5
REMARK VINA RESULT: -9.015402309      1.505      2.005
REMARK  10 active torsions:
REMARK  status: ('A' for Active; 'I' for Inactive)
REMARK    1  A    between atoms: C2_2  and  C3_3 
REMARK    2  A    between atoms: C3_3  and  C4_4 
REMARK    3  A    between atoms: C3_3  and  N5_37 
REMARK    4  A    between atoms: C4_4  and  C5_5 
REMARK       I    between atoms: C5_5  and  N1_7 
REMARK    5  A    between atoms: N1_7  and  C6_9 
REMARK    6  A    between atoms: N2_13  and  C10_14 
REMARK    7  A    between atoms: C13_17  and  C14_18 
REMARK    8  A    between atoms: C14_18  and  N3_19 
REMARK    9  A    between atoms: C17_22  and  C18_23 
REMARK   10  A    between atoms: C32_40  and  C34_42 
ROOT
HETATM    1  C6  UNL     1     -17.040 -27.669 -12.315  1.00  0.00     0.102 C 
HETATM    2  C7  UNL     1     -18.212 -28.613 -12.147  1.00  0.00     0.028 C 
HETATM    3  C8  UNL     1     -18.703 -28.554 -10.740  1.00  0.00     0.021 C 
HETATM    4  C9  UNL     1     -18.903 -27.087 -10.286  1.00  0.00     0.117 C 
HETATM    5  N2  UNL     1     -17.621 -26.546 -10.183  1.00  0.00    -0.406 N 
HETATM    6  C29 UNL     1     -16.615 -27.163 -10.976  1.00  0.00     0.142 C 
ENDROOT
BRANCH   5   7
HETATM    7  C10 UNL     1     -17.237 -25.685  -9.155  1.00  0.00     0.079 C 
HETATM    8  C11 UNL     1     -15.747 -25.663  -9.000  1.00  0.00     0.025 C 
HETATM    9  C12 UNL     1     -15.014 -24.645  -9.787  1.00  0.00     0.008 C 
HETATM   10  C13 UNL     1     -15.563 -23.278  -9.465  1.00  0.00     0.014 C 
HETATM   11  C27 UNL     1     -17.016 -23.245  -9.785  1.00  0.00     0.008 C 
HETATM   12  C28 UNL     1     -17.851 -24.317  -9.154  1.00  0.00     0.025 C 
BRANCH  10  13
HETATM   13  C14 UNL     1     -14.856 -22.202 -10.253  1.00  0.00     0.277 C 
BRANCH  13  14
HETATM   14  N3  UNL     1     -13.856 -22.745 -11.171  1.00  0.00     0.089 N 
HETATM   15  C15 UNL     1     -14.158 -22.394 -12.561  1.00  0.00     0.273 C 
HETATM   16  C16 UNL     1     -12.814 -22.763 -13.207  1.00  0.00     0.041 C 
HETATM   17  C17 UNL     1     -11.883 -21.981 -12.288  1.00  0.00     0.051 C 
HETATM   18  C26 UNL     1     -12.590 -22.053 -10.968  1.00  0.00     0.281 C 
BRANCH  17  19
HETATM   19  C18 UNL     1     -11.772 -20.578 -12.768  1.00  0.00    -0.024 A 
HETATM   20  C19 UNL     1     -12.475 -19.450 -12.437  1.00  0.00     0.096 A 
HETATM   21  N4  UNL     1     -11.997 -18.411 -13.155  1.00  0.00    -0.365 N 
HETATM   22  C20 UNL     1     -10.985 -18.810 -13.966  1.00  0.00     0.042 A 
ATOM     23  H4  UNL     1     -12.350 -17.456 -13.095  1.00  0.00     0.165 HD
HETATM   24  C21 UNL     1     -10.195 -18.140 -14.862  1.00  0.00     0.030 A 
HETATM   25  C25 UNL     1     -10.842 -20.168 -13.726  1.00  0.00    -0.001 A 
HETATM   26  C22 UNL     1      -9.214 -18.802 -15.568  1.00  0.00     0.002 A 
HETATM   27  C23 UNL     1      -9.077 -20.146 -15.324  1.00  0.00     0.001 A 
HETATM   28  C24 UNL     1      -9.857 -20.839 -14.433  1.00  0.00     0.014 A 
ENDBRANCH  17  19
ENDBRANCH  13  14
ENDBRANCH  10  13
ENDBRANCH   5   7
BRANCH   1  29
HETATM   29  N1  UNL     1     -15.903 -28.387 -12.915  1.00  0.00    -0.355 N 
HETATM   30  C5  UNL     1     -15.639 -28.342 -14.319  1.00  0.00     0.220 C 
HETATM   31  O1  UNL     1     -16.431 -27.664 -15.027  1.00  0.00    -0.274 OA
ATOM     32  H1  UNL     1     -15.287 -28.931 -12.311  1.00  0.00     0.162 HD
BRANCH  30  33
HETATM   33  C4  UNL     1     -14.516 -29.044 -14.901  1.00  0.00     0.128 C 
BRANCH  33  34
HETATM   34  C3  UNL     1     -14.600 -30.506 -15.053  1.00  0.00     0.096 C 
BRANCH  34  35
HETATM   35  C2  UNL     1     -15.779 -30.920 -15.887  1.00  0.00     0.021 C 
HETATM   36  C1  UNL     1     -16.783 -31.720 -15.032  1.00  0.00     0.007 C 
ENDBRANCH  34  35
BRANCH  34  37
HETATM   37  N5  UNL     1     -13.413 -31.114 -15.605  1.00  0.00    -0.368 N 
HETATM   38  C30 UNL     1     -12.314 -31.259 -14.758  1.00  0.00     0.065 C 
HETATM   39  C31 UNL     1     -11.921 -32.712 -14.818  1.00  0.00     0.068 C 
HETATM   40  C32 UNL     1     -12.485 -33.166 -16.154  1.00  0.00     0.090 C 
HETATM   41  C33 UNL     1     -11.438 -33.010 -17.266  1.00  0.00     0.031 C 
HETATM   42  C35 UNL     1     -13.642 -32.232 -16.421  1.00  0.00     0.082 C 
BRANCH  40  43
HETATM   43  C34 UNL     1     -12.928 -34.618 -16.124  1.00  0.00     0.399 C 
HETATM   44  F1  UNL     1     -12.093 -35.279 -15.238  1.00  0.00    -0.170 F 
HETATM   45  F2  UNL     1     -14.241 -34.626 -15.683  1.00  0.00    -0.170 F 
HETATM   46  F3  UNL     1     -12.834 -35.119 -17.394  1.00  0.00    -0.170 F 
ENDBRANCH  40  43
ENDBRANCH  34  37
ENDBRANCH  33  34
ENDBRANCH  30  33
ENDBRANCH   1  29
TORSDOF 10
ENDMDL
