MODEL 1
REMARK VINA RESULT: -8.643658410      0.000      0.000
REMARK  3 active torsions:
REMARK  status: ('A' for Active; 'I' for Inactive)
REMARK    1  A    between atoms: C4_4  and  C5_5 
REMARK    2  A    between atoms: C7_7  and  O1_8 
REMARK    3  A    between atoms: O1_8  and  C8_9 
ROOT
HETATM    1  C5  UNL     1     -16.933  33.917 -29.543  1.00  0.00     0.047 A 
HETATM    2  C6  UNL     1     -18.173  33.944 -28.969  1.00  0.00     0.086 A 
HETATM    3  C7  UNL     1     -19.263  34.491 -29.638  1.00  0.00     0.151 A 
HETATM    4  N3  UNL     1     -19.049  34.988 -30.861  1.00  0.00    -0.333 N 
ATOM      5  H3  UNL     1     -19.834  35.394 -31.370  1.00  0.00     0.168 HD
HETATM    6  C11 UNL     1     -17.844  34.973 -31.445  1.00  0.00     0.182 A 
HETATM    7  N4  UNL     1     -16.805  34.437 -30.775  1.00  0.00    -0.352 N 
ATOM      8  H4  UNL     1     -15.888  34.426 -31.220  1.00  0.00     0.166 HD
ENDROOT
BRANCH   3   9
HETATM    9  O1  UNL     1     -20.503  34.516 -29.060  1.00  0.00    -0.291 OA
BRANCH   9  10
HETATM   10  C8  UNL     1     -21.207  35.559 -28.538  1.00  0.00     0.111 A 
HETATM   11  C9  UNL     1     -22.402  35.445 -27.802  1.00  0.00     0.145 A 
HETATM   12  N1  UNL     1     -22.793  36.673 -27.461  1.00  0.00    -0.309 N 
HETATM   13  N2  UNL     1     -21.974  37.580 -27.900  1.00  0.00    -0.309 N 
ATOM     14  H1  UNL     1     -23.634  36.876 -26.921  1.00  0.00     0.186 HD
HETATM   15  C10 UNL     1     -20.983  36.911 -28.570  1.00  0.00     0.145 A 
ATOM     16  H2  UNL     1     -22.052  38.589 -27.772  1.00  0.00     0.186 HD
ENDBRANCH   9  10
ENDBRANCH   3   9
BRANCH   1  17
HETATM   17  C4  UNL     1     -15.783  33.350 -28.860  1.00  0.00    -0.009 A 
HETATM   18  C3  UNL     1     -15.968  32.703 -27.631  1.00  0.00     0.013 A 
HETATM   19  C2  UNL     1     -14.922  32.145 -26.932  1.00  0.00     0.001 A 
HETATM   20  C1  UNL     1     -13.632  32.193 -27.412  1.00  0.00     0.000 A 
HETATM   21  C13 UNL     1     -13.424  32.822 -28.620  1.00  0.00     0.001 A 
HETATM   22  C12 UNL     1     -14.492  33.390 -29.327  1.00  0.00     0.013 A 
ENDBRANCH   1  17
TORSDOF 3
ENDMDL
MODEL 2
REMARK VINA RESULT: -8.522924892      2.354      6.902
REMARK  3 active torsions:
REMARK  status: ('A' for Active; 'I' for Inactive)
REMARK    1  A    between atoms: C4_4  and  C5_5 
REMARK    2  A    between atoms: C7_7  and  O1_8 
REMARK    3  A    between atoms: O1_8  and  C8_9 
ROOT
HETATM    1  C5  UNL     1     -20.873  37.456 -28.659  1.00  0.00     0.047 A 
HETATM    2  C6  UNL     1     -20.059  36.415 -29.007  1.00  0.00     0.086 A 
HETATM    3  C7  UNL     1     -20.412  35.099 -28.721  1.00  0.00     0.151 A 
HETATM    4  N3  UNL     1     -21.576  34.897 -28.094  1.00  0.00    -0.333 N 
ATOM      5  H3  UNL     1     -21.854  33.941 -27.875  1.00  0.00     0.168 HD
HETATM    6  C11 UNL     1     -22.390  35.900 -27.744  1.00  0.00     0.182 A 
HETATM    7  N4  UNL     1     -22.025  37.164 -28.032  1.00  0.00    -0.352 N 
ATOM      8  H4  UNL     1     -22.646  37.928 -27.765  1.00  0.00     0.166 HD
ENDROOT
BRANCH   3   9
HETATM    9  O1  UNL     1     -19.594  34.060 -29.071  1.00  0.00    -0.291 OA
BRANCH   9  10
HETATM   10  C8  UNL     1     -18.237  34.011 -29.181  1.00  0.00     0.111 A 
HETATM   11  C9  UNL     1     -17.512  34.191 -30.375  1.00  0.00     0.145 A 
HETATM   12  N1  UNL     1     -16.215  34.072 -30.089  1.00  0.00    -0.309 N 
HETATM   13  N2  UNL     1     -16.018  33.832 -28.828  1.00  0.00    -0.309 N 
ATOM     14  H1  UNL     1     -15.468  34.159 -30.778  1.00  0.00     0.186 HD
HETATM   15  C10 UNL     1     -17.258  33.790 -28.247  1.00  0.00     0.145 A 
ATOM     16  H2  UNL     1     -15.120  33.701 -28.364  1.00  0.00     0.186 HD
ENDBRANCH   9  10
ENDBRANCH   3   9
BRANCH   1  17
HETATM   17  C4  UNL     1     -20.521  38.835 -28.950  1.00  0.00    -0.009 A 
HETATM   18  C3  UNL     1     -19.797  39.126 -30.113  1.00  0.00     0.013 A 
HETATM   19  C2  UNL     1     -19.431  40.410 -30.447  1.00  0.00     0.001 A 
HETATM   20  C1  UNL     1     -19.765  41.482 -29.648  1.00  0.00     0.000 A 
HETATM   21  C13 UNL     1     -20.478  41.222 -28.499  1.00  0.00     0.001 A 
HETATM   22  C12 UNL     1     -20.847  39.913 -28.162  1.00  0.00     0.013 A 
ENDBRANCH   1  17
TORSDOF 3
ENDMDL
MODEL 3
REMARK VINA RESULT: -8.503855522      3.097      5.302
REMARK  3 active torsions:
REMARK  status: ('A' for Active; 'I' for Inactive)
REMARK    1  A    between atoms: C4_4  and  C5_5 
REMARK    2  A    between atoms: C7_7  and  O1_8 
REMARK    3  A    between atoms: O1_8  and  C8_9 
ROOT
HETATM    1  C5  UNL     1     -20.330  36.341 -28.810  1.00  0.00     0.047 A 
HETATM    2  C6  UNL     1     -20.147  37.692 -28.712  1.00  0.00     0.086 A 
HETATM    3  C7  UNL     1     -21.138  38.516 -28.189  1.00  0.00     0.151 A 
HETATM    4  N3  UNL     1     -22.275  37.935 -27.788  1.00  0.00    -0.333 N 
ATOM      5  H3  UNL     1     -23.015  38.520 -27.403  1.00  0.00     0.168 HD
HETATM    6  C11 UNL     1     -22.478  36.614 -27.874  1.00  0.00     0.182 A 
HETATM    7  N4  UNL     1     -21.501  35.839 -28.384  1.00  0.00    -0.352 N 
ATOM      8  H4  UNL     1     -21.656  34.833 -28.448  1.00  0.00     0.166 HD
ENDROOT
BRANCH   3   9
HETATM    9  O1  UNL     1     -20.951  39.868 -28.093  1.00  0.00    -0.291 OA
BRANCH   9  10
HETATM   10  C8  UNL     1     -20.165  40.699 -28.834  1.00  0.00     0.111 A 
HETATM   11  C9  UNL     1     -19.390  41.757 -28.318  1.00  0.00     0.145 A 
HETATM   12  N1  UNL     1     -18.761  42.341 -29.338  1.00  0.00    -0.309 N 
HETATM   13  N2  UNL     1     -19.046  41.771 -30.470  1.00  0.00    -0.309 N 
ATOM     14  H1  UNL     1     -18.133  43.137 -29.242  1.00  0.00     0.186 HD
HETATM   15  C10 UNL     1     -19.914  40.751 -30.180  1.00  0.00     0.145 A 
ATOM     16  H2  UNL     1     -18.693  42.031 -31.391  1.00  0.00     0.186 HD
ENDBRANCH   9  10
ENDBRANCH   3   9
BRANCH   1  17
HETATM   17  C4  UNL     1     -19.306  35.465 -29.352  1.00  0.00    -0.009 A 
HETATM   18  C3  UNL     1     -18.609  35.857 -30.503  1.00  0.00     0.013 A 
HETATM   19  C2  UNL     1     -17.628  35.074 -31.067  1.00  0.00     0.001 A 
HETATM   20  C1  UNL     1     -17.279  33.858 -30.522  1.00  0.00     0.000 A 
HETATM   21  C13 UNL     1     -17.948  33.451 -29.389  1.00  0.00     0.001 A 
HETATM   22  C12 UNL     1     -18.947  34.251 -28.819  1.00  0.00     0.013 A 
ENDBRANCH   1  17
TORSDOF 3
ENDMDL
MODEL 4
REMARK VINA RESULT: -8.476184692      2.365      6.823
REMARK  3 active torsions:
REMARK  status: ('A' for Active; 'I' for Inactive)
REMARK    1  A    between atoms: C4_4  and  C5_5 
REMARK    2  A    between atoms: C7_7  and  O1_8 
REMARK    3  A    between atoms: O1_8  and  C8_9 
ROOT
HETATM    1  C5  UNL     1     -20.830  37.442 -28.707  1.00  0.00     0.047 A 
HETATM    2  C6  UNL     1     -20.017  36.392 -29.029  1.00  0.00     0.086 A 
HETATM    3  C7  UNL     1     -20.371  35.084 -28.712  1.00  0.00     0.151 A 
HETATM    4  N3  UNL     1     -21.535  34.898 -28.081  1.00  0.00    -0.333 N 
ATOM      5  H3  UNL     1     -21.814  33.947 -27.838  1.00  0.00     0.168 HD
HETATM    6  C11 UNL     1     -22.348  35.910 -27.754  1.00  0.00     0.182 A 
HETATM    7  N4  UNL     1     -21.982  37.166 -28.073  1.00  0.00    -0.352 N 
ATOM      8  H4  UNL     1     -22.602  37.937 -27.824  1.00  0.00     0.166 HD
ENDROOT
BRANCH   3   9
HETATM    9  O1  UNL     1     -19.554  34.036 -29.037  1.00  0.00    -0.291 OA
BRANCH   9  10
HETATM   10  C8  UNL     1     -18.206  34.003 -29.233  1.00  0.00     0.111 A 
HETATM   11  C9  UNL     1     -17.244  33.798 -28.224  1.00  0.00     0.145 A 
HETATM   12  N1  UNL     1     -16.039  33.831 -28.794  1.00  0.00    -0.309 N 
HETATM   13  N2  UNL     1     -16.115  34.036 -30.075  1.00  0.00    -0.309 N 
ATOM     14  H1  UNL     1     -15.163  33.709 -28.287  1.00  0.00     0.186 HD
HETATM   15  C10 UNL     1     -17.450  34.145 -30.368  1.00  0.00     0.145 A 
ATOM     16  H2  UNL     1     -15.338  34.102 -30.731  1.00  0.00     0.186 HD
ENDBRANCH   9  10
ENDBRANCH   3   9
BRANCH   1  17
HETATM   17  C4  UNL     1     -20.476  38.814 -29.030  1.00  0.00    -0.009 A 
HETATM   18  C3  UNL     1     -20.873  39.844 -28.169  1.00  0.00     0.013 A 
HETATM   19  C2  UNL     1     -20.572  41.164 -28.417  1.00  0.00     0.001 A 
HETATM   20  C1  UNL     1     -19.857  41.539 -29.533  1.00  0.00     0.000 A 
HETATM   21  C13 UNL     1     -19.453  40.543 -30.395  1.00  0.00     0.001 A 
HETATM   22  C12 UNL     1     -19.764  39.201 -30.139  1.00  0.00     0.013 A 
ENDBRANCH   1  17
TORSDOF 3
ENDMDL
MODEL 5
REMARK VINA RESULT: -8.331742100      1.589      2.041
REMARK  3 active torsions:
REMARK  status: ('A' for Active; 'I' for Inactive)
REMARK    1  A    between atoms: C4_4  and  C5_5 
REMARK    2  A    between atoms: C7_7  and  O1_8 
REMARK    3  A    between atoms: O1_8  and  C8_9 
ROOT
HETATM    1  C5  UNL     1     -17.645  35.020 -30.341  1.00  0.00     0.047 A 
HETATM    2  C6  UNL     1     -18.779  35.523 -29.769  1.00  0.00     0.086 A 
HETATM    3  C7  UNL     1     -19.379  36.680 -30.257  1.00  0.00     0.151 A 
HETATM    4  N3  UNL     1     -18.801  37.278 -31.305  1.00  0.00    -0.333 N 
ATOM      5  H3  UNL     1     -19.223  38.127 -31.678  1.00  0.00     0.168 HD
HETATM    6  C11 UNL     1     -17.690  36.804 -31.882  1.00  0.00     0.182 A 
HETATM    7  N4  UNL     1     -17.130  35.683 -31.390  1.00  0.00    -0.352 N 
ATOM      8  H4  UNL     1     -16.283  35.322 -31.830  1.00  0.00     0.166 HD
ENDROOT
BRANCH   3   9
HETATM    9  O1  UNL     1     -20.515  37.180 -29.681  1.00  0.00    -0.291 OA
BRANCH   9  10
HETATM   10  C8  UNL     1     -21.367  36.610 -28.784  1.00  0.00     0.111 A 
HETATM   11  C9  UNL     1     -21.323  35.267 -28.363  1.00  0.00     0.145 A 
HETATM   12  N1  UNL     1     -22.310  35.079 -27.486  1.00  0.00    -0.309 N 
HETATM   13  N2  UNL     1     -22.995  36.165 -27.290  1.00  0.00    -0.309 N 
ATOM     14  H1  UNL     1     -22.503  34.191 -27.024  1.00  0.00     0.186 HD
HETATM   15  C10 UNL     1     -22.428  37.126 -28.085  1.00  0.00     0.145 A 
ATOM     16  H2  UNL     1     -23.795  36.280 -26.669  1.00  0.00     0.186 HD
ENDBRANCH   9  10
ENDBRANCH   3   9
BRANCH   1  17
HETATM   17  C4  UNL     1     -17.006  33.813 -29.845  1.00  0.00    -0.009 A 
HETATM   18  C3  UNL     1     -17.762  32.641 -29.718  1.00  0.00     0.013 A 
HETATM   19  C2  UNL     1     -17.219  31.464 -29.255  1.00  0.00     0.001 A 
HETATM   20  C1  UNL     1     -15.892  31.381 -28.892  1.00  0.00     0.000 A 
HETATM   21  C13 UNL     1     -15.127  32.521 -29.009  1.00  0.00     0.001 A 
HETATM   22  C12 UNL     1     -15.685  33.717 -29.480  1.00  0.00     0.013 A 
ENDBRANCH   1  17
TORSDOF 3
ENDMDL
