MODEL 1
REMARK VINA RESULT: -7.530951520      0.000      0.000
REMARK  3 active torsions:
REMARK  status: ('A' for Active; 'I' for Inactive)
REMARK    1  A    between atoms: C5_7  and  C6_8 
REMARK    2  A    between atoms: C6_8  and  S1_9 
REMARK    3  A    between atoms: S1_9  and  C7_10 
ROOT
HETATM    1  N1  UNL     1     -23.178  35.345 -27.557  1.00  0.00    -0.195 NA
HETATM    2  C1  UNL     1     -22.110  35.582 -27.934  1.00  0.00     0.095 C 
HETATM    3  C2  UNL     1     -20.749  35.886 -28.443  1.00  0.00     0.315 C 
HETATM    4  C3  UNL     1     -20.825  37.083 -29.322  1.00  0.00     0.215 C 
HETATM    5  O1  UNL     1     -19.827  37.182 -30.256  1.00  0.00    -0.386 OA
HETATM    6  C4  UNL     1     -19.599  36.015 -30.969  1.00  0.00     0.201 C 
HETATM    7  C5  UNL     1     -19.183  34.944 -30.008  1.00  0.00     0.220 C 
HETATM    8  N2  UNL     1     -20.316  34.683 -29.128  1.00  0.00    -0.049 N 
ATOM      9  H21 UNL     1     -21.087  34.245 -29.633  1.00  0.00     0.279 HD
ATOM     10  H22 UNL     1     -20.111  33.932 -28.470  1.00  0.00     0.279 HD
ENDROOT
BRANCH   7  11
HETATM   11  C6  UNL     1     -18.873  33.632 -30.679  1.00  0.00     0.114 C 
BRANCH  11  12
HETATM   12  S1  UNL     1     -18.350  32.332 -29.576  1.00  0.00    -0.128 SA
BRANCH  12  13
HETATM   13  C7  UNL     1     -16.605  32.396 -29.199  1.00  0.00     0.000 A 
HETATM   14  C8  UNL     1     -15.918  31.273 -28.784  1.00  0.00     0.018 A 
HETATM   15  C9  UNL     1     -14.559  31.310 -28.488  1.00  0.00     0.001 A 
HETATM   16  C10 UNL     1     -13.850  32.492 -28.604  1.00  0.00     0.000 A 
HETATM   17  C11 UNL     1     -14.546  33.606 -29.019  1.00  0.00     0.001 A 
HETATM   18  C12 UNL     1     -15.894  33.580 -29.315  1.00  0.00     0.018 A 
ENDBRANCH  12  13
ENDBRANCH  11  12
ENDBRANCH   7  11
TORSDOF 3
ENDMDL
MODEL 2
REMARK VINA RESULT: -7.504481222      0.043      1.181
REMARK  3 active torsions:
REMARK  status: ('A' for Active; 'I' for Inactive)
REMARK    1  A    between atoms: C5_7  and  C6_8 
REMARK    2  A    between atoms: C6_8  and  S1_9 
REMARK    3  A    between atoms: S1_9  and  C7_10 
ROOT
HETATM    1  N1  UNL     1     -23.185  35.339 -27.562  1.00  0.00    -0.195 NA
HETATM    2  C1  UNL     1     -22.116  35.584 -27.931  1.00  0.00     0.095 C 
HETATM    3  C2  UNL     1     -20.754  35.899 -28.430  1.00  0.00     0.315 C 
HETATM    4  C3  UNL     1     -20.829  37.106 -29.296  1.00  0.00     0.215 C 
HETATM    5  O1  UNL     1     -19.827  37.219 -30.223  1.00  0.00    -0.386 OA
HETATM    6  C4  UNL     1     -19.591  36.060 -30.947  1.00  0.00     0.201 C 
HETATM    7  C5  UNL     1     -19.176  34.981 -29.996  1.00  0.00     0.220 C 
HETATM    8  N2  UNL     1     -20.312  34.706 -29.126  1.00  0.00    -0.049 N 
ATOM      9  H21 UNL     1     -21.078  34.270 -29.639  1.00  0.00     0.279 HD
ATOM     10  H22 UNL     1     -20.107  33.949 -28.474  1.00  0.00     0.279 HD
ENDROOT
BRANCH   7  11
HETATM   11  C6  UNL     1     -18.857  33.678 -30.680  1.00  0.00     0.114 C 
BRANCH  11  12
HETATM   12  S1  UNL     1     -18.359  32.360 -29.586  1.00  0.00    -0.128 SA
BRANCH  12  13
HETATM   13  C7  UNL     1     -16.613  32.384 -29.213  1.00  0.00     0.000 A 
HETATM   14  C8  UNL     1     -15.873  33.546 -29.311  1.00  0.00     0.018 A 
HETATM   15  C9  UNL     1     -14.513  33.578 -29.024  1.00  0.00     0.001 A 
HETATM   16  C10 UNL     1     -13.855  32.428 -28.626  1.00  0.00     0.000 A 
HETATM   17  C11 UNL     1     -14.602  31.275 -28.530  1.00  0.00     0.001 A 
HETATM   18  C12 UNL     1     -15.954  31.233 -28.814  1.00  0.00     0.018 A 
ENDBRANCH  12  13
ENDBRANCH  11  12
ENDBRANCH   7  11
TORSDOF 3
ENDMDL
MODEL 3
REMARK VINA RESULT: -7.399554071      2.026      2.969
REMARK  3 active torsions:
REMARK  status: ('A' for Active; 'I' for Inactive)
REMARK    1  A    between atoms: C5_7  and  C6_8 
REMARK    2  A    between atoms: C6_8  and  S1_9 
REMARK    3  A    between atoms: S1_9  and  C7_10 
ROOT
HETATM    1  N1  UNL     1     -16.862  37.702 -32.304  1.00  0.00    -0.195 NA
HETATM    2  C1  UNL     1     -17.867  37.183 -32.058  1.00  0.00     0.095 C 
HETATM    3  C2  UNL     1     -19.146  36.510 -31.720  1.00  0.00     0.315 C 
HETATM    4  C3  UNL     1     -19.618  37.015 -30.404  1.00  0.00     0.215 C 
HETATM    5  O1  UNL     1     -20.447  36.166 -29.719  1.00  0.00    -0.386 OA
HETATM    6  C4  UNL     1     -19.990  34.858 -29.652  1.00  0.00     0.201 C 
HETATM    7  C5  UNL     1     -19.881  34.321 -31.045  1.00  0.00     0.220 C 
HETATM    8  N2  UNL     1     -18.849  35.090 -31.730  1.00  0.00    -0.049 N 
ATOM      9  H21 UNL     1     -17.925  34.901 -31.344  1.00  0.00     0.279 HD
ATOM     10  H22 UNL     1     -18.698  34.748 -32.679  1.00  0.00     0.279 HD
ENDROOT
BRANCH   7  11
HETATM   11  C6  UNL     1     -19.425  32.886 -31.095  1.00  0.00     0.114 C 
BRANCH  11  12
HETATM   12  S1  UNL     1     -18.859  32.226 -29.538  1.00  0.00    -0.128 SA
BRANCH  12  13
HETATM   13  C7  UNL     1     -17.093  32.377 -29.317  1.00  0.00     0.000 A 
HETATM   14  C8  UNL     1     -16.298  31.268 -29.104  1.00  0.00     0.018 A 
HETATM   15  C9  UNL     1     -14.922  31.372 -28.930  1.00  0.00     0.001 A 
HETATM   16  C10 UNL     1     -14.304  32.609 -28.968  1.00  0.00     0.000 A 
HETATM   17  C11 UNL     1     -15.106  33.708 -29.183  1.00  0.00     0.001 A 
HETATM   18  C12 UNL     1     -16.473  33.615 -29.355  1.00  0.00     0.018 A 
ENDBRANCH  12  13
ENDBRANCH  11  12
ENDBRANCH   7  11
TORSDOF 3
ENDMDL
MODEL 4
REMARK VINA RESULT: -7.021766016      0.991      1.077
REMARK  3 active torsions:
REMARK  status: ('A' for Active; 'I' for Inactive)
REMARK    1  A    between atoms: C5_7  and  C6_8 
REMARK    2  A    between atoms: C6_8  and  S1_9 
REMARK    3  A    between atoms: S1_9  and  C7_10 
ROOT
HETATM    1  N1  UNL     1     -22.515  35.157 -27.764  1.00  0.00    -0.195 NA
HETATM    2  C1  UNL     1     -21.499  35.554 -28.150  1.00  0.00     0.095 C 
HETATM    3  C2  UNL     1     -20.203  36.057 -28.671  1.00  0.00     0.315 C 
HETATM    4  C3  UNL     1     -20.472  37.028 -29.765  1.00  0.00     0.215 C 
HETATM    5  O1  UNL     1     -19.456  37.176 -30.673  1.00  0.00    -0.386 OA
HETATM    6  C4  UNL     1     -18.935  35.979 -31.141  1.00  0.00     0.201 C 
HETATM    7  C5  UNL     1     -18.367  35.221 -29.981  1.00  0.00     0.220 C 
HETATM    8  N2  UNL     1     -19.476  34.878 -29.100  1.00  0.00    -0.049 N 
ATOM      9  H21 UNL     1     -20.098  34.194 -29.531  1.00  0.00     0.279 HD
ATOM     10  H22 UNL     1     -19.161  34.324 -28.303  1.00  0.00     0.279 HD
ENDROOT
BRANCH   7  11
HETATM   11  C6  UNL     1     -17.737  33.912 -30.378  1.00  0.00     0.114 C 
BRANCH  11  12
HETATM   12  S1  UNL     1     -17.441  32.783 -29.030  1.00  0.00    -0.128 SA
BRANCH  12  13
HETATM   13  C7  UNL     1     -15.719  32.686 -28.566  1.00  0.00     0.000 A 
HETATM   14  C8  UNL     1     -15.329  32.125 -27.367  1.00  0.00     0.018 A 
HETATM   15  C9  UNL     1     -13.991  32.043 -26.994  1.00  0.00     0.001 A 
HETATM   16  C10 UNL     1     -13.002  32.529 -27.830  1.00  0.00     0.000 A 
HETATM   17  C11 UNL     1     -13.402  33.086 -29.024  1.00  0.00     0.001 A 
HETATM   18  C12 UNL     1     -14.728  33.172 -29.403  1.00  0.00     0.018 A 
ENDBRANCH  12  13
ENDBRANCH  11  12
ENDBRANCH   7  11
TORSDOF 3
ENDMDL
MODEL 5
REMARK VINA RESULT: -7.020474886      0.969      1.414
REMARK  3 active torsions:
REMARK  status: ('A' for Active; 'I' for Inactive)
REMARK    1  A    between atoms: C5_7  and  C6_8 
REMARK    2  A    between atoms: C6_8  and  S1_9 
REMARK    3  A    between atoms: S1_9  and  C7_10 
ROOT
HETATM    1  N1  UNL     1     -22.523  35.116 -27.761  1.00  0.00    -0.195 NA
HETATM    2  C1  UNL     1     -21.507  35.510 -28.153  1.00  0.00     0.095 C 
HETATM    3  C2  UNL     1     -20.213  36.010 -28.681  1.00  0.00     0.315 C 
HETATM    4  C3  UNL     1     -20.486  36.982 -29.772  1.00  0.00     0.215 C 
HETATM    5  O1  UNL     1     -19.475  37.128 -30.686  1.00  0.00    -0.386 OA
HETATM    6  C4  UNL     1     -18.960  35.931 -31.159  1.00  0.00     0.201 C 
HETATM    7  C5  UNL     1     -18.388  35.170 -30.004  1.00  0.00     0.220 C 
HETATM    8  N2  UNL     1     -19.492  34.829 -29.115  1.00  0.00    -0.049 N 
ATOM      9  H21 UNL     1     -20.119  34.147 -29.544  1.00  0.00     0.279 HD
ATOM     10  H22 UNL     1     -19.174  34.273 -28.322  1.00  0.00     0.279 HD
ENDROOT
BRANCH   7  11
HETATM   11  C6  UNL     1     -17.764  33.859 -30.406  1.00  0.00     0.114 C 
BRANCH  11  12
HETATM   12  S1  UNL     1     -17.449  32.734 -29.059  1.00  0.00    -0.128 SA
BRANCH  12  13
HETATM   13  C7  UNL     1     -15.725  32.662 -28.599  1.00  0.00     0.000 A 
HETATM   14  C8  UNL     1     -14.740  33.174 -29.420  1.00  0.00     0.018 A 
HETATM   15  C9  UNL     1     -13.394  33.124 -29.074  1.00  0.00     0.001 A 
HETATM   16  C10 UNL     1     -13.001  32.551 -27.878  1.00  0.00     0.000 A 
HETATM   17  C11 UNL     1     -13.991  32.044 -27.066  1.00  0.00     0.001 A 
HETATM   18  C12 UNL     1     -15.330  32.089 -27.401  1.00  0.00     0.018 A 
ENDBRANCH  12  13
ENDBRANCH  11  12
ENDBRANCH   7  11
TORSDOF 3
ENDMDL
