MODEL 1
REMARK VINA RESULT: -8.765948375      0.000      0.000
REMARK  3 active torsions:
REMARK  status: ('A' for Active; 'I' for Inactive)
REMARK    1  A    between atoms: C4_5  and  C5_6 
REMARK    2  A    between atoms: C5_6  and  N2_7 
REMARK    3  A    between atoms: C8_12  and  C9_13 
ROOT
HETATM    1  N2  UNL     1     -20.020  34.971 -29.566  1.00  0.00    -0.288 N 
HETATM    2  N3  UNL     1     -20.990  34.925 -28.630  1.00  0.00    -0.309 N 
ATOM      3  H3  UNL     1     -21.343  34.069 -28.202  1.00  0.00     0.186 HD
HETATM    4  C6  UNL     1     -21.414  36.123 -28.348  1.00  0.00     0.109 A 
HETATM    5  C7  UNL     1     -20.702  36.999 -29.121  1.00  0.00     0.050 A 
HETATM    6  C8  UNL     1     -19.812  36.224 -29.892  1.00  0.00     0.062 A 
ENDROOT
BRANCH   1   7
HETATM    7  C5  UNL     1     -19.445  33.743 -30.047  1.00  0.00     0.187 C 
BRANCH   7   8
HETATM    8  C4  UNL     1     -18.218  33.322 -29.331  1.00  0.00    -0.038 A 
HETATM    9  C3  UNL     1     -17.553  34.129 -28.469  1.00  0.00     0.011 A 
HETATM   10  C2  UNL     1     -16.407  33.700 -27.833  1.00  0.00     0.027 A 
HETATM   11  C1  UNL     1     -15.927  32.431 -28.076  1.00  0.00     0.046 A 
HETATM   12  N1  UNL     1     -14.749  32.018 -27.410  1.00  0.00    -0.102 NA
HETATM   13  C15 UNL     1     -16.607  31.609 -28.956  1.00  0.00     0.027 A 
HETATM   14  C14 UNL     1     -17.738  32.043 -29.579  1.00  0.00     0.011 A 
ENDBRANCH   7   8
ENDBRANCH   1   7
BRANCH   6  15
HETATM   15  C9  UNL     1     -18.890  36.866 -30.842  1.00  0.00    -0.005 A 
HETATM   16  C10 UNL     1     -17.722  36.358 -31.317  1.00  0.00     0.030 A 
HETATM   17  C11 UNL     1     -16.896  37.036 -32.245  1.00  0.00     0.088 A 
HETATM   18  N4  UNL     1     -17.260  38.228 -32.684  1.00  0.00    -0.375 N 
HETATM   19  C12 UNL     1     -18.395  38.775 -32.253  1.00  0.00     0.088 A 
ATOM     20  H4  UNL     1     -16.673  38.727 -33.352  1.00  0.00     0.164 HD
HETATM   21  C13 UNL     1     -19.210  38.125 -31.349  1.00  0.00     0.030 A 
ENDBRANCH   6  15
TORSDOF 3
ENDMDL
MODEL 2
REMARK VINA RESULT: -8.699703296      1.641      5.968
REMARK  3 active torsions:
REMARK  status: ('A' for Active; 'I' for Inactive)
REMARK    1  A    between atoms: C4_5  and  C5_6 
REMARK    2  A    between atoms: C5_6  and  N2_7 
REMARK    3  A    between atoms: C8_12  and  C9_13 
ROOT
HETATM    1  N2  UNL     1     -18.187  32.833 -29.062  1.00  0.00    -0.288 N 
HETATM    2  N3  UNL     1     -19.220  32.160 -29.610  1.00  0.00    -0.309 N 
ATOM      3  H3  UNL     1     -20.156  32.542 -29.744  1.00  0.00     0.186 HD
HETATM    4  C6  UNL     1     -18.858  30.955 -29.944  1.00  0.00     0.109 A 
HETATM    5  C7  UNL     1     -17.537  30.820 -29.609  1.00  0.00     0.050 A 
HETATM    6  C8  UNL     1     -17.137  32.048 -29.045  1.00  0.00     0.062 A 
ENDROOT
BRANCH   1   7
HETATM    7  C5  UNL     1     -18.394  34.175 -28.586  1.00  0.00     0.187 C 
BRANCH   7   8
HETATM    8  C4  UNL     1     -18.464  35.198 -29.655  1.00  0.00    -0.038 A 
HETATM    9  C3  UNL     1     -17.573  35.261 -30.676  1.00  0.00     0.011 A 
HETATM   10  C2  UNL     1     -17.669  36.239 -31.644  1.00  0.00     0.027 A 
HETATM   11  C1  UNL     1     -18.685  37.168 -31.576  1.00  0.00     0.046 A 
HETATM   12  N1  UNL     1     -18.757  38.159 -32.583  1.00  0.00    -0.102 NA
HETATM   13  C15 UNL     1     -19.592  37.102 -30.535  1.00  0.00     0.027 A 
HETATM   14  C14 UNL     1     -19.488  36.132 -29.584  1.00  0.00     0.011 A 
ENDBRANCH   7   8
ENDBRANCH   1   7
BRANCH   6  15
HETATM   15  C9  UNL     1     -15.757  32.240 -28.573  1.00  0.00    -0.005 A 
HETATM   16  C10 UNL     1     -15.215  31.767 -27.419  1.00  0.00     0.030 A 
HETATM   17  C11 UNL     1     -13.868  31.986 -27.044  1.00  0.00     0.088 A 
HETATM   18  N4  UNL     1     -13.080  32.685 -27.841  1.00  0.00    -0.375 N 
HETATM   19  C12 UNL     1     -13.558  33.172 -28.984  1.00  0.00     0.088 A 
ATOM     20  H4  UNL     1     -12.107  32.850 -27.581  1.00  0.00     0.164 HD
HETATM   21  C13 UNL     1     -14.868  32.968 -29.363  1.00  0.00     0.030 A 
ENDBRANCH   6  15
TORSDOF 3
ENDMDL
MODEL 3
REMARK VINA RESULT: -8.617061514      0.086      1.092
REMARK  3 active torsions:
REMARK  status: ('A' for Active; 'I' for Inactive)
REMARK    1  A    between atoms: C4_5  and  C5_6 
REMARK    2  A    between atoms: C5_6  and  N2_7 
REMARK    3  A    between atoms: C8_12  and  C9_13 
ROOT
HETATM    1  N2  UNL     1     -20.021  34.966 -29.594  1.00  0.00    -0.288 N 
HETATM    2  N3  UNL     1     -20.986  34.916 -28.653  1.00  0.00    -0.309 N 
ATOM      3  H3  UNL     1     -21.345  34.057 -28.234  1.00  0.00     0.186 HD
HETATM    4  C6  UNL     1     -21.398  36.114 -28.352  1.00  0.00     0.109 A 
HETATM    5  C7  UNL     1     -20.682  36.993 -29.118  1.00  0.00     0.050 A 
HETATM    6  C8  UNL     1     -19.804  36.221 -29.905  1.00  0.00     0.062 A 
ENDROOT
BRANCH   1   7
HETATM    7  C5  UNL     1     -19.461  33.739 -30.095  1.00  0.00     0.187 C 
BRANCH   7   8
HETATM    8  C4  UNL     1     -18.240  33.291 -29.384  1.00  0.00    -0.038 A 
HETATM    9  C3  UNL     1     -17.690  32.065 -29.563  1.00  0.00     0.011 A 
HETATM   10  C2  UNL     1     -16.559  31.685 -28.870  1.00  0.00     0.027 A 
HETATM   11  C1  UNL     1     -15.977  32.563 -27.981  1.00  0.00     0.046 A 
HETATM   12  N1  UNL     1     -14.818  32.146 -27.286  1.00  0.00    -0.102 NA
HETATM   13  C15 UNL     1     -16.540  33.813 -27.801  1.00  0.00     0.027 A 
HETATM   14  C14 UNL     1     -17.657  34.178 -28.490  1.00  0.00     0.011 A 
ENDBRANCH   7   8
ENDBRANCH   1   7
BRANCH   6  15
HETATM   15  C9  UNL     1     -18.882  36.867 -30.852  1.00  0.00    -0.005 A 
HETATM   16  C10 UNL     1     -17.710  36.364 -31.323  1.00  0.00     0.030 A 
HETATM   17  C11 UNL     1     -16.885  37.046 -32.249  1.00  0.00     0.088 A 
HETATM   18  N4  UNL     1     -17.252  38.236 -32.688  1.00  0.00    -0.375 N 
HETATM   19  C12 UNL     1     -18.391  38.779 -32.259  1.00  0.00     0.088 A 
ATOM     20  H4  UNL     1     -16.665  38.739 -33.354  1.00  0.00     0.164 HD
HETATM   21  C13 UNL     1     -19.205  38.126 -31.358  1.00  0.00     0.030 A 
ENDBRANCH   6  15
TORSDOF 3
ENDMDL
MODEL 4
REMARK VINA RESULT: -8.588200117      1.666      5.927
REMARK  3 active torsions:
REMARK  status: ('A' for Active; 'I' for Inactive)
REMARK    1  A    between atoms: C4_5  and  C5_6 
REMARK    2  A    between atoms: C5_6  and  N2_7 
REMARK    3  A    between atoms: C8_12  and  C9_13 
ROOT
HETATM    1  N2  UNL     1     -18.139  32.816 -29.026  1.00  0.00    -0.288 N 
HETATM    2  N3  UNL     1     -19.191  32.171 -29.572  1.00  0.00    -0.309 N 
ATOM      3  H3  UNL     1     -20.125  32.567 -29.674  1.00  0.00     0.186 HD
HETATM    4  C6  UNL     1     -18.850  30.973 -29.950  1.00  0.00     0.109 A 
HETATM    5  C7  UNL     1     -17.525  30.813 -29.647  1.00  0.00     0.050 A 
HETATM    6  C8  UNL     1     -17.099  32.018 -29.055  1.00  0.00     0.062 A 
ENDROOT
BRANCH   1   7
HETATM    7  C5  UNL     1     -18.320  34.145 -28.505  1.00  0.00     0.187 C 
BRANCH   7   8
HETATM    8  C4  UNL     1     -18.477  35.190 -29.543  1.00  0.00    -0.038 A 
HETATM    9  C3  UNL     1     -19.490  36.092 -29.535  1.00  0.00     0.011 A 
HETATM   10  C2  UNL     1     -19.604  37.041 -30.530  1.00  0.00     0.027 A 
HETATM   11  C1  UNL     1     -18.677  37.075 -31.550  1.00  0.00     0.046 A 
HETATM   12  N1  UNL     1     -18.821  38.059 -32.556  1.00  0.00    -0.102 NA
HETATM   13  C15 UNL     1     -17.646  36.155 -31.555  1.00  0.00     0.027 A 
HETATM   14  C14 UNL     1     -17.542  35.222 -30.569  1.00  0.00     0.011 A 
ENDBRANCH   7   8
ENDBRANCH   1   7
BRANCH   6  15
HETATM   15  C9  UNL     1     -15.706  32.182 -28.606  1.00  0.00    -0.005 A 
HETATM   16  C10 UNL     1     -15.138  31.641 -27.496  1.00  0.00     0.030 A 
HETATM   17  C11 UNL     1     -13.781  31.836 -27.142  1.00  0.00     0.088 A 
HETATM   18  N4  UNL     1     -13.011  32.579 -27.916  1.00  0.00    -0.375 N 
HETATM   19  C12 UNL     1     -13.515  33.133 -29.017  1.00  0.00     0.088 A 
ATOM     20  H4  UNL     1     -12.032  32.728 -27.671  1.00  0.00     0.164 HD
HETATM   21  C13 UNL     1     -14.835  32.953 -29.374  1.00  0.00     0.030 A 
ENDBRANCH   6  15
TORSDOF 3
ENDMDL
MODEL 5
REMARK VINA RESULT: -8.585900523      1.685      5.981
REMARK  3 active torsions:
REMARK  status: ('A' for Active; 'I' for Inactive)
REMARK    1  A    between atoms: C4_5  and  C5_6 
REMARK    2  A    between atoms: C5_6  and  N2_7 
REMARK    3  A    between atoms: C8_12  and  C9_13 
ROOT
HETATM    1  N2  UNL     1     -18.145  32.802 -29.042  1.00  0.00    -0.288 N 
HETATM    2  N3  UNL     1     -19.245  32.166 -29.498  1.00  0.00    -0.309 N 
ATOM      3  H3  UNL     1     -20.180  32.573 -29.526  1.00  0.00     0.186 HD
HETATM    4  C6  UNL     1     -18.948  30.963 -29.896  1.00  0.00     0.109 A 
HETATM    5  C7  UNL     1     -17.604  30.790 -29.700  1.00  0.00     0.050 A 
HETATM    6  C8  UNL     1     -17.119  31.994 -29.151  1.00  0.00     0.062 A 
ENDROOT
BRANCH   1   7
HETATM    7  C5  UNL     1     -18.270  34.136 -28.516  1.00  0.00     0.187 C 
BRANCH   7   8
HETATM    8  C4  UNL     1     -18.446  35.185 -29.547  1.00  0.00    -0.038 A 
HETATM    9  C3  UNL     1     -19.454  36.091 -29.513  1.00  0.00     0.011 A 
HETATM   10  C2  UNL     1     -19.587  37.043 -30.503  1.00  0.00     0.027 A 
HETATM   11  C1  UNL     1     -18.685  37.076 -31.544  1.00  0.00     0.046 A 
HETATM   12  N1  UNL     1     -18.848  38.063 -32.543  1.00  0.00    -0.102 NA
HETATM   13  C15 UNL     1     -17.658  36.150 -31.576  1.00  0.00     0.027 A 
HETATM   14  C14 UNL     1     -17.535  35.214 -30.595  1.00  0.00     0.011 A 
ENDBRANCH   7   8
ENDBRANCH   1   7
BRANCH   6  15
HETATM   15  C9  UNL     1     -15.693  32.144 -28.818  1.00  0.00    -0.005 A 
HETATM   16  C10 UNL     1     -14.808  33.005 -29.386  1.00  0.00     0.030 A 
HETATM   17  C11 UNL     1     -13.451  33.098 -28.996  1.00  0.00     0.088 A 
HETATM   18  N4  UNL     1     -13.000  32.315 -28.033  1.00  0.00    -0.375 N 
HETATM   19  C12 UNL     1     -13.823  31.452 -27.440  1.00  0.00     0.088 A 
ATOM     20  H4  UNL     1     -12.024  32.371 -27.743  1.00  0.00     0.164 HD
HETATM   21  C13 UNL     1     -15.148  31.350 -27.810  1.00  0.00     0.030 A 
ENDBRANCH   6  15
TORSDOF 3
ENDMDL
