MODEL 1
REMARK VINA RESULT: -7.595437233      0.000      0.000
REMARK  3 active torsions:
REMARK  status: ('A' for Active; 'I' for Inactive)
REMARK    1  A    between atoms: C4_4  and  O1_5 
REMARK    2  A    between atoms: O1_5  and  C5_6 
REMARK    3  A    between atoms: C8_13  and  C9_14 
ROOT
HETATM    1  C5  UNL     1     -18.037  36.115 -30.821  1.00  0.00     0.177 A 
HETATM    2  N1  UNL     1     -17.011  36.203 -31.664  1.00  0.00    -0.343 N 
ATOM      3  H1  UNL     1     -16.341  35.436 -31.716  1.00  0.00     0.167 HD
HETATM    4  C6  UNL     1     -16.839  37.278 -32.445  1.00  0.00     0.107 A 
HETATM    5  C7  UNL     1     -17.746  38.280 -32.356  1.00  0.00     0.105 A 
HETATM    6  N2  UNL     1     -18.790  38.199 -31.510  1.00  0.00    -0.360 N 
ATOM      7  H2  UNL     1     -19.453  38.973 -31.475  1.00  0.00     0.165 HD
HETATM    8  C8  UNL     1     -18.997  37.137 -30.706  1.00  0.00     0.106 A 
ENDROOT
BRANCH   1   9
HETATM    9  O1  UNL     1     -18.261  35.040 -30.031  1.00  0.00    -0.292 OA
BRANCH   9  10
HETATM   10  C4  UNL     1     -18.750  33.796 -30.344  1.00  0.00     0.077 A 
HETATM   11  C3  UNL     1     -18.387  32.722 -29.516  1.00  0.00     0.037 A 
HETATM   12  C2  UNL     1     -18.805  31.454 -29.712  1.00  0.00     0.003 A 
HETATM   13  C1  UNL     1     -19.638  31.167 -30.784  1.00  0.00     0.000 A 
HETATM   14  C14 UNL     1     -20.004  32.210 -31.612  1.00  0.00     0.003 A 
HETATM   15  C13 UNL     1     -19.568  33.491 -31.393  1.00  0.00     0.037 A 
ENDBRANCH   9  10
ENDBRANCH   1   9
BRANCH   8  16
HETATM   16  C9  UNL     1     -20.024  37.155 -29.723  1.00  0.00     0.036 C 
HETATM   17  C10 UNL     1     -20.471  38.432 -29.072  1.00  0.00     0.061 C 
HETATM   18  C11 UNL     1     -21.360  37.901 -27.977  1.00  0.00     0.026 C 
HETATM   19  C12 UNL     1     -21.670  36.480 -28.377  1.00  0.00     0.120 C 
HETATM   20  N3  UNL     1     -21.170  36.343 -29.760  1.00  0.00    -0.391 N 
ATOM     21  H3  UNL     1     -21.555  35.803 -30.536  1.00  0.00     0.159 HD
ENDBRANCH   8  16
TORSDOF 3
ENDMDL
MODEL 2
REMARK VINA RESULT: -7.575451490      1.211      1.911
REMARK  3 active torsions:
REMARK  status: ('A' for Active; 'I' for Inactive)
REMARK    1  A    between atoms: C4_4  and  O1_5 
REMARK    2  A    between atoms: O1_5  and  C5_6 
REMARK    3  A    between atoms: C8_13  and  C9_14 
ROOT
HETATM    1  C5  UNL     1     -18.354  35.694 -30.233  1.00  0.00     0.177 A 
HETATM    2  N1  UNL     1     -17.314  35.815 -31.055  1.00  0.00    -0.343 N 
ATOM      3  H1  UNL     1     -16.543  35.151 -30.985  1.00  0.00     0.167 HD
HETATM    4  C6  UNL     1     -17.258  36.790 -31.972  1.00  0.00     0.107 A 
HETATM    5  C7  UNL     1     -18.298  37.655 -32.045  1.00  0.00     0.105 A 
HETATM    6  N2  UNL     1     -19.357  37.539 -31.221  1.00  0.00    -0.360 N 
ATOM      7  H2  UNL     1     -20.121  38.208 -31.310  1.00  0.00     0.165 HD
HETATM    8  C8  UNL     1     -19.450  36.575 -30.284  1.00  0.00     0.106 A 
ENDROOT
BRANCH   1   9
HETATM    9  O1  UNL     1     -18.461  34.713 -29.308  1.00  0.00    -0.292 OA
BRANCH   9  10
HETATM   10  C4  UNL     1     -18.085  33.395 -29.366  1.00  0.00     0.077 A 
HETATM   11  C3  UNL     1     -19.031  32.461 -29.818  1.00  0.00     0.037 A 
HETATM   12  C2  UNL     1     -18.783  31.139 -29.926  1.00  0.00     0.003 A 
HETATM   13  C1  UNL     1     -17.534  30.648 -29.576  1.00  0.00     0.000 A 
HETATM   14  C14 UNL     1     -16.589  31.550 -29.126  1.00  0.00     0.003 A 
HETATM   15  C13 UNL     1     -16.863  32.889 -29.026  1.00  0.00     0.037 A 
ENDBRANCH   9  10
ENDBRANCH   1   9
BRANCH   8  16
HETATM   16  C9  UNL     1     -20.511  36.577 -29.338  1.00  0.00     0.036 C 
HETATM   17  C10 UNL     1     -21.027  35.306 -28.727  1.00  0.00     0.061 C 
HETATM   18  C11 UNL     1     -22.258  35.807 -28.016  1.00  0.00     0.026 C 
HETATM   19  C12 UNL     1     -22.076  37.301 -27.923  1.00  0.00     0.120 C 
HETATM   20  N3  UNL     1     -20.684  37.556 -28.344  1.00  0.00    -0.391 N 
ATOM     21  H3  UNL     1     -20.023  38.255 -28.004  1.00  0.00     0.159 HD
ENDBRANCH   8  16
TORSDOF 3
ENDMDL
MODEL 3
REMARK VINA RESULT: -7.540762124      1.755      2.494
REMARK  3 active torsions:
REMARK  status: ('A' for Active; 'I' for Inactive)
REMARK    1  A    between atoms: C4_4  and  O1_5 
REMARK    2  A    between atoms: O1_5  and  C5_6 
REMARK    3  A    between atoms: C8_13  and  C9_14 
ROOT
HETATM    1  C5  UNL     1     -18.274  35.392 -30.132  1.00  0.00     0.177 A 
HETATM    2  N1  UNL     1     -17.223  35.603 -30.921  1.00  0.00    -0.343 N 
ATOM      3  H1  UNL     1     -16.416  34.982 -30.854  1.00  0.00     0.167 HD
HETATM    4  C6  UNL     1     -17.202  36.613 -31.801  1.00  0.00     0.107 A 
HETATM    5  C7  UNL     1     -18.288  37.418 -31.871  1.00  0.00     0.105 A 
HETATM    6  N2  UNL     1     -19.358  37.211 -31.081  1.00  0.00    -0.360 N 
ATOM      7  H2  UNL     1     -20.158  37.838 -31.166  1.00  0.00     0.165 HD
HETATM    8  C8  UNL     1     -19.418  36.209 -30.181  1.00  0.00     0.106 A 
ENDROOT
BRANCH   1   9
HETATM    9  O1  UNL     1     -18.347  34.373 -29.246  1.00  0.00    -0.292 OA
BRANCH   9  10
HETATM   10  C4  UNL     1     -17.392  33.468 -28.855  1.00  0.00     0.077 A 
HETATM   11  C3  UNL     1     -17.415  32.194 -29.445  1.00  0.00     0.037 A 
HETATM   12  C2  UNL     1     -16.530  31.218 -29.151  1.00  0.00     0.003 A 
HETATM   13  C1  UNL     1     -15.533  31.460 -28.217  1.00  0.00     0.000 A 
HETATM   14  C14 UNL     1     -15.494  32.707 -27.624  1.00  0.00     0.003 A 
HETATM   15  C13 UNL     1     -16.403  33.682 -27.939  1.00  0.00     0.037 A 
ENDBRANCH   9  10
ENDBRANCH   1   9
BRANCH   8  16
HETATM   16  C9  UNL     1     -20.500  36.115 -29.264  1.00  0.00     0.036 C 
HETATM   17  C10 UNL     1     -21.542  37.192 -29.159  1.00  0.00     0.061 C 
HETATM   18  C11 UNL     1     -22.288  36.751 -27.926  1.00  0.00     0.026 C 
HETATM   19  C12 UNL     1     -21.903  35.306 -27.730  1.00  0.00     0.120 C 
HETATM   20  N3  UNL     1     -21.177  34.922 -28.957  1.00  0.00    -0.391 N 
ATOM     21  H3  UNL     1     -21.169  34.029 -29.451  1.00  0.00     0.159 HD
ENDBRANCH   8  16
TORSDOF 3
ENDMDL
MODEL 4
REMARK VINA RESULT: -7.504757007      1.194      1.679
REMARK  3 active torsions:
REMARK  status: ('A' for Active; 'I' for Inactive)
REMARK    1  A    between atoms: C4_4  and  O1_5 
REMARK    2  A    between atoms: O1_5  and  C5_6 
REMARK    3  A    between atoms: C8_13  and  C9_14 
ROOT
HETATM    1  C5  UNL     1     -18.359  35.711 -30.246  1.00  0.00     0.177 A 
HETATM    2  N1  UNL     1     -17.320  35.833 -31.069  1.00  0.00    -0.343 N 
ATOM      3  H1  UNL     1     -16.549  35.169 -31.000  1.00  0.00     0.167 HD
HETATM    4  C6  UNL     1     -17.265  36.809 -31.985  1.00  0.00     0.107 A 
HETATM    5  C7  UNL     1     -18.305  37.674 -32.056  1.00  0.00     0.105 A 
HETATM    6  N2  UNL     1     -19.362  37.557 -31.231  1.00  0.00    -0.360 N 
ATOM      7  H2  UNL     1     -20.127  38.227 -31.318  1.00  0.00     0.165 HD
HETATM    8  C8  UNL     1     -19.455  36.592 -30.294  1.00  0.00     0.106 A 
ENDROOT
BRANCH   1   9
HETATM    9  O1  UNL     1     -18.465  34.729 -29.322  1.00  0.00    -0.292 OA
BRANCH   9  10
HETATM   10  C4  UNL     1     -18.205  33.386 -29.422  1.00  0.00     0.077 A 
HETATM   11  C3  UNL     1     -16.931  32.934 -29.040  1.00  0.00     0.037 A 
HETATM   12  C2  UNL     1     -16.553  31.639 -29.086  1.00  0.00     0.003 A 
HETATM   13  C1  UNL     1     -17.451  30.681 -29.533  1.00  0.00     0.000 A 
HETATM   14  C14 UNL     1     -18.709  31.105 -29.915  1.00  0.00     0.003 A 
HETATM   15  C13 UNL     1     -19.071  32.426 -29.859  1.00  0.00     0.037 A 
ENDBRANCH   9  10
ENDBRANCH   1   9
BRANCH   8  16
HETATM   16  C9  UNL     1     -20.514  36.593 -29.347  1.00  0.00     0.036 C 
HETATM   17  C10 UNL     1     -21.033  35.321 -28.740  1.00  0.00     0.061 C 
HETATM   18  C11 UNL     1     -22.261  35.822 -28.026  1.00  0.00     0.026 C 
HETATM   19  C12 UNL     1     -22.077  37.316 -27.928  1.00  0.00     0.120 C 
HETATM   20  N3  UNL     1     -20.685  37.569 -28.350  1.00  0.00    -0.391 N 
ATOM     21  H3  UNL     1     -20.022  38.266 -28.008  1.00  0.00     0.159 HD
ENDBRANCH   8  16
TORSDOF 3
ENDMDL
MODEL 5
REMARK VINA RESULT: -7.387054026      2.845      4.838
REMARK  3 active torsions:
REMARK  status: ('A' for Active; 'I' for Inactive)
REMARK    1  A    between atoms: C4_4  and  O1_5 
REMARK    2  A    between atoms: O1_5  and  C5_6 
REMARK    3  A    between atoms: C8_13  and  C9_14 
ROOT
HETATM    1  C5  UNL     1     -18.154  33.155 -29.977  1.00  0.00     0.177 A 
HETATM    2  N1  UNL     1     -18.463  31.875 -29.786  1.00  0.00    -0.343 N 
ATOM      3  H1  UNL     1     -17.949  31.336 -29.089  1.00  0.00     0.167 HD
HETATM    4  C6  UNL     1     -19.435  31.278 -30.489  1.00  0.00     0.107 A 
HETATM    5  C7  UNL     1     -20.104  32.019 -31.405  1.00  0.00     0.105 A 
HETATM    6  N2  UNL     1     -19.802  33.316 -31.603  1.00  0.00    -0.360 N 
ATOM      7  H2  UNL     1     -20.331  33.840 -32.300  1.00  0.00     0.165 HD
HETATM    8  C8  UNL     1     -18.829  33.952 -30.919  1.00  0.00     0.106 A 
ENDROOT
BRANCH   1   9
HETATM    9  O1  UNL     1     -17.196  33.802 -29.276  1.00  0.00    -0.292 OA
BRANCH   9  10
HETATM   10  C4  UNL     1     -15.972  33.364 -28.833  1.00  0.00     0.077 A 
HETATM   11  C3  UNL     1     -15.918  32.717 -27.589  1.00  0.00     0.037 A 
HETATM   12  C2  UNL     1     -14.780  32.236 -27.046  1.00  0.00     0.003 A 
HETATM   13  C1  UNL     1     -13.583  32.377 -27.734  1.00  0.00     0.000 A 
HETATM   14  C14 UNL     1     -13.615  33.014 -28.959  1.00  0.00     0.003 A 
HETATM   15  C13 UNL     1     -14.783  33.493 -29.491  1.00  0.00     0.037 A 
ENDBRANCH   9  10
ENDBRANCH   1   9
BRANCH   8  16
HETATM   16  C9  UNL     1     -18.442  35.276 -31.263  1.00  0.00     0.036 C 
HETATM   17  C10 UNL     1     -19.243  36.470 -30.829  1.00  0.00     0.061 C 
HETATM   18  C11 UNL     1     -18.580  37.565 -31.625  1.00  0.00     0.026 C 
HETATM   19  C12 UNL     1     -17.255  36.989 -32.058  1.00  0.00     0.120 C 
HETATM   20  N3  UNL     1     -17.111  35.725 -31.308  1.00  0.00    -0.391 N 
ATOM     21  H3  UNL     1     -16.270  35.294 -30.924  1.00  0.00     0.159 HD
ENDBRANCH   8  16
TORSDOF 3
ENDMDL
