MODEL 1
REMARK VINA RESULT: -8.271641812      0.000      0.000
REMARK  4 active torsions:
REMARK  status: ('A' for Active; 'I' for Inactive)
REMARK    1  A    between atoms: N1_1  and  C1_5 
REMARK    2  A    between atoms: C5_10  and  O2_11 
REMARK    3  A    between atoms: O2_11  and  C6_12 
REMARK    4  A    between atoms: C6_12  and  C7_13 
ROOT
HETATM    1  C1  UNL     1     -16.157  32.625 -28.663  1.00  0.00     0.477 C 
HETATM    2  O1  UNL     1     -17.143  31.928 -29.442  1.00  0.00    -0.294 OA
HETATM    3  C2  UNL     1     -18.094  32.915 -29.722  1.00  0.00     0.107 A 
HETATM    4  C3  UNL     1     -19.025  33.103 -30.716  1.00  0.00     0.042 A 
HETATM    5  C4  UNL     1     -19.856  34.227 -30.718  1.00  0.00     0.039 A 
HETATM    6  C5  UNL     1     -19.788  35.186 -29.745  1.00  0.00     0.071 A 
HETATM    7  C13 UNL     1     -18.831  34.980 -28.731  1.00  0.00     0.076 A 
HETATM    8  C14 UNL     1     -18.013  33.873 -28.730  1.00  0.00     0.110 A 
HETATM    9  O3  UNL     1     -16.996  33.432 -27.859  1.00  0.00    -0.294 OA
ENDROOT
BRANCH   6  10
HETATM   10  O2  UNL     1     -20.577  36.298 -29.710  1.00  0.00    -0.347 OA
BRANCH  10  11
HETATM   11  C6  UNL     1     -20.674  37.153 -28.619  1.00  0.00     0.214 C 
BRANCH  11  12
HETATM   12  C7  UNL     1     -20.455  38.561 -28.966  1.00  0.00    -0.034 A 
HETATM   13  C8  UNL     1     -20.920  39.585 -28.172  1.00  0.00     0.009 A 
HETATM   14  C9  UNL     1     -20.706  40.904 -28.482  1.00  0.00     0.001 A 
HETATM   15  C10 UNL     1     -20.007  41.208 -29.621  1.00  0.00     0.000 A 
HETATM   16  C11 UNL     1     -19.530  40.207 -30.436  1.00  0.00     0.001 A 
HETATM   17  C12 UNL     1     -19.758  38.889 -30.103  1.00  0.00     0.009 A 
ENDBRANCH  11  12
ENDBRANCH  10  11
ENDBRANCH   6  10
BRANCH   1  18
HETATM   18  N1  UNL     1     -15.460  33.508 -29.571  1.00  0.00    -0.028 N 
ATOM     19  H13 UNL     1     -14.850  33.014 -30.223  1.00  0.00     0.280 HD
ATOM     20  H12 UNL     1     -16.071  33.935 -30.267  1.00  0.00     0.280 HD
ATOM     21  H11 UNL     1     -14.967  34.190 -28.996  1.00  0.00     0.280 HD
ENDBRANCH   1  18
TORSDOF 4
ENDMDL
MODEL 2
REMARK VINA RESULT: -7.816392036      1.361      1.827
REMARK  4 active torsions:
REMARK  status: ('A' for Active; 'I' for Inactive)
REMARK    1  A    between atoms: N1_1  and  C1_5 
REMARK    2  A    between atoms: C5_10  and  O2_11 
REMARK    3  A    between atoms: O2_11  and  C6_12 
REMARK    4  A    between atoms: C6_12  and  C7_13 
ROOT
HETATM    1  C1  UNL     1     -18.373  31.662 -29.270  1.00  0.00     0.477 C 
HETATM    2  O1  UNL     1     -19.051  31.684 -30.537  1.00  0.00    -0.294 OA
HETATM    3  C2  UNL     1     -19.288  33.045 -30.756  1.00  0.00     0.107 A 
HETATM    4  C3  UNL     1     -19.477  33.824 -31.874  1.00  0.00     0.042 A 
HETATM    5  C4  UNL     1     -19.698  35.200 -31.761  1.00  0.00     0.039 A 
HETATM    6  C5  UNL     1     -19.738  35.836 -30.551  1.00  0.00     0.071 A 
HETATM    7  C13 UNL     1     -19.544  35.026 -29.413  1.00  0.00     0.076 A 
HETATM    8  C14 UNL     1     -19.326  33.671 -29.525  1.00  0.00     0.110 A 
HETATM    9  O3  UNL     1     -19.107  32.653 -28.575  1.00  0.00    -0.294 OA
ENDROOT
BRANCH   6  10
HETATM   10  O2  UNL     1     -19.948  37.174 -30.396  1.00  0.00    -0.347 OA
BRANCH  10  11
HETATM   11  C6  UNL     1     -20.402  37.763 -29.222  1.00  0.00     0.214 C 
BRANCH  11  12
HETATM   12  C7  UNL     1     -20.263  39.223 -29.216  1.00  0.00    -0.034 A 
HETATM   13  C8  UNL     1     -19.576  39.892 -30.203  1.00  0.00     0.009 A 
HETATM   14  C9  UNL     1     -19.456  41.259 -30.213  1.00  0.00     0.001 A 
HETATM   15  C10 UNL     1     -20.039  41.978 -29.202  1.00  0.00     0.000 A 
HETATM   16  C11 UNL     1     -20.733  41.339 -28.200  1.00  0.00     0.001 A 
HETATM   17  C12 UNL     1     -20.840  39.965 -28.213  1.00  0.00     0.009 A 
ENDBRANCH  11  12
ENDBRANCH  10  11
ENDBRANCH   6  10
BRANCH   1  18
HETATM   18  N1  UNL     1     -17.049  32.196 -29.499  1.00  0.00    -0.028 N 
ATOM     19  H13 UNL     1     -16.801  32.946 -28.854  1.00  0.00     0.280 HD
ATOM     20  H12 UNL     1     -16.304  31.551 -29.237  1.00  0.00     0.280 HD
ATOM     21  H11 UNL     1     -17.012  32.478 -30.478  1.00  0.00     0.280 HD
ENDBRANCH   1  18
TORSDOF 4
ENDMDL
MODEL 3
REMARK VINA RESULT: -7.810786394      1.363      1.469
REMARK  4 active torsions:
REMARK  status: ('A' for Active; 'I' for Inactive)
REMARK    1  A    between atoms: N1_1  and  C1_5 
REMARK    2  A    between atoms: C5_10  and  O2_11 
REMARK    3  A    between atoms: O2_11  and  C6_12 
REMARK    4  A    between atoms: C6_12  and  C7_13 
ROOT
HETATM    1  C1  UNL     1     -18.382  31.693 -29.271  1.00  0.00     0.477 C 
HETATM    2  O1  UNL     1     -19.056  31.719 -30.540  1.00  0.00    -0.294 OA
HETATM    3  C2  UNL     1     -19.289  33.081 -30.757  1.00  0.00     0.107 A 
HETATM    4  C3  UNL     1     -19.473  33.863 -31.874  1.00  0.00     0.042 A 
HETATM    5  C4  UNL     1     -19.690  35.239 -31.759  1.00  0.00     0.039 A 
HETATM    6  C5  UNL     1     -19.731  35.872 -30.547  1.00  0.00     0.071 A 
HETATM    7  C13 UNL     1     -19.542  35.060 -29.411  1.00  0.00     0.076 A 
HETATM    8  C14 UNL     1     -19.327  33.705 -29.525  1.00  0.00     0.110 A 
HETATM    9  O3  UNL     1     -19.114  32.684 -28.576  1.00  0.00    -0.294 OA
ENDROOT
BRANCH   6  10
HETATM   10  O2  UNL     1     -19.938  37.211 -30.391  1.00  0.00    -0.347 OA
BRANCH  10  11
HETATM   11  C6  UNL     1     -20.404  37.798 -29.220  1.00  0.00     0.214 C 
BRANCH  11  12
HETATM   12  C7  UNL     1     -20.273  39.259 -29.213  1.00  0.00    -0.034 A 
HETATM   13  C8  UNL     1     -20.826  40.032 -28.218  1.00  0.00     0.009 A 
HETATM   14  C9  UNL     1     -20.694  41.398 -28.196  1.00  0.00     0.001 A 
HETATM   15  C10 UNL     1     -19.990  42.008 -29.201  1.00  0.00     0.000 A 
HETATM   16  C11 UNL     1     -19.426  41.262 -30.210  1.00  0.00     0.001 A 
HETATM   17  C12 UNL     1     -19.572  39.892 -30.210  1.00  0.00     0.009 A 
ENDBRANCH  11  12
ENDBRANCH  10  11
ENDBRANCH   6  10
BRANCH   1  18
HETATM   18  N1  UNL     1     -17.055  32.223 -29.496  1.00  0.00    -0.028 N 
ATOM     19  H13 UNL     1     -16.548  32.417 -28.633  1.00  0.00     0.280 HD
ATOM     20  H12 UNL     1     -16.405  31.535 -29.875  1.00  0.00     0.280 HD
ATOM     21  H11 UNL     1     -17.165  33.043 -30.091  1.00  0.00     0.280 HD
ENDBRANCH   1  18
TORSDOF 4
ENDMDL
MODEL 4
REMARK VINA RESULT: -7.807890596      1.834      2.945
REMARK  4 active torsions:
REMARK  status: ('A' for Active; 'I' for Inactive)
REMARK    1  A    between atoms: N1_1  and  C1_5 
REMARK    2  A    between atoms: C5_10  and  O2_11 
REMARK    3  A    between atoms: O2_11  and  C6_12 
REMARK    4  A    between atoms: C6_12  and  C7_13 
ROOT
HETATM    1  C1  UNL     1     -14.139  32.627 -28.461  1.00  0.00     0.477 C 
HETATM    2  O1  UNL     1     -14.802  31.353 -28.454  1.00  0.00    -0.294 OA
HETATM    3  C2  UNL     1     -16.113  31.665 -28.826  1.00  0.00     0.107 A 
HETATM    4  C3  UNL     1     -17.139  30.970 -29.425  1.00  0.00     0.042 A 
HETATM    5  C4  UNL     1     -18.371  31.580 -29.672  1.00  0.00     0.039 A 
HETATM    6  C5  UNL     1     -18.621  32.882 -29.337  1.00  0.00     0.071 A 
HETATM    7  C13 UNL     1     -17.563  33.583 -28.724  1.00  0.00     0.076 A 
HETATM    8  C14 UNL     1     -16.348  32.981 -28.481  1.00  0.00     0.110 A 
HETATM    9  O3  UNL     1     -15.150  33.440 -27.896  1.00  0.00    -0.294 OA
ENDROOT
BRANCH   6  10
HETATM   10  O2  UNL     1     -19.807  33.517 -29.562  1.00  0.00    -0.347 OA
BRANCH  10  11
HETATM   11  C6  UNL     1     -19.942  34.675 -30.319  1.00  0.00     0.214 C 
BRANCH  11  12
HETATM   12  C7  UNL     1     -20.472  35.808 -29.553  1.00  0.00    -0.034 A 
HETATM   13  C8  UNL     1     -19.920  37.066 -29.642  1.00  0.00     0.009 A 
HETATM   14  C9  UNL     1     -20.420  38.134 -28.940  1.00  0.00     0.001 A 
HETATM   15  C10 UNL     1     -21.502  37.937 -28.123  1.00  0.00     0.000 A 
HETATM   16  C11 UNL     1     -22.076  36.691 -28.012  1.00  0.00     0.001 A 
HETATM   17  C12 UNL     1     -21.556  35.634 -28.727  1.00  0.00     0.009 A 
ENDBRANCH  11  12
ENDBRANCH  10  11
ENDBRANCH   6  10
BRANCH   1  18
HETATM   18  N1  UNL     1     -14.005  33.017 -29.847  1.00  0.00    -0.028 N 
ATOM     19  H13 UNL     1     -13.195  32.600 -30.305  1.00  0.00     0.280 HD
ATOM     20  H12 UNL     1     -14.718  32.609 -30.451  1.00  0.00     0.280 HD
ATOM     21  H11 UNL     1     -13.997  34.036 -29.865  1.00  0.00     0.280 HD
ENDBRANCH   1  18
TORSDOF 4
ENDMDL
MODEL 5
REMARK VINA RESULT: -7.784165238      1.838      2.836
REMARK  4 active torsions:
REMARK  status: ('A' for Active; 'I' for Inactive)
REMARK    1  A    between atoms: N1_1  and  C1_5 
REMARK    2  A    between atoms: C5_10  and  O2_11 
REMARK    3  A    between atoms: O2_11  and  C6_12 
REMARK    4  A    between atoms: C6_12  and  C7_13 
ROOT
HETATM    1  C1  UNL     1     -14.135  32.639 -28.443  1.00  0.00     0.477 C 
HETATM    2  O1  UNL     1     -14.804  31.368 -28.425  1.00  0.00    -0.294 OA
HETATM    3  C2  UNL     1     -16.117  31.684 -28.789  1.00  0.00     0.107 A 
HETATM    4  C3  UNL     1     -17.149  30.991 -29.377  1.00  0.00     0.042 A 
HETATM    5  C4  UNL     1     -18.381  31.606 -29.618  1.00  0.00     0.039 A 
HETATM    6  C5  UNL     1     -18.622  32.911 -29.286  1.00  0.00     0.071 A 
HETATM    7  C13 UNL     1     -17.557  33.610 -28.684  1.00  0.00     0.076 A 
HETATM    8  C14 UNL     1     -16.343  33.003 -28.448  1.00  0.00     0.110 A 
HETATM    9  O3  UNL     1     -15.138  33.459 -27.874  1.00  0.00    -0.294 OA
ENDROOT
BRANCH   6  10
HETATM   10  O2  UNL     1     -19.807  33.549 -29.505  1.00  0.00    -0.347 OA
BRANCH  10  11
HETATM   11  C6  UNL     1     -19.942  34.708 -30.261  1.00  0.00     0.214 C 
BRANCH  11  12
HETATM   12  C7  UNL     1     -20.513  35.828 -29.506  1.00  0.00    -0.034 A 
HETATM   13  C8  UNL     1     -21.609  35.670 -28.688  1.00  0.00     0.009 A 
HETATM   14  C9  UNL     1     -22.138  36.710 -27.967  1.00  0.00     0.001 A 
HETATM   15  C10 UNL     1     -21.555  37.946 -28.068  1.00  0.00     0.000 A 
HETATM   16  C11 UNL     1     -20.458  38.137 -28.878  1.00  0.00     0.001 A 
HETATM   17  C12 UNL     1     -19.944  37.076 -29.592  1.00  0.00     0.009 A 
ENDBRANCH  11  12
ENDBRANCH  10  11
ENDBRANCH   6  10
BRANCH   1  18
HETATM   18  N1  UNL     1     -14.010  33.022 -29.831  1.00  0.00    -0.028 N 
ATOM     19  H13 UNL     1     -13.161  33.553 -30.027  1.00  0.00     0.280 HD
ATOM     20  H12 UNL     1     -13.815  32.235 -30.450  1.00  0.00     0.280 HD
ATOM     21  H11 UNL     1     -14.864  33.524 -30.075  1.00  0.00     0.280 HD
ENDBRANCH   1  18
TORSDOF 4
ENDMDL
