MODEL 1
REMARK VINA RESULT: -8.116246570      0.000      0.000
REMARK  3 active torsions:
REMARK  status: ('A' for Active; 'I' for Inactive)
REMARK    1  A    between atoms: C4_4  and  C5_5 
REMARK    2  A    between atoms: C5_5  and  N1_6 
REMARK    3  A    between atoms: N1_6  and  C6_8 
ROOT
HETATM    1  C6  UNL     1     -19.308  34.988 -29.318  1.00  0.00     0.101 A 
HETATM    2  C7  UNL     1     -20.275  35.951 -29.063  1.00  0.00     0.049 A 
HETATM    3  C8  UNL     1     -20.239  37.141 -29.757  1.00  0.00     0.017 A 
HETATM    4  C9  UNL     1     -19.271  37.414 -30.702  1.00  0.00    -0.007 A 
HETATM    5  C10 UNL     1     -19.210  38.595 -31.411  1.00  0.00     0.030 A 
HETATM    6  C11 UNL     1     -18.210  38.814 -32.353  1.00  0.00     0.088 A 
HETATM    7  N2  UNL     1     -17.309  37.836 -32.546  1.00  0.00    -0.373 N 
ATOM      8  H2  UNL     1     -16.569  37.979 -33.234  1.00  0.00     0.164 HD
HETATM    9  C12 UNL     1     -17.348  36.665 -31.862  1.00  0.00     0.117 A 
HETATM   10  C13 UNL     1     -18.335  36.439 -30.926  1.00  0.00     0.059 A 
HETATM   11  N3  UNL     1     -18.379  35.281 -30.244  1.00  0.00    -0.341 N 
ATOM     12  H3  UNL     1     -17.662  34.582 -30.442  1.00  0.00     0.167 HD
ENDROOT
BRANCH   1  13
HETATM   13  N1  UNL     1     -19.297  33.721 -28.619  1.00  0.00    -0.371 N 
ATOM     14  H1  UNL     1     -19.744  33.608 -27.710  1.00  0.00     0.161 HD
BRANCH  13  15
HETATM   15  C5  UNL     1     -18.633  32.643 -29.262  1.00  0.00     0.178 C 
BRANCH  15  16
HETATM   16  C4  UNL     1     -17.279  32.336 -28.842  1.00  0.00     0.026 A 
HETATM   17  C3  UNL     1     -16.543  31.312 -29.371  1.00  0.00     0.027 A 
HETATM   18  C2  UNL     1     -15.241  31.057 -28.925  1.00  0.00     0.003 A 
HETATM   19  C1  UNL     1     -14.753  31.878 -27.945  1.00  0.00     0.017 A 
HETATM   20  C14 UNL     1     -15.485  32.912 -27.404  1.00  0.00     0.088 A 
HETATM   21  N4  UNL     1     -16.730  33.120 -27.862  1.00  0.00    -0.368 N 
ATOM     22  H4  UNL     1     -17.281  33.883 -27.470  1.00  0.00     0.165 HD
ENDBRANCH  15  16
ENDBRANCH  13  15
ENDBRANCH   1  13
TORSDOF 3
ENDMDL
MODEL 2
REMARK VINA RESULT: -8.088111469      2.466      6.475
REMARK  3 active torsions:
REMARK  status: ('A' for Active; 'I' for Inactive)
REMARK    1  A    between atoms: C4_4  and  C5_5 
REMARK    2  A    between atoms: C5_5  and  N1_6 
REMARK    3  A    between atoms: N1_6  and  C6_8 
ROOT
HETATM    1  C6  UNL     1     -17.271  33.281 -28.548  1.00  0.00     0.101 A 
HETATM    2  C7  UNL     1     -16.628  33.853 -29.638  1.00  0.00     0.049 A 
HETATM    3  C8  UNL     1     -15.254  33.789 -29.718  1.00  0.00     0.017 A 
HETATM    4  C9  UNL     1     -14.487  33.174 -28.749  1.00  0.00    -0.007 A 
HETATM    5  C10 UNL     1     -13.112  33.094 -28.803  1.00  0.00     0.030 A 
HETATM    6  C11 UNL     1     -12.391  32.461 -27.796  1.00  0.00     0.088 A 
HETATM    7  N2  UNL     1     -13.082  31.931 -26.773  1.00  0.00    -0.373 N 
ATOM      8  H2  UNL     1     -12.569  31.462 -26.025  1.00  0.00     0.164 HD
HETATM    9  C12 UNL     1     -14.434  31.995 -26.697  1.00  0.00     0.117 A 
HETATM   10  C13 UNL     1     -15.158  32.621 -27.690  1.00  0.00     0.059 A 
HETATM   11  N3  UNL     1     -16.499  32.689 -27.621  1.00  0.00    -0.341 N 
ATOM     12  H3  UNL     1     -16.958  32.265 -26.815  1.00  0.00     0.167 HD
ENDROOT
BRANCH   1  13
HETATM   13  N1  UNL     1     -18.711  33.319 -28.412  1.00  0.00    -0.371 N 
ATOM     14  H1  UNL     1     -19.186  32.880 -27.623  1.00  0.00     0.161 HD
BRANCH  13  15
HETATM   15  C5  UNL     1     -19.432  33.998 -29.430  1.00  0.00     0.178 C 
BRANCH  15  16
HETATM   16  C4  UNL     1     -20.183  35.181 -29.054  1.00  0.00     0.026 A 
HETATM   17  C3  UNL     1     -19.770  36.453 -29.338  1.00  0.00     0.027 A 
HETATM   18  C2  UNL     1     -20.533  37.560 -28.947  1.00  0.00     0.003 A 
HETATM   19  C1  UNL     1     -21.697  37.301 -28.275  1.00  0.00     0.017 A 
HETATM   20  C14 UNL     1     -22.122  36.023 -27.983  1.00  0.00     0.088 A 
HETATM   21  N4  UNL     1     -21.358  34.991 -28.377  1.00  0.00    -0.368 N 
ATOM     22  H4  UNL     1     -21.663  34.041 -28.167  1.00  0.00     0.165 HD
ENDBRANCH  15  16
ENDBRANCH  13  15
ENDBRANCH   1  13
TORSDOF 3
ENDMDL
MODEL 3
REMARK VINA RESULT: -8.006801370      2.048      6.687
REMARK  3 active torsions:
REMARK  status: ('A' for Active; 'I' for Inactive)
REMARK    1  A    between atoms: C4_4  and  C5_5 
REMARK    2  A    between atoms: C5_5  and  N1_6 
REMARK    3  A    between atoms: N1_6  and  C6_8 
ROOT
HETATM    1  C6  UNL     1     -19.552  35.055 -29.793  1.00  0.00     0.101 A 
HETATM    2  C7  UNL     1     -19.790  33.929 -30.569  1.00  0.00     0.049 A 
HETATM    3  C8  UNL     1     -18.981  32.824 -30.418  1.00  0.00     0.017 A 
HETATM    4  C9  UNL     1     -17.935  32.795 -29.517  1.00  0.00    -0.007 A 
HETATM    5  C10 UNL     1     -17.109  31.704 -29.344  1.00  0.00     0.030 A 
HETATM    6  C11 UNL     1     -16.070  31.732 -28.419  1.00  0.00     0.088 A 
HETATM    7  N2  UNL     1     -15.901  32.856 -27.704  1.00  0.00    -0.373 N 
ATOM      8  H2  UNL     1     -15.144  32.895 -27.021  1.00  0.00     0.164 HD
HETATM    9  C12 UNL     1     -16.700  33.942 -27.855  1.00  0.00     0.117 A 
HETATM   10  C13 UNL     1     -17.733  33.925 -28.769  1.00  0.00     0.059 A 
HETATM   11  N3  UNL     1     -18.528  34.997 -28.924  1.00  0.00    -0.341 N 
ATOM     12  H3  UNL     1     -18.342  35.818 -28.348  1.00  0.00     0.167 HD
ENDROOT
BRANCH   1  13
HETATM   13  N1  UNL     1     -20.370  36.243 -29.910  1.00  0.00    -0.371 N 
ATOM     14  H1  UNL     1     -20.878  36.460 -30.768  1.00  0.00     0.161 HD
BRANCH  13  15
HETATM   15  C5  UNL     1     -20.430  37.092 -28.774  1.00  0.00     0.178 C 
BRANCH  15  16
HETATM   16  C4  UNL     1     -20.353  38.524 -28.994  1.00  0.00     0.026 A 
HETATM   17  C3  UNL     1     -20.872  39.444 -28.126  1.00  0.00     0.027 A 
HETATM   18  C2  UNL     1     -20.774  40.816 -28.391  1.00  0.00     0.003 A 
HETATM   19  C1  UNL     1     -20.138  41.178 -29.547  1.00  0.00     0.017 A 
HETATM   20  C14 UNL     1     -19.611  40.258 -30.428  1.00  0.00     0.088 A 
HETATM   21  N4  UNL     1     -19.729  38.953 -30.135  1.00  0.00    -0.368 N 
ATOM     22  H4  UNL     1     -19.343  38.263 -30.779  1.00  0.00     0.165 HD
ENDBRANCH  15  16
ENDBRANCH  13  15
ENDBRANCH   1  13
TORSDOF 3
ENDMDL
MODEL 4
REMARK VINA RESULT: -8.001936745      2.066      2.663
REMARK  3 active torsions:
REMARK  status: ('A' for Active; 'I' for Inactive)
REMARK    1  A    between atoms: C4_4  and  C5_5 
REMARK    2  A    between atoms: C5_5  and  N1_6 
REMARK    3  A    between atoms: N1_6  and  C6_8 
ROOT
HETATM    1  C6  UNL     1     -19.997  36.803 -29.805  1.00  0.00     0.101 A 
HETATM    2  C7  UNL     1     -20.616  37.202 -28.628  1.00  0.00     0.049 A 
HETATM    3  C8  UNL     1     -20.687  38.545 -28.329  1.00  0.00     0.017 A 
HETATM    4  C9  UNL     1     -20.163  39.515 -29.160  1.00  0.00    -0.007 A 
HETATM    5  C10 UNL     1     -20.220  40.865 -28.886  1.00  0.00     0.030 A 
HETATM    6  C11 UNL     1     -19.674  41.798 -29.762  1.00  0.00     0.088 A 
HETATM    7  N2  UNL     1     -19.092  41.336 -30.881  1.00  0.00    -0.373 N 
ATOM      8  H2  UNL     1     -18.686  42.006 -31.535  1.00  0.00     0.164 HD
HETATM    9  C12 UNL     1     -19.023  40.014 -31.174  1.00  0.00     0.117 A 
HETATM   10  C13 UNL     1     -19.561  39.081 -30.312  1.00  0.00     0.059 A 
HETATM   11  N3  UNL     1     -19.497  37.769 -30.595  1.00  0.00    -0.341 N 
ATOM     12  H3  UNL     1     -19.040  37.489 -31.463  1.00  0.00     0.167 HD
ENDROOT
BRANCH   1  13
HETATM   13  N1  UNL     1     -19.893  35.407 -30.171  1.00  0.00    -0.371 N 
ATOM     14  H1  UNL     1     -19.859  35.110 -31.146  1.00  0.00     0.161 HD
BRANCH  13  15
HETATM   15  C5  UNL     1     -19.840  34.470 -29.105  1.00  0.00     0.178 C 
BRANCH  15  16
HETATM   16  C4  UNL     1     -18.622  33.699 -28.941  1.00  0.00     0.026 A 
HETATM   17  C3  UNL     1     -18.430  32.471 -29.509  1.00  0.00     0.027 A 
HETATM   18  C2  UNL     1     -17.234  31.768 -29.313  1.00  0.00     0.003 A 
HETATM   19  C1  UNL     1     -16.283  32.371 -28.536  1.00  0.00     0.017 A 
HETATM   20  C14 UNL     1     -16.467  33.609 -27.960  1.00  0.00     0.088 A 
HETATM   21  N4  UNL     1     -17.629  34.247 -28.173  1.00  0.00    -0.368 N 
ATOM     22  H4  UNL     1     -17.776  35.164 -27.752  1.00  0.00     0.165 HD
ENDBRANCH  15  16
ENDBRANCH  13  15
ENDBRANCH   1  13
TORSDOF 3
ENDMDL
MODEL 5
REMARK VINA RESULT: -7.983535754      1.853      6.533
REMARK  3 active torsions:
REMARK  status: ('A' for Active; 'I' for Inactive)
REMARK    1  A    between atoms: C4_4  and  C5_5 
REMARK    2  A    between atoms: C5_5  and  N1_6 
REMARK    3  A    between atoms: N1_6  and  C6_8 
ROOT
HETATM    1  C6  UNL     1     -16.409  33.695 -29.870  1.00  0.00     0.101 A 
HETATM    2  C7  UNL     1     -17.015  32.571 -29.326  1.00  0.00     0.049 A 
HETATM    3  C8  UNL     1     -16.241  31.641 -28.666  1.00  0.00     0.017 A 
HETATM    4  C9  UNL     1     -14.875  31.787 -28.524  1.00  0.00    -0.007 A 
HETATM    5  C10 UNL     1     -14.075  30.874 -27.870  1.00  0.00     0.030 A 
HETATM    6  C11 UNL     1     -12.703  31.074 -27.758  1.00  0.00     0.088 A 
HETATM    7  N2  UNL     1     -12.188  32.185 -28.310  1.00  0.00    -0.373 N 
ATOM      8  H2  UNL     1     -11.183  32.349 -28.238  1.00  0.00     0.164 HD
HETATM    9  C12 UNL     1     -12.953  33.099 -28.958  1.00  0.00     0.117 A 
HETATM   10  C13 UNL     1     -14.314  32.909 -29.074  1.00  0.00     0.059 A 
HETATM   11  N3  UNL     1     -15.078  33.810 -29.716  1.00  0.00    -0.341 N 
ATOM     12  H3  UNL     1     -14.620  34.631 -30.111  1.00  0.00     0.167 HD
ENDROOT
BRANCH   1  13
HETATM   13  N1  UNL     1     -17.172  34.702 -30.573  1.00  0.00    -0.371 N 
ATOM     14  H1  UNL     1     -16.733  35.545 -30.944  1.00  0.00     0.161 HD
BRANCH  13  15
HETATM   15  C5  UNL     1     -18.563  34.461 -30.723  1.00  0.00     0.178 C 
BRANCH  15  16
HETATM   16  C4  UNL     1     -19.481  35.323 -30.001  1.00  0.00     0.026 A 
HETATM   17  C3  UNL     1     -19.515  36.680 -30.158  1.00  0.00     0.027 A 
HETATM   18  C2  UNL     1     -20.419  37.465 -29.432  1.00  0.00     0.003 A 
HETATM   19  C1  UNL     1     -21.254  36.807 -28.570  1.00  0.00     0.017 A 
HETATM   20  C14 UNL     1     -21.228  35.440 -28.404  1.00  0.00     0.088 A 
HETATM   21  N4  UNL     1     -20.345  34.727 -29.121  1.00  0.00    -0.368 N 
ATOM     22  H4  UNL     1     -20.316  33.714 -29.007  1.00  0.00     0.165 HD
ENDBRANCH  15  16
ENDBRANCH  13  15
ENDBRANCH   1  13
TORSDOF 3
ENDMDL
