MODEL 1
REMARK VINA RESULT: -9.097551154      0.000      0.000
REMARK  8 active torsions:
REMARK  status: ('A' for Active; 'I' for Inactive)
REMARK    1  A    between atoms: N1_2  and  C2_4 
REMARK    2  A    between atoms: C3_7  and  C4_8 
REMARK    3  A    between atoms: C7_11  and  N3_12 
REMARK    4  A    between atoms: N3_12  and  C9_14 
REMARK    5  A    between atoms: C9_14  and  O1_15 
REMARK    6  A    between atoms: C10_17  and  N4_18 
REMARK       I    between atoms: N4_18  and  C11_20 
REMARK    7  A    between atoms: C11_20  and  C12_22 
REMARK    8  A    between atoms: C17_27  and  C18_28 
ROOT
HETATM    1  C9  UNL     1     -13.856 -15.908  11.214  1.00  0.00     0.158 C 
HETATM    2  C10 UNL     1     -14.563 -17.129  11.502  1.00  0.00     0.147 C 
ENDROOT
BRANCH   1   3
HETATM    3  N3  UNL     1     -14.203 -14.597  10.931  1.00  0.00    -0.325 N 
HETATM    4  C8  UNL     1     -14.334 -14.032   9.617  1.00  0.00     0.159 C 
BRANCH   3   5
HETATM    5  C7  UNL     1     -14.449 -13.648  12.013  1.00  0.00     0.078 A 
HETATM    6  C6  UNL     1     -14.522 -13.866  13.344  1.00  0.00     0.039 A 
HETATM    7  C5  UNL     1     -14.762 -12.810  14.128  1.00  0.00     0.024 A 
HETATM    8  C4  UNL     1     -14.914 -11.605  13.542  1.00  0.00     0.034 A 
HETATM    9  S1  UNL     1     -14.717 -11.968  11.863  1.00  0.00    -0.070 SA
BRANCH   8  10
HETATM   10  C3  UNL     1     -15.190 -10.274  14.136  1.00  0.00     0.058 A 
HETATM   11  N2  UNL     1     -15.123  -9.160  13.447  1.00  0.00    -0.335 N 
HETATM   12  C2  UNL     1     -15.386  -8.016  14.070  1.00  0.00     0.144 A 
ATOM     13  H2  UNL     1     -14.876  -9.172  12.459  1.00  0.00     0.168 HD
HETATM   14  S2  UNL     1     -15.739  -8.502  15.660  1.00  0.00    -0.064 SA
HETATM   15  C19 UNL     1     -15.530 -10.183  15.459  1.00  0.00     0.084 A 
BRANCH  12  16
HETATM   16  N1  UNL     1     -15.383  -6.797  13.602  1.00  0.00    -0.375 N 
HETATM   17  C1  UNL     1     -16.123  -6.414  12.434  1.00  0.00     0.148 C 
ATOM     18  H1  UNL     1     -14.834  -6.088  14.087  1.00  0.00     0.161 HD
ENDBRANCH  12  16
ENDBRANCH   8  10
ENDBRANCH   3   5
ENDBRANCH   1   3
BRANCH   1  19
HETATM   19  O1  UNL     1     -12.539 -16.092  11.222  1.00  0.00    -0.345 OA
ATOM     20  H1  UNL     1     -12.227 -16.501  10.424  1.00  0.00     0.219 HD
ENDBRANCH   1  19
BRANCH   2  21
HETATM   21  N4  UNL     1     -15.975 -17.177  11.573  1.00  0.00    -0.329 N 
HETATM   22  C11 UNL     1     -16.783 -17.098  10.379  1.00  0.00     0.256 C 
HETATM   23  O2  UNL     1     -16.190 -17.002   9.269  1.00  0.00    -0.267 OA
ATOM     24  H4  UNL     1     -16.430 -17.269  12.481  1.00  0.00     0.168 HD
BRANCH  22  25
HETATM   25  C12 UNL     1     -18.216 -17.128  10.358  1.00  0.00     0.047 A 
HETATM   26  C13 UNL     1     -18.804 -18.410  10.387  1.00  0.00     0.018 A 
HETATM   27  C14 UNL     1     -20.160 -18.612  10.416  1.00  0.00     0.001 A 
HETATM   28  C15 UNL     1     -20.981 -17.501  10.419  1.00  0.00     0.001 A 
HETATM   29  C16 UNL     1     -20.439 -16.243  10.390  1.00  0.00     0.017 A 
HETATM   30  C17 UNL     1     -19.055 -16.039  10.359  1.00  0.00     0.063 A 
BRANCH  30  31
HETATM   31  C18 UNL     1     -18.544 -14.674  10.279  1.00  0.00     0.418 C 
HETATM   32  F1  UNL     1     -18.009 -14.213  11.445  1.00  0.00    -0.166 F 
HETATM   33  F2  UNL     1     -17.618 -14.547   9.226  1.00  0.00    -0.166 F 
HETATM   34  F3  UNL     1     -19.608 -13.804   9.980  1.00  0.00    -0.166 F 
ENDBRANCH  30  31
ENDBRANCH  22  25
ENDBRANCH   2  21
TORSDOF 8
ENDMDL
MODEL 2
REMARK VINA RESULT: -8.982267044      3.640      6.178
REMARK  8 active torsions:
REMARK  status: ('A' for Active; 'I' for Inactive)
REMARK    1  A    between atoms: N1_2  and  C2_4 
REMARK    2  A    between atoms: C3_7  and  C4_8 
REMARK    3  A    between atoms: C7_11  and  N3_12 
REMARK    4  A    between atoms: N3_12  and  C9_14 
REMARK    5  A    between atoms: C9_14  and  O1_15 
REMARK    6  A    between atoms: C10_17  and  N4_18 
REMARK       I    between atoms: N4_18  and  C11_20 
REMARK    7  A    between atoms: C11_20  and  C12_22 
REMARK    8  A    between atoms: C17_27  and  C18_28 
ROOT
HETATM    1  C9  UNL     1     -13.558 -10.852  10.776  1.00  0.00     0.158 C 
HETATM    2  C10 UNL     1     -13.014 -12.169  10.562  1.00  0.00     0.147 C 
ENDROOT
BRANCH   1   3
HETATM    3  N3  UNL     1     -14.721 -10.327  11.315  1.00  0.00    -0.325 N 
HETATM    4  C8  UNL     1     -14.819  -9.098  12.051  1.00  0.00     0.159 C 
BRANCH   3   5
HETATM    5  C7  UNL     1     -15.986 -11.042  11.179  1.00  0.00     0.078 A 
HETATM    6  C6  UNL     1     -16.540 -11.966  11.993  1.00  0.00     0.039 A 
HETATM    7  C5  UNL     1     -17.724 -12.472  11.633  1.00  0.00     0.024 A 
HETATM    8  C4  UNL     1     -18.283 -12.030  10.488  1.00  0.00     0.034 A 
HETATM    9  S1  UNL     1     -17.122 -10.885   9.914  1.00  0.00    -0.070 SA
BRANCH   8  10
HETATM   10  C3  UNL     1     -19.562 -12.400   9.837  1.00  0.00     0.058 A 
HETATM   11  N2  UNL     1     -19.837 -13.624   9.454  1.00  0.00    -0.335 N 
HETATM   12  C2  UNL     1     -21.012 -13.857   8.877  1.00  0.00     0.144 A 
ATOM     13  H2  UNL     1     -19.167 -14.378   9.595  1.00  0.00     0.168 HD
HETATM   14  S2  UNL     1     -21.759 -12.330   8.868  1.00  0.00    -0.064 SA
HETATM   15  C19 UNL     1     -20.511 -11.438   9.616  1.00  0.00     0.084 A 
BRANCH  12  16
HETATM   16  N1  UNL     1     -21.503 -14.976   8.418  1.00  0.00    -0.375 N 
HETATM   17  C1  UNL     1     -22.766 -15.503   8.851  1.00  0.00     0.148 C 
ATOM     18  H1  UNL     1     -20.969 -15.496   7.723  1.00  0.00     0.161 HD
ENDBRANCH  12  16
ENDBRANCH   8  10
ENDBRANCH   3   5
ENDBRANCH   1   3
BRANCH   1  19
HETATM   19  O1  UNL     1     -12.729  -9.906  10.344  1.00  0.00    -0.345 OA
ATOM     20  H1  UNL     1     -11.879  -9.952  10.765  1.00  0.00     0.219 HD
ENDBRANCH   1  19
BRANCH   2  21
HETATM   21  N4  UNL     1     -13.705 -13.337  10.963  1.00  0.00    -0.329 N 
HETATM   22  C11 UNL     1     -14.379 -14.171   9.997  1.00  0.00     0.256 C 
HETATM   23  O2  UNL     1     -14.319 -13.835   8.782  1.00  0.00    -0.267 OA
ATOM     24  H4  UNL     1     -13.727 -13.593  11.951  1.00  0.00     0.168 HD
BRANCH  22  25
HETATM   25  C12 UNL     1     -15.110 -15.362  10.315  1.00  0.00     0.047 A 
HETATM   26  C13 UNL     1     -16.384 -15.479   9.719  1.00  0.00     0.018 A 
HETATM   27  C14 UNL     1     -17.192 -16.575   9.885  1.00  0.00     0.001 A 
HETATM   28  C15 UNL     1     -16.727 -17.608  10.675  1.00  0.00     0.001 A 
HETATM   29  C16 UNL     1     -15.495 -17.523  11.267  1.00  0.00     0.017 A 
HETATM   30  C17 UNL     1     -14.673 -16.404  11.098  1.00  0.00     0.063 A 
BRANCH  30  31
HETATM   31  C18 UNL     1     -13.393 -16.356  11.798  1.00  0.00     0.418 C 
HETATM   32  F1  UNL     1     -12.326 -16.106  10.987  1.00  0.00    -0.166 F 
HETATM   33  F2  UNL     1     -13.436 -15.429  12.857  1.00  0.00    -0.166 F 
HETATM   34  F3  UNL     1     -13.141 -17.612  12.379  1.00  0.00    -0.166 F 
ENDBRANCH  30  31
ENDBRANCH  22  25
ENDBRANCH   2  21
TORSDOF 8
ENDMDL
MODEL 3
REMARK VINA RESULT: -8.967654811      3.482      4.555
REMARK  8 active torsions:
REMARK  status: ('A' for Active; 'I' for Inactive)
REMARK    1  A    between atoms: N1_2  and  C2_4 
REMARK    2  A    between atoms: C3_7  and  C4_8 
REMARK    3  A    between atoms: C7_11  and  N3_12 
REMARK    4  A    between atoms: N3_12  and  C9_14 
REMARK    5  A    between atoms: C9_14  and  O1_15 
REMARK    6  A    between atoms: C10_17  and  N4_18 
REMARK       I    between atoms: N4_18  and  C11_20 
REMARK    7  A    between atoms: C11_20  and  C12_22 
REMARK    8  A    between atoms: C17_27  and  C18_28 
ROOT
HETATM    1  C9  UNL     1     -14.083 -12.307  13.810  1.00  0.00     0.158 C 
HETATM    2  C10 UNL     1     -13.848 -13.668  13.400  1.00  0.00     0.147 C 
ENDROOT
BRANCH   1   3
HETATM    3  N3  UNL     1     -15.186 -11.479  13.937  1.00  0.00    -0.325 N 
HETATM    4  C8  UNL     1     -15.816 -11.111  15.174  1.00  0.00     0.159 C 
BRANCH   3   5
HETATM    5  C7  UNL     1     -15.825 -10.913  12.753  1.00  0.00     0.078 A 
HETATM    6  C6  UNL     1     -15.417 -10.935  11.465  1.00  0.00     0.039 A 
HETATM    7  C5  UNL     1     -16.197 -10.334  10.562  1.00  0.00     0.024 A 
HETATM    8  C4  UNL     1     -17.334  -9.749  10.993  1.00  0.00     0.034 A 
HETATM    9  S1  UNL     1     -17.298 -10.052  12.694  1.00  0.00    -0.070 SA
BRANCH   8  10
HETATM   10  C3  UNL     1     -18.381  -9.013  10.244  1.00  0.00     0.058 A 
HETATM   11  N2  UNL     1     -18.761  -9.352   9.035  1.00  0.00    -0.335 N 
HETATM   12  C2  UNL     1     -19.707  -8.630   8.444  1.00  0.00     0.144 A 
ATOM     13  H2  UNL     1     -18.341 -10.150   8.560  1.00  0.00     0.168 HD
HETATM   14  S2  UNL     1     -20.083  -7.444   9.604  1.00  0.00    -0.064 SA
HETATM   15  C19 UNL     1     -18.991  -7.932  10.820  1.00  0.00     0.084 A 
BRANCH  12  16
HETATM   16  N1  UNL     1     -20.242  -8.770   7.261  1.00  0.00    -0.375 N 
HETATM   17  C1  UNL     1     -21.229  -9.769   6.970  1.00  0.00     0.148 C 
ATOM     18  H1  UNL     1     -19.946  -8.143   6.514  1.00  0.00     0.161 HD
ENDBRANCH  12  16
ENDBRANCH   8  10
ENDBRANCH   3   5
ENDBRANCH   1   3
BRANCH   1  19
HETATM   19  O1  UNL     1     -12.951 -11.697  14.150  1.00  0.00    -0.345 OA
ATOM     20  H1  UNL     1     -12.665 -11.074  13.492  1.00  0.00     0.219 HD
ENDBRANCH   1  19
BRANCH   2  21
HETATM   21  N4  UNL     1     -14.906 -14.526  13.015  1.00  0.00    -0.329 N 
HETATM   22  C11 UNL     1     -14.979 -15.063  11.677  1.00  0.00     0.256 C 
HETATM   23  O2  UNL     1     -14.061 -14.756  10.866  1.00  0.00    -0.267 OA
ATOM     24  H4  UNL     1     -15.627 -14.769  13.694  1.00  0.00     0.168 HD
BRANCH  22  25
HETATM   25  C12 UNL     1     -16.017 -15.928  11.199  1.00  0.00     0.047 A 
HETATM   26  C13 UNL     1     -15.705 -17.304  11.170  1.00  0.00     0.018 A 
HETATM   27  C14 UNL     1     -16.600 -18.267  10.782  1.00  0.00     0.001 A 
HETATM   28  C15 UNL     1     -17.866 -17.861  10.404  1.00  0.00     0.001 A 
HETATM   29  C16 UNL     1     -18.197 -16.532  10.421  1.00  0.00     0.017 A 
HETATM   30  C17 UNL     1     -17.282 -15.551  10.816  1.00  0.00     0.063 A 
BRANCH  30  31
HETATM   31  C18 UNL     1     -17.684 -14.148  10.764  1.00  0.00     0.418 C 
HETATM   32  F1  UNL     1     -17.745 -13.543  11.984  1.00  0.00    -0.166 F 
HETATM   33  F2  UNL     1     -16.850 -13.421   9.893  1.00  0.00    -0.166 F 
HETATM   34  F3  UNL     1     -18.984 -14.064  10.233  1.00  0.00    -0.166 F 
ENDBRANCH  30  31
ENDBRANCH  22  25
ENDBRANCH   2  21
TORSDOF 8
ENDMDL
MODEL 4
REMARK VINA RESULT: -8.967329227      3.940      6.014
REMARK  8 active torsions:
REMARK  status: ('A' for Active; 'I' for Inactive)
REMARK    1  A    between atoms: N1_2  and  C2_4 
REMARK    2  A    between atoms: C3_7  and  C4_8 
REMARK    3  A    between atoms: C7_11  and  N3_12 
REMARK    4  A    between atoms: N3_12  and  C9_14 
REMARK    5  A    between atoms: C9_14  and  O1_15 
REMARK    6  A    between atoms: C10_17  and  N4_18 
REMARK       I    between atoms: N4_18  and  C11_20 
REMARK    7  A    between atoms: C11_20  and  C12_22 
REMARK    8  A    between atoms: C17_27  and  C18_28 
ROOT
HETATM    1  C9  UNL     1     -13.744 -10.777  11.395  1.00  0.00     0.158 C 
HETATM    2  C10 UNL     1     -13.418 -12.093  10.907  1.00  0.00     0.147 C 
ENDROOT
BRANCH   1   3
HETATM    3  N3  UNL     1     -14.786 -10.205  12.106  1.00  0.00    -0.325 N 
HETATM    4  C8  UNL     1     -14.720  -9.756  13.468  1.00  0.00     0.159 C 
BRANCH   3   5
HETATM    5  C7  UNL     1     -16.096 -10.031  11.485  1.00  0.00     0.078 A 
HETATM    6  C6  UNL     1     -16.603  -8.958  10.840  1.00  0.00     0.039 A 
HETATM    7  C5  UNL     1     -17.846  -9.060  10.359  1.00  0.00     0.024 A 
HETATM    8  C4  UNL     1     -18.507 -10.220  10.550  1.00  0.00     0.034 A 
HETATM    9  S1  UNL     1     -17.359 -11.177  11.418  1.00  0.00    -0.070 SA
BRANCH   8  10
HETATM   10  C3  UNL     1     -19.875 -10.625  10.144  1.00  0.00     0.058 A 
HETATM   11  N2  UNL     1     -20.154 -11.817   9.673  1.00  0.00    -0.335 N 
HETATM   12  C2  UNL     1     -21.411 -12.084   9.336  1.00  0.00     0.144 A 
ATOM     13  H2  UNL     1     -19.424 -12.521   9.568  1.00  0.00     0.168 HD
HETATM   14  S2  UNL     1     -22.233 -10.638   9.686  1.00  0.00    -0.064 SA
HETATM   15  C19 UNL     1     -20.906  -9.732  10.259  1.00  0.00     0.084 A 
BRANCH  12  16
HETATM   16  N1  UNL     1     -21.925 -13.183   8.851  1.00  0.00    -0.375 N 
HETATM   17  C1  UNL     1     -21.140 -14.354   8.586  1.00  0.00     0.148 C 
ATOM     18  H1  UNL     1     -22.924 -13.209   8.652  1.00  0.00     0.161 HD
ENDBRANCH  12  16
ENDBRANCH   8  10
ENDBRANCH   3   5
ENDBRANCH   1   3
BRANCH   1  19
HETATM   19  O1  UNL     1     -12.802  -9.893  11.079  1.00  0.00    -0.345 OA
ATOM     20  H1  UNL     1     -12.046  -9.952  11.651  1.00  0.00     0.219 HD
ENDBRANCH   1  19
BRANCH   2  21
HETATM   21  N4  UNL     1     -14.260 -13.206  11.142  1.00  0.00    -0.329 N 
HETATM   22  C11 UNL     1     -14.254 -14.344  10.253  1.00  0.00     0.256 C 
HETATM   23  O2  UNL     1     -13.464 -14.321   9.269  1.00  0.00    -0.267 OA
ATOM     24  H4  UNL     1     -14.880 -13.205  11.952  1.00  0.00     0.168 HD
BRANCH  22  25
HETATM   25  C12 UNL     1     -15.078 -15.506  10.409  1.00  0.00     0.047 A 
HETATM   26  C13 UNL     1     -16.278 -15.512   9.665  1.00  0.00     0.018 A 
HETATM   27  C14 UNL     1     -17.156 -16.566   9.667  1.00  0.00     0.001 A 
HETATM   28  C15 UNL     1     -16.841 -17.669  10.436  1.00  0.00     0.001 A 
HETATM   29  C16 UNL     1     -15.685 -17.691  11.170  1.00  0.00     0.017 A 
HETATM   30  C17 UNL     1     -14.791 -16.615  11.168  1.00  0.00     0.063 A 
BRANCH  30  31
HETATM   31  C18 UNL     1     -13.601 -16.683  12.011  1.00  0.00     0.418 C 
HETATM   32  F1  UNL     1     -12.427 -16.595  11.322  1.00  0.00    -0.166 F 
HETATM   33  F2  UNL     1     -13.652 -15.710  13.027  1.00  0.00    -0.166 F 
HETATM   34  F3  UNL     1     -13.569 -17.932  12.656  1.00  0.00    -0.166 F 
ENDBRANCH  30  31
ENDBRANCH  22  25
ENDBRANCH   2  21
TORSDOF 8
ENDMDL
MODEL 5
REMARK VINA RESULT: -8.949783295      3.889      5.957
REMARK  8 active torsions:
REMARK  status: ('A' for Active; 'I' for Inactive)
REMARK    1  A    between atoms: N1_2  and  C2_4 
REMARK    2  A    between atoms: C3_7  and  C4_8 
REMARK    3  A    between atoms: C7_11  and  N3_12 
REMARK    4  A    between atoms: N3_12  and  C9_14 
REMARK    5  A    between atoms: C9_14  and  O1_15 
REMARK    6  A    between atoms: C10_17  and  N4_18 
REMARK       I    between atoms: N4_18  and  C11_20 
REMARK    7  A    between atoms: C11_20  and  C12_22 
REMARK    8  A    between atoms: C17_27  and  C18_28 
ROOT
HETATM    1  C9  UNL     1     -13.829 -10.510  14.487  1.00  0.00     0.158 C 
HETATM    2  C10 UNL     1     -13.455 -11.894  14.341  1.00  0.00     0.147 C 
ENDROOT
BRANCH   1   3
HETATM    3  N3  UNL     1     -14.987  -9.767  14.325  1.00  0.00    -0.325 N 
HETATM    4  C8  UNL     1     -15.591  -8.933  15.326  1.00  0.00     0.159 C 
BRANCH   3   5
HETATM    5  C7  UNL     1     -15.717  -9.803  13.061  1.00  0.00     0.078 A 
HETATM    6  C6  UNL     1     -15.249  -9.706  11.798  1.00  0.00     0.039 A 
HETATM    7  C5  UNL     1     -16.141  -9.770  10.805  1.00  0.00     0.024 A 
HETATM    8  C4  UNL     1     -17.442  -9.924  11.128  1.00  0.00     0.034 A 
HETATM    9  S1  UNL     1     -17.402  -9.980  12.855  1.00  0.00    -0.070 SA
BRANCH   8  10
HETATM   10  C3  UNL     1     -18.643 -10.021  10.263  1.00  0.00     0.058 A 
HETATM   11  N2  UNL     1     -19.536 -10.973  10.390  1.00  0.00    -0.335 N 
HETATM   12  C2  UNL     1     -20.578 -10.975   9.566  1.00  0.00     0.144 A 
ATOM     13  H2  UNL     1     -19.432 -11.694  11.103  1.00  0.00     0.168 HD
HETATM   14  S2  UNL     1     -20.312  -9.611   8.586  1.00  0.00    -0.064 SA
HETATM   15  C19 UNL     1     -18.848  -9.085   9.285  1.00  0.00     0.084 A 
BRANCH  12  16
HETATM   16  N1  UNL     1     -21.581 -11.808   9.499  1.00  0.00    -0.375 N 
HETATM   17  C1  UNL     1     -21.481 -13.092   8.865  1.00  0.00     0.148 C 
ATOM     18  H1  UNL     1     -22.472 -11.536   9.913  1.00  0.00     0.161 HD
ENDBRANCH  12  16
ENDBRANCH   8  10
ENDBRANCH   3   5
ENDBRANCH   1   3
BRANCH   1  19
HETATM   19  O1  UNL     1     -12.799  -9.764  14.874  1.00  0.00    -0.345 OA
ATOM     20  H1  UNL     1     -12.809  -8.901  14.477  1.00  0.00     0.219 HD
ENDBRANCH   1  19
BRANCH   2  21
HETATM   21  N4  UNL     1     -14.390 -12.885  13.961  1.00  0.00    -0.329 N 
HETATM   22  C11 UNL     1     -14.480 -13.338  12.593  1.00  0.00     0.256 C 
HETATM   23  O2  UNL     1     -13.687 -12.833  11.750  1.00  0.00    -0.267 OA
ATOM     24  H4  UNL     1     -15.010 -13.287  14.665  1.00  0.00     0.168 HD
BRANCH  22  25
HETATM   25  C12 UNL     1     -15.402 -14.327  12.119  1.00  0.00     0.047 A 
HETATM   26  C13 UNL     1     -16.726 -13.883  11.912  1.00  0.00     0.018 A 
HETATM   27  C14 UNL     1     -17.719 -14.692  11.420  1.00  0.00     0.001 A 
HETATM   28  C15 UNL     1     -17.397 -16.000  11.115  1.00  0.00     0.001 A 
HETATM   29  C16 UNL     1     -16.121 -16.459  11.306  1.00  0.00     0.017 A 
HETATM   30  C17 UNL     1     -15.110 -15.634  11.809  1.00  0.00     0.063 A 
BRANCH  30  31
HETATM   31  C18 UNL     1     -13.783 -16.200  12.035  1.00  0.00     0.418 C 
HETATM   32  F1  UNL     1     -12.849 -15.806  11.123  1.00  0.00    -0.166 F 
HETATM   33  F2  UNL     1     -13.340 -15.929  13.344  1.00  0.00    -0.166 F 
HETATM   34  F3  UNL     1     -13.858 -17.600  11.922  1.00  0.00    -0.166 F 
ENDBRANCH  30  31
ENDBRANCH  22  25
ENDBRANCH   2  21
TORSDOF 8
ENDMDL
