MODEL 1
REMARK VINA RESULT: -8.908892047      0.000      0.000
REMARK  8 active torsions:
REMARK  status: ('A' for Active; 'I' for Inactive)
REMARK    1  A    between atoms: C7_7  and  O1_8 
REMARK    2  A    between atoms: O1_8  and  C8_9 
REMARK    3  A    between atoms: C8_9  and  C11_13 
REMARK       I    between atoms: C11_13  and  N2_15 
REMARK    4  A    between atoms: N2_15  and  C12_17 
REMARK    5  A    between atoms: C12_17  and  N3_18 
REMARK    6  A    between atoms: C12_17  and  C18_27 
REMARK       I    between atoms: N3_18  and  C13_20 
REMARK    7  A    between atoms: C13_20  and  O4_22 
REMARK    8  A    between atoms: O4_22  and  C14_23 
ROOT
HETATM    1  C8  UNL     1     -14.500 -14.407  11.734  1.00  0.00     0.231 C 
HETATM    2  C9  UNL     1     -13.135 -15.009  12.036  1.00  0.00     0.074 C 
HETATM    3  C10 UNL     1     -14.591 -14.396  10.245  1.00  0.00     0.108 C 
HETATM    4  N1  UNL     1     -14.653 -14.369   9.090  1.00  0.00    -0.193 NA
ENDROOT
BRANCH   1   5
HETATM    5  O1  UNL     1     -15.487 -15.274  12.159  1.00  0.00    -0.315 OA
BRANCH   5   6
HETATM    6  C7  UNL     1     -16.199 -16.222  11.518  1.00  0.00     0.077 A 
HETATM    7  C2  UNL     1     -17.481 -15.929  11.116  1.00  0.00    -0.029 A 
HETATM    8  C1  UNL     1     -18.111 -14.591  11.367  1.00  0.00     0.051 C 
HETATM    9  C3  UNL     1     -18.265 -16.862  10.452  1.00  0.00     0.009 A 
HETATM   10  C4  UNL     1     -17.755 -18.093  10.192  1.00  0.00     0.001 A 
HETATM   11  C5  UNL     1     -16.463 -18.390  10.597  1.00  0.00     0.003 A 
HETATM   12  C6  UNL     1     -15.689 -17.463  11.255  1.00  0.00     0.037 A 
ENDBRANCH   5   6
ENDBRANCH   1   5
BRANCH   1  13
HETATM   13  C11 UNL     1     -14.622 -13.032  12.226  1.00  0.00     0.269 C 
HETATM   14  O2  UNL     1     -13.700 -12.220  11.969  1.00  0.00    -0.269 OA
HETATM   15  N2  UNL     1     -15.724 -12.561  12.978  1.00  0.00    -0.332 N 
ATOM     16  H2  UNL     1     -16.467 -13.231  13.179  1.00  0.00     0.164 HD
BRANCH  15  17
HETATM   17  C12 UNL     1     -15.892 -11.238  13.479  1.00  0.00     0.243 C 
BRANCH  17  18
HETATM   18  N3  UNL     1     -16.282 -10.394  12.350  1.00  0.00    -0.311 N 
HETATM   19  C13 UNL     1     -15.505  -9.277  11.939  1.00  0.00     0.363 C 
HETATM   20  O3  UNL     1     -14.448  -9.003  12.563  1.00  0.00    -0.238 OA
ATOM     21  H3  UNL     1     -17.138 -10.615  11.841  1.00  0.00     0.167 HD
BRANCH  19  22
HETATM   22  O4  UNL     1     -15.855  -8.482  10.891  1.00  0.00    -0.294 OA
BRANCH  22  23
HETATM   23  C14 UNL     1     -16.908  -7.574  10.846  1.00  0.00     0.061 C 
HETATM   24  C15 UNL     1     -17.284  -7.036  12.209  1.00  0.00     0.046 C 
HETATM   25  C16 UNL     1     -18.145  -8.176  10.199  1.00  0.00     0.046 C 
HETATM   26  C17 UNL     1     -16.460  -6.387  10.019  1.00  0.00     0.046 C 
ENDBRANCH  22  23
ENDBRANCH  19  22
ENDBRANCH  17  18
BRANCH  17  27
HETATM   27  C18 UNL     1     -16.985 -11.103  14.506  1.00  0.00     0.226 C 
HETATM   28 CL1  UNL     1     -16.339 -10.515  16.056  1.00  0.00    -0.080 Cl
HETATM   29 CL2  UNL     1     -18.286 -10.033  14.010  1.00  0.00    -0.080 Cl
HETATM   30 CL3  UNL     1     -17.691 -12.713  14.795  1.00  0.00    -0.080 Cl
ENDBRANCH  17  27
ENDBRANCH  15  17
ENDBRANCH   1  13
TORSDOF 8
ENDMDL
MODEL 2
REMARK VINA RESULT: -8.852611304      2.919      6.917
REMARK  8 active torsions:
REMARK  status: ('A' for Active; 'I' for Inactive)
REMARK    1  A    between atoms: C7_7  and  O1_8 
REMARK    2  A    between atoms: O1_8  and  C8_9 
REMARK    3  A    between atoms: C8_9  and  C11_13 
REMARK       I    between atoms: C11_13  and  N2_15 
REMARK    4  A    between atoms: N2_15  and  C12_17 
REMARK    5  A    between atoms: C12_17  and  N3_18 
REMARK    6  A    between atoms: C12_17  and  C18_27 
REMARK       I    between atoms: N3_18  and  C13_20 
REMARK    7  A    between atoms: C13_20  and  O4_22 
REMARK    8  A    between atoms: O4_22  and  C14_23 
ROOT
HETATM    1  C8  UNL     1     -14.864 -10.454  14.213  1.00  0.00     0.231 C 
HETATM    2  C9  UNL     1     -13.510  -9.824  14.503  1.00  0.00     0.074 C 
HETATM    3  C10 UNL     1     -15.536 -10.544  15.541  1.00  0.00     0.108 C 
HETATM    4  N1  UNL     1     -16.049 -10.632  16.574  1.00  0.00    -0.193 NA
ENDROOT
BRANCH   1   5
HETATM    5  O1  UNL     1     -15.629  -9.576  13.470  1.00  0.00    -0.315 OA
BRANCH   5   6
HETATM    6  C7  UNL     1     -16.571  -9.769  12.526  1.00  0.00     0.077 A 
HETATM    7  C2  UNL     1     -16.221  -9.627  11.203  1.00  0.00    -0.029 A 
HETATM    8  C1  UNL     1     -14.828  -9.265  10.781  1.00  0.00     0.051 C 
HETATM    9  C3  UNL     1     -17.144  -9.812  10.185  1.00  0.00     0.009 A 
HETATM   10  C4  UNL     1     -18.423 -10.141  10.499  1.00  0.00     0.001 A 
HETATM   11  C5  UNL     1     -18.777 -10.285  11.832  1.00  0.00     0.003 A 
HETATM   12  C6  UNL     1     -17.859 -10.100  12.838  1.00  0.00     0.037 A 
ENDBRANCH   5   6
ENDBRANCH   1   5
BRANCH   1  13
HETATM   13  C11 UNL     1     -14.740 -11.803  13.652  1.00  0.00     0.269 C 
HETATM   14  O2  UNL     1     -15.324 -12.749  14.234  1.00  0.00    -0.269 OA
HETATM   15  N2  UNL     1     -13.996 -12.104  12.487  1.00  0.00    -0.332 N 
ATOM     16  H2  UNL     1     -13.527 -11.326  12.023  1.00  0.00     0.164 HD
BRANCH  15  17
HETATM   17  C12 UNL     1     -13.843 -13.394  11.901  1.00  0.00     0.243 C 
BRANCH  17  18
HETATM   18  N3  UNL     1     -15.185 -13.938  11.697  1.00  0.00    -0.311 N 
HETATM   19  C13 UNL     1     -15.471 -15.321  11.858  1.00  0.00     0.363 C 
HETATM   20  O3  UNL     1     -14.543 -16.105  12.185  1.00  0.00    -0.238 OA
ATOM     21  H3  UNL     1     -15.940 -13.305  11.433  1.00  0.00     0.167 HD
BRANCH  19  22
HETATM   22  O4  UNL     1     -16.714 -15.843  11.671  1.00  0.00    -0.294 OA
BRANCH  22  23
HETATM   23  C14 UNL     1     -17.163 -16.558  10.564  1.00  0.00     0.061 C 
HETATM   24  C15 UNL     1     -16.916 -18.045  10.682  1.00  0.00     0.046 C 
HETATM   25  C16 UNL     1     -16.533 -16.057   9.275  1.00  0.00     0.046 C 
HETATM   26  C17 UNL     1     -18.663 -16.372  10.472  1.00  0.00     0.046 C 
ENDBRANCH  22  23
ENDBRANCH  19  22
ENDBRANCH  17  18
BRANCH  17  27
HETATM   27  C18 UNL     1     -13.182 -13.381  10.549  1.00  0.00     0.226 C 
HETATM   28 CL1  UNL     1     -12.289 -14.893  10.258  1.00  0.00    -0.080 Cl
HETATM   29 CL2  UNL     1     -14.304 -13.139   9.220  1.00  0.00    -0.080 Cl
HETATM   30 CL3  UNL     1     -12.002 -12.047  10.508  1.00  0.00    -0.080 Cl
ENDBRANCH  17  27
ENDBRANCH  15  17
ENDBRANCH   1  13
TORSDOF 8
ENDMDL
MODEL 3
REMARK VINA RESULT: -8.784573394      2.969      6.854
REMARK  8 active torsions:
REMARK  status: ('A' for Active; 'I' for Inactive)
REMARK    1  A    between atoms: C7_7  and  O1_8 
REMARK    2  A    between atoms: O1_8  and  C8_9 
REMARK    3  A    between atoms: C8_9  and  C11_13 
REMARK       I    between atoms: C11_13  and  N2_15 
REMARK    4  A    between atoms: N2_15  and  C12_17 
REMARK    5  A    between atoms: C12_17  and  N3_18 
REMARK    6  A    between atoms: C12_17  and  C18_27 
REMARK       I    between atoms: N3_18  and  C13_20 
REMARK    7  A    between atoms: C13_20  and  O4_22 
REMARK    8  A    between atoms: O4_22  and  C14_23 
ROOT
HETATM    1  C8  UNL     1     -14.916 -10.425  14.022  1.00  0.00     0.231 C 
HETATM    2  C9  UNL     1     -13.572  -9.719  14.122  1.00  0.00     0.074 C 
HETATM    3  C10 UNL     1     -15.424 -10.478  15.424  1.00  0.00     0.108 C 
HETATM    4  N1  UNL     1     -15.808 -10.537  16.513  1.00  0.00    -0.193 NA
ENDROOT
BRANCH   1   5
HETATM    5  O1  UNL     1     -15.806  -9.623  13.337  1.00  0.00    -0.315 OA
BRANCH   5   6
HETATM    6  C7  UNL     1     -16.650  -9.871  12.316  1.00  0.00     0.077 A 
HETATM    7  C2  UNL     1     -18.001  -9.923  12.571  1.00  0.00    -0.029 A 
HETATM    8  C1  UNL     1     -18.562  -9.712  13.946  1.00  0.00     0.051 C 
HETATM    9  C3  UNL     1     -18.920 -10.174  11.563  1.00  0.00     0.009 A 
HETATM   10  C4  UNL     1     -18.479 -10.373  10.295  1.00  0.00     0.001 A 
HETATM   11  C5  UNL     1     -17.118 -10.321  10.036  1.00  0.00     0.003 A 
HETATM   12  C6  UNL     1     -16.209 -10.072  11.038  1.00  0.00     0.037 A 
ENDBRANCH   5   6
ENDBRANCH   1   5
BRANCH   1  13
HETATM   13  C11 UNL     1     -14.788 -11.793  13.513  1.00  0.00     0.269 C 
HETATM   14  O2  UNL     1     -15.385 -12.716  14.118  1.00  0.00    -0.269 OA
HETATM   15  N2  UNL     1     -14.026 -12.139  12.372  1.00  0.00    -0.332 N 
ATOM     16  H2  UNL     1     -13.546 -11.379  11.888  1.00  0.00     0.164 HD
BRANCH  15  17
HETATM   17  C12 UNL     1     -13.868 -13.450  11.835  1.00  0.00     0.243 C 
BRANCH  17  18
HETATM   18  N3  UNL     1     -15.209 -13.998  11.634  1.00  0.00    -0.311 N 
HETATM   19  C13 UNL     1     -15.497 -15.376  11.832  1.00  0.00     0.363 C 
HETATM   20  O3  UNL     1     -14.574 -16.151  12.192  1.00  0.00    -0.238 OA
ATOM     21  H3  UNL     1     -15.960 -13.373  11.343  1.00  0.00     0.167 HD
BRANCH  19  22
HETATM   22  O4  UNL     1     -16.739 -15.902  11.648  1.00  0.00    -0.294 OA
BRANCH  22  23
HETATM   23  C14 UNL     1     -17.177 -16.649  10.559  1.00  0.00     0.061 C 
HETATM   24  C15 UNL     1     -16.892 -18.128  10.703  1.00  0.00     0.046 C 
HETATM   25  C16 UNL     1     -16.569 -16.158   9.255  1.00  0.00     0.046 C 
HETATM   26  C17 UNL     1     -18.683 -16.504  10.475  1.00  0.00     0.046 C 
ENDBRANCH  22  23
ENDBRANCH  19  22
ENDBRANCH  17  18
BRANCH  17  27
HETATM   27  C18 UNL     1     -13.189 -13.487  10.492  1.00  0.00     0.226 C 
HETATM   28 CL1  UNL     1     -12.250 -14.985  10.291  1.00  0.00    -0.080 Cl
HETATM   29 CL2  UNL     1     -14.300 -13.348   9.140  1.00  0.00    -0.080 Cl
HETATM   30 CL3  UNL     1     -12.048 -12.122  10.396  1.00  0.00    -0.080 Cl
ENDBRANCH  17  27
ENDBRANCH  15  17
ENDBRANCH   1  13
TORSDOF 8
ENDMDL
MODEL 4
REMARK VINA RESULT: -8.692832471      3.127      6.921
REMARK  8 active torsions:
REMARK  status: ('A' for Active; 'I' for Inactive)
REMARK    1  A    between atoms: C7_7  and  O1_8 
REMARK    2  A    between atoms: O1_8  and  C8_9 
REMARK    3  A    between atoms: C8_9  and  C11_13 
REMARK       I    between atoms: C11_13  and  N2_15 
REMARK    4  A    between atoms: N2_15  and  C12_17 
REMARK    5  A    between atoms: C12_17  and  N3_18 
REMARK    6  A    between atoms: C12_17  and  C18_27 
REMARK       I    between atoms: N3_18  and  C13_20 
REMARK    7  A    between atoms: C13_20  and  O4_22 
REMARK    8  A    between atoms: O4_22  and  C14_23 
ROOT
HETATM    1  C8  UNL     1     -15.739 -10.982  13.618  1.00  0.00     0.231 C 
HETATM    2  C9  UNL     1     -15.118  -9.852  12.810  1.00  0.00     0.074 C 
HETATM    3  C10 UNL     1     -15.391 -10.673  15.035  1.00  0.00     0.108 C 
HETATM    4  N1  UNL     1     -15.104 -10.444  16.132  1.00  0.00    -0.193 NA
ENDROOT
BRANCH   1   5
HETATM    5  O1  UNL     1     -17.115 -10.895  13.547  1.00  0.00    -0.315 OA
BRANCH   5   6
HETATM    6  C7  UNL     1     -17.957 -10.659  12.522  1.00  0.00     0.077 A 
HETATM    7  C2  UNL     1     -18.810  -9.583  12.600  1.00  0.00    -0.029 A 
HETATM    8  C1  UNL     1     -18.832  -8.666  13.787  1.00  0.00     0.051 C 
HETATM    9  C3  UNL     1     -19.701  -9.288  11.579  1.00  0.00     0.009 A 
HETATM   10  C4  UNL     1     -19.732 -10.077  10.475  1.00  0.00     0.001 A 
HETATM   11  C5  UNL     1     -18.873 -11.162  10.395  1.00  0.00     0.003 A 
HETATM   12  C6  UNL     1     -17.992 -11.452  11.409  1.00  0.00     0.037 A 
ENDBRANCH   5   6
ENDBRANCH   1   5
BRANCH   1  13
HETATM   13  C11 UNL     1     -15.176 -12.289  13.267  1.00  0.00     0.269 C 
HETATM   14  O2  UNL     1     -15.303 -13.234  14.083  1.00  0.00    -0.269 OA
HETATM   15  N2  UNL     1     -14.495 -12.551  12.055  1.00  0.00    -0.332 N 
ATOM     16  H2  UNL     1     -14.400 -11.775  11.400  1.00  0.00     0.164 HD
BRANCH  15  17
HETATM   17  C12 UNL     1     -13.930 -13.800  11.664  1.00  0.00     0.243 C 
BRANCH  17  18
HETATM   18  N3  UNL     1     -15.043 -14.705  11.374  1.00  0.00    -0.311 N 
HETATM   19  C13 UNL     1     -15.026 -16.071  11.769  1.00  0.00     0.363 C 
HETATM   20  O3  UNL     1     -14.027 -16.519  12.388  1.00  0.00    -0.238 OA
ATOM     21  H3  UNL     1     -15.855 -14.345  10.874  1.00  0.00     0.167 HD
BRANCH  19  22
HETATM   22  O4  UNL     1     -16.052 -16.925  11.506  1.00  0.00    -0.294 OA
BRANCH  22  23
HETATM   23  C14 UNL     1     -17.054 -16.761  10.553  1.00  0.00     0.061 C 
HETATM   24  C15 UNL     1     -16.527 -16.285   9.218  1.00  0.00     0.046 C 
HETATM   25  C16 UNL     1     -18.130 -15.798  11.026  1.00  0.00     0.046 C 
HETATM   26  C17 UNL     1     -17.689 -18.115  10.313  1.00  0.00     0.046 C 
ENDBRANCH  22  23
ENDBRANCH  19  22
ENDBRANCH  17  18
BRANCH  17  27
HETATM   27  C18 UNL     1     -13.100 -13.735  10.410  1.00  0.00     0.226 C 
HETATM   28 CL1  UNL     1     -12.078 -12.279  10.394  1.00  0.00    -0.080 Cl
HETATM   29 CL2  UNL     1     -12.067 -15.136  10.179  1.00  0.00    -0.080 Cl
HETATM   30 CL3  UNL     1     -14.197 -13.637   9.010  1.00  0.00    -0.080 Cl
ENDBRANCH  17  27
ENDBRANCH  15  17
ENDBRANCH   1  13
TORSDOF 8
ENDMDL
MODEL 5
REMARK VINA RESULT: -8.681836634      3.082      6.971
REMARK  8 active torsions:
REMARK  status: ('A' for Active; 'I' for Inactive)
REMARK    1  A    between atoms: C7_7  and  O1_8 
REMARK    2  A    between atoms: O1_8  and  C8_9 
REMARK    3  A    between atoms: C8_9  and  C11_13 
REMARK       I    between atoms: C11_13  and  N2_15 
REMARK    4  A    between atoms: N2_15  and  C12_17 
REMARK    5  A    between atoms: C12_17  and  N3_18 
REMARK    6  A    between atoms: C12_17  and  C18_27 
REMARK       I    between atoms: N3_18  and  C13_20 
REMARK    7  A    between atoms: C13_20  and  O4_22 
REMARK    8  A    between atoms: O4_22  and  C14_23 
ROOT
HETATM    1  C8  UNL     1     -15.870 -10.749  13.780  1.00  0.00     0.231 C 
HETATM    2  C9  UNL     1     -15.224  -9.601  13.018  1.00  0.00     0.074 C 
HETATM    3  C10 UNL     1     -15.494 -10.521  15.205  1.00  0.00     0.108 C 
HETATM    4  N1  UNL     1     -15.186 -10.355  16.308  1.00  0.00    -0.193 NA
ENDROOT
BRANCH   1   5
HETATM    5  O1  UNL     1     -17.243 -10.615  13.733  1.00  0.00    -0.315 OA
BRANCH   5   6
HETATM    6  C7  UNL     1     -18.095 -10.344  12.724  1.00  0.00     0.077 A 
HETATM    7  C2  UNL     1     -19.004  -9.324  12.881  1.00  0.00    -0.029 A 
HETATM    8  C1  UNL     1     -19.077  -8.506  14.136  1.00  0.00     0.051 C 
HETATM    9  C3  UNL     1     -19.907  -8.997  11.880  1.00  0.00     0.009 A 
HETATM   10  C4  UNL     1     -19.893  -9.698  10.718  1.00  0.00     0.001 A 
HETATM   11  C5  UNL     1     -18.977 -10.727  10.558  1.00  0.00     0.003 A 
HETATM   12  C6  UNL     1     -18.084 -11.048  11.553  1.00  0.00     0.037 A 
ENDBRANCH   5   6
ENDBRANCH   1   5
BRANCH   1  13
HETATM   13  C11 UNL     1     -15.355 -12.055  13.357  1.00  0.00     0.269 C 
HETATM   14  O2  UNL     1     -15.561 -13.047  14.098  1.00  0.00    -0.269 OA
HETATM   15  N2  UNL     1     -14.637 -12.265  12.157  1.00  0.00    -0.332 N 
ATOM     16  H2  UNL     1     -14.477 -11.451  11.564  1.00  0.00     0.164 HD
BRANCH  15  17
HETATM   17  C12 UNL     1     -14.115 -13.511  11.700  1.00  0.00     0.243 C 
BRANCH  17  18
HETATM   18  N3  UNL     1     -15.256 -14.395  11.461  1.00  0.00    -0.311 N 
HETATM   19  C13 UNL     1     -15.224 -15.775  11.798  1.00  0.00     0.363 C 
HETATM   20  O3  UNL     1     -14.185 -16.255  12.320  1.00  0.00    -0.238 OA
ATOM     21  H3  UNL     1     -16.100 -14.009  11.039  1.00  0.00     0.167 HD
BRANCH  19  22
HETATM   22  O4  UNL     1     -16.276 -16.610  11.581  1.00  0.00    -0.294 OA
BRANCH  22  23
HETATM   23  C14 UNL     1     -17.084 -16.661  10.449  1.00  0.00     0.061 C 
HETATM   24  C15 UNL     1     -16.399 -16.129   9.210  1.00  0.00     0.046 C 
HETATM   25  C16 UNL     1     -18.387 -15.905  10.651  1.00  0.00     0.046 C 
HETATM   26  C17 UNL     1     -17.407 -18.115  10.177  1.00  0.00     0.046 C 
ENDBRANCH  22  23
ENDBRANCH  19  22
ENDBRANCH  17  18
BRANCH  17  27
HETATM   27  C18 UNL     1     -13.367 -13.423  10.396  1.00  0.00     0.226 C 
HETATM   28 CL1  UNL     1     -12.352 -14.862  10.143  1.00  0.00    -0.080 Cl
HETATM   29 CL2  UNL     1     -14.411 -13.233   8.998  1.00  0.00    -0.080 Cl
HETATM   30 CL3  UNL     1     -12.286 -12.009  10.459  1.00  0.00    -0.080 Cl
ENDBRANCH  17  27
ENDBRANCH  15  17
ENDBRANCH   1  13
TORSDOF 8
ENDMDL
