MODEL 1
REMARK VINA RESULT: -9.981840319      0.000      0.000
REMARK  7 active torsions:
REMARK  status: ('A' for Active; 'I' for Inactive)
REMARK    1  A    between atoms: C2_2  and  O1_3 
REMARK    2  A    between atoms: O1_3  and  C3_4 
REMARK    3  A    between atoms: C5_6  and  N1_7 
REMARK       I    between atoms: N1_7  and  C6_9 
REMARK    4  A    between atoms: C6_9  and  C7_11 
REMARK    5  A    between atoms: C7_11  and  N2_12 
REMARK    6  A    between atoms: N2_12  and  C8_14 
REMARK    7  A    between atoms: C21_32  and  C22_33 
ROOT
HETATM    1  C8  UNL     1     -19.455 -10.804  10.187  1.00  0.00     0.124 A 
HETATM    2  N3  UNL     1     -19.795 -12.037   9.638  1.00  0.00    -0.327 N 
ATOM      3  H3  UNL     1     -19.048 -12.706   9.452  1.00  0.00     0.169 HD
HETATM    4  C9  UNL     1     -21.039 -12.385   9.344  1.00  0.00     0.118 A 
HETATM    5  N4  UNL     1     -21.324 -13.592   8.797  1.00  0.00    -0.345 N 
ATOM      6  H4  UNL     1     -20.559 -14.243   8.620  1.00  0.00     0.167 HD
HETATM    7  C10 UNL     1     -22.584 -13.967   8.478  1.00  0.00     0.013 A 
HETATM    8  C11 UNL     1     -22.873 -15.309   7.888  1.00  0.00     0.068 C 
HETATM    9  C12 UNL     1     -23.655 -13.129   8.694  1.00  0.00    -0.033 A 
HETATM   10  C13 UNL     1     -25.047 -13.538   8.356  1.00  0.00     0.050 C 
HETATM   11  C14 UNL     1     -23.345 -11.899   9.252  1.00  0.00    -0.040 A 
HETATM   12  C15 UNL     1     -24.477 -10.968   9.481  1.00  0.00     0.050 C 
HETATM   13  C16 UNL     1     -22.085 -11.503   9.582  1.00  0.00     0.016 A 
HETATM   14  C17 UNL     1     -21.763 -10.289  10.124  1.00  0.00     0.042 A 
HETATM   15  C18 UNL     1     -20.471  -9.909  10.436  1.00  0.00     0.089 A 
HETATM   16  C19 UNL     1     -20.224  -8.611  11.027  1.00  0.00     0.103 C 
HETATM   17  N5  UNL     1     -20.055  -7.562  11.514  1.00  0.00    -0.191 NA
ENDROOT
BRANCH   1  18
HETATM   18  N2  UNL     1     -18.277 -10.558  10.400  1.00  0.00    -0.366 N 
ATOM     19  H2  UNL     1     -18.040  -9.798   9.763  1.00  0.00     0.161 HD
BRANCH  18  20
HETATM   20  C7  UNL     1     -17.136 -10.821  11.087  1.00  0.00     0.224 C 
BRANCH  20  21
HETATM   21  C6  UNL     1     -16.490 -12.142  10.660  1.00  0.00     0.239 C 
HETATM   22  N1  UNL     1     -16.795 -13.227  11.498  1.00  0.00    -0.326 N 
ATOM     23  H1  UNL     1     -17.407 -13.038  12.293  1.00  0.00     0.169 HD
HETATM   24  O2  UNL     1     -15.789 -12.126   9.663  1.00  0.00    -0.271 OA
BRANCH  22  25
HETATM   25  C5  UNL     1     -16.338 -14.551  11.346  1.00  0.00     0.038 A 
HETATM   26  C4  UNL     1     -14.989 -14.842  11.633  1.00  0.00     0.066 A 
HETATM   27  C3  UNL     1     -14.470 -16.109  11.555  1.00  0.00     0.071 A 
HETATM   28  C23 UNL     1     -15.306 -17.132  11.179  1.00  0.00     0.053 A 
HETATM   29  C21 UNL     1     -16.645 -16.902  10.886  1.00  0.00     0.052 A 
HETATM   30  C20 UNL     1     -17.130 -15.600  10.980  1.00  0.00     0.046 A 
BRANCH  27  31
HETATM   31  O1  UNL     1     -13.161 -16.299  11.847  1.00  0.00    -0.351 OA
BRANCH  31  32
HETATM   32  C2  UNL     1     -12.505 -16.964  12.848  1.00  0.00     0.171 C 
HETATM   33  C1  UNL     1     -12.257 -16.167  14.109  1.00  0.00     0.034 C 
ENDBRANCH  31  32
ENDBRANCH  27  31
BRANCH  29  34
HETATM   34  C22 UNL     1     -17.535 -18.032  10.474  1.00  0.00     0.417 C 
HETATM   35  F1  UNL     1     -18.866 -17.707  10.655  1.00  0.00    -0.166 F 
HETATM   36  F2  UNL     1     -17.355 -18.406   9.169  1.00  0.00    -0.166 F 
HETATM   37  F3  UNL     1     -17.205 -19.138  11.246  1.00  0.00    -0.166 F 
ENDBRANCH  29  34
ENDBRANCH  22  25
ENDBRANCH  20  21
ENDBRANCH  18  20
ENDBRANCH   1  18
TORSDOF 7
ENDMDL
MODEL 2
REMARK VINA RESULT: -9.846260123      1.052      1.092
REMARK  7 active torsions:
REMARK  status: ('A' for Active; 'I' for Inactive)
REMARK    1  A    between atoms: C2_2  and  O1_3 
REMARK    2  A    between atoms: O1_3  and  C3_4 
REMARK    3  A    between atoms: C5_6  and  N1_7 
REMARK       I    between atoms: N1_7  and  C6_9 
REMARK    4  A    between atoms: C6_9  and  C7_11 
REMARK    5  A    between atoms: C7_11  and  N2_12 
REMARK    6  A    between atoms: N2_12  and  C8_14 
REMARK    7  A    between atoms: C21_32  and  C22_33 
ROOT
HETATM    1  C8  UNL     1     -18.452 -10.870  10.548  1.00  0.00     0.124 A 
HETATM    2  N3  UNL     1     -18.916 -12.053   9.980  1.00  0.00    -0.327 N 
ATOM      3  H3  UNL     1     -18.245 -12.802   9.808  1.00  0.00     0.169 HD
HETATM    4  C9  UNL     1     -20.183 -12.255   9.652  1.00  0.00     0.118 A 
HETATM    5  N4  UNL     1     -20.589 -13.419   9.087  1.00  0.00    -0.345 N 
ATOM      6  H4  UNL     1     -19.899 -14.152   8.924  1.00  0.00     0.167 HD
HETATM    7  C10 UNL     1     -21.874 -13.646   8.732  1.00  0.00     0.013 A 
HETATM    8  C11 UNL     1     -22.298 -14.943   8.123  1.00  0.00     0.068 C 
HETATM    9  C12 UNL     1     -22.848 -12.693   8.928  1.00  0.00    -0.033 A 
HETATM   10  C13 UNL     1     -24.268 -12.939   8.550  1.00  0.00     0.050 C 
HETATM   11  C14 UNL     1     -22.416 -11.509   9.505  1.00  0.00    -0.040 A 
HETATM   12  C15 UNL     1     -23.440 -10.457   9.712  1.00  0.00     0.050 C 
HETATM   13  C16 UNL     1     -21.128 -11.261   9.870  1.00  0.00     0.016 A 
HETATM   14  C17 UNL     1     -20.684 -10.094  10.430  1.00  0.00     0.042 A 
HETATM   15  C18 UNL     1     -19.366  -9.867  10.779  1.00  0.00     0.089 A 
HETATM   16  C19 UNL     1     -18.989  -8.608  11.387  1.00  0.00     0.103 C 
HETATM   17  N5  UNL     1     -18.714  -7.588  11.888  1.00  0.00    -0.191 NA
ENDROOT
BRANCH   1  18
HETATM   18  N2  UNL     1     -17.260 -10.761  10.794  1.00  0.00    -0.366 N 
ATOM     19  H2  UNL     1     -16.900 -10.106  10.101  1.00  0.00     0.161 HD
BRANCH  18  20
HETATM   20  C7  UNL     1     -16.190 -11.103  11.556  1.00  0.00     0.224 C 
BRANCH  20  21
HETATM   21  C6  UNL     1     -16.203 -12.582  11.950  1.00  0.00     0.239 C 
HETATM   22  N1  UNL     1     -15.778 -13.451  10.932  1.00  0.00    -0.326 N 
ATOM     23  H1  UNL     1     -15.504 -13.025  10.047  1.00  0.00     0.169 HD
HETATM   24  O2  UNL     1     -16.573 -12.858  13.079  1.00  0.00    -0.271 OA
BRANCH  22  25
HETATM   25  C5  UNL     1     -15.693 -14.855  11.017  1.00  0.00     0.038 A 
HETATM   26  C4  UNL     1     -14.545 -15.434  11.593  1.00  0.00     0.066 A 
HETATM   27  C3  UNL     1     -14.398 -16.788  11.757  1.00  0.00     0.071 A 
HETATM   28  C23 UNL     1     -15.416 -17.607  11.336  1.00  0.00     0.053 A 
HETATM   29  C21 UNL     1     -16.571 -17.090  10.761  1.00  0.00     0.052 A 
HETATM   30  C20 UNL     1     -16.679 -15.710  10.617  1.00  0.00     0.046 A 
BRANCH  27  31
HETATM   31  O1  UNL     1     -13.261 -17.259  12.320  1.00  0.00    -0.351 OA
BRANCH  31  32
HETATM   32  C2  UNL     1     -12.122 -16.660  12.790  1.00  0.00     0.171 C 
HETATM   33  C1  UNL     1     -12.130 -16.303  14.259  1.00  0.00     0.034 C 
ENDBRANCH  31  32
ENDBRANCH  27  31
BRANCH  29  34
HETATM   34  C22 UNL     1     -17.665 -18.004  10.305  1.00  0.00     0.417 C 
HETATM   35  F1  UNL     1     -18.889 -17.360  10.322  1.00  0.00    -0.166 F 
HETATM   36  F2  UNL     1     -17.456 -18.504   9.048  1.00  0.00    -0.166 F 
HETATM   37  F3  UNL     1     -17.691 -19.098  11.161  1.00  0.00    -0.166 F 
ENDBRANCH  29  34
ENDBRANCH  22  25
ENDBRANCH  20  21
ENDBRANCH  18  20
ENDBRANCH   1  18
TORSDOF 7
ENDMDL
MODEL 3
REMARK VINA RESULT: -9.839621471      2.994      6.977
REMARK  7 active torsions:
REMARK  status: ('A' for Active; 'I' for Inactive)
REMARK    1  A    between atoms: C2_2  and  O1_3 
REMARK    2  A    between atoms: O1_3  and  C3_4 
REMARK    3  A    between atoms: C5_6  and  N1_7 
REMARK       I    between atoms: N1_7  and  C6_9 
REMARK    4  A    between atoms: C6_9  and  C7_11 
REMARK    5  A    between atoms: C7_11  and  N2_12 
REMARK    6  A    between atoms: N2_12  and  C8_14 
REMARK    7  A    between atoms: C21_32  and  C22_33 
ROOT
HETATM    1  C8  UNL     1     -13.949 -11.204  12.240  1.00  0.00     0.124 A 
HETATM    2  N3  UNL     1     -14.237 -10.327  13.281  1.00  0.00    -0.327 N 
ATOM      3  H3  UNL     1     -13.902 -10.560  14.216  1.00  0.00     0.169 HD
HETATM    4  C9  UNL     1     -14.923  -9.206  13.120  1.00  0.00     0.118 A 
HETATM    5  N4  UNL     1     -15.193  -8.386  14.166  1.00  0.00    -0.345 N 
ATOM      6  H4  UNL     1     -14.848  -8.642  15.091  1.00  0.00     0.167 HD
HETATM    7  C10 UNL     1     -15.902  -7.242  14.029  1.00  0.00     0.013 A 
HETATM    8  C11 UNL     1     -16.174  -6.349  15.196  1.00  0.00     0.068 C 
HETATM    9  C12 UNL     1     -16.392  -6.847  12.805  1.00  0.00    -0.033 A 
HETATM   10  C13 UNL     1     -17.163  -5.583  12.644  1.00  0.00     0.050 C 
HETATM   11  C14 UNL     1     -16.108  -7.697  11.748  1.00  0.00    -0.040 A 
HETATM   12  C15 UNL     1     -16.638  -7.306  10.419  1.00  0.00     0.050 C 
HETATM   13  C16 UNL     1     -15.396  -8.852  11.863  1.00  0.00     0.016 A 
HETATM   14  C17 UNL     1     -15.117  -9.706  10.831  1.00  0.00     0.042 A 
HETATM   15  C18 UNL     1     -14.402 -10.880  10.982  1.00  0.00     0.089 A 
HETATM   16  C19 UNL     1     -14.136 -11.713   9.829  1.00  0.00     0.103 C 
HETATM   17  N5  UNL     1     -13.924 -12.361   8.879  1.00  0.00    -0.191 NA
ENDROOT
BRANCH   1  18
HETATM   18  N2  UNL     1     -13.332 -12.230  12.487  1.00  0.00    -0.366 N 
ATOM     19  H2  UNL     1     -12.349 -11.994  12.349  1.00  0.00     0.161 HD
BRANCH  18  20
HETATM   20  C7  UNL     1     -13.339 -13.536  12.857  1.00  0.00     0.224 C 
BRANCH  20  21
HETATM   21  C6  UNL     1     -14.226 -14.394  11.952  1.00  0.00     0.239 C 
HETATM   22  N1  UNL     1     -15.604 -14.202  12.149  1.00  0.00    -0.326 N 
ATOM     23  H1  UNL     1     -15.878 -13.522  12.859  1.00  0.00     0.169 HD
HETATM   24  O2  UNL     1     -13.668 -15.144  11.169  1.00  0.00    -0.271 OA
BRANCH  22  25
HETATM   25  C5  UNL     1     -16.643 -14.859  11.460  1.00  0.00     0.038 A 
HETATM   26  C4  UNL     1     -17.668 -14.087  10.880  1.00  0.00     0.066 A 
HETATM   27  C3  UNL     1     -18.694 -14.639  10.154  1.00  0.00     0.071 A 
HETATM   28  C23 UNL     1     -18.715 -16.002   9.994  1.00  0.00     0.053 A 
HETATM   29  C21 UNL     1     -17.729 -16.811  10.544  1.00  0.00     0.052 A 
HETATM   30  C20 UNL     1     -16.706 -16.209  11.271  1.00  0.00     0.046 A 
BRANCH  27  31
HETATM   31  O1  UNL     1     -19.639 -13.822   9.631  1.00  0.00    -0.351 OA
BRANCH  31  32
HETATM   32  C2  UNL     1     -20.763 -14.039   8.881  1.00  0.00     0.171 C 
HETATM   33  C1  UNL     1     -21.779 -12.919   8.885  1.00  0.00     0.034 C 
ENDBRANCH  31  32
ENDBRANCH  27  31
BRANCH  29  34
HETATM   34  C22 UNL     1     -17.777 -18.296  10.359  1.00  0.00     0.417 C 
HETATM   35  F1  UNL     1     -19.065 -18.774  10.519  1.00  0.00    -0.166 F 
HETATM   36  F2  UNL     1     -17.314 -18.699   9.135  1.00  0.00    -0.166 F 
HETATM   37  F3  UNL     1     -16.936 -18.871  11.303  1.00  0.00    -0.166 F 
ENDBRANCH  29  34
ENDBRANCH  22  25
ENDBRANCH  20  21
ENDBRANCH  18  20
ENDBRANCH   1  18
TORSDOF 7
ENDMDL
MODEL 4
REMARK VINA RESULT: -9.776752863      1.583      2.589
REMARK  7 active torsions:
REMARK  status: ('A' for Active; 'I' for Inactive)
REMARK    1  A    between atoms: C2_2  and  O1_3 
REMARK    2  A    between atoms: O1_3  and  C3_4 
REMARK    3  A    between atoms: C5_6  and  N1_7 
REMARK       I    between atoms: N1_7  and  C6_9 
REMARK    4  A    between atoms: C6_9  and  C7_11 
REMARK    5  A    between atoms: C7_11  and  N2_12 
REMARK    6  A    between atoms: N2_12  and  C8_14 
REMARK    7  A    between atoms: C21_32  and  C22_33 
ROOT
HETATM    1  C8  UNL     1     -16.956 -10.079  10.645  1.00  0.00     0.124 A 
HETATM    2  N3  UNL     1     -17.920 -10.944  10.138  1.00  0.00    -0.327 N 
ATOM      3  H3  UNL     1     -17.611 -11.818   9.714  1.00  0.00     0.169 HD
HETATM    4  C9  UNL     1     -19.220 -10.689  10.177  1.00  0.00     0.118 A 
HETATM    5  N4  UNL     1     -20.125 -11.554   9.657  1.00  0.00    -0.345 N 
ATOM      6  H4  UNL     1     -19.790 -12.421   9.238  1.00  0.00     0.167 HD
HETATM    7  C10 UNL     1     -21.456 -11.311   9.674  1.00  0.00     0.013 A 
HETATM    8  C11 UNL     1     -22.434 -12.288   9.107  1.00  0.00     0.068 C 
HETATM    9  C12 UNL     1     -21.965 -10.157  10.227  1.00  0.00    -0.033 A 
HETATM   10  C13 UNL     1     -23.430  -9.888  10.260  1.00  0.00     0.050 C 
HETATM   11  C14 UNL     1     -21.026  -9.284  10.752  1.00  0.00    -0.040 A 
HETATM   12  C15 UNL     1     -21.543  -8.024  11.339  1.00  0.00     0.050 C 
HETATM   13  C16 UNL     1     -19.683  -9.509  10.746  1.00  0.00     0.016 A 
HETATM   14  C17 UNL     1     -18.743  -8.652  11.250  1.00  0.00     0.042 A 
HETATM   15  C18 UNL     1     -17.384  -8.903  11.218  1.00  0.00     0.089 A 
HETATM   16  C19 UNL     1     -16.462  -7.948  11.795  1.00  0.00     0.103 C 
HETATM   17  N5  UNL     1     -15.740  -7.166  12.280  1.00  0.00    -0.191 NA
ENDROOT
BRANCH   1  18
HETATM   18  N2  UNL     1     -15.777 -10.384  10.542  1.00  0.00    -0.366 N 
ATOM     19  H2  UNL     1     -15.261  -9.620  10.978  1.00  0.00     0.161 HD
BRANCH  18  20
HETATM   20  C7  UNL     1     -14.832 -11.261  10.119  1.00  0.00     0.224 C 
BRANCH  20  21
HETATM   21  C6  UNL     1     -14.913 -12.604  10.850  1.00  0.00     0.239 C 
HETATM   22  N1  UNL     1     -15.090 -13.710  10.002  1.00  0.00    -0.326 N 
ATOM     23  H1  UNL     1     -15.143 -13.519   9.001  1.00  0.00     0.169 HD
HETATM   24  O2  UNL     1     -14.822 -12.586  12.066  1.00  0.00    -0.271 OA
BRANCH  22  25
HETATM   25  C5  UNL     1     -15.200 -15.056  10.401  1.00  0.00     0.038 A 
HETATM   26  C4  UNL     1     -14.170 -15.622  11.177  1.00  0.00     0.066 A 
HETATM   27  C3  UNL     1     -14.216 -16.911  11.647  1.00  0.00     0.071 A 
HETATM   28  C23 UNL     1     -15.315 -17.675  11.341  1.00  0.00     0.053 A 
HETATM   29  C21 UNL     1     -16.360 -17.167  10.580  1.00  0.00     0.052 A 
HETATM   30  C20 UNL     1     -16.273 -15.854  10.126  1.00  0.00     0.046 A 
BRANCH  27  31
HETATM   31  O1  UNL     1     -13.180 -17.375  12.386  1.00  0.00    -0.351 OA
BRANCH  31  32
HETATM   32  C2  UNL     1     -12.077 -16.782  12.940  1.00  0.00     0.171 C 
HETATM   33  C1  UNL     1     -12.250 -16.269  14.351  1.00  0.00     0.034 C 
ENDBRANCH  31  32
ENDBRANCH  27  31
BRANCH  29  34
HETATM   34  C22 UNL     1     -17.545 -18.022  10.255  1.00  0.00     0.417 C 
HETATM   35  F1  UNL     1     -18.720 -17.298  10.351  1.00  0.00    -0.166 F 
HETATM   36  F2  UNL     1     -17.480 -18.575   9.004  1.00  0.00    -0.166 F 
HETATM   37  F3  UNL     1     -17.565 -19.082  11.151  1.00  0.00    -0.166 F 
ENDBRANCH  29  34
ENDBRANCH  22  25
ENDBRANCH  20  21
ENDBRANCH  18  20
ENDBRANCH   1  18
TORSDOF 7
ENDMDL
MODEL 5
REMARK VINA RESULT: -9.607101785      3.235      7.299
REMARK  7 active torsions:
REMARK  status: ('A' for Active; 'I' for Inactive)
REMARK    1  A    between atoms: C2_2  and  O1_3 
REMARK    2  A    between atoms: O1_3  and  C3_4 
REMARK    3  A    between atoms: C5_6  and  N1_7 
REMARK       I    between atoms: N1_7  and  C6_9 
REMARK    4  A    between atoms: C6_9  and  C7_11 
REMARK    5  A    between atoms: C7_11  and  N2_12 
REMARK    6  A    between atoms: N2_12  and  C8_14 
REMARK    7  A    between atoms: C21_32  and  C22_33 
ROOT
HETATM    1  C8  UNL     1     -13.276 -11.754  12.096  1.00  0.00     0.124 A 
HETATM    2  N3  UNL     1     -13.669 -10.468  11.739  1.00  0.00    -0.327 N 
ATOM      3  H3  UNL     1     -13.402 -10.118  10.819  1.00  0.00     0.169 HD
HETATM    4  C9  UNL     1     -14.373  -9.674  12.534  1.00  0.00     0.118 A 
HETATM    5  N4  UNL     1     -14.723  -8.422  12.151  1.00  0.00    -0.345 N 
ATOM      6  H4  UNL     1     -14.442  -8.095  11.227  1.00  0.00     0.167 HD
HETATM    7  C10 UNL     1     -15.430  -7.589  12.949  1.00  0.00     0.013 A 
HETATM    8  C11 UNL     1     -15.815  -6.217  12.497  1.00  0.00     0.068 C 
HETATM    9  C12 UNL     1     -15.835  -7.976  14.207  1.00  0.00    -0.033 A 
HETATM   10  C13 UNL     1     -16.624  -7.069  15.086  1.00  0.00     0.050 C 
HETATM   11  C14 UNL     1     -15.467  -9.258  14.581  1.00  0.00    -0.040 A 
HETATM   12  C15 UNL     1     -15.874  -9.697  15.938  1.00  0.00     0.050 C 
HETATM   13  C16 UNL     1     -14.756 -10.113  13.795  1.00  0.00     0.016 A 
HETATM   14  C17 UNL     1     -14.377 -11.377  14.155  1.00  0.00     0.042 A 
HETATM   15  C18 UNL     1     -13.644 -12.217  13.339  1.00  0.00     0.089 A 
HETATM   16  C19 UNL     1     -13.305 -13.549  13.795  1.00  0.00     0.103 C 
HETATM   17  N5  UNL     1     -13.055 -14.623  14.183  1.00  0.00    -0.191 NA
ENDROOT
BRANCH   1  18
HETATM   18  N2  UNL     1     -12.605 -12.405  11.309  1.00  0.00    -0.366 N 
ATOM     19  H2  UNL     1     -11.635 -12.204  11.550  1.00  0.00     0.161 HD
BRANCH  18  20
HETATM   20  C7  UNL     1     -12.544 -13.270  10.265  1.00  0.00     0.224 C 
BRANCH  20  21
HETATM   21  C6  UNL     1     -13.932 -13.710   9.791  1.00  0.00     0.239 C 
HETATM   22  N1  UNL     1     -14.647 -14.467  10.733  1.00  0.00    -0.326 N 
ATOM     23  H1  UNL     1     -14.187 -14.646  11.626  1.00  0.00     0.169 HD
HETATM   24  O2  UNL     1     -14.273 -13.374   8.670  1.00  0.00    -0.271 OA
BRANCH  22  25
HETATM   25  C5  UNL     1     -15.940 -15.002  10.564  1.00  0.00     0.038 A 
HETATM   26  C4  UNL     1     -17.019 -14.121  10.355  1.00  0.00     0.066 A 
HETATM   27  C3  UNL     1     -18.302 -14.556  10.137  1.00  0.00     0.071 A 
HETATM   28  C23 UNL     1     -18.535 -15.909  10.125  1.00  0.00     0.053 A 
HETATM   29  C21 UNL     1     -17.508 -16.823  10.324  1.00  0.00     0.052 A 
HETATM   30  C20 UNL     1     -16.221 -16.337  10.540  1.00  0.00     0.046 A 
BRANCH  27  31
HETATM   31  O1  UNL     1     -19.280 -13.640   9.946  1.00  0.00    -0.351 OA
BRANCH  31  32
HETATM   32  C2  UNL     1     -19.305 -12.270   9.958  1.00  0.00     0.171 C 
HETATM   33  C1  UNL     1     -20.623 -11.637   9.577  1.00  0.00     0.034 C 
ENDBRANCH  31  32
ENDBRANCH  27  31
BRANCH  29  34
HETATM   34  C22 UNL     1     -17.789 -18.293  10.312  1.00  0.00     0.417 C 
HETATM   35  F1  UNL     1     -16.961 -18.964  11.194  1.00  0.00    -0.166 F 
HETATM   36  F2  UNL     1     -19.088 -18.593  10.624  1.00  0.00    -0.166 F 
HETATM   37  F3  UNL     1     -17.581 -18.757   9.019  1.00  0.00    -0.166 F 
ENDBRANCH  29  34
ENDBRANCH  22  25
ENDBRANCH  20  21
ENDBRANCH  18  20
ENDBRANCH   1  18
TORSDOF 7
ENDMDL
