MODEL 1
REMARK VINA RESULT: -9.619401170      0.000      0.000
REMARK  10 active torsions:
REMARK  status: ('A' for Active; 'I' for Inactive)
REMARK    1  A    between atoms: C4_4  and  O1_5 
REMARK    2  A    between atoms: O1_5  and  C5_6 
REMARK    3  A    between atoms: C5_6  and  C6_7 
REMARK    4  A    between atoms: C6_7  and  O2_8 
REMARK    5  A    between atoms: C6_7  and  C7_10 
REMARK    6  A    between atoms: C14_20  and  O3_21 
REMARK    7  A    between atoms: O3_21  and  C15_22 
REMARK    8  A    between atoms: C15_22  and  C16_24 
REMARK    9  A    between atoms: C16_24  and  C19_27 
REMARK   10  A    between atoms: C19_27  and  O5_28 
ROOT
HETATM    1  C1  UNL     1     -12.065 -17.189  11.951  1.00  0.00     0.019 C 
HETATM    2  C2  UNL     1     -12.892 -16.279  11.495  1.00  0.00    -0.065 C 
HETATM    3  C3  UNL     1     -14.315 -16.251  11.837  1.00  0.00     0.039 C 
HETATM    4  C4  UNL     1     -15.073 -15.187  11.618  1.00  0.00     0.051 C 
HETATM    5  C8  UNL     1     -14.533 -13.968  11.020  1.00  0.00     0.052 C 
HETATM    6  C9  UNL     1     -13.008 -13.913  11.078  1.00  0.00     0.000 C 
HETATM    7  C10 UNL     1     -12.629 -12.768  10.145  1.00  0.00     0.006 C 
HETATM    8  C11 UNL     1     -13.154 -11.468  10.626  1.00  0.00     0.012 C 
HETATM    9  C12 UNL     1     -14.607 -11.477  11.011  1.00  0.00    -0.013 C 
HETATM   10  C13 UNL     1     -15.412 -11.335   9.733  1.00  0.00     0.018 C 
HETATM   11  C14 UNL     1     -14.854 -10.267  11.879  1.00  0.00     0.140 C 
HETATM   12  C20 UNL     1     -15.729 -10.530  13.060  1.00  0.00     0.033 C 
HETATM   13  C21 UNL     1     -15.365 -11.726  13.871  1.00  0.00     0.003 C 
HETATM   14  C22 UNL     1     -14.457 -12.684  13.097  1.00  0.00     0.006 C 
HETATM   15  C23 UNL     1     -15.042 -12.733  11.700  1.00  0.00     0.007 C 
HETATM   16  C24 UNL     1     -12.414 -15.204  10.587  1.00  0.00     0.043 C 
ENDROOT
BRANCH   4  17
HETATM   17  O1  UNL     1     -16.419 -15.215  11.962  1.00  0.00    -0.352 OA
BRANCH  17  18
HETATM   18  C5  UNL     1     -17.342 -15.363  10.900  1.00  0.00     0.216 C 
BRANCH  18  19
HETATM   19  C6  UNL     1     -18.088 -16.666  10.967  1.00  0.00     0.249 C 
BRANCH  19  20
HETATM   20  O2  UNL     1     -19.384 -16.519  10.429  1.00  0.00    -0.384 OA
ATOM     21  H2  UNL     1     -19.354 -16.555   9.480  1.00  0.00     0.210 HD
ENDBRANCH  19  20
BRANCH  19  22
HETATM   22  C7  UNL     1     -17.412 -17.793  10.267  1.00  0.00     0.415 C 
HETATM   23  F1  UNL     1     -16.615 -17.242   9.269  1.00  0.00    -0.168 F 
HETATM   24  F2  UNL     1     -16.520 -18.427  11.138  1.00  0.00    -0.168 F 
HETATM   25  F3  UNL     1     -18.281 -18.663   9.684  1.00  0.00    -0.168 F 
ENDBRANCH  19  22
ENDBRANCH  18  19
ENDBRANCH  17  18
ENDBRANCH   4  17
BRANCH  11  26
HETATM   26  O3  UNL     1     -15.501  -9.264  11.117  1.00  0.00    -0.315 OA
BRANCH  26  27
HETATM   27  C15 UNL     1     -16.071  -8.137  11.668  1.00  0.00     0.269 C 
HETATM   28  O4  UNL     1     -15.392  -7.484  12.491  1.00  0.00    -0.264 OA
BRANCH  27  29
HETATM   29  C16 UNL     1     -17.441  -7.767  11.255  1.00  0.00     0.062 C 
HETATM   30  C17 UNL     1     -18.157  -8.962  10.637  1.00  0.00     0.028 C 
HETATM   31  C18 UNL     1     -18.221  -7.217  12.412  1.00  0.00     0.028 C 
BRANCH  29  32
HETATM   32  C19 UNL     1     -17.421  -6.689  10.178  1.00  0.00     0.183 C 
BRANCH  32  33
HETATM   33  O5  UNL     1     -16.121  -6.455   9.784  1.00  0.00    -0.400 OA
ATOM     34  H5  UNL     1     -15.581  -6.296  10.549  1.00  0.00     0.209 HD
ENDBRANCH  32  33
ENDBRANCH  29  32
ENDBRANCH  27  29
ENDBRANCH  26  27
ENDBRANCH  11  26
TORSDOF 10
ENDMDL
MODEL 2
REMARK VINA RESULT: -9.408957299      0.534      1.079
REMARK  10 active torsions:
REMARK  status: ('A' for Active; 'I' for Inactive)
REMARK    1  A    between atoms: C4_4  and  O1_5 
REMARK    2  A    between atoms: O1_5  and  C5_6 
REMARK    3  A    between atoms: C5_6  and  C6_7 
REMARK    4  A    between atoms: C6_7  and  O2_8 
REMARK    5  A    between atoms: C6_7  and  C7_10 
REMARK    6  A    between atoms: C14_20  and  O3_21 
REMARK    7  A    between atoms: O3_21  and  C15_22 
REMARK    8  A    between atoms: C15_22  and  C16_24 
REMARK    9  A    between atoms: C16_24  and  C19_27 
REMARK   10  A    between atoms: C19_27  and  O5_28 
ROOT
HETATM    1  C1  UNL     1     -12.063 -17.156  11.975  1.00  0.00     0.019 C 
HETATM    2  C2  UNL     1     -12.902 -16.260  11.513  1.00  0.00    -0.065 C 
HETATM    3  C3  UNL     1     -14.324 -16.246  11.857  1.00  0.00     0.039 C 
HETATM    4  C4  UNL     1     -15.096 -15.193  11.631  1.00  0.00     0.051 C 
HETATM    5  C8  UNL     1     -14.571 -13.972  11.023  1.00  0.00     0.052 C 
HETATM    6  C9  UNL     1     -13.047 -13.899  11.077  1.00  0.00     0.000 C 
HETATM    7  C10 UNL     1     -12.683 -12.757  10.135  1.00  0.00     0.006 C 
HETATM    8  C11 UNL     1     -13.222 -11.459  10.607  1.00  0.00     0.012 C 
HETATM    9  C12 UNL     1     -14.675 -11.483  10.994  1.00  0.00    -0.013 C 
HETATM   10  C13 UNL     1     -15.484 -11.360   9.716  1.00  0.00     0.018 C 
HETATM   11  C14 UNL     1     -14.935 -10.269  11.853  1.00  0.00     0.140 C 
HETATM   12  C20 UNL     1     -15.804 -10.532  13.038  1.00  0.00     0.033 C 
HETATM   13  C21 UNL     1     -15.425 -11.717  13.857  1.00  0.00     0.003 C 
HETATM   14  C22 UNL     1     -14.506 -12.671  13.090  1.00  0.00     0.006 C 
HETATM   15  C23 UNL     1     -15.093 -12.737  11.693  1.00  0.00     0.007 C 
HETATM   16  C24 UNL     1     -12.439 -15.186  10.596  1.00  0.00     0.043 C 
ENDROOT
BRANCH   4  17
HETATM   17  O1  UNL     1     -16.440 -15.233  11.978  1.00  0.00    -0.352 OA
BRANCH  17  18
HETATM   18  C5  UNL     1     -17.365 -15.372  10.916  1.00  0.00     0.216 C 
BRANCH  18  19
HETATM   19  C6  UNL     1     -18.097 -16.684  10.962  1.00  0.00     0.249 C 
BRANCH  19  20
HETATM   20  O2  UNL     1     -19.390 -16.546  10.416  1.00  0.00    -0.384 OA
ATOM     21  H2  UNL     1     -19.376 -16.718   9.482  1.00  0.00     0.210 HD
ENDBRANCH  19  20
BRANCH  19  22
HETATM   22  C7  UNL     1     -17.403 -17.795  10.252  1.00  0.00     0.415 C 
HETATM   23  F1  UNL     1     -16.621 -17.224   9.252  1.00  0.00    -0.168 F 
HETATM   24  F2  UNL     1     -16.494 -18.416  11.115  1.00  0.00    -0.168 F 
HETATM   25  F3  UNL     1     -18.258 -18.678   9.668  1.00  0.00    -0.168 F 
ENDBRANCH  19  22
ENDBRANCH  18  19
ENDBRANCH  17  18
ENDBRANCH   4  17
BRANCH  11  26
HETATM   26  O3  UNL     1     -15.594  -9.279  11.084  1.00  0.00    -0.315 OA
BRANCH  26  27
HETATM   27  C15 UNL     1     -16.138  -8.133  11.622  1.00  0.00     0.269 C 
HETATM   28  O4  UNL     1     -15.434  -7.474  12.419  1.00  0.00    -0.264 OA
BRANCH  27  29
HETATM   29  C16 UNL     1     -17.510  -7.752  11.226  1.00  0.00     0.062 C 
HETATM   30  C17 UNL     1     -17.480  -6.718  10.107  1.00  0.00     0.028 C 
HETATM   31  C18 UNL     1     -18.306  -8.957  10.820  1.00  0.00     0.028 C 
BRANCH  29  32
HETATM   32  C19 UNL     1     -18.255  -7.094  12.382  1.00  0.00     0.183 C 
BRANCH  32  33
HETATM   33  O5  UNL     1     -18.178  -7.901  13.498  1.00  0.00    -0.400 OA
ATOM     34  H5  UNL     1     -18.525  -7.436  14.250  1.00  0.00     0.209 HD
ENDBRANCH  32  33
ENDBRANCH  29  32
ENDBRANCH  27  29
ENDBRANCH  26  27
ENDBRANCH  11  26
TORSDOF 10
ENDMDL
MODEL 3
REMARK VINA RESULT: -9.239786381      0.990      1.508
REMARK  10 active torsions:
REMARK  status: ('A' for Active; 'I' for Inactive)
REMARK    1  A    between atoms: C4_4  and  O1_5 
REMARK    2  A    between atoms: O1_5  and  C5_6 
REMARK    3  A    between atoms: C5_6  and  C6_7 
REMARK    4  A    between atoms: C6_7  and  O2_8 
REMARK    5  A    between atoms: C6_7  and  C7_10 
REMARK    6  A    between atoms: C14_20  and  O3_21 
REMARK    7  A    between atoms: O3_21  and  C15_22 
REMARK    8  A    between atoms: C15_22  and  C16_24 
REMARK    9  A    between atoms: C16_24  and  C19_27 
REMARK   10  A    between atoms: C19_27  and  O5_28 
ROOT
HETATM    1  C1  UNL     1     -11.901 -16.833  11.367  1.00  0.00     0.019 C 
HETATM    2  C2  UNL     1     -12.821 -15.926  11.141  1.00  0.00    -0.065 C 
HETATM    3  C3  UNL     1     -14.213 -16.079  11.566  1.00  0.00     0.039 C 
HETATM    4  C4  UNL     1     -15.058 -15.059  11.598  1.00  0.00     0.051 C 
HETATM    5  C8  UNL     1     -14.651 -13.710  11.210  1.00  0.00     0.052 C 
HETATM    6  C9  UNL     1     -13.133 -13.541  11.185  1.00  0.00     0.000 C 
HETATM    7  C10 UNL     1     -12.906 -12.217  10.464  1.00  0.00     0.006 C 
HETATM    8  C11 UNL     1     -13.483 -11.075  11.213  1.00  0.00     0.012 C 
HETATM    9  C12 UNL     1     -14.899 -11.275  11.675  1.00  0.00    -0.013 C 
HETATM   10  C13 UNL     1     -15.805 -10.968  10.497  1.00  0.00     0.018 C 
HETATM   11  C14 UNL     1     -15.166 -10.270  12.769  1.00  0.00     0.140 C 
HETATM   12  C20 UNL     1     -15.929 -10.815  13.929  1.00  0.00     0.033 C 
HETATM   13  C21 UNL     1     -15.424 -12.106  14.477  1.00  0.00     0.003 C 
HETATM   14  C22 UNL     1     -14.510 -12.827  13.483  1.00  0.00     0.006 C 
HETATM   15  C23 UNL     1     -15.193 -12.667  12.139  1.00  0.00     0.007 C 
HETATM   16  C24 UNL     1     -12.488 -14.666  10.425  1.00  0.00     0.043 C 
ENDROOT
BRANCH   4  17
HETATM   17  O1  UNL     1     -16.369 -15.260  12.010  1.00  0.00    -0.352 OA
BRANCH  17  18
HETATM   18  C5  UNL     1     -17.353 -15.314  10.994  1.00  0.00     0.216 C 
BRANCH  18  19
HETATM   19  C6  UNL     1     -18.075 -16.632  10.966  1.00  0.00     0.249 C 
BRANCH  19  20
HETATM   20  O2  UNL     1     -19.362 -16.477  10.411  1.00  0.00    -0.384 OA
ATOM     21  H2  UNL     1     -19.744 -17.324  10.216  1.00  0.00     0.210 HD
ENDBRANCH  19  20
BRANCH  19  22
HETATM   22  C7  UNL     1     -17.363 -17.702  10.212  1.00  0.00     0.415 C 
HETATM   23  F1  UNL     1     -16.525 -18.356  11.110  1.00  0.00    -0.168 F 
HETATM   24  F2  UNL     1     -18.275 -18.674   9.791  1.00  0.00    -0.168 F 
HETATM   25  F3  UNL     1     -16.599 -17.224   9.192  1.00  0.00    -0.168 F 
ENDBRANCH  19  22
ENDBRANCH  18  19
ENDBRANCH  17  18
ENDBRANCH   4  17
BRANCH  11  26
HETATM   26  O3  UNL     1     -15.935  -9.200  12.249  1.00  0.00    -0.315 OA
BRANCH  26  27
HETATM   27  C15 UNL     1     -16.315  -8.103  12.992  1.00  0.00     0.269 C 
HETATM   28  O4  UNL     1     -15.457  -7.577  13.735  1.00  0.00    -0.264 OA
BRANCH  27  29
HETATM   29  C16 UNL     1     -17.706  -7.617  12.869  1.00  0.00     0.062 C 
HETATM   30  C17 UNL     1     -18.143  -7.604  11.409  1.00  0.00     0.028 C 
HETATM   31  C18 UNL     1     -18.641  -8.447  13.698  1.00  0.00     0.028 C 
BRANCH  29  32
HETATM   32  C19 UNL     1     -17.833  -6.179  13.356  1.00  0.00     0.183 C 
BRANCH  32  33
HETATM   33  O5  UNL     1     -17.800  -6.155  14.735  1.00  0.00    -0.400 OA
ATOM     34  H5  UNL     1     -18.311  -5.420  15.053  1.00  0.00     0.209 HD
ENDBRANCH  32  33
ENDBRANCH  29  32
ENDBRANCH  27  29
ENDBRANCH  26  27
ENDBRANCH  11  26
TORSDOF 10
ENDMDL
MODEL 4
REMARK VINA RESULT: -9.228394929      3.007      4.864
REMARK  10 active torsions:
REMARK  status: ('A' for Active; 'I' for Inactive)
REMARK    1  A    between atoms: C4_4  and  O1_5 
REMARK    2  A    between atoms: O1_5  and  C5_6 
REMARK    3  A    between atoms: C5_6  and  C6_7 
REMARK    4  A    between atoms: C6_7  and  O2_8 
REMARK    5  A    between atoms: C6_7  and  C7_10 
REMARK    6  A    between atoms: C14_20  and  O3_21 
REMARK    7  A    between atoms: O3_21  and  C15_22 
REMARK    8  A    between atoms: C15_22  and  C16_24 
REMARK    9  A    between atoms: C16_24  and  C19_27 
REMARK   10  A    between atoms: C19_27  and  O5_28 
ROOT
HETATM    1  C1  UNL     1     -18.133 -18.387   9.655  1.00  0.00     0.019 C 
HETATM    2  C2  UNL     1     -17.417 -17.626  10.448  1.00  0.00    -0.065 C 
HETATM    3  C3  UNL     1     -15.981 -17.818  10.656  1.00  0.00     0.039 C 
HETATM    4  C4  UNL     1     -15.218 -16.891  11.215  1.00  0.00     0.051 C 
HETATM    5  C8  UNL     1     -15.764 -15.610  11.659  1.00  0.00     0.052 C 
HETATM    6  C9  UNL     1     -17.133 -15.314  11.050  1.00  0.00     0.000 C 
HETATM    7  C10 UNL     1     -17.667 -14.138  11.858  1.00  0.00     0.006 C 
HETATM    8  C11 UNL     1     -16.823 -12.930  11.699  1.00  0.00     0.012 C 
HETATM    9  C12 UNL     1     -15.348 -13.163  11.876  1.00  0.00    -0.013 C 
HETATM   10  C13 UNL     1     -15.069 -13.169  13.368  1.00  0.00     0.018 C 
HETATM   11  C14 UNL     1     -14.626 -11.995  11.250  1.00  0.00     0.140 C 
HETATM   12  C20 UNL     1     -13.420 -12.375  10.457  1.00  0.00     0.033 C 
HETATM   13  C21 UNL     1     -13.618 -13.486   9.485  1.00  0.00     0.003 C 
HETATM   14  C22 UNL     1     -14.876 -14.300   9.799  1.00  0.00     0.006 C 
HETATM   15  C23 UNL     1     -14.870 -14.461  11.306  1.00  0.00     0.007 C 
HETATM   16  C24 UNL     1     -18.043 -16.502  11.192  1.00  0.00     0.043 C 
ENDROOT
BRANCH   4  17
HETATM   17  O1  UNL     1     -13.860 -17.125  11.388  1.00  0.00    -0.352 OA
BRANCH  17  18
HETATM   18  C5  UNL     1     -13.410 -17.293  12.720  1.00  0.00     0.216 C 
BRANCH  18  19
HETATM   19  C6  UNL     1     -12.124 -16.562  12.985  1.00  0.00     0.249 C 
BRANCH  19  20
HETATM   20  O2  UNL     1     -12.040 -15.405  12.182  1.00  0.00    -0.384 OA
ATOM     21  H2  UNL     1     -11.572 -14.717  12.639  1.00  0.00     0.210 HD
ENDBRANCH  19  20
BRANCH  19  22
HETATM   22  C7  UNL     1     -11.932 -16.162  14.407  1.00  0.00     0.415 C 
HETATM   23  F1  UNL     1     -12.421 -14.866  14.543  1.00  0.00    -0.168 F 
HETATM   24  F2  UNL     1     -12.742 -16.945  15.235  1.00  0.00    -0.168 F 
HETATM   25  F3  UNL     1     -10.627 -16.165  14.795  1.00  0.00    -0.168 F 
ENDBRANCH  19  22
ENDBRANCH  18  19
ENDBRANCH  17  18
ENDBRANCH   4  17
BRANCH  11  26
HETATM   26  O3  UNL     1     -14.178 -11.118  12.267  1.00  0.00    -0.315 OA
BRANCH  26  27
HETATM   27  C15 UNL     1     -14.527  -9.786  12.334  1.00  0.00     0.269 C 
HETATM   28  O4  UNL     1     -14.238  -9.059  11.358  1.00  0.00    -0.264 OA
BRANCH  27  29
HETATM   29  C16 UNL     1     -15.216  -9.299  13.547  1.00  0.00     0.062 C 
HETATM   30  C17 UNL     1     -15.378  -7.784  13.503  1.00  0.00     0.028 C 
HETATM   31  C18 UNL     1     -16.547  -9.973  13.716  1.00  0.00     0.028 C 
BRANCH  29  32
HETATM   32  C19 UNL     1     -14.404  -9.597  14.802  1.00  0.00     0.183 C 
BRANCH  32  33
HETATM   33  O5  UNL     1     -13.080  -9.277  14.580  1.00  0.00    -0.400 OA
ATOM     34  H5  UNL     1     -12.549 -10.062  14.643  1.00  0.00     0.209 HD
ENDBRANCH  32  33
ENDBRANCH  29  32
ENDBRANCH  27  29
ENDBRANCH  26  27
ENDBRANCH  11  26
TORSDOF 10
ENDMDL
MODEL 5
REMARK VINA RESULT: -9.164141549      2.678      4.407
REMARK  10 active torsions:
REMARK  status: ('A' for Active; 'I' for Inactive)
REMARK    1  A    between atoms: C4_4  and  O1_5 
REMARK    2  A    between atoms: O1_5  and  C5_6 
REMARK    3  A    between atoms: C5_6  and  C6_7 
REMARK    4  A    between atoms: C6_7  and  O2_8 
REMARK    5  A    between atoms: C6_7  and  C7_10 
REMARK    6  A    between atoms: C14_20  and  O3_21 
REMARK    7  A    between atoms: O3_21  and  C15_22 
REMARK    8  A    between atoms: C15_22  and  C16_24 
REMARK    9  A    between atoms: C16_24  and  C19_27 
REMARK   10  A    between atoms: C19_27  and  O5_28 
ROOT
HETATM    1  C1  UNL     1     -17.604 -18.260   9.801  1.00  0.00     0.019 C 
HETATM    2  C2  UNL     1     -17.062 -17.315  10.532  1.00  0.00    -0.065 C 
HETATM    3  C3  UNL     1     -15.630 -17.259  10.830  1.00  0.00     0.039 C 
HETATM    4  C4  UNL     1     -15.051 -16.169  11.311  1.00  0.00     0.051 C 
HETATM    5  C8  UNL     1     -15.808 -14.948  11.574  1.00  0.00     0.052 C 
HETATM    6  C9  UNL     1     -17.163 -14.936  10.870  1.00  0.00     0.000 C 
HETATM    7  C10 UNL     1     -17.918 -13.775  11.507  1.00  0.00     0.006 C 
HETATM    8  C11 UNL     1     -17.253 -12.476  11.247  1.00  0.00     0.012 C 
HETATM    9  C12 UNL     1     -15.775 -12.458  11.520  1.00  0.00    -0.013 C 
HETATM   10  C13 UNL     1     -15.595 -12.256  13.014  1.00  0.00     0.018 C 
HETATM   11  C14 UNL     1     -15.195 -11.267  10.796  1.00  0.00     0.140 C 
HETATM   12  C20 UNL     1     -13.896 -11.540  10.112  1.00  0.00     0.033 C 
HETATM   13  C21 UNL     1     -13.864 -12.768   9.269  1.00  0.00     0.003 C 
HETATM   14  C22 UNL     1     -15.005 -13.728   9.617  1.00  0.00     0.006 C 
HETATM   15  C23 UNL     1     -15.073 -13.720  11.131  1.00  0.00     0.007 C 
HETATM   16  C24 UNL     1     -17.895 -16.227  11.108  1.00  0.00     0.043 C 
ENDROOT
BRANCH   4  17
HETATM   17  O1  UNL     1     -13.687 -16.171  11.575  1.00  0.00    -0.352 OA
BRANCH  17  18
HETATM   18  C5  UNL     1     -13.220 -17.142  12.493  1.00  0.00     0.216 C 
BRANCH  18  19
HETATM   19  C6  UNL     1     -12.710 -16.527  13.767  1.00  0.00     0.249 C 
BRANCH  19  20
HETATM   20  O2  UNL     1     -11.373 -16.912  13.998  1.00  0.00    -0.384 OA
ATOM     21  H2  UNL     1     -10.949 -16.300  14.588  1.00  0.00     0.210 HD
ENDBRANCH  19  20
BRANCH  19  22
HETATM   22  C7  UNL     1     -12.784 -15.040  13.798  1.00  0.00     0.415 C 
HETATM   23  F1  UNL     1     -11.828 -14.596  14.707  1.00  0.00    -0.168 F 
HETATM   24  F2  UNL     1     -12.383 -14.517  12.565  1.00  0.00    -0.168 F 
HETATM   25  F3  UNL     1     -13.997 -14.570  14.197  1.00  0.00    -0.168 F 
ENDBRANCH  19  22
ENDBRANCH  18  19
ENDBRANCH  17  18
ENDBRANCH   4  17
BRANCH  11  26
HETATM   26  O3  UNL     1     -14.948 -10.225  11.723  1.00  0.00    -0.315 OA
BRANCH  26  27
HETATM   27  C15 UNL     1     -15.639  -9.032  11.730  1.00  0.00     0.269 C 
HETATM   28  O4  UNL     1     -15.776  -8.432  10.642  1.00  0.00    -0.264 OA
BRANCH  27  29
HETATM   29  C16 UNL     1     -16.174  -8.537  13.016  1.00  0.00     0.062 C 
HETATM   30  C17 UNL     1     -17.550  -9.132  13.292  1.00  0.00     0.028 C 
HETATM   31  C18 UNL     1     -15.228  -8.836  14.142  1.00  0.00     0.028 C 
BRANCH  29  32
HETATM   32  C19 UNL     1     -16.370  -7.026  12.987  1.00  0.00     0.183 C 
BRANCH  32  33
HETATM   33  O5  UNL     1     -15.142  -6.403  12.917  1.00  0.00    -0.400 OA
ATOM     34  H5  UNL     1     -15.214  -5.519  13.255  1.00  0.00     0.209 HD
ENDBRANCH  32  33
ENDBRANCH  29  32
ENDBRANCH  27  29
ENDBRANCH  26  27
ENDBRANCH  11  26
TORSDOF 10
ENDMDL
