MODEL 1
REMARK VINA RESULT: -4.427395018      0.000      0.000
REMARK  3 active torsions:
REMARK  status: ('A' for Active; 'I' for Inactive)
REMARK    1  A    between atoms: O1_2  and  C2_3 
REMARK    2  A    between atoms: C2_3  and  C3_5 
REMARK    3  A    between atoms: C5_9  and  O3_10 
ROOT
HETATM    1  C3  UNL     1      28.004  16.684   9.057  1.00  0.00     0.179 C 
HETATM    2  S1  UNL     1      27.604  18.361   9.538  1.00  0.00    -0.128 SA
HETATM    3  C4  UNL     1      28.907  17.710  10.653  1.00  0.00     0.174 C 
HETATM    4 CL1  UNL     1      28.901  18.419  12.258  1.00  0.00    -0.111 Cl
HETATM    5  C5  UNL     1      28.204  16.355  10.543  1.00  0.00     0.169 C 
ENDROOT
BRANCH   1   6
HETATM    6  C2  UNL     1      26.885  15.910   8.458  1.00  0.00     0.275 C 
HETATM    7  O2  UNL     1      25.704  16.200   8.734  1.00  0.00    -0.264 OA
BRANCH   6   8
HETATM    8  O1  UNL     1      27.080  14.853   7.585  1.00  0.00    -0.326 OA
HETATM    9  C1  UNL     1      27.305  13.528   7.993  1.00  0.00     0.213 C 
ENDBRANCH   6   8
ENDBRANCH   1   6
BRANCH   5  10
HETATM   10  O3  UNL     1      27.022  16.288  11.260  1.00  0.00    -0.392 OA
ATOM     11  H3  UNL     1      26.631  15.421  11.269  1.00  0.00     0.210 HD
ENDBRANCH   5  10
TORSDOF 3
ENDMDL
MODEL 2
REMARK VINA RESULT: -4.400432845      9.813     10.482
REMARK  3 active torsions:
REMARK  status: ('A' for Active; 'I' for Inactive)
REMARK    1  A    between atoms: O1_2  and  C2_3 
REMARK    2  A    between atoms: C2_3  and  C3_5 
REMARK    3  A    between atoms: C5_9  and  O3_10 
ROOT
HETATM    1  C3  UNL     1      21.324  23.189   5.406  1.00  0.00     0.179 C 
HETATM    2  S1  UNL     1      20.073  24.293   4.756  1.00  0.00    -0.128 SA
HETATM    3  C4  UNL     1      21.693  25.153   4.757  1.00  0.00     0.174 C 
HETATM    4 CL1  UNL     1      21.582  26.898   4.915  1.00  0.00    -0.111 Cl
HETATM    5  C5  UNL     1      21.992  24.406   6.059  1.00  0.00     0.169 C 
ENDROOT
BRANCH   1   6
HETATM    6  C2  UNL     1      20.844  22.206   6.411  1.00  0.00     0.275 C 
HETATM    7  O2  UNL     1      19.874  21.466   6.152  1.00  0.00    -0.264 OA
BRANCH   6   8
HETATM    8  O1  UNL     1      21.425  22.057   7.660  1.00  0.00    -0.326 OA
HETATM    9  C1  UNL     1      22.521  21.219   7.920  1.00  0.00     0.213 C 
ENDBRANCH   6   8
ENDBRANCH   1   6
BRANCH   5  10
HETATM   10  O3  UNL     1      21.298  24.900   7.151  1.00  0.00    -0.392 OA
ATOM     11  H3  UNL     1      21.811  24.920   7.950  1.00  0.00     0.210 HD
ENDBRANCH   5  10
TORSDOF 3
ENDMDL
MODEL 3
REMARK VINA RESULT: -4.159633405      8.647      9.363
REMARK  3 active torsions:
REMARK  status: ('A' for Active; 'I' for Inactive)
REMARK    1  A    between atoms: O1_2  and  C2_3 
REMARK    2  A    between atoms: C2_3  and  C3_5 
REMARK    3  A    between atoms: C5_9  and  O3_10 
ROOT
HETATM    1  C3  UNL     1      21.457  22.552   7.112  1.00  0.00     0.179 C 
HETATM    2  S1  UNL     1      22.885  23.554   6.711  1.00  0.00    -0.128 SA
HETATM    3  C4  UNL     1      21.369  24.571   6.534  1.00  0.00     0.174 C 
HETATM    4 CL1  UNL     1      21.503  25.867   5.358  1.00  0.00    -0.111 Cl
HETATM    5  C5  UNL     1      20.682  23.303   6.020  1.00  0.00     0.169 C 
ENDROOT
BRANCH   1   6
HETATM    6  C2  UNL     1      21.591  21.104   6.810  1.00  0.00     0.275 C 
HETATM    7  O2  UNL     1      20.684  20.504   6.199  1.00  0.00    -0.264 OA
BRANCH   6   8
HETATM    8  O1  UNL     1      22.696  20.355   7.177  1.00  0.00    -0.326 OA
HETATM    9  C1  UNL     1      22.636  19.213   7.993  1.00  0.00     0.213 C 
ENDBRANCH   6   8
ENDBRANCH   1   6
BRANCH   5  10
HETATM   10  O3  UNL     1      21.058  22.954   4.734  1.00  0.00    -0.392 OA
ATOM     11  H3  UNL     1      21.981  22.742   4.653  1.00  0.00     0.210 HD
ENDBRANCH   5  10
TORSDOF 3
ENDMDL
MODEL 4
REMARK VINA RESULT: -4.159539929      1.295      1.312
REMARK  3 active torsions:
REMARK  status: ('A' for Active; 'I' for Inactive)
REMARK    1  A    between atoms: O1_2  and  C2_3 
REMARK    2  A    between atoms: C2_3  and  C3_5 
REMARK    3  A    between atoms: C5_9  and  O3_10 
ROOT
HETATM    1  C3  UNL     1      28.514  17.355   9.564  1.00  0.00     0.179 C 
HETATM    2  S1  UNL     1      28.074  18.839  10.464  1.00  0.00    -0.128 SA
HETATM    3  C4  UNL     1      29.110  17.770  11.536  1.00  0.00     0.174 C 
HETATM    4 CL1  UNL     1      28.804  17.961  13.254  1.00  0.00    -0.111 Cl
HETATM    5  C5  UNL     1      28.405  16.578  10.884  1.00  0.00     0.169 C 
ENDROOT
BRANCH   1   6
HETATM    6  C2  UNL     1      27.516  16.900   8.562  1.00  0.00     0.275 C 
HETATM    7  O2  UNL     1      26.310  17.183   8.705  1.00  0.00    -0.264 OA
BRANCH   6   8
HETATM    8  O1  UNL     1      27.853  16.155   7.444  1.00  0.00    -0.326 OA
HETATM    9  C1  UNL     1      29.090  15.512   7.273  1.00  0.00     0.213 C 
ENDBRANCH   6   8
ENDBRANCH   1   6
BRANCH   5  10
HETATM   10  O3  UNL     1      27.102  16.403  11.318  1.00  0.00    -0.392 OA
ATOM     11  H3  UNL     1      27.011  15.736  11.988  1.00  0.00     0.210 HD
ENDBRANCH   5  10
TORSDOF 3
ENDMDL
MODEL 5
REMARK VINA RESULT: -4.143501150      1.646      2.316
REMARK  3 active torsions:
REMARK  status: ('A' for Active; 'I' for Inactive)
REMARK    1  A    between atoms: O1_2  and  C2_3 
REMARK    2  A    between atoms: C2_3  and  C3_5 
REMARK    3  A    between atoms: C5_9  and  O3_10 
ROOT
HETATM    1  C3  UNL     1      28.476  17.548   9.555  1.00  0.00     0.179 C 
HETATM    2  S1  UNL     1      28.132  18.938  10.629  1.00  0.00    -0.128 SA
HETATM    3  C4  UNL     1      29.166  17.722  11.532  1.00  0.00     0.174 C 
HETATM    4 CL1  UNL     1      28.937  17.733  13.272  1.00  0.00    -0.111 Cl
HETATM    5  C5  UNL     1      28.389  16.635  10.786  1.00  0.00     0.169 C 
ENDROOT
BRANCH   1   6
HETATM    6  C2  UNL     1      27.422  17.242   8.554  1.00  0.00     0.275 C 
HETATM    7  O2  UNL     1      27.670  16.488   7.592  1.00  0.00    -0.264 OA
BRANCH   6   8
HETATM    8  O1  UNL     1      26.139  17.761   8.625  1.00  0.00    -0.326 OA
HETATM    9  C1  UNL     1      25.655  18.776   7.785  1.00  0.00     0.213 C 
ENDBRANCH   6   8
ENDBRANCH   1   6
BRANCH   5  10
HETATM   10  O3  UNL     1      27.098  16.460  11.255  1.00  0.00    -0.392 OA
ATOM     11  H3  UNL     1      26.450  16.382  10.565  1.00  0.00     0.210 HD
ENDBRANCH   5  10
TORSDOF 3
ENDMDL
