MODEL 1
REMARK VINA RESULT: -5.850757996      0.000      0.000
REMARK  2 active torsions:
REMARK  status: ('A' for Active; 'I' for Inactive)
REMARK    1  A    between atoms: C3_4  and  O1_5 
REMARK    2  A    between atoms: C3_4  and  C4_7 
ROOT
HETATM    1  C4  UNL     1      25.650  19.865   7.820  1.00  0.00     0.152 C 
HETATM    2  C5  UNL     1      26.628  18.847   8.430  1.00  0.00     0.057 C 
HETATM    3  C6  UNL     1      26.205  20.204   6.442  1.00  0.00     0.161 C 
HETATM    4  C7  UNL     1      26.339  21.683   6.490  1.00  0.00     0.292 C 
HETATM    5  O2  UNL     1      26.886  22.452   5.657  1.00  0.00    -0.263 OA
HETATM    6  O3  UNL     1      25.714  22.024   7.683  1.00  0.00    -0.158 OA
HETATM    7  O4  UNL     1      25.736  21.003   8.539  1.00  0.00    -0.214 OA
ENDROOT
BRANCH   1   8
HETATM    8  C3  UNL     1      24.330  19.220   7.724  1.00  0.00     0.115 C 
HETATM    9  C2  UNL     1      23.158  19.809   7.707  1.00  0.00     0.122 C 
HETATM   10  C1  UNL     1      22.964  21.271   7.784  1.00  0.00     0.085 C 
HETATM   11  F1  UNL     1      22.054  19.033   7.609  1.00  0.00    -0.208 F 
BRANCH   8  12
HETATM   12  O1  UNL     1      24.335  17.809   7.642  1.00  0.00    -0.359 OA
ATOM     13  H1  UNL     1      24.639  17.337   8.408  1.00  0.00     0.217 HD
ENDBRANCH   8  12
ENDBRANCH   1   8
TORSDOF 2
ENDMDL
MODEL 2
REMARK VINA RESULT: -5.669826915      5.854      7.001
REMARK  2 active torsions:
REMARK  status: ('A' for Active; 'I' for Inactive)
REMARK    1  A    between atoms: C3_4  and  O1_5 
REMARK    2  A    between atoms: C3_4  and  C4_7 
ROOT
HETATM    1  C4  UNL     1      28.120  16.464  10.259  1.00  0.00     0.152 C 
HETATM    2  C5  UNL     1      28.831  17.358   9.231  1.00  0.00     0.057 C 
HETATM    3  C6  UNL     1      28.354  15.030   9.800  1.00  0.00     0.161 C 
HETATM    4  C7  UNL     1      26.976  14.487   9.682  1.00  0.00     0.292 C 
HETATM    5  O2  UNL     1      26.602  13.386   9.199  1.00  0.00    -0.263 OA
HETATM    6  O3  UNL     1      26.188  15.489  10.232  1.00  0.00    -0.158 OA
HETATM    7  O4  UNL     1      26.792  16.673  10.142  1.00  0.00    -0.214 OA
ENDROOT
BRANCH   1   8
HETATM    8  C3  UNL     1      28.733  16.713  11.575  1.00  0.00     0.115 C 
HETATM    9  C2  UNL     1      28.848  17.865  12.191  1.00  0.00     0.122 C 
HETATM   10  C1  UNL     1      28.363  19.149  11.645  1.00  0.00     0.085 C 
HETATM   11  F1  UNL     1      29.445  17.884  13.405  1.00  0.00    -0.208 F 
BRANCH   8  12
HETATM   12  O1  UNL     1      29.253  15.580  12.239  1.00  0.00    -0.359 OA
ATOM     13  H1  UNL     1      29.646  14.907  11.695  1.00  0.00     0.217 HD
ENDBRANCH   8  12
ENDBRANCH   1   8
TORSDOF 2
ENDMDL
MODEL 3
REMARK VINA RESULT: -5.537786935      4.941      6.206
REMARK  2 active torsions:
REMARK  status: ('A' for Active; 'I' for Inactive)
REMARK    1  A    between atoms: C3_4  and  O1_5 
REMARK    2  A    between atoms: C3_4  and  C4_7 
ROOT
HETATM    1  C4  UNL     1      27.594  17.209   9.837  1.00  0.00     0.152 C 
HETATM    2  C5  UNL     1      27.010  18.256   8.875  1.00  0.00     0.057 C 
HETATM    3  C6  UNL     1      28.787  16.597   9.113  1.00  0.00     0.161 C 
HETATM    4  C7  UNL     1      28.472  15.144   9.120  1.00  0.00     0.292 C 
HETATM    5  O2  UNL     1      29.064  14.206   8.524  1.00  0.00    -0.263 OA
HETATM    6  O3  UNL     1      27.358  15.061   9.947  1.00  0.00    -0.158 OA
HETATM    7  O4  UNL     1      26.692  16.214   9.963  1.00  0.00    -0.214 OA
ENDROOT
BRANCH   1   8
HETATM    8  C3  UNL     1      28.012  17.907  11.064  1.00  0.00     0.115 C 
HETATM    9  C2  UNL     1      28.286  19.183  11.198  1.00  0.00     0.122 C 
HETATM   10  C1  UNL     1      28.217  20.165  10.097  1.00  0.00     0.085 C 
HETATM   11  F1  UNL     1      28.651  19.634  12.420  1.00  0.00    -0.208 F 
BRANCH   8  12
HETATM   12  O1  UNL     1      28.129  17.105  12.223  1.00  0.00    -0.359 OA
ATOM     13  H1  UNL     1      27.789  16.220  12.166  1.00  0.00     0.217 HD
ENDBRANCH   8  12
ENDBRANCH   1   8
TORSDOF 2
ENDMDL
MODEL 4
REMARK VINA RESULT: -5.535806889      3.117      4.642
REMARK  2 active torsions:
REMARK  status: ('A' for Active; 'I' for Inactive)
REMARK    1  A    between atoms: C3_4  and  O1_5 
REMARK    2  A    between atoms: C3_4  and  C4_7 
ROOT
HETATM    1  C4  UNL     1      26.907  17.098   8.676  1.00  0.00     0.152 C 
HETATM    2  C5  UNL     1      27.749  16.686   7.458  1.00  0.00     0.057 C 
HETATM    3  C6  UNL     1      27.864  17.809   9.624  1.00  0.00     0.161 C 
HETATM    4  C7  UNL     1      27.718  17.039  10.887  1.00  0.00     0.292 C 
HETATM    5  O2  UNL     1      28.394  17.125  11.945  1.00  0.00    -0.263 OA
HETATM    6  O3  UNL     1      26.649  16.192  10.625  1.00  0.00    -0.158 OA
HETATM    7  O4  UNL     1      26.526  15.973   9.316  1.00  0.00    -0.214 OA
ENDROOT
BRANCH   1   8
HETATM    8  C3  UNL     1      25.845  18.004   8.205  1.00  0.00     0.115 C 
HETATM    9  C2  UNL     1      25.926  19.302   8.037  1.00  0.00     0.122 C 
HETATM   10  C1  UNL     1      27.142  20.098   8.303  1.00  0.00     0.085 C 
HETATM   11  F1  UNL     1      24.831  19.958   7.589  1.00  0.00    -0.208 F 
BRANCH   8  12
HETATM   12  O1  UNL     1      24.604  17.398   7.904  1.00  0.00    -0.359 OA
ATOM     13  H1  UNL     1      24.223  16.845   8.576  1.00  0.00     0.217 HD
ENDBRANCH   8  12
ENDBRANCH   1   8
TORSDOF 2
ENDMDL
MODEL 5
REMARK VINA RESULT: -5.521719861      3.523      5.332
REMARK  2 active torsions:
REMARK  status: ('A' for Active; 'I' for Inactive)
REMARK    1  A    between atoms: C3_4  and  O1_5 
REMARK    2  A    between atoms: C3_4  and  C4_7 
ROOT
HETATM    1  C4  UNL     1      27.684  17.312   9.506  1.00  0.00     0.152 C 
HETATM    2  C5  UNL     1      27.953  18.474  10.475  1.00  0.00     0.057 C 
HETATM    3  C6  UNL     1      27.309  16.119  10.377  1.00  0.00     0.161 C 
HETATM    4  C7  UNL     1      28.289  15.082   9.962  1.00  0.00     0.292 C 
HETATM    5  O2  UNL     1      28.506  13.953  10.476  1.00  0.00    -0.263 OA
HETATM    6  O3  UNL     1      28.917  15.654   8.863  1.00  0.00    -0.158 OA
HETATM    7  O4  UNL     1      28.853  16.983   8.919  1.00  0.00    -0.214 OA
ENDROOT
BRANCH   1   8
HETATM    8  C3  UNL     1      26.570  17.706   8.627  1.00  0.00     0.115 C 
HETATM    9  C2  UNL     1      26.334  18.897   8.130  1.00  0.00     0.122 C 
HETATM   10  C1  UNL     1      27.179  20.082   8.381  1.00  0.00     0.085 C 
HETATM   11  F1  UNL     1      25.251  19.054   7.334  1.00  0.00    -0.208 F 
BRANCH   8  12
HETATM   12  O1  UNL     1      25.658  16.681   8.287  1.00  0.00    -0.359 OA
ATOM     13  H1  UNL     1      25.168  16.290   9.000  1.00  0.00     0.217 HD
ENDBRANCH   8  12
ENDBRANCH   1   8
TORSDOF 2
ENDMDL
