MODEL 1
REMARK VINA RESULT: -4.805831660      0.000      0.000
REMARK  1 active torsions:
REMARK  status: ('A' for Active; 'I' for Inactive)
REMARK    1  A    between atoms: N1_2  and  N2_4 
ROOT
HETATM    1  N2  UNL     1      21.982  21.602   6.849  1.00  0.00    -0.241 N 
HETATM    2  C1  UNL     1      22.964  22.440   7.503  1.00  0.00     0.381 C 
HETATM    3  N3  UNL     1      23.133  23.507   6.535  1.00  0.00    -0.046 N 
ATOM      4  H31 UNL     1      23.793  23.287   5.789  1.00  0.00     0.280 HD
ATOM      5  H32 UNL     1      23.633  24.319   6.899  1.00  0.00     0.280 HD
HETATM    6  C2  UNL     1      21.809  23.804   6.068  1.00  0.00     0.162 C 
HETATM    7  C3  UNL     1      21.856  24.391   4.680  1.00  0.00     0.115 C 
HETATM    8  S1  UNL     1      20.382  25.392   4.994  1.00  0.00    -0.164 SA
HETATM    9  C4  UNL     1      21.143  25.015   6.621  1.00  0.00     0.115 C 
HETATM   10  C5  UNL     1      21.060  22.504   6.185  1.00  0.00     0.191 C 
ENDROOT
BRANCH   1  11
HETATM   11  N1  UNL     1      21.945  20.212   6.864  1.00  0.00    -0.040 N 
HETATM   12  O1  UNL     1      20.961  19.603   6.418  1.00  0.00    -0.517 OA
HETATM   13  O2  UNL     1      22.989  19.481   7.366  1.00  0.00    -0.517 OA
ENDBRANCH   1  11
TORSDOF 1
ENDMDL
MODEL 2
REMARK VINA RESULT: -4.740179375      7.748      8.991
REMARK  1 active torsions:
REMARK  status: ('A' for Active; 'I' for Inactive)
REMARK    1  A    between atoms: N1_2  and  N2_4 
ROOT
HETATM    1  N2  UNL     1      27.248  18.833   9.077  1.00  0.00    -0.241 N 
HETATM    2  C1  UNL     1      26.335  18.400   8.041  1.00  0.00     0.381 C 
HETATM    3  N3  UNL     1      26.941  17.153   7.616  1.00  0.00    -0.046 N 
ATOM      4  H31 UNL     1      27.689  17.270   6.931  1.00  0.00     0.280 HD
ATOM      5  H32 UNL     1      26.335  16.578   7.031  1.00  0.00     0.280 HD
HETATM    6  C2  UNL     1      27.360  16.508   8.827  1.00  0.00     0.162 C 
HETATM    7  C3  UNL     1      28.514  15.574   8.557  1.00  0.00     0.115 C 
HETATM    8  S1  UNL     1      27.988  14.455   9.878  1.00  0.00    -0.164 SA
HETATM    9  C4  UNL     1      26.509  15.401   9.343  1.00  0.00     0.115 C 
HETATM   10  C5  UNL     1      27.661  17.634   9.778  1.00  0.00     0.191 C 
ENDROOT
BRANCH   1  11
HETATM   11  N1  UNL     1      27.641  20.143   9.333  1.00  0.00    -0.040 N 
HETATM   12  O1  UNL     1      27.597  21.000   8.438  1.00  0.00    -0.517 OA
HETATM   13  O2  UNL     1      28.083  20.521  10.573  1.00  0.00    -0.517 OA
ENDBRANCH   1  11
TORSDOF 1
ENDMDL
MODEL 3
REMARK VINA RESULT: -4.711022321      8.395      9.347
REMARK  1 active torsions:
REMARK  status: ('A' for Active; 'I' for Inactive)
REMARK    1  A    between atoms: N1_2  and  N2_4 
ROOT
HETATM    1  N2  UNL     1      27.647  18.319   9.548  1.00  0.00    -0.241 N 
HETATM    2  C1  UNL     1      28.091  17.859  10.847  1.00  0.00     0.381 C 
HETATM    3  N3  UNL     1      27.340  16.626  10.994  1.00  0.00    -0.046 N 
ATOM      4  H31 UNL     1      26.392  16.760  11.347  1.00  0.00     0.280 HD
ATOM      5  H32 UNL     1      27.666  16.033  11.757  1.00  0.00     0.280 HD
HETATM    6  C2  UNL     1      27.396  15.996   9.706  1.00  0.00     0.162 C 
HETATM    7  C3  UNL     1      26.205  15.092   9.507  1.00  0.00     0.115 C 
HETATM    8  S1  UNL     1      27.166  13.965   8.468  1.00  0.00    -0.164 SA
HETATM    9  C4  UNL     1      28.353  14.869   9.535  1.00  0.00     0.115 C 
HETATM   10  C5  UNL     1      27.503  17.133   8.726  1.00  0.00     0.191 C 
ENDROOT
BRANCH   1  11
HETATM   11  N1  UNL     1      27.411  19.639   9.180  1.00  0.00    -0.040 N 
HETATM   12  O1  UNL     1      26.834  19.903   8.114  1.00  0.00    -0.517 OA
HETATM   13  O2  UNL     1      27.804  20.680   9.979  1.00  0.00    -0.517 OA
ENDBRANCH   1  11
TORSDOF 1
ENDMDL
MODEL 4
REMARK VINA RESULT: -4.650202027      8.041      9.292
REMARK  1 active torsions:
REMARK  status: ('A' for Active; 'I' for Inactive)
REMARK    1  A    between atoms: N1_2  and  N2_4 
ROOT
HETATM    1  N2  UNL     1      27.367  18.504   9.366  1.00  0.00    -0.241 N 
HETATM    2  C1  UNL     1      26.528  18.190   8.229  1.00  0.00     0.381 C 
HETATM    3  N3  UNL     1      27.124  16.955   7.755  1.00  0.00    -0.046 N 
ATOM      4  H31 UNL     1      27.929  17.093   7.144  1.00  0.00     0.280 HD
ATOM      5  H32 UNL     1      26.548  16.452   7.079  1.00  0.00     0.280 HD
HETATM    6  C2  UNL     1      27.418  16.202   8.941  1.00  0.00     0.162 C 
HETATM    7  C3  UNL     1      28.557  15.245   8.690  1.00  0.00     0.115 C 
HETATM    8  S1  UNL     1      27.885  14.050   9.871  1.00  0.00    -0.164 SA
HETATM    9  C4  UNL     1      26.490  15.094   9.297  1.00  0.00     0.115 C 
HETATM   10  C5  UNL     1      27.678  17.238  10.000  1.00  0.00     0.191 C 
ENDROOT
BRANCH   1  11
HETATM   11  N1  UNL     1      27.782  19.772   9.756  1.00  0.00    -0.040 N 
HETATM   12  O1  UNL     1      28.220  19.968  10.900  1.00  0.00    -0.517 OA
HETATM   13  O2  UNL     1      27.722  20.835   8.894  1.00  0.00    -0.517 OA
ENDBRANCH   1  11
TORSDOF 1
ENDMDL
MODEL 5
REMARK VINA RESULT: -4.645421307      8.831      9.623
REMARK  1 active torsions:
REMARK  status: ('A' for Active; 'I' for Inactive)
REMARK    1  A    between atoms: N1_2  and  N2_4 
ROOT
HETATM    1  N2  UNL     1      28.107  18.421  10.636  1.00  0.00    -0.241 N 
HETATM    2  C1  UNL     1      28.203  17.455  11.710  1.00  0.00     0.381 C 
HETATM    3  N3  UNL     1      27.315  16.407  11.243  1.00  0.00    -0.046 N 
ATOM      4  H31 UNL     1      26.332  16.574  11.458  1.00  0.00     0.280 HD
ATOM      5  H32 UNL     1      27.402  15.532  11.760  1.00  0.00     0.280 HD
HETATM    6  C2  UNL     1      27.588  16.281   9.840  1.00  0.00     0.162 C 
HETATM    7  C3  UNL     1      26.384  15.737   9.113  1.00  0.00     0.115 C 
HETATM    8  S1  UNL     1      27.428  14.903   7.893  1.00  0.00    -0.164 SA
HETATM    9  C4  UNL     1      28.438  15.138   9.407  1.00  0.00     0.115 C 
HETATM   10  C5  UNL     1      28.026  17.654   9.408  1.00  0.00     0.191 C 
ENDROOT
BRANCH   1  11
HETATM   11  N1  UNL     1      28.096  19.805  10.773  1.00  0.00    -0.040 N 
HETATM   12  O1  UNL     1      28.440  20.335  11.840  1.00  0.00    -0.517 OA
HETATM   13  O2  UNL     1      27.708  20.617   9.741  1.00  0.00    -0.517 OA
ENDBRANCH   1  11
TORSDOF 1
ENDMDL
