MODEL 1
REMARK VINA RESULT: -6.667539806      0.000      0.000
REMARK  7 active torsions:
REMARK  status: ('A' for Active; 'I' for Inactive)
REMARK    1  A    between atoms: C4_4  and  C5_5 
REMARK    2  A    between atoms: C5_5  and  N1_6 
REMARK    3  A    between atoms: C5_5  and  N2_10 
REMARK    4  A    between atoms: N3_12  and  C6_14 
REMARK    5  A    between atoms: C6_14  and  C7_15 
REMARK    6  A    between atoms: C6_14  and  C9_21 
REMARK    7  A    between atoms: C7_15  and  C8_17 
ROOT
HETATM    1  N2  UNL     1      28.199  16.620  10.830  1.00  0.00    -0.305 N 
ATOM      2  H2  UNL     1      27.192  16.546  10.682  1.00  0.00     0.182 HD
HETATM    3  N3  UNL     1      28.914  15.664  10.484  1.00  0.00    -0.322 N 
ATOM      4  H3  UNL     1      29.921  15.737  10.631  1.00  0.00     0.181 HD
ENDROOT
BRANCH   1   5
HETATM    5  C5  UNL     1      28.702  17.812  11.420  1.00  0.00     0.331 C 
BRANCH   5   6
HETATM    6  C4  UNL     1      28.360  19.014  10.609  1.00  0.00     0.017 A 
HETATM    7  C3  UNL     1      27.734  19.118   9.397  1.00  0.00     0.045 A 
HETATM    8  C2  UNL     1      27.655  20.455   9.072  1.00  0.00     0.049 A 
HETATM    9  C1  UNL     1      27.033  20.989   7.812  1.00  0.00     0.076 C 
HETATM   10  O2  UNL     1      28.207  21.120  10.046  1.00  0.00    -0.327 OA
HETATM   11  C10 UNL     1      28.645  20.316  10.988  1.00  0.00     0.153 A 
ENDBRANCH   5   6
BRANCH   5  12
HETATM   12  N1  UNL     1      28.202  18.043  12.752  1.00  0.00    -0.053 N 
ATOM     13  H13 UNL     1      28.893  18.470  13.369  1.00  0.00     0.277 HD
ATOM     14  H12 UNL     1      27.509  18.789  12.796  1.00  0.00     0.277 HD
ATOM     15  H11 UNL     1      27.851  17.151  13.100  1.00  0.00     0.277 HD
ENDBRANCH   5  12
ENDBRANCH   1   5
BRANCH   3  16
HETATM   16  C6  UNL     1      28.406  14.478   9.897  1.00  0.00     0.228 C 
BRANCH  16  17
HETATM   17  C7  UNL     1      28.992  13.228  10.496  1.00  0.00     0.192 C 
HETATM   18  O1  UNL     1      30.247  13.089  10.505  1.00  0.00    -0.289 OA
BRANCH  17  19
HETATM   19  C8  UNL     1      28.186  12.169  11.066  1.00  0.00     0.133 C 
HETATM   20  N4  UNL     1      27.926  12.085  12.333  1.00  0.00    -0.405 N 
ATOM     21  H42 UNL     1      28.312  12.805  12.943  1.00  0.00     0.155 HD
ATOM     22  H41 UNL     1      27.358  11.338  12.736  1.00  0.00     0.155 HD
ENDBRANCH  17  19
ENDBRANCH  16  17
BRANCH  16  23
HETATM   23  C9  UNL     1      28.620  14.431   8.398  1.00  0.00     0.217 C 
HETATM   24 CL1  UNL     1      28.442  12.776   7.777  1.00  0.00    -0.081 Cl
HETATM   25 CL2  UNL     1      27.322  15.403   7.616  1.00  0.00    -0.081 Cl
HETATM   26 CL3  UNL     1      30.205  15.067   7.947  1.00  0.00    -0.081 Cl
ENDBRANCH  16  23
ENDBRANCH   3  16
TORSDOF 7
ENDMDL
MODEL 2
REMARK VINA RESULT: -6.606839487      2.137      2.692
REMARK  7 active torsions:
REMARK  status: ('A' for Active; 'I' for Inactive)
REMARK    1  A    between atoms: C4_4  and  C5_5 
REMARK    2  A    between atoms: C5_5  and  N1_6 
REMARK    3  A    between atoms: C5_5  and  N2_10 
REMARK    4  A    between atoms: N3_12  and  C6_14 
REMARK    5  A    between atoms: C6_14  and  C7_15 
REMARK    6  A    between atoms: C6_14  and  C9_21 
REMARK    7  A    between atoms: C7_15  and  C8_17 
ROOT
HETATM    1  N2  UNL     1      28.272  16.099  10.579  1.00  0.00    -0.305 N 
ATOM      2  H2  UNL     1      29.256  15.913  10.774  1.00  0.00     0.182 HD
HETATM    3  N3  UNL     1      27.591  15.188  10.079  1.00  0.00    -0.322 N 
ATOM      4  H3  UNL     1      26.607  15.373   9.885  1.00  0.00     0.181 HD
ENDROOT
BRANCH   1   5
HETATM    5  C5  UNL     1      27.761  17.388  10.895  1.00  0.00     0.331 C 
BRANCH   5   6
HETATM    6  C4  UNL     1      28.585  18.068  11.932  1.00  0.00     0.017 A 
HETATM    7  C3  UNL     1      28.569  19.366  12.368  1.00  0.00     0.045 A 
HETATM    8  C2  UNL     1      29.529  19.497  13.348  1.00  0.00     0.049 A 
HETATM    9  C1  UNL     1      29.826  20.775  14.082  1.00  0.00     0.076 C 
HETATM   10  O2  UNL     1      30.092  18.332  13.494  1.00  0.00    -0.327 OA
HETATM   11  C10 UNL     1      29.571  17.443  12.678  1.00  0.00     0.153 A 
ENDBRANCH   5   6
BRANCH   5  12
HETATM   12  N1  UNL     1      27.699  18.270   9.757  1.00  0.00    -0.053 N 
ATOM     13  H13 UNL     1      27.617  19.253  10.017  1.00  0.00     0.277 HD
ATOM     14  H12 UNL     1      28.584  18.341   9.256  1.00  0.00     0.277 HD
ATOM     15  H11 UNL     1      26.932  17.947   9.168  1.00  0.00     0.277 HD
ENDBRANCH   5  12
ENDBRANCH   1   5
BRANCH   3  16
HETATM   16  C6  UNL     1      28.108  13.905   9.766  1.00  0.00     0.228 C 
BRANCH  16  17
HETATM   17  C7  UNL     1      29.047  13.377  10.817  1.00  0.00     0.192 C 
HETATM   18  O1  UNL     1      30.093  14.035  11.082  1.00  0.00    -0.289 OA
BRANCH  17  19
HETATM   19  C8  UNL     1      28.814  12.147  11.543  1.00  0.00     0.133 C 
HETATM   20  N4  UNL     1      27.863  12.011  12.413  1.00  0.00    -0.405 N 
ATOM     21  H42 UNL     1      27.260  12.816  12.582  1.00  0.00     0.155 HD
ATOM     22  H41 UNL     1      27.698  11.144  12.926  1.00  0.00     0.155 HD
ENDBRANCH  17  19
ENDBRANCH  16  17
BRANCH  16  23
HETATM   23  C9  UNL     1      28.822  13.874   8.431  1.00  0.00     0.217 C 
HETATM   24 CL1  UNL     1      29.679  12.335   8.199  1.00  0.00    -0.081 Cl
HETATM   25 CL2  UNL     1      27.583  13.960   7.129  1.00  0.00    -0.081 Cl
HETATM   26 CL3  UNL     1      29.960  15.217   8.270  1.00  0.00    -0.081 Cl
ENDBRANCH  16  23
ENDBRANCH   3  16
TORSDOF 7
ENDMDL
MODEL 3
REMARK VINA RESULT: -6.561540528      2.143      2.778
REMARK  7 active torsions:
REMARK  status: ('A' for Active; 'I' for Inactive)
REMARK    1  A    between atoms: C4_4  and  C5_5 
REMARK    2  A    between atoms: C5_5  and  N1_6 
REMARK    3  A    between atoms: C5_5  and  N2_10 
REMARK    4  A    between atoms: N3_12  and  C6_14 
REMARK    5  A    between atoms: C6_14  and  C7_15 
REMARK    6  A    between atoms: C6_14  and  C9_21 
REMARK    7  A    between atoms: C7_15  and  C8_17 
ROOT
HETATM    1  N2  UNL     1      28.215  16.052  10.718  1.00  0.00    -0.305 N 
ATOM      2  H2  UNL     1      29.075  15.763  11.183  1.00  0.00     0.182 HD
HETATM    3  N3  UNL     1      27.642  15.231   9.982  1.00  0.00    -0.322 N 
ATOM      4  H3  UNL     1      26.780  15.518   9.518  1.00  0.00     0.181 HD
ENDROOT
BRANCH   1   5
HETATM    5  C5  UNL     1      27.741  17.372  10.951  1.00  0.00     0.331 C 
BRANCH   5   6
HETATM    6  C4  UNL     1      28.586  18.095  11.942  1.00  0.00     0.017 A 
HETATM    7  C3  UNL     1      28.618  19.420  12.282  1.00  0.00     0.045 A 
HETATM    8  C2  UNL     1      29.579  19.585  13.256  1.00  0.00     0.049 A 
HETATM    9  C1  UNL     1      29.922  20.901  13.897  1.00  0.00     0.076 C 
HETATM   10  O2  UNL     1      30.096  18.413  13.489  1.00  0.00    -0.327 OA
HETATM   11  C10 UNL     1      29.545  17.488  12.737  1.00  0.00     0.153 A 
ENDBRANCH   5   6
BRANCH   5  12
HETATM   12  N1  UNL     1      27.700  18.181   9.758  1.00  0.00    -0.053 N 
ATOM     13  H13 UNL     1      26.809  18.660   9.631  1.00  0.00     0.277 HD
ATOM     14  H12 UNL     1      28.288  19.012   9.818  1.00  0.00     0.277 HD
ATOM     15  H11 UNL     1      27.944  17.575   8.975  1.00  0.00     0.277 HD
ENDBRANCH   5  12
ENDBRANCH   1   5
BRANCH   3  16
HETATM   16  C6  UNL     1      28.120  13.915   9.754  1.00  0.00     0.228 C 
BRANCH  16  17
HETATM   17  C7  UNL     1      29.058  13.437  10.829  1.00  0.00     0.192 C 
HETATM   18  O1  UNL     1      30.074  14.136  11.104  1.00  0.00    -0.289 OA
BRANCH  17  19
HETATM   19  C8  UNL     1      28.857  12.209  11.569  1.00  0.00     0.133 C 
HETATM   20  N4  UNL     1      27.875  12.037  12.397  1.00  0.00    -0.405 N 
ATOM     21  H42 UNL     1      27.223  12.812  12.522  1.00  0.00     0.155 HD
ATOM     22  H41 UNL     1      27.732  11.172  12.919  1.00  0.00     0.155 HD
ENDBRANCH  17  19
ENDBRANCH  16  17
BRANCH  16  23
HETATM   23  C9  UNL     1      28.817  13.772   8.417  1.00  0.00     0.217 C 
HETATM   24 CL1  UNL     1      27.643  13.741   7.084  1.00  0.00    -0.081 Cl
HETATM   25 CL2  UNL     1      29.836  15.233   8.156  1.00  0.00    -0.081 Cl
HETATM   26 CL3  UNL     1      29.821  12.319   8.358  1.00  0.00    -0.081 Cl
ENDBRANCH  16  23
ENDBRANCH   3  16
TORSDOF 7
ENDMDL
MODEL 4
REMARK VINA RESULT: -6.449849908      2.100      3.042
REMARK  7 active torsions:
REMARK  status: ('A' for Active; 'I' for Inactive)
REMARK    1  A    between atoms: C4_4  and  C5_5 
REMARK    2  A    between atoms: C5_5  and  N1_6 
REMARK    3  A    between atoms: C5_5  and  N2_10 
REMARK    4  A    between atoms: N3_12  and  C6_14 
REMARK    5  A    between atoms: C6_14  and  C7_15 
REMARK    6  A    between atoms: C6_14  and  C9_21 
REMARK    7  A    between atoms: C7_15  and  C8_17 
ROOT
HETATM    1  N2  UNL     1      27.689  15.025   9.953  1.00  0.00    -0.305 N 
ATOM      2  H2  UNL     1      28.608  15.202  10.358  1.00  0.00     0.182 HD
HETATM    3  N3  UNL     1      27.240  13.867  10.001  1.00  0.00    -0.322 N 
ATOM      4  H3  UNL     1      26.320  13.689   9.597  1.00  0.00     0.181 HD
ENDROOT
BRANCH   1   5
HETATM    5  C5  UNL     1      26.995  16.120   9.367  1.00  0.00     0.331 C 
BRANCH   5   6
HETATM    6  C4  UNL     1      27.481  17.425   9.894  1.00  0.00     0.017 A 
HETATM    7  C3  UNL     1      28.002  17.749  11.118  1.00  0.00     0.045 A 
HETATM    8  C2  UNL     1      28.301  19.095  11.109  1.00  0.00     0.049 A 
HETATM    9  C1  UNL     1      28.894  19.841  12.271  1.00  0.00     0.076 C 
HETATM   10  O2  UNL     1      27.975  19.554   9.935  1.00  0.00    -0.327 OA
HETATM   11  C10 UNL     1      27.482  18.607   9.170  1.00  0.00     0.153 A 
ENDBRANCH   5   6
BRANCH   5  12
HETATM   12  N1  UNL     1      27.118  16.169   7.932  1.00  0.00    -0.053 N 
ATOM     13  H13 UNL     1      26.307  15.783   7.448  1.00  0.00     0.277 HD
ATOM     14  H12 UNL     1      27.054  17.116   7.558  1.00  0.00     0.277 HD
ATOM     15  H11 UNL     1      27.990  15.701   7.689  1.00  0.00     0.277 HD
ENDBRANCH   5  12
ENDBRANCH   1   5
BRANCH   3  16
HETATM   16  C6  UNL     1      27.938  12.780  10.586  1.00  0.00     0.228 C 
BRANCH  16  17
HETATM   17  C7  UNL     1      29.402  13.062  10.787  1.00  0.00     0.192 C 
HETATM   18  O1  UNL     1      30.082  13.475   9.806  1.00  0.00    -0.289 OA
BRANCH  17  19
HETATM   19  C8  UNL     1      30.077  12.882  12.055  1.00  0.00     0.133 C 
HETATM   20  N4  UNL     1      29.475  12.456  13.122  1.00  0.00    -0.405 N 
ATOM     21  H42 UNL     1      28.480  12.243  13.047  1.00  0.00     0.155 HD
ATOM     22  H41 UNL     1      29.950  12.329  14.015  1.00  0.00     0.155 HD
ENDBRANCH  17  19
ENDBRANCH  16  17
BRANCH  16  23
HETATM   23  C9  UNL     1      27.806  11.503   9.782  1.00  0.00     0.217 C 
HETATM   24 CL1  UNL     1      26.284  10.666  10.156  1.00  0.00    -0.081 Cl
HETATM   25 CL2  UNL     1      27.724  11.942   8.039  1.00  0.00    -0.081 Cl
HETATM   26 CL3  UNL     1      29.168  10.412  10.066  1.00  0.00    -0.081 Cl
ENDBRANCH  16  23
ENDBRANCH   3  16
TORSDOF 7
ENDMDL
MODEL 5
REMARK VINA RESULT: -6.426381963      2.692      3.743
REMARK  7 active torsions:
REMARK  status: ('A' for Active; 'I' for Inactive)
REMARK    1  A    between atoms: C4_4  and  C5_5 
REMARK    2  A    between atoms: C5_5  and  N1_6 
REMARK    3  A    between atoms: C5_5  and  N2_10 
REMARK    4  A    between atoms: N3_12  and  C6_14 
REMARK    5  A    between atoms: C6_14  and  C7_15 
REMARK    6  A    between atoms: C6_14  and  C9_21 
REMARK    7  A    between atoms: C7_15  and  C8_17 
ROOT
HETATM    1  N2  UNL     1      28.960  16.464  10.756  1.00  0.00    -0.305 N 
ATOM      2  H2  UNL     1      29.969  16.602  10.806  1.00  0.00     0.182 HD
HETATM    3  N3  UNL     1      28.538  15.391  10.291  1.00  0.00    -0.322 N 
ATOM      4  H3  UNL     1      27.529  15.250  10.242  1.00  0.00     0.181 HD
ENDROOT
BRANCH   1   5
HETATM    5  C5  UNL     1      28.117  17.510  11.224  1.00  0.00     0.331 C 
BRANCH   5   6
HETATM    6  C4  UNL     1      28.770  18.302  12.302  1.00  0.00     0.017 A 
HETATM    7  C3  UNL     1      28.645  19.625  12.631  1.00  0.00     0.045 A 
HETATM    8  C2  UNL     1      29.463  19.873  13.713  1.00  0.00     0.049 A 
HETATM    9  C1  UNL     1      29.610  21.213  14.377  1.00  0.00     0.076 C 
HETATM   10  O2  UNL     1      30.050  18.751  14.017  1.00  0.00    -0.327 OA
HETATM   11  C10 UNL     1      29.677  17.782  13.212  1.00  0.00     0.153 A 
ENDBRANCH   5   6
BRANCH   5  12
HETATM   12  N1  UNL     1      27.733  18.436  10.190  1.00  0.00    -0.053 N 
ATOM     13  H13 UNL     1      27.527  19.370  10.545  1.00  0.00     0.277 HD
ATOM     14  H12 UNL     1      28.506  18.697   9.578  1.00  0.00     0.277 HD
ATOM     15  H11 UNL     1      26.950  18.018   9.687  1.00  0.00     0.277 HD
ENDBRANCH   5  12
ENDBRANCH   1   5
BRANCH   3  16
HETATM   16  C6  UNL     1      29.384  14.352   9.826  1.00  0.00     0.228 C 
BRANCH  16  17
HETATM   17  C7  UNL     1      29.783  14.521   8.385  1.00  0.00     0.192 C 
HETATM   18  O1  UNL     1      30.996  14.363   8.068  1.00  0.00    -0.289 OA
BRANCH  17  19
HETATM   19  C8  UNL     1      28.844  14.856   7.336  1.00  0.00     0.133 C 
HETATM   20  N4  UNL     1      28.520  14.032   6.389  1.00  0.00    -0.405 N 
ATOM     21  H42 UNL     1      28.955  13.110   6.398  1.00  0.00     0.155 HD
ATOM     22  H41 UNL     1      27.858  14.268   5.649  1.00  0.00     0.155 HD
ENDBRANCH  17  19
ENDBRANCH  16  17
BRANCH  16  23
HETATM   23  C9  UNL     1      28.766  12.980   9.991  1.00  0.00     0.217 C 
HETATM   24 CL1  UNL     1      29.578  11.784   8.957  1.00  0.00    -0.081 Cl
HETATM   25 CL2  UNL     1      29.036  12.442  11.687  1.00  0.00    -0.081 Cl
HETATM   26 CL3  UNL     1      27.036  12.997   9.632  1.00  0.00    -0.081 Cl
ENDBRANCH  16  23
ENDBRANCH   3  16
TORSDOF 7
ENDMDL
