MODEL 1
REMARK VINA RESULT: -8.122237156      0.000      0.000
REMARK  3 active torsions:
REMARK  status: ('A' for Active; 'I' for Inactive)
REMARK    1  A    between atoms: C3_3  and  C4_4 
REMARK    2  A    between atoms: C3_3  and  C7_12 
REMARK    3  A    between atoms: C8_17  and  C9_18 
ROOT
HETATM    1  C7  UNL     1      28.400  18.420  11.582  1.00  0.00     0.176 A 
HETATM    2  N3  UNL     1      29.368  17.665  12.146  1.00  0.00    -0.277 N 
ATOM      3  H3  UNL     1      29.858  16.879  11.717  1.00  0.00     0.189 HD
HETATM    4  N4  UNL     1      29.555  18.145  13.362  1.00  0.00    -0.276 N 
ATOM      5  H4  UNL     1      30.227  17.784  14.040  1.00  0.00     0.189 HD
HETATM    6  C8  UNL     1      28.733  19.171  13.568  1.00  0.00     0.189 A 
HETATM    7  O2  UNL     1      28.050  19.303  12.462  1.00  0.00    -0.272 OA
ENDROOT
BRANCH   1   8
HETATM    8  C3  UNL     1      27.905  18.201  10.220  1.00  0.00     0.041 C 
HETATM    9  C2  UNL     1      27.823  19.249   9.386  1.00  0.00    -0.013 C 
HETATM   10  C1  UNL     1      28.202  20.611   9.843  1.00  0.00     0.037 C 
BRANCH   8  11
HETATM   11  C4  UNL     1      27.523  16.893   9.731  1.00  0.00     0.066 A 
HETATM   12  C5  UNL     1      27.098  16.632   8.417  1.00  0.00     0.123 A 
HETATM   13  N1  UNL     1      26.834  15.300   8.302  1.00  0.00    -0.317 N 
HETATM   14  C6  UNL     1      27.070  14.730   9.462  1.00  0.00     0.324 A 
ATOM     15  H1  UNL     1      26.509  14.826   7.460  1.00  0.00     0.170 HD
HETATM   16  O1  UNL     1      26.950  13.507   9.779  1.00  0.00    -0.247 OA
HETATM   17  N2  UNL     1      27.489  15.707  10.324  1.00  0.00    -0.306 N 
ATOM     18  H2  UNL     1      27.741  15.543  11.298  1.00  0.00     0.170 HD
ENDBRANCH   8  11
ENDBRANCH   1   8
BRANCH   6  19
HETATM   19  C9  UNL     1      28.677  19.923  14.790  1.00  0.00     0.120 C 
HETATM   20 CL1  UNL     1      27.614  19.342  16.053  1.00  0.00    -0.077 Cl
HETATM   21  C10 UNL     1      29.385  20.979  14.984  1.00  0.00     0.129 C 
HETATM   22 CL2  UNL     1      30.465  21.543  13.730  1.00  0.00    -0.069 Cl
HETATM   23 CL3  UNL     1      29.350  21.940  16.459  1.00  0.00    -0.069 Cl
ENDBRANCH   6  19
TORSDOF 3
ENDMDL
MODEL 2
REMARK VINA RESULT: -8.117862167      2.064      2.649
REMARK  3 active torsions:
REMARK  status: ('A' for Active; 'I' for Inactive)
REMARK    1  A    between atoms: C3_3  and  C4_4 
REMARK    2  A    between atoms: C3_3  and  C7_12 
REMARK    3  A    between atoms: C8_17  and  C9_18 
ROOT
HETATM    1  C7  UNL     1      27.805  17.591   9.763  1.00  0.00     0.176 A 
HETATM    2  N3  UNL     1      27.260  16.846  10.749  1.00  0.00    -0.277 N 
ATOM      3  H3  UNL     1      26.656  16.031  10.637  1.00  0.00     0.189 HD
HETATM    4  N4  UNL     1      27.665  17.379  11.887  1.00  0.00    -0.276 N 
ATOM      5  H4  UNL     1      27.420  17.038  12.817  1.00  0.00     0.189 HD
HETATM    6  C8  UNL     1      28.441  18.432  11.635  1.00  0.00     0.189 A 
HETATM    7  O2  UNL     1      28.499  18.523  10.334  1.00  0.00    -0.272 OA
ENDROOT
BRANCH   1   8
HETATM    8  C3  UNL     1      27.592  17.314   8.339  1.00  0.00     0.041 C 
HETATM    9  C2  UNL     1      27.131  18.298   7.551  1.00  0.00    -0.013 C 
HETATM   10  C1  UNL     1      26.817  19.635   8.117  1.00  0.00     0.037 C 
BRANCH   8  11
HETATM   11  C4  UNL     1      27.883  16.026   7.744  1.00  0.00     0.066 A 
HETATM   12  C5  UNL     1      29.139  15.399   7.788  1.00  0.00     0.123 A 
HETATM   13  N1  UNL     1      29.050  14.202   7.144  1.00  0.00    -0.317 N 
HETATM   14  C6  UNL     1      27.819  14.058   6.707  1.00  0.00     0.324 A 
ATOM     15  H1  UNL     1      29.808  13.531   7.022  1.00  0.00     0.170 HD
HETATM   16  O1  UNL     1      27.321  13.087   6.059  1.00  0.00    -0.247 OA
HETATM   17  N2  UNL     1      27.118  15.172   7.076  1.00  0.00    -0.306 N 
ATOM     18  H2  UNL     1      26.132  15.327   6.865  1.00  0.00     0.170 HD
ENDBRANCH   8  11
ENDBRANCH   1   8
BRANCH   6  19
HETATM   19  C9  UNL     1      29.050  19.242  12.653  1.00  0.00     0.120 C 
HETATM   20 CL1  UNL     1      29.704  18.427  14.056  1.00  0.00    -0.077 Cl
HETATM   21  C10 UNL     1      29.139  20.521  12.554  1.00  0.00     0.129 C 
HETATM   22 CL2  UNL     1      28.506  21.330  11.139  1.00  0.00    -0.069 Cl
HETATM   23 CL3  UNL     1      29.869  21.561  13.773  1.00  0.00    -0.069 Cl
ENDBRANCH   6  19
TORSDOF 3
ENDMDL
MODEL 3
REMARK VINA RESULT: -7.979519706      4.592      5.608
REMARK  3 active torsions:
REMARK  status: ('A' for Active; 'I' for Inactive)
REMARK    1  A    between atoms: C3_3  and  C4_4 
REMARK    2  A    between atoms: C3_3  and  C7_12 
REMARK    3  A    between atoms: C8_17  and  C9_18 
ROOT
HETATM    1  C7  UNL     1      26.667  20.684   8.305  1.00  0.00     0.176 A 
HETATM    2  N3  UNL     1      27.166  19.438   8.149  1.00  0.00    -0.277 N 
ATOM      3  H3  UNL     1      26.993  18.803   7.369  1.00  0.00     0.189 HD
HETATM    4  N4  UNL     1      27.924  19.205   9.205  1.00  0.00    -0.276 N 
ATOM      5  H4  UNL     1      28.442  18.344   9.379  1.00  0.00     0.189 HD
HETATM    6  C8  UNL     1      27.907  20.266  10.009  1.00  0.00     0.189 A 
HETATM    7  O2  UNL     1      27.131  21.139   9.424  1.00  0.00    -0.272 OA
ENDROOT
BRANCH   1   8
HETATM    8  C3  UNL     1      25.772  21.315   7.331  1.00  0.00     0.041 C 
HETATM    9  C2  UNL     1      26.306  22.046   6.340  1.00  0.00    -0.013 C 
HETATM   10  C1  UNL     1      27.777  22.233   6.248  1.00  0.00     0.037 C 
BRANCH   8  11
HETATM   11  C4  UNL     1      24.332  21.162   7.382  1.00  0.00     0.066 A 
HETATM   12  C5  UNL     1      23.671  19.927   7.486  1.00  0.00     0.123 A 
HETATM   13  N1  UNL     1      22.328  20.155   7.523  1.00  0.00    -0.317 N 
HETATM   14  C6  UNL     1      22.127  21.451   7.446  1.00  0.00     0.324 A 
ATOM     15  H1  UNL     1      21.603  19.442   7.597  1.00  0.00     0.170 HD
HETATM   16  O1  UNL     1      21.024  22.079   7.447  1.00  0.00    -0.247 OA
HETATM   17  N2  UNL     1      23.351  22.055   7.360  1.00  0.00    -0.306 N 
ATOM     18  H2  UNL     1      23.491  23.062   7.289  1.00  0.00     0.170 HD
ENDBRANCH   8  11
ENDBRANCH   1   8
BRANCH   6  19
HETATM   19  C9  UNL     1      28.627  20.346  11.250  1.00  0.00     0.120 C 
HETATM   20 CL1  UNL     1      29.205  21.919  11.752  1.00  0.00    -0.077 Cl
HETATM   21  C10 UNL     1      28.838  19.317  11.992  1.00  0.00     0.129 C 
HETATM   22 CL2  UNL     1      28.236  17.752  11.499  1.00  0.00    -0.069 Cl
HETATM   23 CL3  UNL     1      29.718  19.359  13.517  1.00  0.00    -0.069 Cl
ENDBRANCH   6  19
TORSDOF 3
ENDMDL
MODEL 4
REMARK VINA RESULT: -7.798133825      4.703      5.920
REMARK  3 active torsions:
REMARK  status: ('A' for Active; 'I' for Inactive)
REMARK    1  A    between atoms: C3_3  and  C4_4 
REMARK    2  A    between atoms: C3_3  and  C7_12 
REMARK    3  A    between atoms: C8_17  and  C9_18 
ROOT
HETATM    1  C7  UNL     1      26.446  19.632   7.878  1.00  0.00     0.176 A 
HETATM    2  N3  UNL     1      26.782  18.584   7.096  1.00  0.00    -0.277 N 
ATOM      3  H3  UNL     1      26.556  18.460   6.109  1.00  0.00     0.189 HD
HETATM    4  N4  UNL     1      27.463  17.750   7.862  1.00  0.00    -0.276 N 
ATOM      5  H4  UNL     1      27.856  16.860   7.557  1.00  0.00     0.189 HD
HETATM    6  C8  UNL     1      27.556  18.249   9.093  1.00  0.00     0.189 A 
HETATM    7  O2  UNL     1      26.925  19.393   9.057  1.00  0.00    -0.272 OA
ENDROOT
BRANCH   1   8
HETATM    8  C3  UNL     1      25.679  20.782   7.390  1.00  0.00     0.041 C 
HETATM    9  C2  UNL     1      26.341  21.827   6.869  1.00  0.00    -0.013 C 
HETATM   10  C1  UNL     1      27.825  21.829   6.812  1.00  0.00     0.037 C 
BRANCH   8  11
HETATM   11  C4  UNL     1      24.232  20.825   7.427  1.00  0.00     0.066 A 
HETATM   12  C5  UNL     1      23.409  19.690   7.517  1.00  0.00     0.123 A 
HETATM   13  N1  UNL     1      22.108  20.098   7.543  1.00  0.00    -0.317 N 
HETATM   14  C6  UNL     1      22.085  21.410   7.472  1.00  0.00     0.324 A 
ATOM     15  H1  UNL     1      21.293  19.489   7.605  1.00  0.00     0.170 HD
HETATM   16  O1  UNL     1      21.077  22.181   7.467  1.00  0.00    -0.247 OA
HETATM   17  N2  UNL     1      23.380  21.842   7.402  1.00  0.00    -0.306 N 
ATOM     18  H2  UNL     1      23.656  22.822   7.339  1.00  0.00     0.170 HD
ENDBRANCH   8  11
ENDBRANCH   1   8
BRANCH   6  19
HETATM   19  C9  UNL     1      28.234  17.594  10.176  1.00  0.00     0.120 C 
HETATM   20 CL1  UNL     1      28.460  15.863  10.063  1.00  0.00    -0.077 Cl
HETATM   21  C10 UNL     1      28.684  18.234  11.196  1.00  0.00     0.129 C 
HETATM   22 CL2  UNL     1      28.478  19.968  11.295  1.00  0.00    -0.069 Cl
HETATM   23 CL3  UNL     1      29.515  17.479  12.553  1.00  0.00    -0.069 Cl
ENDBRANCH   6  19
TORSDOF 3
ENDMDL
MODEL 5
REMARK VINA RESULT: -7.775605255      3.166      4.376
REMARK  3 active torsions:
REMARK  status: ('A' for Active; 'I' for Inactive)
REMARK    1  A    between atoms: C3_3  and  C4_4 
REMARK    2  A    between atoms: C3_3  and  C7_12 
REMARK    3  A    between atoms: C8_17  and  C9_18 
ROOT
HETATM    1  C7  UNL     1      28.674  15.836  10.279  1.00  0.00     0.176 A 
HETATM    2  N3  UNL     1      27.367  16.011  10.569  1.00  0.00    -0.277 N 
ATOM      3  H3  UNL     1      26.629  15.309  10.512  1.00  0.00     0.189 HD
HETATM    4  N4  UNL     1      27.233  17.270  10.944  1.00  0.00    -0.276 N 
ATOM      5  H4  UNL     1      26.358  17.709  11.229  1.00  0.00     0.189 HD
HETATM    6  C8  UNL     1      28.416  17.879  10.892  1.00  0.00     0.189 A 
HETATM    7  O2  UNL     1      29.262  16.971  10.483  1.00  0.00    -0.272 OA
ENDROOT
BRANCH   1   8
HETATM    8  C3  UNL     1      29.229  14.558   9.823  1.00  0.00     0.041 C 
HETATM    9  C2  UNL     1      29.365  14.344   8.505  1.00  0.00    -0.013 C 
HETATM   10  C1  UNL     1      28.937  15.375   7.525  1.00  0.00     0.037 C 
BRANCH   8  11
HETATM   11  C4  UNL     1      29.659  13.524  10.742  1.00  0.00     0.066 A 
HETATM   12  C5  UNL     1      29.984  12.212  10.360  1.00  0.00     0.123 A 
HETATM   13  N1  UNL     1      30.359  11.516  11.471  1.00  0.00    -0.317 N 
HETATM   14  C6  UNL     1      30.281  12.320  12.507  1.00  0.00     0.324 A 
ATOM     15  H1  UNL     1      30.649  10.539  11.494  1.00  0.00     0.170 HD
HETATM   16  O1  UNL     1      30.541  12.066  13.723  1.00  0.00    -0.247 OA
HETATM   17  N2  UNL     1      29.855  13.538  12.054  1.00  0.00    -0.306 N 
ATOM     18  H2  UNL     1      29.706  14.353  12.649  1.00  0.00     0.170 HD
ENDBRANCH   8  11
ENDBRANCH   1   8
BRANCH   6  19
HETATM   19  C9  UNL     1      28.626  19.258  11.235  1.00  0.00     0.120 C 
HETATM   20 CL1  UNL     1      28.260  20.461  10.019  1.00  0.00    -0.077 Cl
HETATM   21  C10 UNL     1      29.049  19.624  12.393  1.00  0.00     0.129 C 
HETATM   22 CL2  UNL     1      29.390  18.420  13.614  1.00  0.00    -0.069 Cl
HETATM   23 CL3  UNL     1      29.329  21.298  12.863  1.00  0.00    -0.069 Cl
ENDBRANCH   6  19
TORSDOF 3
ENDMDL
