MODEL 1
REMARK VINA RESULT: -6.969407670      0.000      0.000
REMARK  6 active torsions:
REMARK  status: ('A' for Active; 'I' for Inactive)
REMARK    1  A    between atoms: C2_2  and  N1_3 
REMARK    2  A    between atoms: C2_2  and  C6_14 
REMARK    3  A    between atoms: N1_3  and  N2_4 
REMARK       I    between atoms: N2_4  and  C3_6 
REMARK    4  A    between atoms: C3_6  and  O2_8 
REMARK    5  A    between atoms: O2_8  and  C4_9 
REMARK    6  A    between atoms: C4_9  and  C5_10 
ROOT
HETATM    1  C1  UNL     1      27.132  21.860   5.966  1.00  0.00     0.038 C 
HETATM    2  C2  UNL     1      26.876  20.860   7.098  1.00  0.00     0.164 C 
ENDROOT
BRANCH   2   3
HETATM    3  N1  UNL     1      27.595  21.271   8.267  1.00  0.00    -0.124 NA
BRANCH   3   4
HETATM    4  N2  UNL     1      27.866  20.195   9.072  1.00  0.00    -0.248 N 
HETATM    5  C3  UNL     1      28.315  20.332  10.435  1.00  0.00     0.376 C 
HETATM    6  O1  UNL     1      28.439  21.491  10.849  1.00  0.00    -0.237 OA
ATOM      7  H2  UNL     1      27.746  19.258   8.690  1.00  0.00     0.187 HD
BRANCH   5   8
HETATM    8  O2  UNL     1      28.596  19.303  11.249  1.00  0.00    -0.299 OA
BRANCH   8   9
HETATM    9  C4  UNL     1      28.216  19.078  12.523  1.00  0.00     0.239 C 
BRANCH   9  10
HETATM   10  C5  UNL     1      29.127  19.273  13.669  1.00  0.00     0.210 C 
HETATM   11 CL1  UNL     1      28.203  19.388  15.218  1.00  0.00    -0.081 Cl
HETATM   12 CL2  UNL     1      30.368  20.497  13.534  1.00  0.00    -0.081 Cl
HETATM   13 CL3  UNL     1      30.035  17.703  13.875  1.00  0.00    -0.081 Cl
ENDBRANCH   9  10
ENDBRANCH   8   9
ENDBRANCH   5   8
ENDBRANCH   3   4
ENDBRANCH   2   3
BRANCH   2  14
HETATM   14  C6  UNL     1      25.406  20.900   7.337  1.00  0.00     0.118 C 
HETATM   15  N3  UNL     1      24.852  22.059   7.340  1.00  0.00    -0.253 N 
HETATM   16  O3  UNL     1      23.489  22.345   7.541  1.00  0.00    -0.279 OA
ATOM     17  H3  UNL     1      25.466  22.858   7.178  1.00  0.00     0.195 HD
HETATM   18  C7  UNL     1      22.451  21.417   7.164  1.00  0.00     0.203 C 
HETATM   19  C8  UNL     1      22.487  20.267   8.132  1.00  0.00     0.048 C 
HETATM   20  C9  UNL     1      23.440  19.205   7.669  1.00  0.00     0.123 C 
HETATM   21  N4  UNL     1      24.800  19.646   7.522  1.00  0.00    -0.377 N 
ATOM     22  H4  UNL     1      25.472  18.879   7.559  1.00  0.00     0.160 HD
ENDBRANCH   2  14
TORSDOF 6
ENDMDL
MODEL 2
REMARK VINA RESULT: -6.750745640      1.830      2.401
REMARK  6 active torsions:
REMARK  status: ('A' for Active; 'I' for Inactive)
REMARK    1  A    between atoms: C2_2  and  N1_3 
REMARK    2  A    between atoms: C2_2  and  C6_14 
REMARK    3  A    between atoms: N1_3  and  N2_4 
REMARK       I    between atoms: N2_4  and  C3_6 
REMARK    4  A    between atoms: C3_6  and  O2_8 
REMARK    5  A    between atoms: O2_8  and  C4_9 
REMARK    6  A    between atoms: C4_9  and  C5_10 
ROOT
HETATM    1  C1  UNL     1      27.700  20.762   8.359  1.00  0.00     0.038 C 
HETATM    2  C2  UNL     1      26.997  19.634   7.596  1.00  0.00     0.164 C 
ENDROOT
BRANCH   2   3
HETATM    3  N1  UNL     1      27.183  18.398   8.296  1.00  0.00    -0.124 NA
BRANCH   3   4
HETATM    4  N2  UNL     1      27.625  18.626   9.573  1.00  0.00    -0.248 N 
HETATM    5  C3  UNL     1      27.606  17.613  10.599  1.00  0.00     0.376 C 
HETATM    6  O1  UNL     1      27.167  16.508  10.259  1.00  0.00    -0.237 OA
ATOM      7  H2  UNL     1      27.982  19.552   9.808  1.00  0.00     0.187 HD
BRANCH   5   8
HETATM    8  O2  UNL     1      28.024  17.803  11.861  1.00  0.00    -0.299 OA
BRANCH   8   9
HETATM    9  C4  UNL     1      29.141  18.401  12.321  1.00  0.00     0.239 C 
BRANCH   9  10
HETATM   10  C5  UNL     1      29.114  19.700  13.025  1.00  0.00     0.210 C 
HETATM   11 CL1  UNL     1      28.278  19.555  14.620  1.00  0.00    -0.081 Cl
HETATM   12 CL2  UNL     1      28.607  21.111  12.126  1.00  0.00    -0.081 Cl
HETATM   13 CL3  UNL     1      30.836  20.051  13.520  1.00  0.00    -0.081 Cl
ENDBRANCH   9  10
ENDBRANCH   8   9
ENDBRANCH   5   8
ENDBRANCH   3   4
ENDBRANCH   2   3
BRANCH   2  14
HETATM   14  C6  UNL     1      25.558  20.014   7.562  1.00  0.00     0.118 C 
HETATM   15  N3  UNL     1      24.705  19.053   7.600  1.00  0.00    -0.253 N 
HETATM   16  O3  UNL     1      23.303  19.165   7.581  1.00  0.00    -0.279 OA
ATOM     17  H3  UNL     1      25.086  18.108   7.650  1.00  0.00     0.195 HD
HETATM   18  C7  UNL     1      22.622  20.314   8.129  1.00  0.00     0.203 C 
HETATM   19  C8  UNL     1      22.857  21.474   7.200  1.00  0.00     0.048 C 
HETATM   20  C9  UNL     1      24.119  22.200   7.559  1.00  0.00     0.123 C 
HETATM   21  N4  UNL     1      25.308  21.396   7.502  1.00  0.00    -0.377 N 
ATOM     22  H4  UNL     1      26.159  21.950   7.396  1.00  0.00     0.160 HD
ENDBRANCH   2  14
TORSDOF 6
ENDMDL
MODEL 3
REMARK VINA RESULT: -6.691172524      4.448      7.720
REMARK  6 active torsions:
REMARK  status: ('A' for Active; 'I' for Inactive)
REMARK    1  A    between atoms: C2_2  and  N1_3 
REMARK    2  A    between atoms: C2_2  and  C6_14 
REMARK    3  A    between atoms: N1_3  and  N2_4 
REMARK       I    between atoms: N2_4  and  C3_6 
REMARK    4  A    between atoms: C3_6  and  O2_8 
REMARK    5  A    between atoms: O2_8  and  C4_9 
REMARK    6  A    between atoms: C4_9  and  C5_10 
ROOT
HETATM    1  C1  UNL     1      29.930  17.684  13.518  1.00  0.00     0.038 C 
HETATM    2  C2  UNL     1      29.538  19.092  13.060  1.00  0.00     0.164 C 
ENDROOT
BRANCH   2   3
HETATM    3  N1  UNL     1      28.406  19.011  12.185  1.00  0.00    -0.124 NA
BRANCH   3   4
HETATM    4  N2  UNL     1      28.349  20.106  11.363  1.00  0.00    -0.248 N 
HETATM    5  C3  UNL     1      27.951  20.025   9.979  1.00  0.00     0.376 C 
HETATM    6  O1  UNL     1      27.653  18.898   9.568  1.00  0.00    -0.237 OA
ATOM      7  H2  UNL     1      28.600  21.017  11.746  1.00  0.00     0.187 HD
BRANCH   5   8
HETATM    8  O2  UNL     1      27.890  21.075   9.145  1.00  0.00    -0.299 OA
BRANCH   8   9
HETATM    9  C4  UNL     1      28.031  21.125   7.805  1.00  0.00     0.239 C 
BRANCH   9  10
HETATM   10  C5  UNL     1      26.877  21.112   6.884  1.00  0.00     0.210 C 
HETATM   11 CL1  UNL     1      26.910  22.547   5.784  1.00  0.00    -0.081 Cl
HETATM   12 CL2  UNL     1      25.291  20.819   7.558  1.00  0.00    -0.081 Cl
HETATM   13 CL3  UNL     1      27.160  19.729   5.726  1.00  0.00    -0.081 Cl
ENDBRANCH   9  10
ENDBRANCH   8   9
ENDBRANCH   5   8
ENDBRANCH   3   4
ENDBRANCH   2   3
BRANCH   2  14
HETATM   14  C6  UNL     1      29.194  19.833  14.306  1.00  0.00     0.118 C 
HETATM   15  N3  UNL     1      29.885  20.887  14.561  1.00  0.00    -0.253 N 
HETATM   16  O3  UNL     1      29.743  21.742  15.668  1.00  0.00    -0.279 OA
ATOM     17  H3  UNL     1      30.613  21.128  13.888  1.00  0.00     0.195 HD
HETATM   18  C7  UNL     1      28.473  21.941  16.322  1.00  0.00     0.203 C 
HETATM   19  C8  UNL     1      28.148  20.686  17.086  1.00  0.00     0.048 C 
HETATM   20  C9  UNL     1      27.415  19.706  16.220  1.00  0.00     0.123 C 
HETATM   21  N4  UNL     1      28.136  19.286  15.050  1.00  0.00    -0.377 N 
ATOM     22  H4  UNL     1      27.807  18.394  14.679  1.00  0.00     0.160 HD
ENDBRANCH   2  14
TORSDOF 6
ENDMDL
MODEL 4
REMARK VINA RESULT: -6.634988621      4.621      6.698
REMARK  6 active torsions:
REMARK  status: ('A' for Active; 'I' for Inactive)
REMARK    1  A    between atoms: C2_2  and  N1_3 
REMARK    2  A    between atoms: C2_2  and  C6_14 
REMARK    3  A    between atoms: N1_3  and  N2_4 
REMARK       I    between atoms: N2_4  and  C3_6 
REMARK    4  A    between atoms: C3_6  and  O2_8 
REMARK    5  A    between atoms: O2_8  and  C4_9 
REMARK    6  A    between atoms: C4_9  and  C5_10 
ROOT
HETATM    1  C1  UNL     1      20.335  21.152   5.605  1.00  0.00     0.038 C 
HETATM    2  C2  UNL     1      20.053  22.429   6.404  1.00  0.00     0.164 C 
ENDROOT
BRANCH   2   3
HETATM    3  N1  UNL     1      20.939  22.492   7.528  1.00  0.00    -0.124 NA
BRANCH   3   4
HETATM    4  N2  UNL     1      21.946  21.571   7.403  1.00  0.00    -0.248 N 
HETATM    5  C3  UNL     1      23.333  21.943   7.264  1.00  0.00     0.376 C 
HETATM    6  O1  UNL     1      23.569  23.157   7.269  1.00  0.00    -0.237 OA
ATOM      7  H2  UNL     1      21.706  20.581   7.408  1.00  0.00     0.187 HD
BRANCH   5   8
HETATM    8  O2  UNL     1      24.343  21.070   7.134  1.00  0.00    -0.299 OA
BRANCH   8   9
HETATM    9  C4  UNL     1      25.495  20.969   7.827  1.00  0.00     0.239 C 
BRANCH   9  10
HETATM   10  C5  UNL     1      26.819  21.169   7.203  1.00  0.00     0.210 C 
HETATM   11 CL1  UNL     1      28.145  20.928   8.406  1.00  0.00    -0.081 Cl
HETATM   12 CL2  UNL     1      27.055  22.594   6.218  1.00  0.00    -0.081 Cl
HETATM   13 CL3  UNL     1      27.067  19.763   6.065  1.00  0.00    -0.081 Cl
ENDBRANCH   9  10
ENDBRANCH   8   9
ENDBRANCH   5   8
ENDBRANCH   3   4
ENDBRANCH   2   3
BRANCH   2  14
HETATM   14  C6  UNL     1      20.309  23.552   5.460  1.00  0.00     0.118 C 
HETATM   15  N3  UNL     1      20.997  24.540   5.911  1.00  0.00    -0.253 N 
HETATM   16  O3  UNL     1      21.364  25.704   5.212  1.00  0.00    -0.279 OA
ATOM     17  H3  UNL     1      21.310  24.472   6.880  1.00  0.00     0.195 HD
HETATM   18  C7  UNL     1      21.573  25.703   3.785  1.00  0.00     0.203 C 
HETATM   19  C8  UNL     1      20.228  25.573   3.123  1.00  0.00     0.048 C 
HETATM   20  C9  UNL     1      19.852  24.132   2.950  1.00  0.00     0.123 C 
HETATM   21  N4  UNL     1      19.768  23.385   4.174  1.00  0.00    -0.377 N 
ATOM     22  H4  UNL     1      19.189  22.549   4.091  1.00  0.00     0.160 HD
ENDBRANCH   2  14
TORSDOF 6
ENDMDL
MODEL 5
REMARK VINA RESULT: -6.586918532      4.624      6.807
REMARK  6 active torsions:
REMARK  status: ('A' for Active; 'I' for Inactive)
REMARK    1  A    between atoms: C2_2  and  N1_3 
REMARK    2  A    between atoms: C2_2  and  C6_14 
REMARK    3  A    between atoms: N1_3  and  N2_4 
REMARK       I    between atoms: N2_4  and  C3_6 
REMARK    4  A    between atoms: C3_6  and  O2_8 
REMARK    5  A    between atoms: O2_8  and  C4_9 
REMARK    6  A    between atoms: C4_9  and  C5_10 
ROOT
HETATM    1  C1  UNL     1      20.080  21.485   5.362  1.00  0.00     0.038 C 
HETATM    2  C2  UNL     1      19.946  22.570   6.436  1.00  0.00     0.164 C 
ENDROOT
BRANCH   2   3
HETATM    3  N1  UNL     1      20.780  22.239   7.553  1.00  0.00    -0.124 NA
BRANCH   3   4
HETATM    4  N2  UNL     1      22.083  22.089   7.156  1.00  0.00    -0.248 N 
HETATM    5  C3  UNL     1      22.904  20.979   7.572  1.00  0.00     0.376 C 
HETATM    6  O1  UNL     1      22.359  20.152   8.313  1.00  0.00    -0.237 OA
ATOM      7  H2  UNL     1      22.490  22.793   6.541  1.00  0.00     0.187 HD
BRANCH   5   8
HETATM    8  O2  UNL     1      24.185  20.804   7.209  1.00  0.00    -0.299 OA
BRANCH   8   9
HETATM    9  C4  UNL     1      25.300  21.422   7.647  1.00  0.00     0.239 C 
BRANCH   9  10
HETATM   10  C5  UNL     1      26.637  21.141   7.083  1.00  0.00     0.210 C 
HETATM   11 CL1  UNL     1      27.324  22.610   6.284  1.00  0.00    -0.081 Cl
HETATM   12 CL2  UNL     1      26.835  19.696   6.120  1.00  0.00    -0.081 Cl
HETATM   13 CL3  UNL     1      27.756  20.916   8.507  1.00  0.00    -0.081 Cl
ENDBRANCH   9  10
ENDBRANCH   8   9
ENDBRANCH   5   8
ENDBRANCH   3   4
ENDBRANCH   2   3
BRANCH   2  14
HETATM   14  C6  UNL     1      20.402  23.830   5.787  1.00  0.00     0.118 C 
HETATM   15  N3  UNL     1      19.849  24.136   4.667  1.00  0.00    -0.253 N 
HETATM   16  O3  UNL     1      20.113  25.268   3.875  1.00  0.00    -0.279 OA
ATOM     17  H3  UNL     1      19.143  23.489   4.315  1.00  0.00     0.195 HD
HETATM   18  C7  UNL     1      20.547  26.518   4.451  1.00  0.00     0.203 C 
HETATM   19  C8  UNL     1      21.970  26.345   4.909  1.00  0.00     0.048 C 
HETATM   20  C9  UNL     1      22.021  25.817   6.311  1.00  0.00     0.123 C 
HETATM   21  N4  UNL     1      21.385  24.542   6.494  1.00  0.00    -0.377 N 
ATOM     22  H4  UNL     1      21.722  24.044   7.319  1.00  0.00     0.160 HD
ENDBRANCH   2  14
TORSDOF 6
ENDMDL
