MODEL 1
REMARK VINA RESULT: -7.075746540      0.000      0.000
REMARK  9 active torsions:
REMARK  status: ('A' for Active; 'I' for Inactive)
REMARK    1  A    between atoms: C2_2  and  O1_3 
REMARK    2  A    between atoms: C2_2  and  C3_5 
REMARK    3  A    between atoms: C3_5  and  C4_6 
REMARK    4  A    between atoms: C3_5  and  N1_20 
REMARK    5  A    between atoms: C4_6  and  O2_7 
REMARK    6  A    between atoms: C4_6  and  C5_9 
REMARK    7  A    between atoms: C10_17  and  O3_18 
REMARK    8  A    between atoms: N1_20  and  N2_21 
REMARK    9  A    between atoms: N1_20  and  N3_24 
ROOT
HETATM    1  C3  UNL     1      28.472  15.409   9.165  1.00  0.00     0.213 C 
ENDROOT
BRANCH   1   2
HETATM    2  C2  UNL     1      28.128  15.495   7.680  1.00  0.00     0.147 C 
HETATM    3  C1  UNL     1      28.968  14.565   6.873  1.00  0.00     0.042 C 
BRANCH   2   4
HETATM    4  O1  UNL     1      26.808  15.314   7.403  1.00  0.00    -0.393 OA
ATOM      5  H1  UNL     1      26.321  16.115   7.555  1.00  0.00     0.210 HD
ENDBRANCH   2   4
ENDBRANCH   1   2
BRANCH   1   6
HETATM    6  C4  UNL     1      27.733  16.410   9.931  1.00  0.00     0.087 C 
BRANCH   6   7
HETATM    7  O2  UNL     1      26.573  15.960  10.334  1.00  0.00    -0.362 OA
ATOM      8  H2  UNL     1      25.859  16.281   9.795  1.00  0.00     0.217 HD
ENDBRANCH   6   7
BRANCH   6   9
HETATM    9  C5  UNL     1      28.025  17.741  10.311  1.00  0.00     0.053 A 
HETATM   10  C6  UNL     1      27.705  18.865   9.602  1.00  0.00     0.051 A 
HETATM   11 CL1  UNL     1      26.856  18.810   8.073  1.00  0.00    -0.083 Cl
HETATM   12  C7  UNL     1      28.018  20.158  10.054  1.00  0.00     0.052 A 
HETATM   13  C8  UNL     1      28.668  20.341  11.248  1.00  0.00     0.077 A 
HETATM   14 CL2  UNL     1      29.062  21.970  11.815  1.00  0.00    -0.081 Cl
HETATM   15  C9  UNL     1      29.002  19.229  11.982  1.00  0.00     0.172 A 
HETATM   16  F1  UNL     1      29.649  19.411  13.170  1.00  0.00    -0.201 F 
HETATM   17  C10 UNL     1      28.688  17.974  11.522  1.00  0.00     0.120 A 
BRANCH  17  18
HETATM   18  O3  UNL     1      29.077  16.912  12.355  1.00  0.00    -0.357 OA
ATOM     19  H3  UNL     1      28.448  16.267  12.658  1.00  0.00     0.218 HD
ENDBRANCH  17  18
ENDBRANCH   6   9
ENDBRANCH   1   6
BRANCH   1  20
HETATM   20  N1  UNL     1      28.364  14.054   9.651  1.00  0.00    -0.211 N 
BRANCH  20  21
HETATM   21  N2  UNL     1      27.177  13.324   9.424  1.00  0.00    -0.327 N 
ATOM     22  H22 UNL     1      26.339  13.890   9.291  1.00  0.00     0.178 HD
ATOM     23  H21 UNL     1      27.212  12.305   9.385  1.00  0.00     0.178 HD
ENDBRANCH  20  21
BRANCH  20  24
HETATM   24  N3  UNL     1      29.347  13.376  10.373  1.00  0.00    -0.228 N 
HETATM   25  C11 UNL     1      30.101  12.247   9.887  1.00  0.00     0.201 C 
HETATM   26  N4  UNL     1      29.594  13.787  11.543  1.00  0.00    -0.328 N 
ATOM     27  H42 UNL     1      29.062  14.585  11.886  1.00  0.00     0.178 HD
ATOM     28  H41 UNL     1      30.313  13.292  12.070  1.00  0.00     0.178 HD
ENDBRANCH  20  24
ENDBRANCH   1  20
TORSDOF 9
ENDMDL
MODEL 2
REMARK VINA RESULT: -6.729136688      1.162      1.417
REMARK  9 active torsions:
REMARK  status: ('A' for Active; 'I' for Inactive)
REMARK    1  A    between atoms: C2_2  and  O1_3 
REMARK    2  A    between atoms: C2_2  and  C3_5 
REMARK    3  A    between atoms: C3_5  and  C4_6 
REMARK    4  A    between atoms: C3_5  and  N1_20 
REMARK    5  A    between atoms: C4_6  and  O2_7 
REMARK    6  A    between atoms: C4_6  and  C5_9 
REMARK    7  A    between atoms: C10_17  and  O3_18 
REMARK    8  A    between atoms: N1_20  and  N2_21 
REMARK    9  A    between atoms: N1_20  and  N3_24 
ROOT
HETATM    1  C3  UNL     1      28.199  15.553   8.911  1.00  0.00     0.213 C 
ENDROOT
BRANCH   1   2
HETATM    2  C2  UNL     1      27.084  14.775   8.217  1.00  0.00     0.147 C 
HETATM    3  C1  UNL     1      27.366  14.600   6.764  1.00  0.00     0.042 C 
BRANCH   2   4
HETATM    4  O1  UNL     1      26.797  13.578   8.798  1.00  0.00    -0.393 OA
ATOM      5  H1  UNL     1      25.878  13.363   8.686  1.00  0.00     0.210 HD
ENDBRANCH   2   4
ENDBRANCH   1   2
BRANCH   1   6
HETATM    6  C4  UNL     1      27.654  16.462   9.916  1.00  0.00     0.087 C 
BRANCH   6   7
HETATM    7  O2  UNL     1      26.679  15.914  10.595  1.00  0.00    -0.362 OA
ATOM      8  H2  UNL     1      26.975  15.573  11.431  1.00  0.00     0.217 HD
ENDBRANCH   6   7
BRANCH   6   9
HETATM    9  C5  UNL     1      27.971  17.789  10.288  1.00  0.00     0.053 A 
HETATM   10  C6  UNL     1      27.672  18.915   9.571  1.00  0.00     0.051 A 
HETATM   11 CL1  UNL     1      26.822  18.865   8.042  1.00  0.00    -0.083 Cl
HETATM   12  C7  UNL     1      28.009  20.205  10.014  1.00  0.00     0.052 A 
HETATM   13  C8  UNL     1      28.662  20.383  11.207  1.00  0.00     0.077 A 
HETATM   14 CL2  UNL     1      29.086  22.008  11.764  1.00  0.00    -0.081 Cl
HETATM   15  C9  UNL     1      28.975  19.270  11.949  1.00  0.00     0.172 A 
HETATM   16  F1  UNL     1      29.625  19.448  13.137  1.00  0.00    -0.201 F 
HETATM   17  C10 UNL     1      28.637  18.018  11.498  1.00  0.00     0.120 A 
BRANCH  17  18
HETATM   18  O3  UNL     1      29.006  16.954  12.338  1.00  0.00    -0.357 OA
ATOM     19  H3  UNL     1      29.520  17.102  13.123  1.00  0.00     0.218 HD
ENDBRANCH  17  18
ENDBRANCH   6   9
ENDBRANCH   1   6
BRANCH   1  20
HETATM   20  N1  UNL     1      29.244  14.671   9.375  1.00  0.00    -0.211 N 
BRANCH  20  21
HETATM   21  N2  UNL     1      29.362  14.393  10.754  1.00  0.00    -0.327 N 
ATOM     22  H22 UNL     1      28.959  15.096  11.373  1.00  0.00     0.178 HD
ATOM     23  H21 UNL     1      29.808  13.528  11.057  1.00  0.00     0.178 HD
ENDBRANCH  20  21
BRANCH  20  24
HETATM   24  N3  UNL     1      30.203  14.062   8.564  1.00  0.00    -0.228 N 
HETATM   25  C11 UNL     1      30.548  12.662   8.599  1.00  0.00     0.201 C 
HETATM   26  N4  UNL     1      30.814  14.796   7.736  1.00  0.00    -0.328 N 
ATOM     27  H42 UNL     1      30.569  15.785   7.711  1.00  0.00     0.178 HD
ATOM     28  H41 UNL     1      31.514  14.351   7.143  1.00  0.00     0.178 HD
ENDBRANCH  20  24
ENDBRANCH   1  20
TORSDOF 9
ENDMDL
MODEL 3
REMARK VINA RESULT: -6.681627839      1.429      1.658
REMARK  9 active torsions:
REMARK  status: ('A' for Active; 'I' for Inactive)
REMARK    1  A    between atoms: C2_2  and  O1_3 
REMARK    2  A    between atoms: C2_2  and  C3_5 
REMARK    3  A    between atoms: C3_5  and  C4_6 
REMARK    4  A    between atoms: C3_5  and  N1_20 
REMARK    5  A    between atoms: C4_6  and  O2_7 
REMARK    6  A    between atoms: C4_6  and  C5_9 
REMARK    7  A    between atoms: C10_17  and  O3_18 
REMARK    8  A    between atoms: N1_20  and  N2_21 
REMARK    9  A    between atoms: N1_20  and  N3_24 
ROOT
HETATM    1  C3  UNL     1      28.655  16.142   9.002  1.00  0.00     0.213 C 
ENDROOT
BRANCH   1   2
HETATM    2  C2  UNL     1      27.646  15.983   7.868  1.00  0.00     0.147 C 
HETATM    3  C1  UNL     1      27.140  14.584   7.782  1.00  0.00     0.042 C 
BRANCH   2   4
HETATM    4  O1  UNL     1      26.611  16.866   7.917  1.00  0.00    -0.393 OA
ATOM      5  H1  UNL     1      26.853  17.689   7.510  1.00  0.00     0.210 HD
ENDBRANCH   2   4
ENDBRANCH   1   2
BRANCH   1   6
HETATM    6  C4  UNL     1      28.064  16.857  10.130  1.00  0.00     0.087 C 
BRANCH   6   7
HETATM    7  O2  UNL     1      26.951  16.301  10.535  1.00  0.00    -0.362 OA
ATOM      8  H2  UNL     1      26.565  16.768  11.266  1.00  0.00     0.217 HD
ENDBRANCH   6   7
BRANCH   6   9
HETATM    9  C5  UNL     1      28.456  18.008  10.853  1.00  0.00     0.053 A 
HETATM   10  C6  UNL     1      28.221  19.304  10.485  1.00  0.00     0.051 A 
HETATM   11 CL1  UNL     1      27.371  19.730   9.016  1.00  0.00    -0.083 Cl
HETATM   12  C7  UNL     1      28.631  20.397  11.265  1.00  0.00     0.052 A 
HETATM   13  C8  UNL     1      29.293  20.199  12.450  1.00  0.00     0.077 A 
HETATM   14 CL2  UNL     1      29.808  21.578  13.432  1.00  0.00    -0.081 Cl
HETATM   15  C9  UNL     1      29.542  18.907  12.847  1.00  0.00     0.172 A 
HETATM   16  F1  UNL     1      30.200  18.710  14.026  1.00  0.00    -0.201 F 
HETATM   17  C10 UNL     1      29.134  17.852  12.068  1.00  0.00     0.120 A 
BRANCH  17  18
HETATM   18  O3  UNL     1      29.442  16.577  12.572  1.00  0.00    -0.357 OA
ATOM     19  H3  UNL     1      29.442  16.403  13.506  1.00  0.00     0.218 HD
ENDBRANCH  17  18
ENDBRANCH   6   9
ENDBRANCH   1   6
BRANCH   1  20
HETATM   20  N1  UNL     1      29.282  14.882   9.326  1.00  0.00    -0.211 N 
BRANCH  20  21
HETATM   21  N2  UNL     1      29.069  14.303  10.596  1.00  0.00    -0.327 N 
ATOM     22  H22 UNL     1      28.175  13.826  10.710  1.00  0.00     0.178 HD
ATOM     23  H21 UNL     1      29.797  14.367  11.307  1.00  0.00     0.178 HD
ENDBRANCH  20  21
BRANCH  20  24
HETATM   24  N3  UNL     1      30.133  14.165   8.483  1.00  0.00    -0.228 N 
HETATM   25  C11 UNL     1      30.918  14.738   7.419  1.00  0.00     0.201 C 
HETATM   26  N4  UNL     1      30.219  12.918   8.670  1.00  0.00    -0.328 N 
ATOM     27  H42 UNL     1      29.664  12.513   9.423  1.00  0.00     0.178 HD
ATOM     28  H41 UNL     1      30.841  12.395   8.054  1.00  0.00     0.178 HD
ENDBRANCH  20  24
ENDBRANCH   1  20
TORSDOF 9
ENDMDL
MODEL 4
REMARK VINA RESULT: -6.629640823      1.828      2.278
REMARK  9 active torsions:
REMARK  status: ('A' for Active; 'I' for Inactive)
REMARK    1  A    between atoms: C2_2  and  O1_3 
REMARK    2  A    between atoms: C2_2  and  C3_5 
REMARK    3  A    between atoms: C3_5  and  C4_6 
REMARK    4  A    between atoms: C3_5  and  N1_20 
REMARK    5  A    between atoms: C4_6  and  O2_7 
REMARK    6  A    between atoms: C4_6  and  C5_9 
REMARK    7  A    between atoms: C10_17  and  O3_18 
REMARK    8  A    between atoms: N1_20  and  N2_21 
REMARK    9  A    between atoms: N1_20  and  N3_24 
ROOT
HETATM    1  C3  UNL     1      28.899  15.226   9.541  1.00  0.00     0.213 C 
ENDROOT
BRANCH   1   2
HETATM    2  C2  UNL     1      29.276  15.624   8.115  1.00  0.00     0.147 C 
HETATM    3  C1  UNL     1      30.146  14.597   7.476  1.00  0.00     0.042 C 
BRANCH   2   4
HETATM    4  O1  UNL     1      28.211  15.914   7.320  1.00  0.00    -0.393 OA
ATOM      5  H1  UNL     1      27.463  16.179   7.843  1.00  0.00     0.210 HD
ENDBRANCH   2   4
ENDBRANCH   1   2
BRANCH   1   6
HETATM    6  C4  UNL     1      28.058  16.246  10.162  1.00  0.00     0.087 C 
BRANCH   6   7
HETATM    7  O2  UNL     1      26.833  15.826  10.344  1.00  0.00    -0.362 OA
ATOM      8  H2  UNL     1      26.784  14.878  10.387  1.00  0.00     0.217 HD
ENDBRANCH   6   7
BRANCH   6   9
HETATM    9  C5  UNL     1      28.309  17.569  10.596  1.00  0.00     0.053 A 
HETATM   10  C6  UNL     1      29.030  17.926  11.701  1.00  0.00     0.051 A 
HETATM   11 CL1  UNL     1      29.772  16.753  12.766  1.00  0.00    -0.083 Cl
HETATM   12  C7  UNL     1      29.249  19.267  12.060  1.00  0.00     0.052 A 
HETATM   13  C8  UNL     1      28.735  20.285  11.297  1.00  0.00     0.077 A 
HETATM   14 CL2  UNL     1      29.010  21.973  11.751  1.00  0.00    -0.081 Cl
HETATM   15  C9  UNL     1      28.006  19.956  10.180  1.00  0.00     0.172 A 
HETATM   16  F1  UNL     1      27.495  20.969   9.422  1.00  0.00    -0.201 F 
HETATM   17  C10 UNL     1      27.803  18.639   9.847  1.00  0.00     0.120 A 
BRANCH  17  18
HETATM   18  O3  UNL     1      27.044  18.421   8.686  1.00  0.00    -0.357 OA
ATOM     19  H3  UNL     1      26.909  19.112   8.048  1.00  0.00     0.218 HD
ENDBRANCH  17  18
ENDBRANCH   6   9
ENDBRANCH   1   6
BRANCH   1  20
HETATM   20  N1  UNL     1      28.380  13.880   9.590  1.00  0.00    -0.211 N 
BRANCH  20  21
HETATM   21  N2  UNL     1      27.286  13.524   8.773  1.00  0.00    -0.327 N 
ATOM     22  H22 UNL     1      26.423  13.314   9.273  1.00  0.00     0.178 HD
ATOM     23  H21 UNL     1      27.397  13.512   7.759  1.00  0.00     0.178 HD
ENDBRANCH  20  21
BRANCH  20  24
HETATM   24  N3  UNL     1      28.857  12.863  10.418  1.00  0.00    -0.228 N 
HETATM   25  C11 UNL     1      30.064  12.107  10.190  1.00  0.00     0.201 C 
HETATM   26  N4  UNL     1      28.177  12.585  11.447  1.00  0.00    -0.328 N 
ATOM     27  H42 UNL     1      27.324  13.120  11.608  1.00  0.00     0.178 HD
ATOM     28  H41 UNL     1      28.526  11.842  12.052  1.00  0.00     0.178 HD
ENDBRANCH  20  24
ENDBRANCH   1  20
TORSDOF 9
ENDMDL
MODEL 5
REMARK VINA RESULT: -6.564937486      1.454      1.819
REMARK  9 active torsions:
REMARK  status: ('A' for Active; 'I' for Inactive)
REMARK    1  A    between atoms: C2_2  and  O1_3 
REMARK    2  A    between atoms: C2_2  and  C3_5 
REMARK    3  A    between atoms: C3_5  and  C4_6 
REMARK    4  A    between atoms: C3_5  and  N1_20 
REMARK    5  A    between atoms: C4_6  and  O2_7 
REMARK    6  A    between atoms: C4_6  and  C5_9 
REMARK    7  A    between atoms: C10_17  and  O3_18 
REMARK    8  A    between atoms: N1_20  and  N2_21 
REMARK    9  A    between atoms: N1_20  and  N3_24 
ROOT
HETATM    1  C3  UNL     1      28.505  16.678   8.910  1.00  0.00     0.213 C 
ENDROOT
BRANCH   1   2
HETATM    2  C2  UNL     1      27.389  16.668   7.867  1.00  0.00     0.147 C 
HETATM    3  C1  UNL     1      27.226  18.006   7.233  1.00  0.00     0.042 C 
BRANCH   2   4
HETATM    4  O1  UNL     1      27.523  15.700   6.920  1.00  0.00    -0.393 OA
ATOM      5  H1  UNL     1      26.722  15.196   6.839  1.00  0.00     0.210 HD
ENDBRANCH   2   4
ENDBRANCH   1   2
BRANCH   1   6
HETATM    6  C4  UNL     1      28.030  17.231  10.176  1.00  0.00     0.087 C 
BRANCH   6   7
HETATM    7  O2  UNL     1      26.981  16.593  10.627  1.00  0.00    -0.362 OA
ATOM      8  H2  UNL     1      26.675  15.934  10.015  1.00  0.00     0.217 HD
ENDBRANCH   6   7
BRANCH   6   9
HETATM    9  C5  UNL     1      28.479  18.298  10.990  1.00  0.00     0.053 A 
HETATM   10  C6  UNL     1      28.325  19.629  10.720  1.00  0.00     0.051 A 
HETATM   11 CL1  UNL     1      27.521  20.217   9.281  1.00  0.00    -0.083 Cl
HETATM   12  C7  UNL     1      28.787  20.634  11.587  1.00  0.00     0.052 A 
HETATM   13  C8  UNL     1      29.420  20.306  12.759  1.00  0.00     0.077 A 
HETATM   14 CL2  UNL     1      30.001  21.573  13.849  1.00  0.00    -0.081 Cl
HETATM   15  C9  UNL     1      29.587  18.976  13.056  1.00  0.00     0.172 A 
HETATM   16  F1  UNL     1      30.217  18.650  14.223  1.00  0.00    -0.201 F 
HETATM   17  C10 UNL     1      29.130  18.009  12.195  1.00  0.00     0.120 A 
BRANCH  17  18
HETATM   18  O3  UNL     1      29.355  16.684  12.601  1.00  0.00    -0.357 OA
ATOM     19  H3  UNL     1      30.131  16.209  12.327  1.00  0.00     0.218 HD
ENDBRANCH  17  18
ENDBRANCH   6   9
ENDBRANCH   1   6
BRANCH   1  20
HETATM   20  N1  UNL     1      29.150  15.390   8.999  1.00  0.00    -0.211 N 
BRANCH  20  21
HETATM   21  N2  UNL     1      30.236  15.093   8.148  1.00  0.00    -0.327 N 
ATOM     22  H22 UNL     1      30.068  15.263   7.157  1.00  0.00     0.178 HD
ATOM     23  H21 UNL     1      31.112  14.755   8.547  1.00  0.00     0.178 HD
ENDBRANCH  20  21
BRANCH  20  24
HETATM   24  N3  UNL     1      28.775  14.358   9.862  1.00  0.00    -0.228 N 
HETATM   25  C11 UNL     1      27.790  13.348   9.564  1.00  0.00     0.201 C 
HETATM   26  N4  UNL     1      29.344  14.308  10.989  1.00  0.00    -0.328 N 
ATOM     27  H42 UNL     1      30.041  15.022  11.199  1.00  0.00     0.178 HD
ATOM     28  H41 UNL     1      29.070  13.554  11.619  1.00  0.00     0.178 HD
ENDBRANCH  20  24
ENDBRANCH   1  20
TORSDOF 9
ENDMDL
