MODEL 1
REMARK VINA RESULT: -7.414758064      0.000      0.000
REMARK  8 active torsions:
REMARK  status: ('A' for Active; 'I' for Inactive)
REMARK    1  A    between atoms: C3_3  and  C4_4 
REMARK    2  A    between atoms: C6_9  and  O4_10 
REMARK    3  A    between atoms: C7_12  and  N1_13 
REMARK    4  A    between atoms: N1_13  and  C8_15 
REMARK    5  A    between atoms: C8_15  and  C9_16 
REMARK    6  A    between atoms: C12_22  and  N2_23 
REMARK    7  A    between atoms: C13_26  and  O9_27 
REMARK    8  A    between atoms: O9_27  and  C14_28 
ROOT
HETATM    1  C1  UNL     1     -33.786 -16.820  58.774  1.00  0.00     0.052 C 
HETATM    2  C2  UNL     1     -32.520 -16.706  59.495  1.00  0.00    -0.005 A 
HETATM    3  C3  UNL     1     -32.010 -15.579  60.121  1.00  0.00     0.159 A 
HETATM    4  O3  UNL     1     -30.841 -15.891  60.629  1.00  0.00    -0.299 OA
HETATM    5  C5  UNL     1     -30.545 -17.144  60.380  1.00  0.00     0.125 A 
HETATM    6  C6  UNL     1     -29.439 -17.889  60.713  1.00  0.00     0.130 A 
HETATM    7  C7  UNL     1     -29.333 -19.226  60.340  1.00  0.00     0.101 A 
HETATM    8  C12 UNL     1     -30.374 -19.756  59.631  1.00  0.00     0.166 A 
HETATM    9  C13 UNL     1     -31.531 -19.044  59.259  1.00  0.00     0.121 A 
HETATM   10  C19 UNL     1     -31.594 -17.726  59.649  1.00  0.00     0.046 A 
ENDROOT
BRANCH   7  11
HETATM   11  N1  UNL     1     -28.157 -19.931  60.773  1.00  0.00    -0.383 N 
ATOM     12  H1  UNL     1     -28.203 -20.389  61.683  1.00  0.00     0.159 HD
BRANCH  11  13
HETATM   13  C8  UNL     1     -26.943 -20.047  60.056  1.00  0.00     0.154 C 
BRANCH  13  14
HETATM   14  C9  UNL     1     -26.546 -21.349  59.484  1.00  0.00     0.177 C 
HETATM   15  O5  UNL     1     -25.987 -22.303  60.332  1.00  0.00    -0.311 OA
HETATM   16  C10 UNL     1     -25.164 -22.687  59.262  1.00  0.00     0.280 C 
HETATM   17  O6  UNL     1     -24.724 -23.798  58.915  1.00  0.00    -0.263 OA
HETATM   18  C11 UNL     1     -25.139 -21.252  58.870  1.00  0.00     0.212 C 
HETATM   19 CL1  UNL     1     -23.995 -20.337  59.871  1.00  0.00    -0.112 Cl
ENDBRANCH  13  14
ENDBRANCH  11  13
ENDBRANCH   7  11
BRANCH   6  20
HETATM   20  O4  UNL     1     -28.411 -17.304  61.435  1.00  0.00    -0.356 OA
ATOM     21  H4  UNL     1     -27.591 -17.771  61.547  1.00  0.00     0.218 HD
ENDBRANCH   6  20
BRANCH   8  22
HETATM   22  N2  UNL     1     -30.291 -21.153  59.352  1.00  0.00    -0.110 N 
HETATM   23  O7  UNL     1     -30.680 -22.062  60.080  1.00  0.00    -0.532 OA
HETATM   24  O8  UNL     1     -29.671 -21.502  58.153  1.00  0.00    -0.532 OA
ENDBRANCH   8  22
BRANCH   9  25
HETATM   25  O9  UNL     1     -32.505 -19.643  58.556  1.00  0.00    -0.317 OA
BRANCH  25  26
HETATM   26  C14 UNL     1     -33.759 -20.137  58.780  1.00  0.00     0.266 C 
HETATM   27  C15 UNL     1     -33.853 -21.622  58.514  1.00  0.00     0.061 C 
HETATM   28  C16 UNL     1     -35.254 -22.152  58.756  1.00  0.00     0.007 C 
HETATM   29  C17 UNL     1     -35.706 -21.764  60.153  1.00  0.00     0.026 C 
HETATM   30  C18 UNL     1     -35.479 -20.250  60.237  1.00  0.00     0.171 C 
HETATM   31  O10 UNL     1     -34.102 -20.076  60.178  1.00  0.00    -0.361 OA
ENDBRANCH  25  26
ENDBRANCH   9  25
BRANCH   3  32
HETATM   32  C4  UNL     1     -32.591 -14.249  60.248  1.00  0.00     0.234 C 
HETATM   33  O1  UNL     1     -33.656 -13.987  60.842  1.00  0.00    -0.642 OA
HETATM   34  O2  UNL     1     -31.940 -13.158  59.677  1.00  0.00    -0.642 OA
ENDBRANCH   3  32
TORSDOF 8
ENDMDL
MODEL 2
REMARK VINA RESULT: -7.408071740      1.784      2.219
REMARK  8 active torsions:
REMARK  status: ('A' for Active; 'I' for Inactive)
REMARK    1  A    between atoms: C3_3  and  C4_4 
REMARK    2  A    between atoms: C6_9  and  O4_10 
REMARK    3  A    between atoms: C7_12  and  N1_13 
REMARK    4  A    between atoms: N1_13  and  C8_15 
REMARK    5  A    between atoms: C8_15  and  C9_16 
REMARK    6  A    between atoms: C12_22  and  N2_23 
REMARK    7  A    between atoms: C13_26  and  O9_27 
REMARK    8  A    between atoms: O9_27  and  C14_28 
ROOT
HETATM    1  C1  UNL     1     -32.372 -17.169  58.923  1.00  0.00     0.052 C 
HETATM    2  C2  UNL     1     -31.129 -17.294  59.681  1.00  0.00    -0.005 A 
HETATM    3  C3  UNL     1     -30.589 -16.373  60.565  1.00  0.00     0.159 A 
HETATM    4  O3  UNL     1     -29.457 -16.858  61.015  1.00  0.00    -0.299 OA
HETATM    5  C5  UNL     1     -29.212 -18.034  60.489  1.00  0.00     0.125 A 
HETATM    6  C6  UNL     1     -28.157 -18.897  60.667  1.00  0.00     0.130 A 
HETATM    7  C7  UNL     1     -28.101 -20.114  59.996  1.00  0.00     0.101 A 
HETATM    8  C12 UNL     1     -29.140 -20.408  59.157  1.00  0.00     0.166 A 
HETATM    9  C13 UNL     1     -30.247 -19.566  58.933  1.00  0.00     0.121 A 
HETATM   10  C19 UNL     1     -30.260 -18.373  59.617  1.00  0.00     0.046 A 
ENDROOT
BRANCH   7  11
HETATM   11  N1  UNL     1     -26.978 -20.964  60.282  1.00  0.00    -0.383 N 
ATOM     12  H1  UNL     1     -26.969 -21.428  61.191  1.00  0.00     0.159 HD
BRANCH  11  13
HETATM   13  C8  UNL     1     -25.883 -21.218  59.422  1.00  0.00     0.154 C 
BRANCH  13  14
HETATM   14  C9  UNL     1     -24.513 -20.870  59.848  1.00  0.00     0.177 C 
HETATM   15  O5  UNL     1     -23.800 -19.941  59.095  1.00  0.00    -0.311 OA
HETATM   16  C10 UNL     1     -22.646 -20.690  59.370  1.00  0.00     0.280 C 
HETATM   17  O6  UNL     1     -21.466 -20.348  59.568  1.00  0.00    -0.263 OA
HETATM   18  C11 UNL     1     -23.510 -21.899  59.298  1.00  0.00     0.212 C 
HETATM   19 CL1  UNL     1     -23.824 -22.359  57.614  1.00  0.00    -0.112 Cl
ENDBRANCH  13  14
ENDBRANCH  11  13
ENDBRANCH   7  11
BRANCH   6  20
HETATM   20  O4  UNL     1     -27.129 -18.552  61.531  1.00  0.00    -0.356 OA
ATOM     21  H4  UNL     1     -26.669 -17.729  61.408  1.00  0.00     0.218 HD
ENDBRANCH   6  20
BRANCH   8  22
HETATM   22  N2  UNL     1     -29.114 -21.705  58.563  1.00  0.00    -0.110 N 
HETATM   23  O7  UNL     1     -29.397 -22.763  59.118  1.00  0.00    -0.532 OA
HETATM   24  O8  UNL     1     -28.685 -21.762  57.238  1.00  0.00    -0.532 OA
ENDBRANCH   8  22
BRANCH   9  25
HETATM   25  O9  UNL     1     -31.222 -19.931  58.085  1.00  0.00    -0.317 OA
BRANCH  25  26
HETATM   26  C14 UNL     1     -32.379 -20.656  58.126  1.00  0.00     0.266 C 
HETATM   27  C15 UNL     1     -33.075 -20.564  59.465  1.00  0.00     0.061 C 
HETATM   28  C16 UNL     1     -34.351 -21.384  59.497  1.00  0.00     0.007 C 
HETATM   29  C17 UNL     1     -35.238 -20.982  58.333  1.00  0.00     0.026 C 
HETATM   30  C18 UNL     1     -34.339 -21.088  57.095  1.00  0.00     0.171 C 
HETATM   31  O10 UNL     1     -33.376 -20.099  57.249  1.00  0.00    -0.361 OA
ENDBRANCH  25  26
ENDBRANCH   9  25
BRANCH   3  32
HETATM   32  C4  UNL     1     -31.110 -15.078  60.983  1.00  0.00     0.234 C 
HETATM   33  O1  UNL     1     -30.763 -13.979  60.505  1.00  0.00    -0.642 OA
HETATM   34  O2  UNL     1     -32.071 -15.017  61.989  1.00  0.00    -0.642 OA
ENDBRANCH   3  32
TORSDOF 8
ENDMDL
MODEL 3
REMARK VINA RESULT: -7.261092378      2.640      6.873
REMARK  8 active torsions:
REMARK  status: ('A' for Active; 'I' for Inactive)
REMARK    1  A    between atoms: C3_3  and  C4_4 
REMARK    2  A    between atoms: C6_9  and  O4_10 
REMARK    3  A    between atoms: C7_12  and  N1_13 
REMARK    4  A    between atoms: N1_13  and  C8_15 
REMARK    5  A    between atoms: C8_15  and  C9_16 
REMARK    6  A    between atoms: C12_22  and  N2_23 
REMARK    7  A    between atoms: C13_26  and  O9_27 
REMARK    8  A    between atoms: O9_27  and  C14_28 
ROOT
HETATM    1  C1  UNL     1     -27.988 -17.731  61.447  1.00  0.00     0.052 C 
HETATM    2  C2  UNL     1     -29.269 -17.778  60.744  1.00  0.00    -0.005 A 
HETATM    3  C3  UNL     1     -30.248 -16.797  60.720  1.00  0.00     0.159 A 
HETATM    4  O3  UNL     1     -31.247 -17.240  59.994  1.00  0.00    -0.299 OA
HETATM    5  C5  UNL     1     -30.995 -18.443  59.540  1.00  0.00     0.125 A 
HETATM    6  C6  UNL     1     -31.747 -19.283  58.752  1.00  0.00     0.130 A 
HETATM    7  C7  UNL     1     -31.275 -20.539  58.384  1.00  0.00     0.101 A 
HETATM    8  C12 UNL     1     -30.037 -20.894  58.840  1.00  0.00     0.166 A 
HETATM    9  C13 UNL     1     -29.221 -20.080  59.651  1.00  0.00     0.121 A 
HETATM   10  C19 UNL     1     -29.728 -18.847  59.990  1.00  0.00     0.046 A 
ENDROOT
BRANCH   7  11
HETATM   11  N1  UNL     1     -32.117 -21.323  57.522  1.00  0.00    -0.383 N 
ATOM     12  H1  UNL     1     -31.992 -21.201  56.517  1.00  0.00     0.159 HD
BRANCH  11  13
HETATM   13  C8  UNL     1     -33.102 -22.249  57.938  1.00  0.00     0.154 C 
BRANCH  13  14
HETATM   14  C9  UNL     1     -34.504 -22.078  57.508  1.00  0.00     0.177 C 
HETATM   15  O5  UNL     1     -34.974 -20.788  57.275  1.00  0.00    -0.311 OA
HETATM   16  C10 UNL     1     -36.209 -21.206  57.793  1.00  0.00     0.280 C 
HETATM   17  O6  UNL     1     -37.378 -20.902  57.489  1.00  0.00    -0.263 OA
HETATM   18  C11 UNL     1     -35.436 -22.061  58.732  1.00  0.00     0.212 C 
HETATM   19 CL1  UNL     1     -34.802 -21.109  60.088  1.00  0.00    -0.112 Cl
ENDBRANCH  13  14
ENDBRANCH  11  13
ENDBRANCH   7  11
BRANCH   6  20
HETATM   20  O4  UNL     1     -32.996 -18.873  58.312  1.00  0.00    -0.356 OA
ATOM     21  H4  UNL     1     -33.158 -18.780  57.381  1.00  0.00     0.218 HD
ENDBRANCH   6  20
BRANCH   8  22
HETATM   22  N2  UNL     1     -29.529 -22.140  58.364  1.00  0.00    -0.110 N 
HETATM   23  O7  UNL     1     -28.937 -22.325  57.305  1.00  0.00    -0.532 OA
HETATM   24  O8  UNL     1     -29.775 -23.250  59.171  1.00  0.00    -0.532 OA
ENDBRANCH   8  22
BRANCH   9  25
HETATM   25  O9  UNL     1     -28.018 -20.512  60.061  1.00  0.00    -0.317 OA
BRANCH  25  26
HETATM   26  C14 UNL     1     -26.828 -20.879  59.499  1.00  0.00     0.266 C 
HETATM   27  C15 UNL     1     -25.755 -19.828  59.674  1.00  0.00     0.061 C 
HETATM   28  C16 UNL     1     -24.445 -20.246  59.033  1.00  0.00     0.007 C 
HETATM   29  C17 UNL     1     -24.038 -21.611  59.561  1.00  0.00     0.026 C 
HETATM   30  C18 UNL     1     -25.267 -22.502  59.345  1.00  0.00     0.171 C 
HETATM   31  O10 UNL     1     -26.245 -21.998  60.193  1.00  0.00    -0.361 OA
ENDBRANCH  25  26
ENDBRANCH   9  25
BRANCH   3  32
HETATM   32  C4  UNL     1     -30.257 -15.483  61.350  1.00  0.00     0.234 C 
HETATM   33  O1  UNL     1     -29.875 -15.245  62.513  1.00  0.00    -0.642 OA
HETATM   34  O2  UNL     1     -30.719 -14.382  60.634  1.00  0.00    -0.642 OA
ENDBRANCH   3  32
TORSDOF 8
ENDMDL
MODEL 4
REMARK VINA RESULT: -7.198149136      2.982      5.803
REMARK  8 active torsions:
REMARK  status: ('A' for Active; 'I' for Inactive)
REMARK    1  A    between atoms: C3_3  and  C4_4 
REMARK    2  A    between atoms: C6_9  and  O4_10 
REMARK    3  A    between atoms: C7_12  and  N1_13 
REMARK    4  A    between atoms: N1_13  and  C8_15 
REMARK    5  A    between atoms: C8_15  and  C9_16 
REMARK    6  A    between atoms: C12_22  and  N2_23 
REMARK    7  A    between atoms: C13_26  and  O9_27 
REMARK    8  A    between atoms: O9_27  and  C14_28 
ROOT
HETATM    1  C1  UNL     1     -30.062 -16.870  60.145  1.00  0.00     0.052 C 
HETATM    2  C2  UNL     1     -30.036 -18.330  60.093  1.00  0.00    -0.005 A 
HETATM    3  C3  UNL     1     -28.992 -19.164  60.464  1.00  0.00     0.159 A 
HETATM    4  O3  UNL     1     -29.364 -20.402  60.242  1.00  0.00    -0.299 OA
HETATM    5  C5  UNL     1     -30.578 -20.442  59.750  1.00  0.00     0.125 A 
HETATM    6  C6  UNL     1     -31.360 -21.508  59.371  1.00  0.00     0.130 A 
HETATM    7  C7  UNL     1     -32.642 -21.317  58.866  1.00  0.00     0.101 A 
HETATM    8  C12 UNL     1     -33.084 -20.027  58.767  1.00  0.00     0.166 A 
HETATM    9  C13 UNL     1     -32.331 -18.896  59.138  1.00  0.00     0.121 A 
HETATM   10  C19 UNL     1     -31.069 -19.132  59.631  1.00  0.00     0.046 A 
ENDROOT
BRANCH   7  11
HETATM   11  N1  UNL     1     -33.395 -22.497  58.539  1.00  0.00    -0.383 N 
ATOM     12  H1  UNL     1     -33.903 -22.947  59.300  1.00  0.00     0.159 HD
BRANCH  11  13
HETATM   13  C8  UNL     1     -33.498 -23.091  57.259  1.00  0.00     0.154 C 
BRANCH  13  14
HETATM   14  C9  UNL     1     -33.115 -24.505  57.069  1.00  0.00     0.177 C 
HETATM   15  O5  UNL     1     -32.101 -25.030  57.867  1.00  0.00    -0.311 OA
HETATM   16  C10 UNL     1     -31.701 -25.790  56.757  1.00  0.00     0.280 C 
HETATM   17  O6  UNL     1     -31.229 -26.939  56.669  1.00  0.00    -0.263 OA
HETATM   18  C11 UNL     1     -32.102 -24.630  55.918  1.00  0.00     0.212 C 
HETATM   19 CL1  UNL     1     -30.855 -23.368  55.936  1.00  0.00    -0.112 Cl
ENDBRANCH  13  14
ENDBRANCH  11  13
ENDBRANCH   7  11
BRANCH   6  20
HETATM   20  O4  UNL     1     -30.866 -22.797  59.494  1.00  0.00    -0.356 OA
ATOM     21  H4  UNL     1     -31.282 -23.404  60.095  1.00  0.00     0.218 HD
ENDBRANCH   6  20
BRANCH   8  22
HETATM   22  N2  UNL     1     -34.438 -19.861  58.348  1.00  0.00    -0.110 N 
HETATM   23  O7  UNL     1     -35.427 -19.866  59.074  1.00  0.00    -0.532 OA
HETATM   24  O8  UNL     1     -34.641 -19.722  56.976  1.00  0.00    -0.532 OA
ENDBRANCH   8  22
BRANCH   9  25
HETATM   25  O9  UNL     1     -32.840 -17.661  59.001  1.00  0.00    -0.317 OA
BRANCH  25  26
HETATM   26  C14 UNL     1     -33.668 -16.824  59.695  1.00  0.00     0.266 C 
HETATM   27  C15 UNL     1     -33.702 -17.140  61.174  1.00  0.00     0.061 C 
HETATM   28  C16 UNL     1     -34.635 -16.210  61.928  1.00  0.00     0.007 C 
HETATM   29  C17 UNL     1     -34.259 -14.769  61.632  1.00  0.00     0.026 C 
HETATM   30  C18 UNL     1     -34.224 -14.676  60.101  1.00  0.00     0.171 C 
HETATM   31  O10 UNL     1     -33.161 -15.477  59.704  1.00  0.00    -0.361 OA
ENDBRANCH  25  26
ENDBRANCH   9  25
BRANCH   3  32
HETATM   32  C4  UNL     1     -27.686 -18.822  61.012  1.00  0.00     0.234 C 
HETATM   33  O1  UNL     1     -27.492 -18.046  61.969  1.00  0.00    -0.642 OA
HETATM   34  O2  UNL     1     -26.540 -19.384  60.454  1.00  0.00    -0.642 OA
ENDBRANCH   3  32
TORSDOF 8
ENDMDL
MODEL 5
REMARK VINA RESULT: -7.172573593      3.150      6.072
REMARK  8 active torsions:
REMARK  status: ('A' for Active; 'I' for Inactive)
REMARK    1  A    between atoms: C3_3  and  C4_4 
REMARK    2  A    between atoms: C6_9  and  O4_10 
REMARK    3  A    between atoms: C7_12  and  N1_13 
REMARK    4  A    between atoms: N1_13  and  C8_15 
REMARK    5  A    between atoms: C8_15  and  C9_16 
REMARK    6  A    between atoms: C12_22  and  N2_23 
REMARK    7  A    between atoms: C13_26  and  O9_27 
REMARK    8  A    between atoms: O9_27  and  C14_28 
ROOT
HETATM    1  C1  UNL     1     -29.969 -16.758  60.117  1.00  0.00     0.052 C 
HETATM    2  C2  UNL     1     -30.019 -18.218  60.123  1.00  0.00    -0.005 A 
HETATM    3  C3  UNL     1     -29.010 -19.090  60.501  1.00  0.00     0.159 A 
HETATM    4  O3  UNL     1     -29.450 -20.316  60.340  1.00  0.00    -0.299 OA
HETATM    5  C5  UNL     1     -30.678 -20.312  59.881  1.00  0.00     0.125 A 
HETATM    6  C6  UNL     1     -31.523 -21.349  59.565  1.00  0.00     0.130 A 
HETATM    7  C7  UNL     1     -32.807 -21.111  59.086  1.00  0.00     0.101 A 
HETATM    8  C12 UNL     1     -33.185 -19.805  58.945  1.00  0.00     0.166 A 
HETATM    9  C13 UNL     1     -32.365 -18.701  59.250  1.00  0.00     0.121 A 
HETATM   10  C19 UNL     1     -31.104 -18.983  59.721  1.00  0.00     0.046 A 
ENDROOT
BRANCH   7  11
HETATM   11  N1  UNL     1     -33.628 -22.262  58.826  1.00  0.00    -0.383 N 
ATOM     12  H1  UNL     1     -34.037 -22.731  59.634  1.00  0.00     0.159 HD
BRANCH  11  13
HETATM   13  C8  UNL     1     -33.923 -22.806  57.553  1.00  0.00     0.154 C 
BRANCH  13  14
HETATM   14  C9  UNL     1     -32.966 -22.641  56.441  1.00  0.00     0.177 C 
HETATM   15  O5  UNL     1     -33.347 -23.065  55.170  1.00  0.00    -0.311 OA
HETATM   16  C10 UNL     1     -32.015 -23.456  54.964  1.00  0.00     0.280 C 
HETATM   17  O6  UNL     1     -31.296 -23.441  53.948  1.00  0.00    -0.263 OA
HETATM   18  C11 UNL     1     -31.985 -23.825  56.405  1.00  0.00     0.212 C 
HETATM   19 CL1  UNL     1     -32.764 -25.395  56.678  1.00  0.00    -0.112 Cl
ENDBRANCH  13  14
ENDBRANCH  11  13
ENDBRANCH   7  11
BRANCH   6  20
HETATM   20  O4  UNL     1     -31.092 -22.657  59.728  1.00  0.00    -0.356 OA
ATOM     21  H4  UNL     1     -31.205 -23.279  59.018  1.00  0.00     0.218 HD
ENDBRANCH   6  20
BRANCH   8  22
HETATM   22  N2  UNL     1     -34.540 -19.585  58.554  1.00  0.00    -0.110 N 
HETATM   23  O7  UNL     1     -35.512 -19.537  59.303  1.00  0.00    -0.532 OA
HETATM   24  O8  UNL     1     -34.768 -19.456  57.185  1.00  0.00    -0.532 OA
ENDBRANCH   8  22
BRANCH   9  25
HETATM   25  O9  UNL     1     -32.815 -17.447  59.076  1.00  0.00    -0.317 OA
BRANCH  25  26
HETATM   26  C14 UNL     1     -33.548 -16.529  59.773  1.00  0.00     0.266 C 
HETATM   27  C15 UNL     1     -33.641 -16.858  61.246  1.00  0.00     0.061 C 
HETATM   28  C16 UNL     1     -34.469 -15.836  62.002  1.00  0.00     0.007 C 
HETATM   29  C17 UNL     1     -33.923 -14.445  61.732  1.00  0.00     0.026 C 
HETATM   30  C18 UNL     1     -33.855 -14.336  60.204  1.00  0.00     0.171 C 
HETATM   31  O10 UNL     1     -32.888 -15.251  59.808  1.00  0.00    -0.361 OA
ENDBRANCH  25  26
ENDBRANCH   9  25
BRANCH   3  32
HETATM   32  C4  UNL     1     -27.673 -18.796  61.001  1.00  0.00     0.234 C 
HETATM   33  O1  UNL     1     -27.417 -18.038  61.958  1.00  0.00    -0.642 OA
HETATM   34  O2  UNL     1     -26.567 -19.386  60.393  1.00  0.00    -0.642 OA
ENDBRANCH   3  32
TORSDOF 8
ENDMDL
