MODEL 1
REMARK VINA RESULT: -7.074461306      0.000      0.000
REMARK  10 active torsions:
REMARK  status: ('A' for Active; 'I' for Inactive)
REMARK    1  A    between atoms: C2_2  and  O1_3 
REMARK    2  A    between atoms: O1_3  and  C3_4 
REMARK    3  A    between atoms: C3_4  and  C4_6 
REMARK    4  A    between atoms: C4_6  and  O3_7 
REMARK    5  A    between atoms: O3_7  and  C5_8 
REMARK    6  A    between atoms: C6_11  and  N2_12 
REMARK    7  A    between atoms: N3_14  and  C7_16 
REMARK    8  A    between atoms: C8_17  and  O4_18 
REMARK    9  A    between atoms: C9_22  and  O5_23 
REMARK   10  A    between atoms: C10_25  and  N5_26 
ROOT
HETATM    1  N2  UNL     1     -36.390 -17.746  58.048  1.00  0.00    -0.264 N 
ATOM      2  H2  UNL     1     -36.410 -18.047  57.073  1.00  0.00     0.190 HD
HETATM    3  N3  UNL     1     -35.520 -18.245  58.779  1.00  0.00    -0.291 N 
ATOM      4  H3  UNL     1     -34.894 -18.919  58.339  1.00  0.00     0.187 HD
ENDROOT
BRANCH   3   5
HETATM    5  C7  UNL     1     -35.294 -17.985  60.159  1.00  0.00     0.130 A 
HETATM    6  C8  UNL     1     -36.177 -18.533  61.100  1.00  0.00     0.173 A 
HETATM    7  N4  UNL     1     -35.746 -18.133  62.293  1.00  0.00    -0.314 N 
HETATM    8  C9  UNL     1     -34.645 -17.365  62.163  1.00  0.00     0.171 A 
ATOM      9  H4  UNL     1     -36.187 -18.373  63.181  1.00  0.00     0.170 HD
HETATM   10  C10 UNL     1     -34.328 -17.251  60.797  1.00  0.00     0.114 A 
BRANCH   6  11
HETATM   11  O4  UNL     1     -37.276 -19.333  60.842  1.00  0.00    -0.344 OA
ATOM     12  H4  UNL     1     -37.600 -20.047  61.377  1.00  0.00     0.219 HD
ENDBRANCH   6  11
BRANCH   8  13
HETATM   13  O5  UNL     1     -33.944 -16.787  63.203  1.00  0.00    -0.344 OA
ATOM     14  H5  UNL     1     -33.384 -17.250  63.814  1.00  0.00     0.219 HD
ENDBRANCH   8  13
BRANCH  10  15
HETATM   15  N5  UNL     1     -33.240 -16.580  60.230  1.00  0.00    -0.375 N 
HETATM   16  C11 UNL     1     -32.098 -17.355  59.808  1.00  0.00     0.123 C 
HETATM   17  C12 UNL     1     -31.228 -17.516  61.041  1.00  0.00     0.020 C 
HETATM   18  C13 UNL     1     -30.417 -16.307  61.335  1.00  0.00     0.002 C 
HETATM   19  C14 UNL     1     -30.849 -15.027  60.718  1.00  0.00     0.002 C 
HETATM   20  C15 UNL     1     -32.270 -14.601  61.087  1.00  0.00     0.020 C 
HETATM   21  C16 UNL     1     -33.239 -15.140  60.057  1.00  0.00     0.123 C 
ENDBRANCH  10  15
ENDBRANCH   3   5
BRANCH   1  22
HETATM   22  C6  UNL     1     -37.366 -16.785  58.454  1.00  0.00     0.246 A 
HETATM   23  N1  UNL     1     -37.261 -15.439  58.304  1.00  0.00    -0.298 N 
HETATM   24  C5  UNL     1     -38.363 -14.855  58.797  1.00  0.00     0.188 A 
ATOM     25  H1  UNL     1     -36.470 -14.951  57.883  1.00  0.00     0.171 HD
HETATM   26  C17 UNL     1     -39.151 -15.896  59.259  1.00  0.00     0.176 A 
HETATM   27  O6  UNL     1     -38.513 -16.992  59.030  1.00  0.00    -0.266 OA
HETATM   28 BR1  UNL     1     -40.887 -15.686  60.090  1.00  0.00    -0.018 Br
BRANCH  24  29
HETATM   29  O3  UNL     1     -38.695 -13.524  58.859  1.00  0.00    -0.323 OA
BRANCH  29  30
HETATM   30  C4  UNL     1     -39.309 -12.739  57.902  1.00  0.00     0.288 C 
BRANCH  30  31
HETATM   31  C3  UNL     1     -39.336 -11.293  58.175  1.00  0.00     0.283 C 
HETATM   32  O2  UNL     1     -39.416 -10.850  59.337  1.00  0.00    -0.263 OA
BRANCH  31  33
HETATM   33  O1  UNL     1     -39.270 -10.421  57.113  1.00  0.00    -0.320 OA
BRANCH  33  34
HETATM   34  C2  UNL     1     -38.515  -9.243  57.074  1.00  0.00     0.174 C 
HETATM   35  C1  UNL     1     -37.263  -9.328  56.249  1.00  0.00     0.034 C 
ENDBRANCH  33  34
ENDBRANCH  31  33
ENDBRANCH  30  31
ENDBRANCH  29  30
ENDBRANCH  24  29
ENDBRANCH   1  22
TORSDOF 10
ENDMDL
MODEL 2
REMARK VINA RESULT: -7.024012107      5.484      7.994
REMARK  10 active torsions:
REMARK  status: ('A' for Active; 'I' for Inactive)
REMARK    1  A    between atoms: C2_2  and  O1_3 
REMARK    2  A    between atoms: O1_3  and  C3_4 
REMARK    3  A    between atoms: C3_4  and  C4_6 
REMARK    4  A    between atoms: C4_6  and  O3_7 
REMARK    5  A    between atoms: O3_7  and  C5_8 
REMARK    6  A    between atoms: C6_11  and  N2_12 
REMARK    7  A    between atoms: N3_14  and  C7_16 
REMARK    8  A    between atoms: C8_17  and  O4_18 
REMARK    9  A    between atoms: C9_22  and  O5_23 
REMARK   10  A    between atoms: C10_25  and  N5_26 
ROOT
HETATM    1  N2  UNL     1     -32.409 -17.530  58.104  1.00  0.00    -0.264 N 
ATOM      2  H2  UNL     1     -32.185 -16.602  57.741  1.00  0.00     0.190 HD
HETATM    3  N3  UNL     1     -33.608 -17.851  58.140  1.00  0.00    -0.291 N 
ATOM      4  H3  UNL     1     -34.271 -17.155  57.803  1.00  0.00     0.187 HD
ENDROOT
BRANCH   3   5
HETATM    5  C7  UNL     1     -34.162 -19.078  58.599  1.00  0.00     0.130 A 
HETATM    6  C8  UNL     1     -34.126 -20.192  57.749  1.00  0.00     0.173 A 
HETATM    7  N4  UNL     1     -34.710 -21.186  58.411  1.00  0.00    -0.314 N 
HETATM    8  C9  UNL     1     -35.113 -20.768  59.628  1.00  0.00     0.171 A 
ATOM      9  H4  UNL     1     -34.836 -22.132  58.049  1.00  0.00     0.170 HD
HETATM   10  C10 UNL     1     -34.774 -19.411  59.779  1.00  0.00     0.114 A 
BRANCH   6  11
HETATM   11  O4  UNL     1     -33.589 -20.249  56.475  1.00  0.00    -0.344 OA
ATOM     12  H4  UNL     1     -33.977 -20.656  55.709  1.00  0.00     0.219 HD
ENDBRANCH   6  11
BRANCH   8  13
HETATM   13  O5  UNL     1     -35.754 -21.547  60.572  1.00  0.00    -0.344 OA
ATOM     14  H5  UNL     1     -35.866 -21.322  61.488  1.00  0.00     0.219 HD
ENDBRANCH   8  13
BRANCH  10  15
HETATM   15  N5  UNL     1     -34.973 -18.606  60.905  1.00  0.00    -0.375 N 
HETATM   16  C11 UNL     1     -36.195 -17.842  60.997  1.00  0.00     0.123 C 
HETATM   17  C12 UNL     1     -35.935 -16.551  60.243  1.00  0.00     0.020 C 
HETATM   18  C13 UNL     1     -35.152 -15.570  61.037  1.00  0.00     0.002 C 
HETATM   19  C14 UNL     1     -34.383 -16.086  62.198  1.00  0.00     0.002 C 
HETATM   20  C15 UNL     1     -33.354 -17.159  61.842  1.00  0.00     0.020 C 
HETATM   21  C16 UNL     1     -33.990 -18.527  61.968  1.00  0.00     0.123 C 
ENDBRANCH  10  15
ENDBRANCH   3   5
BRANCH   1  22
HETATM   22  C6  UNL     1     -31.316 -18.347  58.525  1.00  0.00     0.246 A 
HETATM   23  N1  UNL     1     -30.482 -18.078  59.563  1.00  0.00    -0.298 N 
HETATM   24  C5  UNL     1     -29.578 -19.064  59.667  1.00  0.00     0.188 A 
ATOM     25  H1  UNL     1     -30.534 -17.257  60.167  1.00  0.00     0.171 HD
HETATM   26  C17 UNL     1     -29.889 -19.952  58.650  1.00  0.00     0.176 A 
HETATM   27  O6  UNL     1     -30.910 -19.475  58.023  1.00  0.00    -0.266 OA
HETATM   28 BR1  UNL     1     -28.932 -21.593  58.282  1.00  0.00    -0.018 Br
BRANCH  24  29
HETATM   29  O3  UNL     1     -28.549 -19.217  60.563  1.00  0.00    -0.323 OA
BRANCH  29  30
HETATM   30  C4  UNL     1     -28.482 -18.812  61.882  1.00  0.00     0.288 C 
BRANCH  30  31
HETATM   31  C3  UNL     1     -28.554 -17.360  62.114  1.00  0.00     0.283 C 
HETATM   32  O2  UNL     1     -27.546 -16.698  62.425  1.00  0.00    -0.263 OA
BRANCH  31  33
HETATM   33  O1  UNL     1     -29.770 -16.731  61.981  1.00  0.00    -0.320 OA
BRANCH  33  34
HETATM   34  C2  UNL     1     -29.985 -15.350  62.061  1.00  0.00     0.174 C 
HETATM   35  C1  UNL     1     -30.763 -14.770  60.915  1.00  0.00     0.034 C 
ENDBRANCH  33  34
ENDBRANCH  31  33
ENDBRANCH  30  31
ENDBRANCH  29  30
ENDBRANCH  24  29
ENDBRANCH   1  22
TORSDOF 10
ENDMDL
MODEL 3
REMARK VINA RESULT: -6.993527506      5.375      8.447
REMARK  10 active torsions:
REMARK  status: ('A' for Active; 'I' for Inactive)
REMARK    1  A    between atoms: C2_2  and  O1_3 
REMARK    2  A    between atoms: O1_3  and  C3_4 
REMARK    3  A    between atoms: C3_4  and  C4_6 
REMARK    4  A    between atoms: C4_6  and  O3_7 
REMARK    5  A    between atoms: O3_7  and  C5_8 
REMARK    6  A    between atoms: C6_11  and  N2_12 
REMARK    7  A    between atoms: N3_14  and  C7_16 
REMARK    8  A    between atoms: C8_17  and  O4_18 
REMARK    9  A    between atoms: C9_22  and  O5_23 
REMARK   10  A    between atoms: C10_25  and  N5_26 
ROOT
HETATM    1  N2  UNL     1     -32.864 -21.317  60.275  1.00  0.00    -0.264 N 
ATOM      2  H2  UNL     1     -33.069 -21.888  61.096  1.00  0.00     0.190 HD
HETATM    3  N3  UNL     1     -33.831 -20.911  59.610  1.00  0.00    -0.291 N 
ATOM      4  H3  UNL     1     -34.755 -21.186  59.943  1.00  0.00     0.187 HD
ENDROOT
BRANCH   3   5
HETATM    5  C7  UNL     1     -33.799 -20.108  58.436  1.00  0.00     0.130 A 
HETATM    6  C8  UNL     1     -33.255 -20.650  57.265  1.00  0.00     0.173 A 
HETATM    7  N4  UNL     1     -33.340 -19.699  56.339  1.00  0.00    -0.314 N 
HETATM    8  C9  UNL     1     -33.906 -18.589  56.855  1.00  0.00     0.171 A 
ATOM      9  H4  UNL     1     -33.023 -19.796  55.374  1.00  0.00     0.170 HD
HETATM   10  C10 UNL     1     -34.213 -18.821  58.208  1.00  0.00     0.114 A 
BRANCH   6  11
HETATM   11  O4  UNL     1     -32.733 -21.921  57.100  1.00  0.00    -0.344 OA
ATOM     12  H4  UNL     1     -32.777 -22.459  56.319  1.00  0.00     0.219 HD
ENDBRANCH   6  11
BRANCH   8  13
HETATM   13  O5  UNL     1     -34.144 -17.417  56.165  1.00  0.00    -0.344 OA
ATOM     14  H5  UNL     1     -34.301 -16.567  56.560  1.00  0.00     0.219 HD
ENDBRANCH   8  13
BRANCH  10  15
HETATM   15  N5  UNL     1     -34.846 -17.948  59.097  1.00  0.00    -0.375 N 
HETATM   16  C11 UNL     1     -34.042 -16.975  59.797  1.00  0.00     0.123 C 
HETATM   17  C12 UNL     1     -33.511 -17.684  61.029  1.00  0.00     0.020 C 
HETATM   18  C13 UNL     1     -34.516 -17.775  62.118  1.00  0.00     0.002 C 
HETATM   19  C14 UNL     1     -35.942 -17.590  61.751  1.00  0.00     0.002 C 
HETATM   20  C15 UNL     1     -36.456 -18.584  60.709  1.00  0.00     0.020 C 
HETATM   21  C16 UNL     1     -36.278 -17.998  59.325  1.00  0.00     0.123 C 
ENDBRANCH  10  15
ENDBRANCH   3   5
BRANCH   1  22
HETATM   22  C6  UNL     1     -31.490 -21.054  59.989  1.00  0.00     0.246 A 
HETATM   23  N1  UNL     1     -30.799 -19.951  60.379  1.00  0.00    -0.298 N 
HETATM   24  C5  UNL     1     -29.536 -20.044  59.935  1.00  0.00     0.188 A 
ATOM     25  H1  UNL     1     -31.180 -19.176  60.923  1.00  0.00     0.171 HD
HETATM   26  C17 UNL     1     -29.478 -21.249  59.255  1.00  0.00     0.176 A 
HETATM   27  O6  UNL     1     -30.648 -21.787  59.323  1.00  0.00    -0.266 OA
HETATM   28 BR1  UNL     1     -27.901 -21.950  58.378  1.00  0.00    -0.018 Br
BRANCH  24  29
HETATM   29  O3  UNL     1     -28.488 -19.172  60.090  1.00  0.00    -0.323 OA
BRANCH  29  30
HETATM   30  C4  UNL     1     -27.890 -18.733  61.256  1.00  0.00     0.288 C 
BRANCH  30  31
HETATM   31  C3  UNL     1     -28.456 -17.511  61.849  1.00  0.00     0.283 C 
HETATM   32  O2  UNL     1     -27.788 -16.788  62.614  1.00  0.00    -0.263 OA
BRANCH  31  33
HETATM   33  O1  UNL     1     -29.753 -17.169  61.545  1.00  0.00    -0.320 OA
BRANCH  33  34
HETATM   34  C2  UNL     1     -30.143 -16.227  60.587  1.00  0.00     0.174 C 
HETATM   35  C1  UNL     1     -30.862 -15.030  61.142  1.00  0.00     0.034 C 
ENDBRANCH  33  34
ENDBRANCH  31  33
ENDBRANCH  30  31
ENDBRANCH  29  30
ENDBRANCH  24  29
ENDBRANCH   1  22
TORSDOF 10
ENDMDL
MODEL 4
REMARK VINA RESULT: -6.992461199      4.345      7.190
REMARK  10 active torsions:
REMARK  status: ('A' for Active; 'I' for Inactive)
REMARK    1  A    between atoms: C2_2  and  O1_3 
REMARK    2  A    between atoms: O1_3  and  C3_4 
REMARK    3  A    between atoms: C3_4  and  C4_6 
REMARK    4  A    between atoms: C4_6  and  O3_7 
REMARK    5  A    between atoms: O3_7  and  C5_8 
REMARK    6  A    between atoms: C6_11  and  N2_12 
REMARK    7  A    between atoms: N3_14  and  C7_16 
REMARK    8  A    between atoms: C8_17  and  O4_18 
REMARK    9  A    between atoms: C9_22  and  O5_23 
REMARK   10  A    between atoms: C10_25  and  N5_26 
ROOT
HETATM    1  N2  UNL     1     -31.705 -19.188  57.524  1.00  0.00    -0.264 N 
ATOM      2  H2  UNL     1     -31.206 -19.236  56.635  1.00  0.00     0.190 HD
HETATM    3  N3  UNL     1     -32.832 -19.708  57.572  1.00  0.00    -0.291 N 
ATOM      4  H3  UNL     1     -33.165 -20.141  56.712  1.00  0.00     0.187 HD
ENDROOT
BRANCH   3   5
HETATM    5  C7  UNL     1     -33.711 -19.769  58.688  1.00  0.00     0.130 A 
HETATM    6  C8  UNL     1     -33.406 -20.646  59.738  1.00  0.00     0.173 A 
HETATM    7  N4  UNL     1     -34.382 -20.512  60.632  1.00  0.00    -0.314 N 
HETATM    8  C9  UNL     1     -35.285 -19.603  60.210  1.00  0.00     0.171 A 
ATOM      9  H4  UNL     1     -34.440 -21.024  61.512  1.00  0.00     0.170 HD
HETATM   10  C10 UNL     1     -34.880 -19.105  58.958  1.00  0.00     0.114 A 
BRANCH   6  11
HETATM   11  O4  UNL     1     -32.310 -21.484  59.830  1.00  0.00    -0.344 OA
ATOM     12  H4  UNL     1     -31.882 -21.779  60.624  1.00  0.00     0.219 HD
ENDBRANCH   6  11
BRANCH   8  13
HETATM   13  O5  UNL     1     -36.421 -19.223  60.898  1.00  0.00    -0.344 OA
ATOM     14  H5  UNL     1     -37.185 -19.768  61.043  1.00  0.00     0.219 HD
ENDBRANCH   8  13
BRANCH  10  15
HETATM   15  N5  UNL     1     -35.507 -18.118  58.193  1.00  0.00    -0.375 N 
HETATM   16  C11 UNL     1     -34.871 -16.827  58.078  1.00  0.00     0.123 C 
HETATM   17  C12 UNL     1     -35.322 -16.033  59.290  1.00  0.00     0.020 C 
HETATM   18  C13 UNL     1     -36.690 -15.476  59.136  1.00  0.00     0.002 C 
HETATM   19  C14 UNL     1     -37.565 -16.085  58.102  1.00  0.00     0.002 C 
HETATM   20  C15 UNL     1     -37.809 -17.583  58.290  1.00  0.00     0.020 C 
HETATM   21  C16 UNL     1     -36.767 -18.363  57.517  1.00  0.00     0.123 C 
ENDBRANCH  10  15
ENDBRANCH   3   5
BRANCH   1  22
HETATM   22  C6  UNL     1     -31.048 -18.528  58.608  1.00  0.00     0.246 A 
HETATM   23  N1  UNL     1     -31.276 -17.252  59.011  1.00  0.00    -0.298 N 
HETATM   24  C5  UNL     1     -30.481 -16.973  60.056  1.00  0.00     0.188 A 
ATOM     25  H1  UNL     1     -31.944 -16.607  58.587  1.00  0.00     0.171 HD
HETATM   26  C17 UNL     1     -29.754 -18.130  60.279  1.00  0.00     0.176 A 
HETATM   27  O6  UNL     1     -30.131 -18.996  59.402  1.00  0.00    -0.266 OA
HETATM   28 BR1  UNL     1     -28.425 -18.352  61.668  1.00  0.00    -0.018 Br
BRANCH  24  29
HETATM   29  O3  UNL     1     -30.369 -15.815  60.785  1.00  0.00    -0.323 OA
BRANCH  29  30
HETATM   30  C4  UNL     1     -30.962 -15.490  61.990  1.00  0.00     0.288 C 
BRANCH  30  31
HETATM   31  C3  UNL     1     -32.433 -15.545  62.020  1.00  0.00     0.283 C 
HETATM   32  O2  UNL     1     -33.128 -14.548  61.747  1.00  0.00    -0.263 OA
BRANCH  31  33
HETATM   33  O1  UNL     1     -33.042 -16.731  62.359  1.00  0.00    -0.320 OA
BRANCH  33  34
HETATM   34  C2  UNL     1     -34.372 -16.873  62.770  1.00  0.00     0.174 C 
HETATM   35  C1  UNL     1     -34.607 -17.982  63.756  1.00  0.00     0.034 C 
ENDBRANCH  33  34
ENDBRANCH  31  33
ENDBRANCH  30  31
ENDBRANCH  29  30
ENDBRANCH  24  29
ENDBRANCH   1  22
TORSDOF 10
ENDMDL
MODEL 5
REMARK VINA RESULT: -6.968389137      3.776      8.282
REMARK  10 active torsions:
REMARK  status: ('A' for Active; 'I' for Inactive)
REMARK    1  A    between atoms: C2_2  and  O1_3 
REMARK    2  A    between atoms: O1_3  and  C3_4 
REMARK    3  A    between atoms: C3_4  and  C4_6 
REMARK    4  A    between atoms: C4_6  and  O3_7 
REMARK    5  A    between atoms: O3_7  and  C5_8 
REMARK    6  A    between atoms: C6_11  and  N2_12 
REMARK    7  A    between atoms: N3_14  and  C7_16 
REMARK    8  A    between atoms: C8_17  and  O4_18 
REMARK    9  A    between atoms: C9_22  and  O5_23 
REMARK   10  A    between atoms: C10_25  and  N5_26 
ROOT
HETATM    1  N2  UNL     1     -34.315 -14.674  60.575  1.00  0.00    -0.264 N 
ATOM      2  H2  UNL     1     -34.184 -13.664  60.512  1.00  0.00     0.190 HD
HETATM    3  N3  UNL     1     -35.430 -15.080  60.940  1.00  0.00    -0.291 N 
ATOM      4  H3  UNL     1     -36.125 -14.363  61.147  1.00  0.00     0.187 HD
ENDROOT
BRANCH   3   5
HETATM    5  C7  UNL     1     -35.851 -16.429  61.102  1.00  0.00     0.130 A 
HETATM    6  C8  UNL     1     -35.361 -17.160  62.193  1.00  0.00     0.173 A 
HETATM    7  N4  UNL     1     -35.898 -18.373  62.100  1.00  0.00    -0.314 N 
HETATM    8  C9  UNL     1     -36.698 -18.453  61.017  1.00  0.00     0.171 A 
ATOM      9  H4  UNL     1     -35.729 -19.136  62.756  1.00  0.00     0.170 HD
HETATM   10  C10 UNL     1     -36.688 -17.214  60.351  1.00  0.00     0.114 A 
BRANCH   6  11
HETATM   11  O4  UNL     1     -34.494 -16.712  63.172  1.00  0.00    -0.344 OA
ATOM     12  H4  UNL     1     -34.576 -16.839  64.110  1.00  0.00     0.219 HD
ENDBRANCH   6  11
BRANCH   8  13
HETATM   13  O5  UNL     1     -37.410 -19.570  60.627  1.00  0.00    -0.344 OA
ATOM     14  H5  UNL     1     -38.102 -19.583  59.977  1.00  0.00     0.219 HD
ENDBRANCH   8  13
BRANCH  10  15
HETATM   15  N5  UNL     1     -37.413 -16.856  59.211  1.00  0.00    -0.375 N 
HETATM   16  C11 UNL     1     -36.872 -17.196  57.916  1.00  0.00     0.123 C 
HETATM   17  C12 UNL     1     -35.931 -16.064  57.550  1.00  0.00     0.020 C 
HETATM   18  C13 UNL     1     -36.644 -14.865  57.041  1.00  0.00     0.002 C 
HETATM   19  C14 UNL     1     -38.091 -14.746  57.351  1.00  0.00     0.002 C 
HETATM   20  C15 UNL     1     -38.414 -14.745  58.845  1.00  0.00     0.020 C 
HETATM   21  C16 UNL     1     -38.683 -16.163  59.302  1.00  0.00     0.123 C 
ENDBRANCH  10  15
ENDBRANCH   3   5
BRANCH   1  22
HETATM   22  C6  UNL     1     -33.200 -15.500  60.236  1.00  0.00     0.246 A 
HETATM   23  N1  UNL     1     -31.998 -15.504  60.868  1.00  0.00    -0.298 N 
HETATM   24  C5  UNL     1     -31.196 -16.406  60.282  1.00  0.00     0.188 A 
ATOM     25  H1  UNL     1     -31.745 -14.915  61.662  1.00  0.00     0.171 HD
HETATM   26  C17 UNL     1     -31.954 -16.958  59.262  1.00  0.00     0.176 A 
HETATM   27  O6  UNL     1     -33.109 -16.386  59.289  1.00  0.00    -0.266 OA
HETATM   28 BR1  UNL     1     -31.340 -18.332  58.046  1.00  0.00    -0.018 Br
BRANCH  24  29
HETATM   29  O3  UNL     1     -29.902 -16.753  60.582  1.00  0.00    -0.323 OA
BRANCH  29  30
HETATM   30  C4  UNL     1     -29.445 -17.735  61.440  1.00  0.00     0.288 C 
BRANCH  30  31
HETATM   31  C3  UNL     1     -28.048 -17.601  61.885  1.00  0.00     0.283 C 
HETATM   32  O2  UNL     1     -27.701 -16.714  62.688  1.00  0.00    -0.263 OA
BRANCH  31  33
HETATM   33  O1  UNL     1     -27.113 -18.483  61.395  1.00  0.00    -0.320 OA
BRANCH  33  34
HETATM   34  C2  UNL     1     -27.343 -19.447  60.406  1.00  0.00     0.174 C 
HETATM   35  C1  UNL     1     -26.099 -20.031  59.799  1.00  0.00     0.034 C 
ENDBRANCH  33  34
ENDBRANCH  31  33
ENDBRANCH  30  31
ENDBRANCH  29  30
ENDBRANCH  24  29
ENDBRANCH   1  22
TORSDOF 10
ENDMDL
