MODEL 1
REMARK VINA RESULT: -7.434871791      0.000      0.000
REMARK  8 active torsions:
REMARK  status: ('A' for Active; 'I' for Inactive)
REMARK    1  A    between atoms: C2_2  and  C3_3 
REMARK    2  A    between atoms: C3_3  and  C4_4 
REMARK    3  A    between atoms: C4_4  and  N1_5 
REMARK    4  A    between atoms: C8_14  and  S1_15 
REMARK    5  A    between atoms: S1_15  and  C9_16 
REMARK    6  A    between atoms: C9_16  and  C10_17 
REMARK    7  A    between atoms: C11_21  and  C12_22 
REMARK    8  A    between atoms: C17_29  and  O2_30 
ROOT
HETATM    1  N1  UNL     1     -35.488 -18.733  60.232  1.00  0.00    -0.301 N 
HETATM    2  C5  UNL     1     -35.060 -18.175  59.079  1.00  0.00     0.129 A 
HETATM    3  C6  UNL     1     -34.526 -19.151  58.265  1.00  0.00     0.070 A 
HETATM    4  C7  UNL     1     -33.955 -19.178  57.011  1.00  0.00     0.116 A 
HETATM    5  N2  UNL     1     -33.857 -18.060  56.376  1.00  0.00    -0.385 N 
ATOM      6  H21 UNL     1     -33.433 -18.080  55.448  1.00  0.00     0.157 HD
ATOM      7  H22 UNL     1     -34.179 -17.168  56.751  1.00  0.00     0.157 HD
HETATM    8  N3  UNL     1     -33.528 -20.361  56.513  1.00  0.00    -0.322 N 
ATOM      9  H3  UNL     1     -33.105 -20.377  55.584  1.00  0.00     0.169 HD
HETATM   10  C8  UNL     1     -33.637 -21.516  57.191  1.00  0.00     0.147 A 
HETATM   11  N6  UNL     1     -34.197 -21.480  58.411  1.00  0.00    -0.321 N 
ATOM     12  H6  UNL     1     -34.286 -22.350  58.936  1.00  0.00     0.169 HD
HETATM   13  C18 UNL     1     -34.647 -20.326  58.975  1.00  0.00     0.137 A 
HETATM   14  N7  UNL     1     -35.230 -20.026  60.149  1.00  0.00    -0.283 N 
ATOM     15  H7  UNL     1     -35.445 -20.706  60.878  1.00  0.00     0.189 HD
ENDROOT
BRANCH  10  16
HETATM   16  S1  UNL     1     -33.053 -23.074  56.483  1.00  0.00    -0.086 SA
BRANCH  16  17
HETATM   17  C9  UNL     1     -31.233 -23.035  56.621  1.00  0.00     0.160 C 
BRANCH  17  18
HETATM   18  C10 UNL     1     -30.909 -22.505  57.958  1.00  0.00     0.113 A 
HETATM   19  N4  UNL     1     -30.986 -23.110  59.162  1.00  0.00    -0.246 N 
HETATM   20  O1  UNL     1     -30.596 -22.251  60.054  1.00  0.00    -0.222 OA
ATOM     21  H4  UNL     1     -31.294 -24.067  59.338  1.00  0.00     0.196 HD
HETATM   22  C11 UNL     1     -30.265 -21.103  59.489  1.00  0.00     0.155 A 
HETATM   23  N5  UNL     1     -30.459 -21.263  58.189  1.00  0.00    -0.326 N 
ATOM     24  H5  UNL     1     -30.293 -20.553  57.476  1.00  0.00     0.169 HD
BRANCH  22  25
HETATM   25  C12 UNL     1     -29.773 -19.870  60.152  1.00  0.00     0.094 C 
HETATM   26  C13 UNL     1     -29.916 -18.740  59.171  1.00  0.00     0.036 C 
HETATM   27  C14 UNL     1     -30.226 -17.423  59.781  1.00  0.00     0.092 C 
HETATM   28 CL1  UNL     1     -31.881 -16.881  59.363  1.00  0.00    -0.124 Cl
HETATM   29  C15 UNL     1     -30.100 -17.365  61.267  1.00  0.00     0.094 C 
HETATM   30  S2  UNL     1     -28.476 -17.822  61.881  1.00  0.00    -0.165 SA
HETATM   31  C16 UNL     1     -27.558 -18.843  60.704  1.00  0.00     0.106 C 
HETATM   32  C17 UNL     1     -28.317 -20.123  60.510  1.00  0.00     0.139 C 
BRANCH  32  33
HETATM   33  O2  UNL     1     -27.671 -20.870  59.532  1.00  0.00    -0.394 OA
ATOM     34  H2  UNL     1     -28.162 -21.653  59.310  1.00  0.00     0.210 HD
ENDBRANCH  32  33
ENDBRANCH  22  25
ENDBRANCH  17  18
ENDBRANCH  16  17
ENDBRANCH  10  16
BRANCH   1  35
HETATM   35  C4  UNL     1     -36.114 -18.009  61.340  1.00  0.00     0.148 C 
BRANCH  35  36
HETATM   36  C3  UNL     1     -35.248 -16.874  61.779  1.00  0.00     0.021 C 
BRANCH  36  37
HETATM   37  C2  UNL     1     -34.159 -17.356  62.682  1.00  0.00    -0.003 C 
HETATM   38  C1  UNL     1     -34.684 -18.066  63.890  1.00  0.00     0.005 C 
ENDBRANCH  36  37
ENDBRANCH  35  36
ENDBRANCH   1  35
TORSDOF 8
ENDMDL
MODEL 2
REMARK VINA RESULT: -7.084661693      3.435      7.556
REMARK  8 active torsions:
REMARK  status: ('A' for Active; 'I' for Inactive)
REMARK    1  A    between atoms: C2_2  and  C3_3 
REMARK    2  A    between atoms: C3_3  and  C4_4 
REMARK    3  A    between atoms: C4_4  and  N1_5 
REMARK    4  A    between atoms: C8_14  and  S1_15 
REMARK    5  A    between atoms: S1_15  and  C9_16 
REMARK    6  A    between atoms: C9_16  and  C10_17 
REMARK    7  A    between atoms: C11_21  and  C12_22 
REMARK    8  A    between atoms: C17_29  and  O2_30 
ROOT
HETATM    1  N1  UNL     1     -28.050 -19.345  60.465  1.00  0.00    -0.301 N 
HETATM    2  C5  UNL     1     -27.782 -18.445  61.435  1.00  0.00     0.129 A 
HETATM    3  C6  UNL     1     -28.758 -17.472  61.446  1.00  0.00     0.070 A 
HETATM    4  C7  UNL     1     -29.006 -16.338  62.189  1.00  0.00     0.116 A 
HETATM    5  N2  UNL     1     -28.167 -16.042  63.123  1.00  0.00    -0.385 N 
ATOM      6  H21 UNL     1     -28.350 -15.203  63.673  1.00  0.00     0.157 HD
ATOM      7  H22 UNL     1     -27.340 -16.601  63.336  1.00  0.00     0.157 HD
HETATM    8  N3  UNL     1     -30.102 -15.598  61.907  1.00  0.00    -0.322 N 
ATOM      9  H3  UNL     1     -30.282 -14.759  62.459  1.00  0.00     0.169 HD
HETATM   10  C8  UNL     1     -30.965 -15.922  60.928  1.00  0.00     0.147 A 
HETATM   11  N6  UNL     1     -30.716 -17.029  60.210  1.00  0.00    -0.321 N 
ATOM     12  H6  UNL     1     -31.363 -17.286  59.465  1.00  0.00     0.169 HD
HETATM   13  C18 UNL     1     -29.632 -17.821  60.438  1.00  0.00     0.137 A 
HETATM   14  N7  UNL     1     -29.167 -18.951  59.878  1.00  0.00    -0.283 N 
ATOM     15  H7  UNL     1     -29.616 -19.439  59.103  1.00  0.00     0.189 HD
ENDROOT
BRANCH  10  16
HETATM   16  S1  UNL     1     -32.418 -14.901  60.588  1.00  0.00    -0.086 SA
BRANCH  16  17
HETATM   17  C9  UNL     1     -33.660 -15.365  61.844  1.00  0.00     0.160 C 
BRANCH  17  18
HETATM   18  C10 UNL     1     -33.905 -16.812  61.700  1.00  0.00     0.113 A 
HETATM   19  N4  UNL     1     -34.055 -17.754  62.655  1.00  0.00    -0.246 N 
HETATM   20  O1  UNL     1     -34.253 -18.888  62.053  1.00  0.00    -0.222 OA
ATOM     21  H4  UNL     1     -34.019 -17.604  63.663  1.00  0.00     0.196 HD
HETATM   22  C11 UNL     1     -34.240 -18.732  60.741  1.00  0.00     0.155 A 
HETATM   23  N5  UNL     1     -34.025 -17.444  60.524  1.00  0.00    -0.326 N 
ATOM     24  H5  UNL     1     -33.960 -17.002  59.608  1.00  0.00     0.169 HD
BRANCH  22  25
HETATM   25  C12 UNL     1     -34.426 -19.773  59.698  1.00  0.00     0.094 C 
HETATM   26  C13 UNL     1     -35.070 -20.962  60.355  1.00  0.00     0.036 C 
HETATM   27  C14 UNL     1     -35.996 -21.727  59.483  1.00  0.00     0.092 C 
HETATM   28 CL1  UNL     1     -37.694 -21.566  60.030  1.00  0.00    -0.124 Cl
HETATM   29  C15 UNL     1     -35.956 -21.361  58.037  1.00  0.00     0.094 C 
HETATM   30  S2  UNL     1     -34.332 -21.517  57.287  1.00  0.00    -0.165 SA
HETATM   31  C16 UNL     1     -33.001 -21.453  58.510  1.00  0.00     0.106 C 
HETATM   32  C17 UNL     1     -33.040 -20.105  59.167  1.00  0.00     0.139 C 
BRANCH  32  33
HETATM   33  O2  UNL     1     -32.085 -20.083  60.178  1.00  0.00    -0.394 OA
ATOM     34  H2  UNL     1     -31.450 -20.781  60.074  1.00  0.00     0.210 HD
ENDBRANCH  32  33
ENDBRANCH  22  25
ENDBRANCH  17  18
ENDBRANCH  16  17
ENDBRANCH  10  16
BRANCH   1  35
HETATM   35  C4  UNL     1     -27.237 -20.521  60.153  1.00  0.00     0.148 C 
BRANCH  35  36
HETATM   36  C3  UNL     1     -26.028 -20.127  59.369  1.00  0.00     0.021 C 
BRANCH  36  37
HETATM   37  C2  UNL     1     -24.780 -20.584  60.054  1.00  0.00    -0.003 C 
HETATM   38  C1  UNL     1     -23.544 -20.265  59.273  1.00  0.00     0.005 C 
ENDBRANCH  36  37
ENDBRANCH  35  36
ENDBRANCH   1  35
TORSDOF 8
ENDMDL
MODEL 3
REMARK VINA RESULT: -7.001623429      3.042      5.662
REMARK  8 active torsions:
REMARK  status: ('A' for Active; 'I' for Inactive)
REMARK    1  A    between atoms: C2_2  and  C3_3 
REMARK    2  A    between atoms: C3_3  and  C4_4 
REMARK    3  A    between atoms: C4_4  and  N1_5 
REMARK    4  A    between atoms: C8_14  and  S1_15 
REMARK    5  A    between atoms: S1_15  and  C9_16 
REMARK    6  A    between atoms: C9_16  and  C10_17 
REMARK    7  A    between atoms: C11_21  and  C12_22 
REMARK    8  A    between atoms: C17_29  and  O2_30 
ROOT
HETATM    1  N1  UNL     1     -30.588 -16.400  60.754  1.00  0.00    -0.301 N 
HETATM    2  C5  UNL     1     -29.439 -16.908  61.250  1.00  0.00     0.129 A 
HETATM    3  C6  UNL     1     -29.121 -18.069  60.578  1.00  0.00     0.070 A 
HETATM    4  C7  UNL     1     -28.100 -18.992  60.645  1.00  0.00     0.116 A 
HETATM    5  N2  UNL     1     -27.176 -18.798  61.523  1.00  0.00    -0.385 N 
ATOM      6  H21 UNL     1     -26.420 -19.481  61.572  1.00  0.00     0.157 HD
ATOM      7  H22 UNL     1     -27.164 -18.003  62.163  1.00  0.00     0.157 HD
HETATM    8  N3  UNL     1     -28.115 -20.046  59.796  1.00  0.00    -0.322 N 
ATOM      9  H3  UNL     1     -27.358 -20.727  59.848  1.00  0.00     0.169 HD
HETATM   10  C8  UNL     1     -29.088 -20.232  58.888  1.00  0.00     0.147 A 
HETATM   11  N6  UNL     1     -30.078 -19.327  58.830  1.00  0.00    -0.321 N 
ATOM     12  H6  UNL     1     -30.822 -19.457  58.145  1.00  0.00     0.169 HD
HETATM   13  C18 UNL     1     -30.127 -18.243  59.653  1.00  0.00     0.137 A 
HETATM   14  N7  UNL     1     -30.984 -17.217  59.795  1.00  0.00    -0.283 N 
ATOM     15  H7  UNL     1     -31.828 -17.088  59.236  1.00  0.00     0.189 HD
ENDROOT
BRANCH  10  16
HETATM   16  S1  UNL     1     -29.066 -21.657  57.775  1.00  0.00    -0.086 SA
BRANCH  16  17
HETATM   17  C9  UNL     1     -30.310 -22.822  58.428  1.00  0.00     0.160 C 
BRANCH  17  18
HETATM   18  C10 UNL     1     -31.638 -22.262  58.116  1.00  0.00     0.113 A 
HETATM   19  N4  UNL     1     -32.251 -22.126  56.922  1.00  0.00    -0.246 N 
HETATM   20  O1  UNL     1     -33.410 -21.581  57.141  1.00  0.00    -0.222 OA
ATOM     21  H4  UNL     1     -31.874 -22.400  56.014  1.00  0.00     0.196 HD
HETATM   22  C11 UNL     1     -33.585 -21.352  58.430  1.00  0.00     0.155 A 
HETATM   23  N5  UNL     1     -32.486 -21.775  59.034  1.00  0.00    -0.326 N 
ATOM     24  H5  UNL     1     -32.311 -21.738  60.037  1.00  0.00     0.169 HD
BRANCH  22  25
HETATM   25  C12 UNL     1     -34.766 -20.744  59.095  1.00  0.00     0.094 C 
HETATM   26  C13 UNL     1     -34.409 -20.524  60.539  1.00  0.00     0.036 C 
HETATM   27  C14 UNL     1     -35.036 -19.330  61.158  1.00  0.00     0.092 C 
HETATM   28 CL1  UNL     1     -33.817 -18.074  61.539  1.00  0.00    -0.124 Cl
HETATM   29  C15 UNL     1     -36.107 -18.681  60.347  1.00  0.00     0.094 C 
HETATM   30  S2  UNL     1     -37.461 -19.777  59.911  1.00  0.00    -0.165 SA
HETATM   31  C16 UNL     1     -36.980 -21.520  59.968  1.00  0.00     0.106 C 
HETATM   32  C17 UNL     1     -35.907 -21.738  58.942  1.00  0.00     0.139 C 
BRANCH  32  33
HETATM   33  O2  UNL     1     -35.461 -23.051  59.048  1.00  0.00    -0.394 OA
ATOM     34  H2  UNL     1     -34.733 -23.220  58.461  1.00  0.00     0.210 HD
ENDBRANCH  32  33
ENDBRANCH  22  25
ENDBRANCH  17  18
ENDBRANCH  16  17
ENDBRANCH  10  16
BRANCH   1  35
HETATM   35  C4  UNL     1     -31.238 -15.173  61.216  1.00  0.00     0.148 C 
BRANCH  35  36
HETATM   36  C3  UNL     1     -32.024 -14.549  60.110  1.00  0.00     0.021 C 
BRANCH  36  37
HETATM   37  C2  UNL     1     -33.423 -14.262  60.550  1.00  0.00    -0.003 C 
HETATM   38  C1  UNL     1     -34.446 -14.973  59.722  1.00  0.00     0.005 C 
ENDBRANCH  36  37
ENDBRANCH  35  36
ENDBRANCH   1  35
TORSDOF 8
ENDMDL
MODEL 4
REMARK VINA RESULT: -6.951823392      3.902      8.206
REMARK  8 active torsions:
REMARK  status: ('A' for Active; 'I' for Inactive)
REMARK    1  A    between atoms: C2_2  and  C3_3 
REMARK    2  A    between atoms: C3_3  and  C4_4 
REMARK    3  A    between atoms: C4_4  and  N1_5 
REMARK    4  A    between atoms: C8_14  and  S1_15 
REMARK    5  A    between atoms: S1_15  and  C9_16 
REMARK    6  A    between atoms: C9_16  and  C10_17 
REMARK    7  A    between atoms: C11_21  and  C12_22 
REMARK    8  A    between atoms: C17_29  and  O2_30 
ROOT
HETATM    1  N1  UNL     1     -28.654 -18.997  60.433  1.00  0.00    -0.301 N 
HETATM    2  C5  UNL     1     -28.362 -18.107  61.406  1.00  0.00     0.129 A 
HETATM    3  C6  UNL     1     -29.271 -17.071  61.372  1.00  0.00     0.070 A 
HETATM    4  C7  UNL     1     -29.470 -15.916  62.096  1.00  0.00     0.116 A 
HETATM    5  N2  UNL     1     -28.649 -15.667  63.059  1.00  0.00    -0.385 N 
ATOM      6  H21 UNL     1     -28.797 -14.811  63.595  1.00  0.00     0.157 HD
ATOM      7  H22 UNL     1     -27.870 -16.276  63.308  1.00  0.00     0.157 HD
HETATM    8  N3  UNL     1     -30.504 -15.107  61.766  1.00  0.00    -0.322 N 
ATOM      9  H3  UNL     1     -30.648 -14.253  62.305  1.00  0.00     0.169 HD
HETATM   10  C8  UNL     1     -31.348 -15.383  60.759  1.00  0.00     0.147 A 
HETATM   11  N6  UNL     1     -31.147 -16.512  60.059  1.00  0.00    -0.321 N 
ATOM     12  H6  UNL     1     -31.782 -16.733  59.292  1.00  0.00     0.169 HD
HETATM   13  C18 UNL     1     -30.128 -17.371  60.334  1.00  0.00     0.137 A 
HETATM   14  N7  UNL     1     -29.718 -18.535  59.801  1.00  0.00    -0.283 N 
ATOM     15  H7  UNL     1     -30.170 -19.001  59.013  1.00  0.00     0.189 HD
ENDROOT
BRANCH  10  16
HETATM   16  S1  UNL     1     -32.717 -14.272  60.355  1.00  0.00    -0.086 SA
BRANCH  16  17
HETATM   17  C9  UNL     1     -33.833 -14.309  61.799  1.00  0.00     0.160 C 
BRANCH  17  18
HETATM   18  C10 UNL     1     -34.447 -15.648  61.842  1.00  0.00     0.113 A 
HETATM   19  N4  UNL     1     -34.530 -16.521  62.868  1.00  0.00    -0.246 N 
HETATM   20  O1  UNL     1     -35.160 -17.570  62.435  1.00  0.00    -0.222 OA
ATOM     21  H4  UNL     1     -34.164 -16.382  63.810  1.00  0.00     0.196 HD
HETATM   22  C11 UNL     1     -35.497 -17.426  61.166  1.00  0.00     0.155 A 
HETATM   23  N5  UNL     1     -35.055 -16.233  60.800  1.00  0.00    -0.326 N 
ATOM     24  H5  UNL     1     -35.159 -15.824  59.871  1.00  0.00     0.169 HD
BRANCH  22  25
HETATM   25  C12 UNL     1     -36.224 -18.389  60.301  1.00  0.00     0.094 C 
HETATM   26  C13 UNL     1     -36.393 -17.748  58.951  1.00  0.00     0.036 C 
HETATM   27  C14 UNL     1     -36.362 -18.693  57.807  1.00  0.00     0.092 C 
HETATM   28 CL1  UNL     1     -34.899 -18.456  56.802  1.00  0.00    -0.124 Cl
HETATM   29  C15 UNL     1     -36.423 -20.138  58.173  1.00  0.00     0.094 C 
HETATM   30  S2  UNL     1     -37.865 -20.587  59.143  1.00  0.00    -0.165 SA
HETATM   31  C16 UNL     1     -38.584 -19.168  60.004  1.00  0.00     0.106 C 
HETATM   32  C17 UNL     1     -37.564 -18.648  60.973  1.00  0.00     0.139 C 
BRANCH  32  33
HETATM   33  O2  UNL     1     -38.070 -17.497  61.566  1.00  0.00    -0.394 OA
ATOM     34  H2  UNL     1     -38.055 -16.760  60.967  1.00  0.00     0.210 HD
ENDBRANCH  32  33
ENDBRANCH  22  25
ENDBRANCH  17  18
ENDBRANCH  16  17
ENDBRANCH  10  16
BRANCH   1  35
HETATM   35  C4  UNL     1     -27.909 -20.227  60.162  1.00  0.00     0.148 C 
BRANCH  35  36
HETATM   36  C3  UNL     1     -26.508 -19.911  59.751  1.00  0.00     0.021 C 
BRANCH  36  37
HETATM   37  C2  UNL     1     -25.599 -21.062  60.036  1.00  0.00    -0.003 C 
HETATM   38  C1  UNL     1     -24.166 -20.753  59.737  1.00  0.00     0.005 C 
ENDBRANCH  36  37
ENDBRANCH  35  36
ENDBRANCH   1  35
TORSDOF 8
ENDMDL
MODEL 5
REMARK VINA RESULT: -6.903601469      1.290      2.133
REMARK  8 active torsions:
REMARK  status: ('A' for Active; 'I' for Inactive)
REMARK    1  A    between atoms: C2_2  and  C3_3 
REMARK    2  A    between atoms: C3_3  and  C4_4 
REMARK    3  A    between atoms: C4_4  and  N1_5 
REMARK    4  A    between atoms: C8_14  and  S1_15 
REMARK    5  A    between atoms: S1_15  and  C9_16 
REMARK    6  A    between atoms: C9_16  and  C10_17 
REMARK    7  A    between atoms: C11_21  and  C12_22 
REMARK    8  A    between atoms: C17_29  and  O2_30 
ROOT
HETATM    1  N1  UNL     1     -35.065 -17.890  57.540  1.00  0.00    -0.301 N 
HETATM    2  C5  UNL     1     -35.294 -18.731  58.571  1.00  0.00     0.129 A 
HETATM    3  C6  UNL     1     -34.764 -19.970  58.283  1.00  0.00     0.070 A 
HETATM    4  C7  UNL     1     -34.692 -21.183  58.934  1.00  0.00     0.116 A 
HETATM    5  N2  UNL     1     -35.228 -21.263  60.104  1.00  0.00    -0.385 N 
ATOM      6  H21 UNL     1     -35.176 -22.161  60.586  1.00  0.00     0.157 HD
ATOM      7  H22 UNL     1     -35.696 -20.483  60.566  1.00  0.00     0.157 HD
HETATM    8  N3  UNL     1     -34.072 -22.218  58.322  1.00  0.00    -0.322 N 
ATOM      9  H3  UNL     1     -34.021 -23.114  58.808  1.00  0.00     0.169 HD
HETATM   10  C8  UNL     1     -33.520 -22.114  57.102  1.00  0.00     0.147 A 
HETATM   11  N6  UNL     1     -33.594 -20.929  56.475  1.00  0.00    -0.321 N 
ATOM     12  H6  UNL     1     -33.178 -20.837  55.548  1.00  0.00     0.169 HD
HETATM   13  C18 UNL     1     -34.203 -19.845  57.030  1.00  0.00     0.137 A 
HETATM   14  N7  UNL     1     -34.408 -18.580  56.624  1.00  0.00    -0.283 N 
ATOM     15  H7  UNL     1     -34.097 -18.203  55.729  1.00  0.00     0.189 HD
ENDROOT
BRANCH  10  16
HETATM   16  S1  UNL     1     -32.701 -23.527  56.324  1.00  0.00    -0.086 SA
BRANCH  16  17
HETATM   17  C9  UNL     1     -30.909 -23.225  56.502  1.00  0.00     0.160 C 
BRANCH  17  18
HETATM   18  C10 UNL     1     -30.693 -22.662  57.847  1.00  0.00     0.113 A 
HETATM   19  N4  UNL     1     -30.830 -23.249  59.055  1.00  0.00    -0.246 N 
HETATM   20  O1  UNL     1     -30.531 -22.361  59.954  1.00  0.00    -0.222 OA
ATOM     21  H4  UNL     1     -31.117 -24.213  59.229  1.00  0.00     0.196 HD
HETATM   22  C11 UNL     1     -30.201 -21.213  59.390  1.00  0.00     0.155 A 
HETATM   23  N5  UNL     1     -30.302 -21.401  58.083  1.00  0.00    -0.326 N 
ATOM     24  H5  UNL     1     -30.112 -20.699  57.369  1.00  0.00     0.169 HD
BRANCH  22  25
HETATM   25  C12 UNL     1     -29.796 -19.951  60.060  1.00  0.00     0.094 C 
HETATM   26  C13 UNL     1     -29.969 -18.836  59.068  1.00  0.00     0.036 C 
HETATM   27  C14 UNL     1     -30.367 -17.534  59.660  1.00  0.00     0.092 C 
HETATM   28 CL1  UNL     1     -32.035 -17.083  59.188  1.00  0.00    -0.124 Cl
HETATM   29  C15 UNL     1     -30.290 -17.463  61.149  1.00  0.00     0.094 C 
HETATM   30  S2  UNL     1     -28.664 -17.830  61.816  1.00  0.00    -0.165 SA
HETATM   31  C16 UNL     1     -27.657 -18.806  60.674  1.00  0.00     0.106 C 
HETATM   32  C17 UNL     1     -28.340 -20.125  60.465  1.00  0.00     0.139 C 
BRANCH  32  33
HETATM   33  O2  UNL     1     -27.626 -20.842  59.511  1.00  0.00    -0.394 OA
ATOM     34  H2  UNL     1     -27.053 -21.484  59.914  1.00  0.00     0.210 HD
ENDBRANCH  32  33
ENDBRANCH  22  25
ENDBRANCH  17  18
ENDBRANCH  16  17
ENDBRANCH  10  16
BRANCH   1  35
HETATM   35  C4  UNL     1     -35.480 -16.488  57.483  1.00  0.00     0.148 C 
BRANCH  35  36
HETATM   36  C3  UNL     1     -35.969 -16.033  58.819  1.00  0.00     0.021 C 
BRANCH  36  37
HETATM   37  C2  UNL     1     -35.004 -15.077  59.441  1.00  0.00    -0.003 C 
HETATM   38  C1  UNL     1     -34.816 -15.318  60.906  1.00  0.00     0.005 C 
ENDBRANCH  36  37
ENDBRANCH  35  36
ENDBRANCH   1  35
TORSDOF 8
ENDMDL
