MODEL 1
REMARK VINA RESULT: -6.750935414      0.000      0.000
REMARK  8 active torsions:
REMARK  status: ('A' for Active; 'I' for Inactive)
REMARK       I    between atoms: C1_4  and  N3_6 
REMARK    1  A    between atoms: N3_6  and  C2_7 
REMARK    2  A    between atoms: N5_11  and  N6_13 
REMARK    3  A    between atoms: C4_16  and  S1_17 
REMARK    4  A    between atoms: S1_17  and  N7_18 
REMARK    5  A    between atoms: N8_24  and  C6_25 
REMARK    6  A    between atoms: C6_25  and  C7_26 
REMARK    7  A    between atoms: C7_26  and  N9_27 
REMARK    8  A    between atoms: C7_26  and  C8_31 
ROOT
HETATM    1  C2  UNL     1      11.223  20.890  14.922  1.00  0.00     0.266 A 
HETATM    2  N4  UNL     1      10.894  21.512  13.720  1.00  0.00    -0.300 N 
ATOM      3  H4  UNL     1      10.711  22.516  13.707  1.00  0.00     0.171 HD
HETATM    4  C3  UNL     1      10.815  20.806  12.573  1.00  0.00     0.148 A 
HETATM    5  N5  UNL     1      10.494  21.359  11.481  1.00  0.00    -0.291 N 
ATOM      6  H5  UNL     1      10.459  20.754  10.660  1.00  0.00     0.188 HD
HETATM    7  C4  UNL     1      11.076  19.440  12.644  1.00  0.00     0.140 A 
HETATM    8  C5  UNL     1      11.400  18.824  13.818  1.00  0.00     0.124 A 
HETATM    9  N8  UNL     1      11.464  19.558  14.922  1.00  0.00    -0.313 N 
ENDROOT
BRANCH   9  10
HETATM   10  C6  UNL     1      11.817  18.963  16.221  1.00  0.00     0.176 C 
BRANCH  10  11
HETATM   11  C7  UNL     1      13.240  18.521  16.241  1.00  0.00     0.301 C 
BRANCH  11  12
HETATM   12  N9  UNL     1      13.403  17.189  16.811  1.00  0.00    -0.064 N 
ATOM     13  H93 UNL     1      12.809  16.511  16.335  1.00  0.00     0.275 HD
ATOM     14  H92 UNL     1      14.316  16.801  16.577  1.00  0.00     0.275 HD
ATOM     15  H91 UNL     1      13.245  17.173  17.819  1.00  0.00     0.275 HD
ENDBRANCH  11  12
BRANCH  11  16
HETATM   16  C8  UNL     1      13.980  19.510  17.105  1.00  0.00     0.206 C 
HETATM   17  O3  UNL     1      14.322  20.600  16.616  1.00  0.00    -0.646 OA
HETATM   18  O4  UNL     1      14.251  19.163  18.400  1.00  0.00    -0.646 OA
ENDBRANCH  11  16
ENDBRANCH  10  11
ENDBRANCH   9  10
BRANCH   1  19
HETATM   19  N3  UNL     1      11.253  21.580  15.900  1.00  0.00    -0.338 NA
HETATM   20  C1  UNL     1      11.201  22.320  17.004  1.00  0.00     0.264 C 
HETATM   21  N1  UNL     1      11.800  22.024  18.134  1.00  0.00    -0.362 N 
HETATM   22  N2  UNL     1      10.443  23.568  17.070  1.00  0.00    -0.049 NA
ATOM     23  H12 UNL     1      11.760  22.592  18.980  1.00  0.00     0.159 HD
ATOM     24  H11 UNL     1      12.329  21.153  18.088  1.00  0.00     0.159 HD
ENDBRANCH   1  19
BRANCH   7  25
HETATM   25  S1  UNL     1      10.999  18.504  11.185  1.00  0.00     0.261 S 
HETATM   26  O1  UNL     1      11.743  19.210  10.064  1.00  0.00    -0.201 OA
HETATM   27  O2  UNL     1      11.732  17.208  11.401  1.00  0.00    -0.201 OA
BRANCH  25  28
HETATM   28  N7  UNL     1       9.405  18.105  10.703  1.00  0.00    -0.324 N 
ATOM     29  H72 UNL     1       8.824  18.746  10.164  1.00  0.00     0.169 HD
ATOM     30  H71 UNL     1       9.103  17.179  11.006  1.00  0.00     0.169 HD
ENDBRANCH  25  28
ENDBRANCH   7  25
BRANCH   5  31
HETATM   31  N6  UNL     1      10.192  22.669  11.279  1.00  0.00    -0.344 N 
ATOM     32  H62 UNL     1      10.313  23.274  12.092  1.00  0.00     0.176 HD
ATOM     33  H61 UNL     1       9.863  23.102  10.416  1.00  0.00     0.176 HD
ENDBRANCH   5  31
TORSDOF 8
ENDMDL
MODEL 2
REMARK VINA RESULT: -6.573945299      2.130      6.455
REMARK  8 active torsions:
REMARK  status: ('A' for Active; 'I' for Inactive)
REMARK       I    between atoms: C1_4  and  N3_6 
REMARK    1  A    between atoms: N3_6  and  C2_7 
REMARK    2  A    between atoms: N5_11  and  N6_13 
REMARK    3  A    between atoms: C4_16  and  S1_17 
REMARK    4  A    between atoms: S1_17  and  N7_18 
REMARK    5  A    between atoms: N8_24  and  C6_25 
REMARK    6  A    between atoms: C6_25  and  C7_26 
REMARK    7  A    between atoms: C7_26  and  N9_27 
REMARK    8  A    between atoms: C7_26  and  C8_31 
ROOT
HETATM    1  C2  UNL     1      10.537  18.477  14.117  1.00  0.00     0.266 A 
HETATM    2  N4  UNL     1      11.156  17.868  15.205  1.00  0.00    -0.300 N 
ATOM      3  H4  UNL     1      11.082  16.857  15.324  1.00  0.00     0.171 HD
HETATM    4  C3  UNL     1      11.851  18.596  16.104  1.00  0.00     0.148 A 
HETATM    5  N5  UNL     1      12.397  18.053  17.109  1.00  0.00    -0.291 N 
ATOM      6  H5  UNL     1      12.905  18.674  17.739  1.00  0.00     0.188 HD
HETATM    7  C4  UNL     1      11.923  19.971  15.894  1.00  0.00     0.140 A 
HETATM    8  C5  UNL     1      11.320  20.574  14.829  1.00  0.00     0.124 A 
HETATM    9  N8  UNL     1      10.645  19.819  13.972  1.00  0.00    -0.313 N 
ENDROOT
BRANCH   9  10
HETATM   10  C6  UNL     1       9.978  20.400  12.796  1.00  0.00     0.176 C 
BRANCH  10  11
HETATM   11  C7  UNL     1      10.889  21.324  12.063  1.00  0.00     0.301 C 
BRANCH  11  12
HETATM   12  N9  UNL     1      10.173  22.398  11.389  1.00  0.00    -0.064 N 
ATOM     13  H93 UNL     1       9.523  22.860  12.024  1.00  0.00     0.275 HD
ATOM     14  H92 UNL     1      10.792  23.183  11.189  1.00  0.00     0.275 HD
ATOM     15  H91 UNL     1       9.697  22.082  10.543  1.00  0.00     0.275 HD
ENDBRANCH  11  12
BRANCH  11  16
HETATM   16  C8  UNL     1      11.595  20.489  11.024  1.00  0.00     0.206 C 
HETATM   17  O3  UNL     1      12.804  20.682  10.815  1.00  0.00    -0.646 OA
HETATM   18  O4  UNL     1      10.869  19.548  10.347  1.00  0.00    -0.646 OA
ENDBRANCH  11  16
ENDBRANCH  10  11
ENDBRANCH   9  10
BRANCH   1  19
HETATM   19  N3  UNL     1       9.921  17.767  13.375  1.00  0.00    -0.338 NA
HETATM   20  C1  UNL     1       9.161  17.020  12.579  1.00  0.00     0.264 C 
HETATM   21  N1  UNL     1       9.074  17.162  11.276  1.00  0.00    -0.362 N 
HETATM   22  N2  UNL     1       8.320  15.942  13.093  1.00  0.00    -0.049 NA
ATOM     23  H12 UNL     1       8.492  16.589  10.666  1.00  0.00     0.159 HD
ATOM     24  H11 UNL     1       9.661  17.915  10.917  1.00  0.00     0.159 HD
ENDBRANCH   1  19
BRANCH   7  25
HETATM   25  S1  UNL     1      12.823  20.935  17.022  1.00  0.00     0.261 S 
HETATM   26  O1  UNL     1      14.158  20.279  17.333  1.00  0.00    -0.201 OA
HETATM   27  O2  UNL     1      13.162  22.249  16.373  1.00  0.00    -0.201 OA
BRANCH  25  28
HETATM   28  N7  UNL     1      11.969  21.292  18.462  1.00  0.00    -0.324 N 
ATOM     29  H72 UNL     1      11.362  22.107  18.547  1.00  0.00     0.169 HD
ATOM     30  H71 UNL     1      12.126  20.618  19.212  1.00  0.00     0.169 HD
ENDBRANCH  25  28
ENDBRANCH   7  25
BRANCH   5  31
HETATM   31  N6  UNL     1      12.382  16.735  17.442  1.00  0.00    -0.344 N 
ATOM     32  H62 UNL     1      11.463  16.292  17.424  1.00  0.00     0.176 HD
ATOM     33  H61 UNL     1      13.179  16.155  17.704  1.00  0.00     0.176 HD
ENDBRANCH   5  31
TORSDOF 8
ENDMDL
MODEL 3
REMARK VINA RESULT: -6.471885744      5.430      7.207
REMARK  8 active torsions:
REMARK  status: ('A' for Active; 'I' for Inactive)
REMARK       I    between atoms: C1_4  and  N3_6 
REMARK    1  A    between atoms: N3_6  and  C2_7 
REMARK    2  A    between atoms: N5_11  and  N6_13 
REMARK    3  A    between atoms: C4_16  and  S1_17 
REMARK    4  A    between atoms: S1_17  and  N7_18 
REMARK    5  A    between atoms: N8_24  and  C6_25 
REMARK    6  A    between atoms: C6_25  and  C7_26 
REMARK    7  A    between atoms: C7_26  and  N9_27 
REMARK    8  A    between atoms: C7_26  and  C8_31 
ROOT
HETATM    1  C2  UNL     1      10.644  17.215   9.126  1.00  0.00     0.266 A 
HETATM    2  N4  UNL     1      10.669  17.107   7.739  1.00  0.00    -0.300 N 
ATOM      3  H4  UNL     1      10.909  17.923   7.175  1.00  0.00     0.171 HD
HETATM    4  C3  UNL     1      10.382  15.937   7.130  1.00  0.00     0.148 A 
HETATM    5  N5  UNL     1      10.379  15.836   5.868  1.00  0.00    -0.291 N 
ATOM      6  H5  UNL     1      10.153  14.917   5.487  1.00  0.00     0.188 HD
HETATM    7  C4  UNL     1      10.064  14.853   7.944  1.00  0.00     0.140 A 
HETATM    8  C5  UNL     1      10.039  14.952   9.305  1.00  0.00     0.124 A 
HETATM    9  N8  UNL     1      10.327  16.123   9.861  1.00  0.00    -0.313 N 
ENDROOT
BRANCH   9  10
HETATM   10  C6  UNL     1      10.329  16.300  11.321  1.00  0.00     0.176 C 
BRANCH  10  11
HETATM   11  C7  UNL     1       8.952  16.554  11.833  1.00  0.00     0.301 C 
BRANCH  11  12
HETATM   12  N9  UNL     1       8.627  17.974  11.883  1.00  0.00    -0.064 N 
ATOM     13  H93 UNL     1       7.861  18.152  12.532  1.00  0.00     0.275 HD
ATOM     14  H92 UNL     1       9.364  18.502  12.349  1.00  0.00     0.275 HD
ATOM     15  H91 UNL     1       8.425  18.363  10.962  1.00  0.00     0.275 HD
ENDBRANCH  11  12
BRANCH  11  16
HETATM   16  C8  UNL     1       8.912  16.001  13.235  1.00  0.00     0.206 C 
HETATM   17  O3  UNL     1       9.755  16.389  14.061  1.00  0.00    -0.646 OA
HETATM   18  O4  UNL     1       7.944  15.084  13.542  1.00  0.00    -0.646 OA
ENDBRANCH  11  16
ENDBRANCH  10  11
ENDBRANCH   9  10
BRANCH   1  19
HETATM   19  N3  UNL     1      10.890  18.290   9.591  1.00  0.00    -0.338 NA
HETATM   20  C1  UNL     1      11.206  19.506  10.031  1.00  0.00     0.264 C 
HETATM   21  N1  UNL     1      10.366  20.510  10.128  1.00  0.00    -0.362 N 
HETATM   22  N2  UNL     1      12.561  19.852  10.454  1.00  0.00    -0.049 NA
ATOM     23  H12 UNL     1      10.609  21.441  10.465  1.00  0.00     0.159 HD
ATOM     24  H11 UNL     1       9.420  20.268   9.832  1.00  0.00     0.159 HD
ENDBRANCH   1  19
BRANCH   7  25
HETATM   25  S1  UNL     1       9.705  13.330   7.195  1.00  0.00     0.261 S 
HETATM   26  O1  UNL     1       8.396  13.413   6.429  1.00  0.00    -0.201 OA
HETATM   27  O2  UNL     1      10.759  13.038   6.161  1.00  0.00    -0.201 OA
BRANCH  25  28
HETATM   28  N7  UNL     1       9.692  12.009   8.285  1.00  0.00    -0.324 N 
ATOM     29  H72 UNL     1       8.999  11.264   8.227  1.00  0.00     0.169 HD
ATOM     30  H71 UNL     1      10.434  12.045   8.984  1.00  0.00     0.169 HD
ENDBRANCH  25  28
ENDBRANCH   7  25
BRANCH   5  31
HETATM   31  N6  UNL     1      10.645  16.815   4.962  1.00  0.00    -0.344 N 
ATOM     32  H62 UNL     1      11.352  17.493   5.249  1.00  0.00     0.176 HD
ATOM     33  H61 UNL     1      10.219  16.940   4.044  1.00  0.00     0.176 HD
ENDBRANCH   5  31
TORSDOF 8
ENDMDL
MODEL 4
REMARK VINA RESULT: -6.447187621      3.573      5.652
REMARK  8 active torsions:
REMARK  status: ('A' for Active; 'I' for Inactive)
REMARK       I    between atoms: C1_4  and  N3_6 
REMARK    1  A    between atoms: N3_6  and  C2_7 
REMARK    2  A    between atoms: N5_11  and  N6_13 
REMARK    3  A    between atoms: C4_16  and  S1_17 
REMARK    4  A    between atoms: S1_17  and  N7_18 
REMARK    5  A    between atoms: N8_24  and  C6_25 
REMARK    6  A    between atoms: C6_25  and  C7_26 
REMARK    7  A    between atoms: C7_26  and  N9_27 
REMARK    8  A    between atoms: C7_26  and  C8_31 
ROOT
HETATM    1  C2  UNL     1      13.374  18.608  12.899  1.00  0.00     0.266 A 
HETATM    2  N4  UNL     1      14.030  17.392  13.070  1.00  0.00    -0.300 N 
ATOM      3  H4  UNL     1      14.288  17.087  14.008  1.00  0.00     0.171 HD
HETATM    4  C3  UNL     1      14.327  16.611  12.010  1.00  0.00     0.148 A 
HETATM    5  N5  UNL     1      14.944  15.515  12.153  1.00  0.00    -0.291 N 
ATOM      6  H5  UNL     1      15.129  14.984  11.302  1.00  0.00     0.188 HD
HETATM    7  C4  UNL     1      13.951  17.071  10.751  1.00  0.00     0.140 A 
HETATM    8  C5  UNL     1      13.306  18.261  10.577  1.00  0.00     0.124 A 
HETATM    9  N8  UNL     1      13.036  18.998  11.648  1.00  0.00    -0.313 N 
ENDROOT
BRANCH   9  10
HETATM   10  C6  UNL     1      12.336  20.286  11.537  1.00  0.00     0.176 C 
BRANCH  10  11
HETATM   11  C7  UNL     1      10.886  20.088  11.256  1.00  0.00     0.301 C 
BRANCH  11  12
HETATM   12  N9  UNL     1      10.566  20.227   9.840  1.00  0.00    -0.064 N 
ATOM     13  H93 UNL     1      11.126  20.961   9.408  1.00  0.00     0.275 HD
ATOM     14  H92 UNL     1      10.905  19.426   9.308  1.00  0.00     0.275 HD
ATOM     15  H91 UNL     1       9.571  20.380   9.677  1.00  0.00     0.275 HD
ENDBRANCH  11  12
BRANCH  11  16
HETATM   16  C8  UNL     1      10.154  21.161  12.023  1.00  0.00     0.206 C 
HETATM   17  O3  UNL     1      10.727  21.720  12.972  1.00  0.00    -0.646 OA
HETATM   18  O4  UNL     1       8.878  21.473  11.641  1.00  0.00    -0.646 OA
ENDBRANCH  11  16
ENDBRANCH  10  11
ENDBRANCH   9  10
BRANCH   1  19
HETATM   19  N3  UNL     1      13.163  19.254  13.885  1.00  0.00    -0.338 NA
HETATM   20  C1  UNL     1      12.947  20.046  14.932  1.00  0.00     0.264 C 
HETATM   21  N1  UNL     1      11.764  20.327  15.427  1.00  0.00    -0.362 N 
HETATM   22  N2  UNL     1      14.037  20.704  15.649  1.00  0.00    -0.049 NA
ATOM     23  H12 UNL     1      11.598  20.934  16.230  1.00  0.00     0.159 HD
ATOM     24  H11 UNL     1      11.003  19.868  14.927  1.00  0.00     0.159 HD
ENDBRANCH   1  19
BRANCH   7  25
HETATM   25  S1  UNL     1      14.303  16.084   9.368  1.00  0.00     0.261 S 
HETATM   26  O1  UNL     1      14.000  14.626   9.667  1.00  0.00    -0.201 OA
HETATM   27  O2  UNL     1      13.374  16.468   8.249  1.00  0.00    -0.201 OA
BRANCH  25  28
HETATM   28  N7  UNL     1      15.901  16.266   8.778  1.00  0.00    -0.324 N 
ATOM     29  H72 UNL     1      16.666  16.586   9.371  1.00  0.00     0.169 HD
ATOM     30  H71 UNL     1      16.006  16.026   7.792  1.00  0.00     0.169 HD
ENDBRANCH  25  28
ENDBRANCH   7  25
BRANCH   5  31
HETATM   31  N6  UNL     1      15.388  14.965  13.315  1.00  0.00    -0.344 N 
ATOM     32  H62 UNL     1      15.674  15.634  14.031  1.00  0.00     0.176 HD
ATOM     33  H61 UNL     1      15.462  13.973  13.541  1.00  0.00     0.176 HD
ENDBRANCH   5  31
TORSDOF 8
ENDMDL
MODEL 5
REMARK VINA RESULT: -6.434547098      2.468      5.097
REMARK  8 active torsions:
REMARK  status: ('A' for Active; 'I' for Inactive)
REMARK       I    between atoms: C1_4  and  N3_6 
REMARK    1  A    between atoms: N3_6  and  C2_7 
REMARK    2  A    between atoms: N5_11  and  N6_13 
REMARK    3  A    between atoms: C4_16  and  S1_17 
REMARK    4  A    between atoms: S1_17  and  N7_18 
REMARK    5  A    between atoms: N8_24  and  C6_25 
REMARK    6  A    between atoms: C6_25  and  C7_26 
REMARK    7  A    between atoms: C7_26  and  N9_27 
REMARK    8  A    between atoms: C7_26  and  C8_31 
ROOT
HETATM    1  C2  UNL     1      12.321  20.769  15.641  1.00  0.00     0.266 A 
HETATM    2  N4  UNL     1      13.086  19.995  16.509  1.00  0.00    -0.300 N 
ATOM      3  H4  UNL     1      13.329  20.361  17.429  1.00  0.00     0.171 HD
HETATM    4  C3  UNL     1      13.511  18.765  16.149  1.00  0.00     0.148 A 
HETATM    5  N5  UNL     1      14.226  18.063  16.922  1.00  0.00    -0.291 N 
ATOM      6  H5  UNL     1      14.503  17.145  16.575  1.00  0.00     0.188 HD
HETATM    7  C4  UNL     1      13.150  18.309  14.883  1.00  0.00     0.140 A 
HETATM    8  C5  UNL     1      12.400  19.063  14.029  1.00  0.00     0.124 A 
HETATM    9  N8  UNL     1      12.006  20.267  14.424  1.00  0.00    -0.313 N 
ENDROOT
BRANCH   9  10
HETATM   10  C6  UNL     1      11.188  21.130  13.559  1.00  0.00     0.176 C 
BRANCH  10  11
HETATM   11  C7  UNL     1      11.086  20.569  12.182  1.00  0.00     0.301 C 
BRANCH  11  12
HETATM   12  N9  UNL     1      11.676  21.444  11.176  1.00  0.00    -0.064 N 
ATOM     13  H93 UNL     1      11.137  21.424  10.311  1.00  0.00     0.275 HD
ATOM     14  H92 UNL     1      11.552  22.424  11.425  1.00  0.00     0.275 HD
ATOM     15  H91 UNL     1      12.659  21.232  11.001  1.00  0.00     0.275 HD
ENDBRANCH  11  12
BRANCH  11  16
HETATM   16  C8  UNL     1       9.613  20.425  11.889  1.00  0.00     0.206 C 
HETATM   17  O3  UNL     1       9.105  19.291  11.898  1.00  0.00    -0.646 OA
HETATM   18  O4  UNL     1       8.892  21.556  11.621  1.00  0.00    -0.646 OA
ENDBRANCH  11  16
ENDBRANCH  10  11
ENDBRANCH   9  10
BRANCH   1  19
HETATM   19  N3  UNL     1      12.001  21.857  16.024  1.00  0.00    -0.338 NA
HETATM   20  C1  UNL     1      11.656  23.037  16.534  1.00  0.00     0.264 C 
HETATM   21  N1  UNL     1      12.418  24.106  16.531  1.00  0.00    -0.362 N 
HETATM   22  N2  UNL     1      10.361  23.260  17.173  1.00  0.00    -0.049 NA
ATOM     23  H12 UNL     1      12.154  25.010  16.922  1.00  0.00     0.159 HD
ATOM     24  H11 UNL     1      13.322  23.950  16.085  1.00  0.00     0.159 HD
ENDBRANCH   1  19
BRANCH   7  25
HETATM   25  S1  UNL     1      13.665  16.726  14.394  1.00  0.00     0.261 S 
HETATM   26  O1  UNL     1      15.182  16.633  14.415  1.00  0.00    -0.201 OA
HETATM   27  O2  UNL     1      13.186  15.726  15.410  1.00  0.00    -0.201 OA
BRANCH  25  28
HETATM   28  N7  UNL     1      13.045  16.236  12.875  1.00  0.00    -0.324 N 
ATOM     29  H72 UNL     1      12.196  15.678  12.789  1.00  0.00     0.169 HD
ATOM     30  H71 UNL     1      13.601  16.553  12.081  1.00  0.00     0.169 HD
ENDBRANCH  25  28
ENDBRANCH   7  25
BRANCH   5  31
HETATM   31  N6  UNL     1      14.667  18.397  18.165  1.00  0.00    -0.344 N 
ATOM     32  H62 UNL     1      14.510  19.368  18.436  1.00  0.00     0.176 HD
ATOM     33  H61 UNL     1      15.127  17.788  18.841  1.00  0.00     0.176 HD
ENDBRANCH   5  31
TORSDOF 8
ENDMDL
