MODEL 1
REMARK VINA RESULT: -7.850197843      0.000      0.000
REMARK  7 active torsions:
REMARK  status: ('A' for Active; 'I' for Inactive)
REMARK    1  A    between atoms: N1_1  and  C1_4 
REMARK    2  A    between atoms: C2_7  and  N3_8 
REMARK    3  A    between atoms: N3_8  and  C3_10 
REMARK    4  A    between atoms: C3_10  and  C4_11 
REMARK    5  A    between atoms: N6_18  and  C7_19 
REMARK    6  A    between atoms: C7_19  and  C8_20 
REMARK       I    between atoms: C8_20  and  N7_22 
REMARK    7  A    between atoms: N7_22  and  N8_24 
ROOT
HETATM    1  C1  UNL     1      13.411  19.211  10.420  1.00  0.00     0.678 A 
HETATM    2  N2  UNL     1      12.359  20.010  10.629  1.00  0.00    -0.174 N 
ATOM      3  H2  UNL     1      12.502  20.892  11.121  1.00  0.00     0.186 HD
HETATM    4  C2  UNL     1      11.093  19.688  10.205  1.00  0.00     0.150 A 
HETATM    5  C5  UNL     1      10.902  18.509   9.546  1.00  0.00     0.111 A 
HETATM    6  N5  UNL     1       9.718  18.081   9.082  1.00  0.00    -0.347 N 
ATOM      7  H5  UNL     1       8.903  18.678   9.231  1.00  0.00     0.167 HD
HETATM    8  C6  UNL     1       9.534  16.920   8.435  1.00  0.00     0.187 A 
HETATM    9  N6  UNL     1      10.577  16.081   8.203  1.00  0.00    -0.300 N 
HETATM   10  C9  UNL     1      11.768  16.499   8.663  1.00  0.00     0.278 A 
HETATM   11  O3  UNL     1      12.750  15.737   8.460  1.00  0.00    -0.265 OA
HETATM   12  C10 UNL     1      11.997  17.671   9.325  1.00  0.00     0.147 A 
HETATM   13  N9  UNL     1      13.206  18.058   9.772  1.00  0.00    -0.184 N 
ATOM     14  H9  UNL     1      14.004  17.444   9.608  1.00  0.00     0.184 HD
ENDROOT
BRANCH   9  15
HETATM   15  C7  UNL     1      10.386  14.826   7.504  1.00  0.00     0.237 C 
BRANCH  15  16
HETATM   16  C8  UNL     1      10.606  14.969   6.043  1.00  0.00     0.254 C 
HETATM   17  O2  UNL     1      10.926  13.941   5.403  1.00  0.00    -0.270 OA
HETATM   18  N7  UNL     1      10.473  16.185   5.358  1.00  0.00    -0.275 N 
ATOM     19  H7  UNL     1      10.213  17.028   5.870  1.00  0.00     0.189 HD
BRANCH  18  20
HETATM   20  N8  UNL     1      10.692  16.251   3.993  1.00  0.00    -0.343 N 
ATOM     21  H82 UNL     1      10.170  16.935   3.446  1.00  0.00     0.176 HD
ATOM     22  H81 UNL     1      11.363  15.627   3.545  1.00  0.00     0.176 HD
ENDBRANCH  18  20
ENDBRANCH  15  16
ENDBRANCH   9  15
BRANCH   4  23
HETATM   23  N3  UNL     1      10.140  20.486  10.433  1.00  0.00    -0.345 N 
ATOM     24  H3  UNL     1       9.427  20.500   9.704  1.00  0.00     0.167 HD
BRANCH  23  25
HETATM   25  C3  UNL     1       9.878  21.362  11.504  1.00  0.00     0.160 C 
BRANCH  25  26
HETATM   26  C4  UNL     1      10.252  20.783  12.833  1.00  0.00     0.270 C 
HETATM   27  N4  UNL     1      11.474  21.058  13.459  1.00  0.00    -0.057 NA
HETATM   28  O1  UNL     1       9.416  20.027  13.375  1.00  0.00    -0.270 OA
ENDBRANCH  25  26
ENDBRANCH  23  25
ENDBRANCH   4  23
BRANCH   1  29
HETATM   29  N1  UNL     1      14.580  19.578  10.848  1.00  0.00    -0.234 N 
ATOM     30  H12 UNL     1      15.004  19.195  11.693  1.00  0.00     0.174 HD
ATOM     31  H11 UNL     1      15.104  20.279  10.324  1.00  0.00     0.174 HD
ENDBRANCH   1  29
TORSDOF 7
ENDMDL
MODEL 2
REMARK VINA RESULT: -7.735929726      2.795      5.453
REMARK  7 active torsions:
REMARK  status: ('A' for Active; 'I' for Inactive)
REMARK    1  A    between atoms: N1_1  and  C1_4 
REMARK    2  A    between atoms: C2_7  and  N3_8 
REMARK    3  A    between atoms: N3_8  and  C3_10 
REMARK    4  A    between atoms: C3_10  and  C4_11 
REMARK    5  A    between atoms: N6_18  and  C7_19 
REMARK    6  A    between atoms: C7_19  and  C8_20 
REMARK       I    between atoms: C8_20  and  N7_22 
REMARK    7  A    between atoms: N7_22  and  N8_24 
ROOT
HETATM    1  C1  UNL     1      10.956  19.486   9.990  1.00  0.00     0.678 A 
HETATM    2  N2  UNL     1      10.200  18.766   9.152  1.00  0.00    -0.174 N 
ATOM      3  H2  UNL     1       9.235  19.053   8.991  1.00  0.00     0.186 HD
HETATM    4  C2  UNL     1      10.677  17.654   8.501  1.00  0.00     0.150 A 
HETATM    5  C5  UNL     1      11.969  17.271   8.717  1.00  0.00     0.111 A 
HETATM    6  N5  UNL     1      12.551  16.207   8.143  1.00  0.00    -0.347 N 
ATOM      7  H5  UNL     1      11.991  15.646   7.500  1.00  0.00     0.167 HD
HETATM    8  C6  UNL     1      13.821  15.833   8.358  1.00  0.00     0.187 A 
HETATM    9  N6  UNL     1      14.620  16.538   9.202  1.00  0.00    -0.300 N 
HETATM   10  C9  UNL     1      14.047  17.605   9.783  1.00  0.00     0.278 A 
HETATM   11  O3  UNL     1      14.769  18.274  10.569  1.00  0.00    -0.265 OA
HETATM   12  C10 UNL     1      12.761  18.019   9.591  1.00  0.00     0.147 A 
HETATM   13  N9  UNL     1      12.219  19.096  10.190  1.00  0.00    -0.184 N 
ATOM     14  H9  UNL     1      12.801  19.641  10.827  1.00  0.00     0.184 HD
ENDROOT
BRANCH   9  15
HETATM   15  C7  UNL     1      15.993  16.140   9.439  1.00  0.00     0.237 C 
BRANCH  15  16
HETATM   16  C8  UNL     1      16.621  15.571   8.220  1.00  0.00     0.254 C 
HETATM   17  O2  UNL     1      16.819  14.334   8.196  1.00  0.00    -0.270 OA
HETATM   18  N7  UNL     1      16.993  16.342   7.111  1.00  0.00    -0.275 N 
ATOM     19  H7  UNL     1      16.835  17.350   7.120  1.00  0.00     0.189 HD
BRANCH  18  20
HETATM   20  N8  UNL     1      17.574  15.749   6.004  1.00  0.00    -0.343 N 
ATOM     21  H82 UNL     1      17.591  14.731   5.946  1.00  0.00     0.176 HD
ATOM     22  H81 UNL     1      17.976  16.320   5.260  1.00  0.00     0.176 HD
ENDBRANCH  18  20
ENDBRANCH  15  16
ENDBRANCH   9  15
BRANCH   4  23
HETATM   23  N3  UNL     1       9.913  17.017   7.722  1.00  0.00    -0.345 N 
ATOM     24  H3  UNL     1       9.729  17.496   6.840  1.00  0.00     0.167 HD
BRANCH  23  25
HETATM   25  C3  UNL     1       9.269  15.771   7.841  1.00  0.00     0.160 C 
BRANCH  25  26
HETATM   26  C4  UNL     1       9.570  14.850   6.701  1.00  0.00     0.270 C 
HETATM   27  N4  UNL     1      10.625  15.075   5.807  1.00  0.00    -0.057 NA
HETATM   28  O1  UNL     1       8.829  13.851   6.571  1.00  0.00    -0.270 OA
ENDBRANCH  25  26
ENDBRANCH  23  25
ENDBRANCH   4  23
BRANCH   1  29
HETATM   29  N1  UNL     1      10.440  20.526  10.572  1.00  0.00    -0.234 N 
ATOM     30  H12 UNL     1       9.435  20.647  10.698  1.00  0.00     0.174 HD
ATOM     31  H11 UNL     1      11.059  21.257  10.921  1.00  0.00     0.174 HD
ENDBRANCH   1  29
TORSDOF 7
ENDMDL
MODEL 3
REMARK VINA RESULT: -7.657973916      1.904      3.494
REMARK  7 active torsions:
REMARK  status: ('A' for Active; 'I' for Inactive)
REMARK    1  A    between atoms: N1_1  and  C1_4 
REMARK    2  A    between atoms: C2_7  and  N3_8 
REMARK    3  A    between atoms: N3_8  and  C3_10 
REMARK    4  A    between atoms: C3_10  and  C4_11 
REMARK    5  A    between atoms: N6_18  and  C7_19 
REMARK    6  A    between atoms: C7_19  and  C8_20 
REMARK       I    between atoms: C8_20  and  N7_22 
REMARK    7  A    between atoms: N7_22  and  N8_24 
ROOT
HETATM    1  C1  UNL     1      10.678  19.918  10.403  1.00  0.00     0.678 A 
HETATM    2  N2  UNL     1      11.963  19.839  10.768  1.00  0.00    -0.174 N 
ATOM      3  H2  UNL     1      12.359  20.589  11.333  1.00  0.00     0.186 HD
HETATM    4  C2  UNL     1      12.766  18.785  10.409  1.00  0.00     0.150 A 
HETATM    5  C5  UNL     1      12.235  17.781   9.654  1.00  0.00     0.111 A 
HETATM    6  N5  UNL     1      12.914  16.700   9.240  1.00  0.00    -0.347 N 
ATOM      7  H5  UNL     1      13.895  16.622   9.510  1.00  0.00     0.167 HD
HETATM    8  C6  UNL     1      12.387  15.715   8.497  1.00  0.00     0.187 A 
HETATM    9  N6  UNL     1      11.087  15.759   8.106  1.00  0.00    -0.300 N 
HETATM   10  C9  UNL     1      10.397  16.838   8.514  1.00  0.00     0.278 A 
HETATM   11  O3  UNL     1       9.189  16.900   8.164  1.00  0.00    -0.265 OA
HETATM   12  C10 UNL     1      10.895  17.859   9.270  1.00  0.00     0.147 A 
HETATM   13  N9  UNL     1      10.172  18.926   9.662  1.00  0.00    -0.184 N 
ATOM     14  H9  UNL     1       9.193  18.979   9.380  1.00  0.00     0.184 HD
ENDROOT
BRANCH   9  15
HETATM   15  C7  UNL     1      10.511  14.699   7.303  1.00  0.00     0.237 C 
BRANCH  15  16
HETATM   16  C8  UNL     1      10.714  14.934   5.851  1.00  0.00     0.254 C 
HETATM   17  O2  UNL     1      11.141  13.977   5.165  1.00  0.00    -0.270 OA
HETATM   18  N7  UNL     1      10.451  16.159   5.223  1.00  0.00    -0.275 N 
ATOM     19  H7  UNL     1      10.102  16.944   5.773  1.00  0.00     0.189 HD
BRANCH  18  20
HETATM   20  N8  UNL     1      10.661  16.312   3.864  1.00  0.00    -0.343 N 
ATOM     21  H82 UNL     1      10.755  15.477   3.285  1.00  0.00     0.176 HD
ATOM     22  H81 UNL     1      10.721  17.243   3.450  1.00  0.00     0.176 HD
ENDBRANCH  18  20
ENDBRANCH  15  16
ENDBRANCH   9  15
BRANCH   4  23
HETATM   23  N3  UNL     1      13.973  18.769  10.787  1.00  0.00    -0.345 N 
ATOM     24  H3  UNL     1      14.640  18.991  10.048  1.00  0.00     0.167 HD
BRANCH  23  25
HETATM   25  C3  UNL     1      14.568  18.502  12.034  1.00  0.00     0.160 C 
BRANCH  25  26
HETATM   26  C4  UNL     1      15.291  17.191  12.065  1.00  0.00     0.270 C 
HETATM   27  N4  UNL     1      15.443  16.388  10.928  1.00  0.00    -0.057 NA
HETATM   28  O1  UNL     1      15.762  16.832  13.166  1.00  0.00    -0.270 OA
ENDBRANCH  25  26
ENDBRANCH  23  25
ENDBRANCH   4  23
BRANCH   1  29
HETATM   29  N1  UNL     1       9.975  20.944  10.777  1.00  0.00    -0.234 N 
ATOM     30  H12 UNL     1      10.392  21.776  11.196  1.00  0.00     0.174 HD
ATOM     31  H11 UNL     1       8.964  20.926  10.649  1.00  0.00     0.174 HD
ENDBRANCH   1  29
TORSDOF 7
ENDMDL
MODEL 4
REMARK VINA RESULT: -7.535312328      1.534      1.684
REMARK  7 active torsions:
REMARK  status: ('A' for Active; 'I' for Inactive)
REMARK    1  A    between atoms: N1_1  and  C1_4 
REMARK    2  A    between atoms: C2_7  and  N3_8 
REMARK    3  A    between atoms: N3_8  and  C3_10 
REMARK    4  A    between atoms: C3_10  and  C4_11 
REMARK    5  A    between atoms: N6_18  and  C7_19 
REMARK    6  A    between atoms: C7_19  and  C8_20 
REMARK       I    between atoms: C8_20  and  N7_22 
REMARK    7  A    between atoms: N7_22  and  N8_24 
ROOT
HETATM    1  C1  UNL     1      13.428  18.900  10.780  1.00  0.00     0.678 A 
HETATM    2  N2  UNL     1      12.332  19.658  10.901  1.00  0.00    -0.174 N 
ATOM      3  H2  UNL     1      12.337  20.426  11.573  1.00  0.00     0.186 HD
HETATM    4  C2  UNL     1      11.200  19.441  10.154  1.00  0.00     0.150 A 
HETATM    5  C5  UNL     1      11.193  18.415   9.255  1.00  0.00     0.111 A 
HETATM    6  N5  UNL     1      10.153  18.101   8.468  1.00  0.00    -0.347 N 
ATOM      7  H5  UNL     1       9.309  18.669   8.546  1.00  0.00     0.167 HD
HETATM    8  C6  UNL     1      10.150  17.091   7.586  1.00  0.00     0.187 A 
HETATM    9  N6  UNL     1      11.244  16.298   7.434  1.00  0.00    -0.300 N 
HETATM   10  C9  UNL     1      12.292  16.603   8.217  1.00  0.00     0.278 A 
HETATM   11  O3  UNL     1      13.317  15.882   8.093  1.00  0.00    -0.265 OA
HETATM   12  C10 UNL     1      12.334  17.621   9.126  1.00  0.00     0.147 A 
HETATM   13  N9  UNL     1      13.404  17.898   9.894  1.00  0.00    -0.184 N 
ATOM     14  H9  UNL     1      14.237  17.316   9.796  1.00  0.00     0.184 HD
ENDROOT
BRANCH   9  15
HETATM   15  C7  UNL     1      11.248  15.205   6.482  1.00  0.00     0.237 C 
BRANCH  15  16
HETATM   16  C8  UNL     1      10.366  14.092   6.915  1.00  0.00     0.254 C 
HETATM   17  O2  UNL     1      10.811  13.306   7.783  1.00  0.00    -0.270 OA
HETATM   18  N7  UNL     1       9.077  13.887   6.406  1.00  0.00    -0.275 N 
ATOM     19  H7  UNL     1       8.704  14.522   5.700  1.00  0.00     0.189 HD
BRANCH  18  20
HETATM   20  N8  UNL     1       8.304  12.830   6.853  1.00  0.00    -0.343 N 
ATOM     21  H82 UNL     1       8.407  11.922   6.400  1.00  0.00     0.176 HD
ATOM     22  H81 UNL     1       7.644  12.958   7.621  1.00  0.00     0.176 HD
ENDBRANCH  18  20
ENDBRANCH  15  16
ENDBRANCH   9  15
BRANCH   4  23
HETATM   23  N3  UNL     1      10.197  20.193  10.315  1.00  0.00    -0.345 N 
ATOM     24  H3  UNL     1       9.826  20.579   9.447  1.00  0.00     0.167 HD
BRANCH  23  25
HETATM   25  C3  UNL     1       9.497  20.599  11.467  1.00  0.00     0.160 C 
BRANCH  25  26
HETATM   26  C4  UNL     1      10.162  21.734  12.182  1.00  0.00     0.270 C 
HETATM   27  N4  UNL     1      11.043  21.538  13.253  1.00  0.00    -0.057 NA
HETATM   28  O1  UNL     1       9.896  22.888  11.780  1.00  0.00    -0.270 OA
ENDBRANCH  25  26
ENDBRANCH  23  25
ENDBRANCH   4  23
BRANCH   1  29
HETATM   29  N1  UNL     1      14.463  19.162  11.519  1.00  0.00    -0.234 N 
ATOM     30  H12 UNL     1      14.392  19.623  12.426  1.00  0.00     0.174 HD
ATOM     31  H11 UNL     1      15.390  18.898  11.186  1.00  0.00     0.174 HD
ENDBRANCH   1  29
TORSDOF 7
ENDMDL
MODEL 5
REMARK VINA RESULT: -7.431636887      1.306      1.510
REMARK  7 active torsions:
REMARK  status: ('A' for Active; 'I' for Inactive)
REMARK    1  A    between atoms: N1_1  and  C1_4 
REMARK    2  A    between atoms: C2_7  and  N3_8 
REMARK    3  A    between atoms: N3_8  and  C3_10 
REMARK    4  A    between atoms: C3_10  and  C4_11 
REMARK    5  A    between atoms: N6_18  and  C7_19 
REMARK    6  A    between atoms: C7_19  and  C8_20 
REMARK       I    between atoms: C8_20  and  N7_22 
REMARK    7  A    between atoms: N7_22  and  N8_24 
ROOT
HETATM    1  C1  UNL     1      14.086  17.671  11.028  1.00  0.00     0.678 A 
HETATM    2  N2  UNL     1      13.634  18.929  11.100  1.00  0.00    -0.174 N 
ATOM      3  H2  UNL     1      14.190  19.623  11.599  1.00  0.00     0.186 HD
HETATM    4  C2  UNL     1      12.449  19.319  10.524  1.00  0.00     0.150 A 
HETATM    5  C5  UNL     1      11.707  18.391   9.856  1.00  0.00     0.111 A 
HETATM    6  N5  UNL     1      10.536  18.646   9.252  1.00  0.00    -0.347 N 
ATOM      7  H5  UNL     1      10.175  19.599   9.295  1.00  0.00     0.167 HD
HETATM    8  C6  UNL     1       9.808  17.730   8.596  1.00  0.00     0.187 A 
HETATM    9  N6  UNL     1      10.232  16.442   8.503  1.00  0.00    -0.300 N 
HETATM   10  C9  UNL     1      11.404  16.175   9.103  1.00  0.00     0.278 A 
HETATM   11  O3  UNL     1      11.818  14.988   9.029  1.00  0.00    -0.265 OA
HETATM   12  C10 UNL     1      12.173  17.077   9.779  1.00  0.00     0.147 A 
HETATM   13  N9  UNL     1      13.345  16.773  10.369  1.00  0.00    -0.184 N 
ATOM     14  H9  UNL     1      13.684  15.813  10.310  1.00  0.00     0.184 HD
ENDROOT
BRANCH   9  15
HETATM   15  C7  UNL     1       9.452  15.447   7.795  1.00  0.00     0.237 C 
BRANCH  15  16
HETATM   16  C8  UNL     1       9.933  15.255   6.404  1.00  0.00     0.254 C 
HETATM   17  O2  UNL     1       9.905  14.093   5.938  1.00  0.00    -0.270 OA
HETATM   18  N7  UNL     1      10.409  16.300   5.600  1.00  0.00    -0.275 N 
ATOM     19  H7  UNL     1      10.435  17.251   5.970  1.00  0.00     0.189 HD
BRANCH  18  20
HETATM   20  N8  UNL     1      10.843  16.054   4.310  1.00  0.00    -0.343 N 
ATOM     21  H82 UNL     1      11.287  15.159   4.105  1.00  0.00     0.176 HD
ATOM     22  H81 UNL     1      10.720  16.755   3.579  1.00  0.00     0.176 HD
ENDBRANCH  18  20
ENDBRANCH  15  16
ENDBRANCH   9  15
BRANCH   4  23
HETATM   23  N3  UNL     1      12.078  20.523  10.627  1.00  0.00    -0.345 N 
ATOM     24  H3  UNL     1      12.201  21.068   9.773  1.00  0.00     0.167 HD
BRANCH  23  25
HETATM   25  C3  UNL     1      11.527  21.253  11.697  1.00  0.00     0.160 C 
BRANCH  25  26
HETATM   26  C4  UNL     1      10.031  21.222  11.713  1.00  0.00     0.270 C 
HETATM   27  N4  UNL     1       9.303  20.042  11.911  1.00  0.00    -0.057 NA
HETATM   28  O1  UNL     1       9.441  22.311  11.537  1.00  0.00    -0.270 OA
ENDBRANCH  25  26
ENDBRANCH  23  25
ENDBRANCH   4  23
BRANCH   1  29
HETATM   29  N1  UNL     1      15.215  17.371  11.595  1.00  0.00    -0.234 N 
ATOM     30  H12 UNL     1      16.118  17.553  11.158  1.00  0.00     0.174 HD
ATOM     31  H11 UNL     1      15.207  16.935  12.517  1.00  0.00     0.174 HD
ENDBRANCH   1  29
TORSDOF 7
ENDMDL
