MODEL 1
REMARK VINA RESULT: -8.319164367      0.000      0.000
REMARK  4 active torsions:
REMARK  status: ('A' for Active; 'I' for Inactive)
REMARK    1  A    between atoms: C1_2  and  C2_4 
REMARK    2  A    between atoms: N3_7  and  C3_8 
REMARK    3  A    between atoms: C3_8  and  C4_9 
REMARK       I    between atoms: C4_9  and  N4_11 
REMARK    4  A    between atoms: N4_11  and  C5_13 
ROOT
HETATM    1  C4  UNL     1       9.621  17.070  10.252  1.00  0.00     0.244 C 
HETATM    2  O2  UNL     1      10.801  17.473  10.056  1.00  0.00    -0.271 OA
HETATM    3  N4  UNL     1       9.018  16.242   9.295  1.00  0.00    -0.310 N 
ATOM      4  H4  UNL     1       8.064  15.921   9.460  1.00  0.00     0.170 HD
ENDROOT
BRANCH   1   5
HETATM    5  C3  UNL     1       8.957  17.512  11.497  1.00  0.00     0.272 C 
BRANCH   5   6
HETATM    6  N3  UNL     1       9.543  18.698  12.051  1.00  0.00    -0.222 N 
HETATM    7  N2  UNL     1      10.286  18.835  13.137  1.00  0.00    -0.274 N 
HETATM    8  C2  UNL     1      10.637  20.120  13.308  1.00  0.00     0.184 A 
ATOM      9  H2  UNL     1      10.556  18.071  13.758  1.00  0.00     0.189 HD
HETATM   10  C9  UNL     1      10.063  20.793  12.249  1.00  0.00     0.294 A 
HETATM   11  N8  UNL     1       9.395  19.903  11.486  1.00  0.00    -0.247 N 
HETATM   12  O5  UNL     1      10.194  22.038  12.097  1.00  0.00    -0.264 OA
ATOM     13  H8  UNL     1       8.871  20.111  10.636  1.00  0.00     0.192 HD
BRANCH   8  14
HETATM   14  C1  UNL     1      11.450  20.689  14.379  1.00  0.00     0.288 C 
HETATM   15  N1  UNL     1      10.861  21.387  15.452  1.00  0.00    -0.056 NA
HETATM   16  O1  UNL     1      12.699  20.562  14.357  1.00  0.00    -0.269 OA
ENDBRANCH   8  14
ENDBRANCH   5   6
ENDBRANCH   1   5
BRANCH   3  17
HETATM   17  C5  UNL     1       9.677  15.831   8.107  1.00  0.00     0.127 C 
HETATM   18  C6  UNL     1       9.814  14.508   7.928  1.00  0.00     0.124 C 
HETATM   19  C7  UNL     1      10.441  13.826   6.814  1.00  0.00     0.252 C 
HETATM   20  O3  UNL     1      10.656  12.603   7.031  1.00  0.00    -0.268 OA
HETATM   21  N5  UNL     1      10.834  14.334   5.544  1.00  0.00    -0.274 N 
HETATM   22  C8  UNL     1      10.845  15.707   5.122  1.00  0.00     0.341 C 
ATOM     23  H5  UNL     1      11.144  13.646   4.857  1.00  0.00     0.173 HD
HETATM   24  O4  UNL     1      11.134  15.858   3.903  1.00  0.00    -0.245 OA
HETATM   25  N6  UNL     1      10.573  16.848   5.914  1.00  0.00    -0.250 N 
HETATM   26  N7  UNL     1      10.118  16.860   7.238  1.00  0.00    -0.281 N 
ATOM     27  H6  UNL     1      10.725  17.756   5.475  1.00  0.00     0.192 HD
ATOM     28  H7  UNL     1      10.101  17.788   7.659  1.00  0.00     0.188 HD
ENDBRANCH   3  17
TORSDOF 4
ENDMDL
MODEL 2
REMARK VINA RESULT: -8.225313558      1.394      1.883
REMARK  4 active torsions:
REMARK  status: ('A' for Active; 'I' for Inactive)
REMARK    1  A    between atoms: C1_2  and  C2_4 
REMARK    2  A    between atoms: N3_7  and  C3_8 
REMARK    3  A    between atoms: C3_8  and  C4_9 
REMARK       I    between atoms: C4_9  and  N4_11 
REMARK    4  A    between atoms: N4_11  and  C5_13 
ROOT
HETATM    1  C4  UNL     1       9.604  16.190  10.104  1.00  0.00     0.244 C 
HETATM    2  O2  UNL     1      10.822  16.508  10.016  1.00  0.00    -0.271 OA
HETATM    3  N4  UNL     1       8.971  15.612   8.994  1.00  0.00    -0.310 N 
ATOM      4  H4  UNL     1       7.987  15.358   9.073  1.00  0.00     0.170 HD
ENDROOT
BRANCH   1   5
HETATM    5  C3  UNL     1       8.930  16.458  11.393  1.00  0.00     0.272 C 
BRANCH   5   6
HETATM    6  N3  UNL     1       9.221  17.761  11.914  1.00  0.00    -0.222 N 
HETATM    7  N2  UNL     1       9.537  18.870  11.265  1.00  0.00    -0.274 N 
HETATM    8  C2  UNL     1       9.735  19.879  12.129  1.00  0.00     0.184 A 
ATOM      9  H2  UNL     1       9.620  18.947  10.251  1.00  0.00     0.189 HD
HETATM   10  C9  UNL     1       9.519  19.332  13.377  1.00  0.00     0.294 A 
HETATM   11  N8  UNL     1       9.204  18.030  13.226  1.00  0.00    -0.247 N 
HETATM   12  O5  UNL     1       9.621  20.014  14.433  1.00  0.00    -0.264 OA
ATOM     13  H8  UNL     1       8.993  17.370  13.975  1.00  0.00     0.192 HD
BRANCH   8  14
HETATM   14  C1  UNL     1      10.098  21.260  11.820  1.00  0.00     0.288 C 
HETATM   15  N1  UNL     1      11.438  21.691  11.863  1.00  0.00    -0.056 NA
HETATM   16  O1  UNL     1       9.209  22.090  11.509  1.00  0.00    -0.269 OA
ENDBRANCH   8  14
ENDBRANCH   5   6
ENDBRANCH   1   5
BRANCH   3  17
HETATM   17  C5  UNL     1       9.641  15.365   7.768  1.00  0.00     0.127 C 
HETATM   18  C6  UNL     1       9.786  14.078   7.416  1.00  0.00     0.124 C 
HETATM   19  C7  UNL     1      10.424  13.552   6.226  1.00  0.00     0.252 C 
HETATM   20  O3  UNL     1      10.643  12.312   6.281  1.00  0.00    -0.268 OA
HETATM   21  N5  UNL     1      10.824  14.226   5.038  1.00  0.00    -0.274 N 
HETATM   22  C8  UNL     1      10.832  15.643   4.802  1.00  0.00     0.341 C 
ATOM     23  H5  UNL     1      11.142  13.636   4.268  1.00  0.00     0.173 HD
HETATM   24  O4  UNL     1      11.129  15.956   3.617  1.00  0.00    -0.245 OA
HETATM   25  N6  UNL     1      10.549  16.667   5.737  1.00  0.00    -0.250 N 
HETATM   26  N7  UNL     1      10.084  16.502   7.047  1.00  0.00    -0.281 N 
ATOM     27  H6  UNL     1      10.700  17.627   5.423  1.00  0.00     0.192 HD
ATOM     28  H7  UNL     1      10.059  17.366   7.587  1.00  0.00     0.188 HD
ENDBRANCH   3  17
TORSDOF 4
ENDMDL
MODEL 3
REMARK VINA RESULT: -7.884047018      1.992      7.976
REMARK  4 active torsions:
REMARK  status: ('A' for Active; 'I' for Inactive)
REMARK    1  A    between atoms: C1_2  and  C2_4 
REMARK    2  A    between atoms: N3_7  and  C3_8 
REMARK    3  A    between atoms: C3_8  and  C4_9 
REMARK       I    between atoms: C4_9  and  N4_11 
REMARK    4  A    between atoms: N4_11  and  C5_13 
ROOT
HETATM    1  C4  UNL     1       9.404  16.541   9.607  1.00  0.00     0.244 C 
HETATM    2  O2  UNL     1       8.981  17.406   8.791  1.00  0.00    -0.271 OA
HETATM    3  N4  UNL     1      10.101  16.966  10.746  1.00  0.00    -0.310 N 
ATOM      4  H4  UNL     1      10.440  16.262  11.401  1.00  0.00     0.170 HD
ENDROOT
BRANCH   1   5
HETATM    5  C3  UNL     1       9.126  15.124   9.289  1.00  0.00     0.272 C 
BRANCH   5   6
HETATM    6  N3  UNL     1       9.623  14.733   8.003  1.00  0.00    -0.222 N 
HETATM    7  N2  UNL     1      10.273  15.453   7.103  1.00  0.00    -0.274 N 
HETATM    8  C2  UNL     1      10.562  14.708   6.023  1.00  0.00     0.184 A 
ATOM      9  H2  UNL     1      10.521  16.437   7.214  1.00  0.00     0.189 HD
HETATM   10  C9  UNL     1      10.048  13.458   6.302  1.00  0.00     0.294 A 
HETATM   11  N8  UNL     1       9.475  13.491   7.523  1.00  0.00    -0.247 N 
HETATM   12  O5  UNL     1      10.146  12.498   5.490  1.00  0.00    -0.264 OA
ATOM     13  H8  UNL     1       9.013  12.713   7.993  1.00  0.00     0.192 HD
BRANCH   8  14
HETATM   14  C1  UNL     1      11.267  15.123   4.814  1.00  0.00     0.288 C 
HETATM   15  N1  UNL     1      10.859  16.256   4.082  1.00  0.00    -0.056 NA
HETATM   16  O1  UNL     1      12.258  14.469   4.406  1.00  0.00    -0.269 OA
ENDBRANCH   8  14
ENDBRANCH   5   6
ENDBRANCH   1   5
BRANCH   3  17
HETATM   17  C5  UNL     1      10.354  18.334  11.030  1.00  0.00     0.127 C 
HETATM   18  C6  UNL     1      11.594  18.777  10.771  1.00  0.00     0.124 C 
HETATM   19  C7  UNL     1      12.115  20.115  10.965  1.00  0.00     0.252 C 
HETATM   20  O3  UNL     1      13.370  20.182  10.882  1.00  0.00    -0.268 OA
HETATM   21  N5  UNL     1      11.421  21.329  11.229  1.00  0.00    -0.274 N 
HETATM   22  C8  UNL     1      10.024  21.486  11.526  1.00  0.00     0.341 C 
ATOM     23  H5  UNL     1      11.978  22.183  11.204  1.00  0.00     0.173 HD
HETATM   24  O4  UNL     1       9.656  22.690  11.606  1.00  0.00    -0.245 OA
HETATM   25  N6  UNL     1       9.072  20.458  11.728  1.00  0.00    -0.250 N 
HETATM   26  N7  UNL     1       9.273  19.084  11.556  1.00  0.00    -0.281 N 
ATOM     27  H6  UNL     1       8.142  20.750  12.030  1.00  0.00     0.192 HD
ATOM     28  H7  UNL     1       8.490  18.511  11.869  1.00  0.00     0.188 HD
ENDBRANCH   3  17
TORSDOF 4
ENDMDL
MODEL 4
REMARK VINA RESULT: -7.872618172      2.216      8.454
REMARK  4 active torsions:
REMARK  status: ('A' for Active; 'I' for Inactive)
REMARK    1  A    between atoms: C1_2  and  C2_4 
REMARK    2  A    between atoms: N3_7  and  C3_8 
REMARK    3  A    between atoms: C3_8  and  C4_9 
REMARK       I    between atoms: C4_9  and  N4_11 
REMARK    4  A    between atoms: N4_11  and  C5_13 
ROOT
HETATM    1  C4  UNL     1      10.580  16.854   7.944  1.00  0.00     0.244 C 
HETATM    2  O2  UNL     1      10.931  16.030   8.832  1.00  0.00    -0.271 OA
HETATM    3  N4  UNL     1      10.316  18.180   8.314  1.00  0.00    -0.310 N 
ATOM      4  H4  UNL     1      10.033  18.840   7.590  1.00  0.00     0.170 HD
ENDROOT
BRANCH   1   5
HETATM    5  C3  UNL     1      10.475  16.346   6.559  1.00  0.00     0.272 C 
BRANCH   5   6
HETATM    6  N3  UNL     1      10.097  14.965   6.499  1.00  0.00    -0.222 N 
HETATM    7  N2  UNL     1       8.911  14.413   6.702  1.00  0.00    -0.274 N 
HETATM    8  C2  UNL     1       8.981  13.080   6.550  1.00  0.00     0.184 A 
ATOM      9  H2  UNL     1       8.063  14.927   6.941  1.00  0.00     0.189 HD
HETATM   10  C9  UNL     1      10.299  12.823   6.233  1.00  0.00     0.294 A 
HETATM   11  N8  UNL     1      10.970  13.993   6.206  1.00  0.00    -0.247 N 
HETATM   12  O5  UNL     1      10.719  11.654   6.018  1.00  0.00    -0.264 OA
ATOM     13  H8  UNL     1      11.962  14.114   6.000  1.00  0.00     0.192 HD
BRANCH   8  14
HETATM   14  C1  UNL     1       7.900  12.108   6.687  1.00  0.00     0.288 C 
HETATM   15  N1  UNL     1       7.173  11.660   5.566  1.00  0.00    -0.056 NA
HETATM   16  O1  UNL     1       7.601  11.654   7.818  1.00  0.00    -0.269 OA
ENDBRANCH   8  14
ENDBRANCH   5   6
ENDBRANCH   1   5
BRANCH   3  17
HETATM   17  C5  UNL     1      10.425  18.644   9.651  1.00  0.00     0.127 C 
HETATM   18  C6  UNL     1      11.459  19.455   9.918  1.00  0.00     0.124 C 
HETATM   19  C7  UNL     1      11.801  20.065  11.188  1.00  0.00     0.252 C 
HETATM   20  O3  UNL     1      12.957  20.565  11.209  1.00  0.00    -0.268 OA
HETATM   21  N5  UNL     1      11.030  20.173  12.379  1.00  0.00    -0.274 N 
HETATM   22  C8  UNL     1       9.765  19.551  12.656  1.00  0.00     0.341 C 
ATOM     23  H5  UNL     1      11.419  20.758  13.119  1.00  0.00     0.173 HD
HETATM   24  O4  UNL     1       9.253  19.911  13.751  1.00  0.00    -0.245 OA
HETATM   25  N6  UNL     1       9.077  18.614  11.848  1.00  0.00    -0.250 N 
HETATM   26  N7  UNL     1       9.432  18.200  10.559  1.00  0.00    -0.281 N 
ATOM     27  H6  UNL     1       8.236  18.197  12.247  1.00  0.00     0.192 HD
ATOM     28  H7  UNL     1       8.865  17.429  10.204  1.00  0.00     0.188 HD
ENDBRANCH   3  17
TORSDOF 4
ENDMDL
MODEL 5
REMARK VINA RESULT: -7.807717718      2.140      3.037
REMARK  4 active torsions:
REMARK  status: ('A' for Active; 'I' for Inactive)
REMARK    1  A    between atoms: C1_2  and  C2_4 
REMARK    2  A    between atoms: N3_7  and  C3_8 
REMARK    3  A    between atoms: C3_8  and  C4_9 
REMARK       I    between atoms: C4_9  and  N4_11 
REMARK    4  A    between atoms: N4_11  and  C5_13 
ROOT
HETATM    1  C4  UNL     1      11.508  19.347  10.419  1.00  0.00     0.244 C 
HETATM    2  O2  UNL     1      12.467  18.544  10.252  1.00  0.00    -0.271 OA
HETATM    3  N4  UNL     1      10.223  18.966  10.007  1.00  0.00    -0.310 N 
ATOM      4  H4  UNL     1       9.453  19.621  10.145  1.00  0.00     0.170 HD
ENDROOT
BRANCH   1   5
HETATM    5  C3  UNL     1      11.822  20.648  11.048  1.00  0.00     0.272 C 
BRANCH   5   6
HETATM    6  N3  UNL     1      11.895  20.573  12.478  1.00  0.00    -0.222 N 
HETATM    7  N2  UNL     1      12.762  19.924  13.239  1.00  0.00    -0.274 N 
HETATM    8  C2  UNL     1      12.479  20.111  14.538  1.00  0.00     0.184 A 
ATOM      9  H2  UNL     1      13.537  19.361  12.887  1.00  0.00     0.189 HD
HETATM   10  C9  UNL     1      11.368  20.929  14.550  1.00  0.00     0.294 A 
HETATM   11  N8  UNL     1      11.022  21.203  13.276  1.00  0.00    -0.247 N 
HETATM   12  O5  UNL     1      10.829  21.309  15.625  1.00  0.00    -0.264 OA
ATOM     13  H8  UNL     1      10.239  21.783  12.974  1.00  0.00     0.192 HD
BRANCH   8  14
HETATM   14  C1  UNL     1      13.190  19.571  15.694  1.00  0.00     0.288 C 
HETATM   15  N1  UNL     1      14.040  20.380  16.473  1.00  0.00    -0.056 NA
HETATM   16  O1  UNL     1      13.051  18.364  16.011  1.00  0.00    -0.269 OA
ENDBRANCH   8  14
ENDBRANCH   5   6
ENDBRANCH   1   5
BRANCH   3  17
HETATM   17  C5  UNL     1       9.947  17.711   9.405  1.00  0.00     0.127 C 
HETATM   18  C6  UNL     1       9.324  16.805  10.174  1.00  0.00     0.124 C 
HETATM   19  C7  UNL     1       8.928  15.459   9.812  1.00  0.00     0.252 C 
HETATM   20  O3  UNL     1       8.597  14.751  10.800  1.00  0.00    -0.268 OA
HETATM   21  N5  UNL     1       8.863  14.847   8.529  1.00  0.00    -0.274 N 
HETATM   22  C8  UNL     1       9.336  15.384   7.283  1.00  0.00     0.341 C 
ATOM     23  H5  UNL     1       8.433  13.922   8.490  1.00  0.00     0.173 HD
HETATM   24  O4  UNL     1       9.046  14.672   6.283  1.00  0.00    -0.245 OA
HETATM   25  N6  UNL     1      10.063  16.583   7.090  1.00  0.00    -0.250 N 
HETATM   26  N7  UNL     1      10.360  17.549   8.059  1.00  0.00    -0.281 N 
ATOM     27  H6  UNL     1      10.407  16.762   6.146  1.00  0.00     0.192 HD
ATOM     28  H7  UNL     1      10.996  18.276   7.733  1.00  0.00     0.188 HD
ENDBRANCH   3  17
TORSDOF 4
ENDMDL
