MODEL 1
REMARK VINA RESULT: -7.122707545      0.000      0.000
REMARK  10 active torsions:
REMARK  status: ('A' for Active; 'I' for Inactive)
REMARK    1  A    between atoms: N1_1  and  C1_4 
REMARK    2  A    between atoms: N4_15  and  C6_16 
REMARK    3  A    between atoms: C6_16  and  C7_17 
REMARK    4  A    between atoms: C7_17  and  O3_18 
REMARK    5  A    between atoms: C7_17  and  N5_20 
REMARK    6  A    between atoms: N5_20  and  N6_21 
REMARK       I    between atoms: N6_21  and  C8_23 
REMARK    7  A    between atoms: C8_23  and  C9_25 
REMARK    8  A    between atoms: C9_25  and  N7_26 
REMARK    9  A    between atoms: C9_25  and  C10_30 
REMARK   10  A    between atoms: C10_30  and  N8_31 
ROOT
HETATM    1  C7  UNL     1      10.836  21.224  12.793  1.00  0.00     0.233 C 
ENDROOT
BRANCH   1   2
HETATM    2  C6  UNL     1      11.555  21.603  11.502  1.00  0.00     0.236 C 
BRANCH   2   3
HETATM    3  N4  UNL     1      11.856  20.254  10.925  1.00  0.00    -0.289 N 
HETATM    4  C2  UNL     1      11.284  19.288  10.116  1.00  0.00     0.148 A 
HETATM    5  N2  UNL     1      10.192  18.794   9.437  1.00  0.00    -0.175 N 
HETATM    6  C3  UNL     1      12.492  18.617  10.015  1.00  0.00     0.145 A 
HETATM    7  C1  UNL     1      10.328  17.673   8.688  1.00  0.00     0.680 A 
ATOM      8  H2  UNL     1       9.290  19.267   9.497  1.00  0.00     0.186 HD
HETATM    9  N3  UNL     1      11.490  17.028   8.590  1.00  0.00    -0.155 N 
HETATM   10  C4  UNL     1      12.600  17.468   9.242  1.00  0.00     0.279 A 
ATOM     11  H3  UNL     1      11.549  16.187   8.015  1.00  0.00     0.187 HD
HETATM   12  O1  UNL     1      13.667  16.901   9.148  1.00  0.00    -0.266 OA
HETATM   13  C5  UNL     1      13.101  19.603  10.850  1.00  0.00     0.269 A 
HETATM   14  O2  UNL     1      14.284  19.739  11.290  1.00  0.00    -0.267 OA
BRANCH   7  15
HETATM   15  N1  UNL     1       9.280  17.229   8.022  1.00  0.00    -0.234 N 
ATOM     16  H12 UNL     1       8.434  17.798   7.978  1.00  0.00     0.174 HD
ATOM     17  H11 UNL     1       9.336  16.311   7.579  1.00  0.00     0.174 HD
ENDBRANCH   7  15
ENDBRANCH   2   3
ENDBRANCH   1   2
BRANCH   1  18
HETATM   18  O3  UNL     1       9.564  20.903  12.508  1.00  0.00    -0.336 OA
ATOM     19  H3  UNL     1       9.155  20.541  13.285  1.00  0.00     0.220 HD
ENDBRANCH   1  18
BRANCH   1  20
HETATM   20  N5  UNL     1      11.170  21.157  14.077  1.00  0.00    -0.300 NA
BRANCH  20  21
HETATM   21  N6  UNL     1      11.513  21.083  15.368  1.00  0.00    -0.199 N 
HETATM   22  C8  UNL     1      12.805  20.686  15.847  1.00  0.00     0.278 C 
HETATM   23  O4  UNL     1      13.589  20.285  14.973  1.00  0.00    -0.269 OA
ATOM     24  H6  UNL     1      10.804  21.325  16.061  1.00  0.00     0.205 HD
BRANCH  22  25
HETATM   25  C9  UNL     1      13.191  20.771  17.244  1.00  0.00     0.302 C 
BRANCH  25  26
HETATM   26  N7  UNL     1      12.419  21.865  17.916  1.00  0.00    -0.065 N 
ATOM     27  H73 UNL     1      11.492  21.987  17.509  1.00  0.00     0.275 HD
ATOM     28  H72 UNL     1      12.132  21.608  18.861  1.00  0.00     0.275 HD
ATOM     29  H71 UNL     1      12.961  22.728  17.901  1.00  0.00     0.275 HD
ENDBRANCH  25  26
BRANCH  25  30
HETATM   30  C10 UNL     1      13.185  19.590  18.121  1.00  0.00     0.272 C 
BRANCH  30  31
HETATM   31  N8  UNL     1      14.236  18.663  17.549  1.00  0.00    -0.077 N 
ATOM     32  H83 UNL     1      14.171  18.541  16.539  1.00  0.00     0.274 HD
ATOM     33  H82 UNL     1      15.179  19.052  17.561  1.00  0.00     0.274 HD
ATOM     34  H81 UNL     1      14.143  17.795  18.076  1.00  0.00     0.274 HD
ENDBRANCH  30  31
ENDBRANCH  25  30
ENDBRANCH  22  25
ENDBRANCH  20  21
ENDBRANCH   1  20
TORSDOF 10
ENDMDL
MODEL 2
REMARK VINA RESULT: -6.932528693      2.501      3.774
REMARK  10 active torsions:
REMARK  status: ('A' for Active; 'I' for Inactive)
REMARK    1  A    between atoms: N1_1  and  C1_4 
REMARK    2  A    between atoms: N4_15  and  C6_16 
REMARK    3  A    between atoms: C6_16  and  C7_17 
REMARK    4  A    between atoms: C7_17  and  O3_18 
REMARK    5  A    between atoms: C7_17  and  N5_20 
REMARK    6  A    between atoms: N5_20  and  N6_21 
REMARK       I    between atoms: N6_21  and  C8_23 
REMARK    7  A    between atoms: C8_23  and  C9_25 
REMARK    8  A    between atoms: C9_25  and  N7_26 
REMARK    9  A    between atoms: C9_25  and  C10_30 
REMARK   10  A    between atoms: C10_30  and  N8_31 
ROOT
HETATM    1  C7  UNL     1      12.560  18.371  14.807  1.00  0.00     0.233 C 
ENDROOT
BRANCH   1   2
HETATM    2  C6  UNL     1      11.843  17.154  14.231  1.00  0.00     0.236 C 
BRANCH   2   3
HETATM    3  N4  UNL     1      11.344  17.696  12.927  1.00  0.00    -0.289 N 
HETATM    4  C2  UNL     1      10.971  18.893  12.342  1.00  0.00     0.148 A 
HETATM    5  N2  UNL     1      10.680  20.235  12.451  1.00  0.00    -0.175 N 
HETATM    6  C3  UNL     1      10.958  18.308  11.086  1.00  0.00     0.145 A 
HETATM    7  C1  UNL     1      10.394  20.945  11.334  1.00  0.00     0.680 A 
ATOM      8  H2  UNL     1      10.679  20.689  13.365  1.00  0.00     0.186 HD
HETATM    9  N3  UNL     1      10.382  20.383  10.126  1.00  0.00    -0.155 N 
HETATM   10  C4  UNL     1      10.658  19.062   9.959  1.00  0.00     0.279 A 
ATOM     11  H3  UNL     1      10.162  20.955   9.310  1.00  0.00     0.187 HD
HETATM   12  O1  UNL     1      10.667  18.541   8.864  1.00  0.00    -0.266 OA
HETATM   13  C5  UNL     1      11.340  17.062  11.671  1.00  0.00     0.269 A 
HETATM   14  O2  UNL     1      11.556  15.915  11.173  1.00  0.00    -0.267 OA
BRANCH   7  15
HETATM   15  N1  UNL     1      10.145  22.235  11.453  1.00  0.00    -0.234 N 
ATOM     16  H12 UNL     1       9.716  22.587  12.309  1.00  0.00     0.174 HD
ATOM     17  H11 UNL     1      10.374  22.851  10.672  1.00  0.00     0.174 HD
ENDBRANCH   7  15
ENDBRANCH   2   3
ENDBRANCH   1   2
BRANCH   1  18
HETATM   18  O3  UNL     1      13.811  18.412  14.323  1.00  0.00    -0.336 OA
ATOM     19  H3  UNL     1      13.898  19.167  13.753  1.00  0.00     0.220 HD
ENDBRANCH   1  18
BRANCH   1  20
HETATM   20  N5  UNL     1      12.240  19.346  15.651  1.00  0.00    -0.300 NA
BRANCH  20  21
HETATM   21  N6  UNL     1      11.912  20.322  16.506  1.00  0.00    -0.199 N 
HETATM   22  C8  UNL     1      11.354  21.586  16.124  1.00  0.00     0.278 C 
HETATM   23  O4  UNL     1      11.295  21.786  14.901  1.00  0.00    -0.269 OA
ATOM     24  H6  UNL     1      12.072  20.155  17.500  1.00  0.00     0.205 HD
BRANCH  22  25
HETATM   25  C9  UNL     1      10.863  22.557  17.086  1.00  0.00     0.302 C 
BRANCH  25  26
HETATM   26  N7  UNL     1      11.440  22.265  18.437  1.00  0.00    -0.065 N 
ATOM     27  H73 UNL     1      10.740  21.901  19.083  1.00  0.00     0.275 HD
ATOM     28  H72 UNL     1      12.063  21.457  18.423  1.00  0.00     0.275 HD
ATOM     29  H71 UNL     1      11.902  23.099  18.801  1.00  0.00     0.275 HD
ENDBRANCH  25  26
BRANCH  25  30
HETATM   30  C10 UNL     1      10.958  24.004  16.842  1.00  0.00     0.272 C 
BRANCH  30  31
HETATM   31  N8  UNL     1      12.410  24.257  16.501  1.00  0.00    -0.077 N 
ATOM     32  H83 UNL     1      13.035  24.215  17.305  1.00  0.00     0.274 HD
ATOM     33  H82 UNL     1      12.847  23.502  15.972  1.00  0.00     0.274 HD
ATOM     34  H81 UNL     1      12.420  25.156  16.018  1.00  0.00     0.274 HD
ENDBRANCH  30  31
ENDBRANCH  25  30
ENDBRANCH  22  25
ENDBRANCH  20  21
ENDBRANCH   1  20
TORSDOF 10
ENDMDL
MODEL 3
REMARK VINA RESULT: -6.852391421      3.590      7.277
REMARK  10 active torsions:
REMARK  status: ('A' for Active; 'I' for Inactive)
REMARK    1  A    between atoms: N1_1  and  C1_4 
REMARK    2  A    between atoms: N4_15  and  C6_16 
REMARK    3  A    between atoms: C6_16  and  C7_17 
REMARK    4  A    between atoms: C7_17  and  O3_18 
REMARK    5  A    between atoms: C7_17  and  N5_20 
REMARK    6  A    between atoms: N5_20  and  N6_21 
REMARK       I    between atoms: N6_21  and  C8_23 
REMARK    7  A    between atoms: C8_23  and  C9_25 
REMARK    8  A    between atoms: C9_25  and  N7_26 
REMARK    9  A    between atoms: C9_25  and  C10_30 
REMARK   10  A    between atoms: C10_30  and  N8_31 
ROOT
HETATM    1  C7  UNL     1      10.642  19.049   9.939  1.00  0.00     0.233 C 
ENDROOT
BRANCH   1   2
HETATM    2  C6  UNL     1      11.770  19.966  10.401  1.00  0.00     0.236 C 
BRANCH   2   3
HETATM    3  N4  UNL     1      12.796  18.970  10.848  1.00  0.00    -0.289 N 
HETATM    4  C2  UNL     1      13.658  18.021  10.329  1.00  0.00     0.148 A 
HETATM    5  N2  UNL     1      14.105  17.270   9.264  1.00  0.00    -0.175 N 
HETATM    6  C3  UNL     1      14.309  17.905  11.547  1.00  0.00     0.145 A 
HETATM    7  C1  UNL     1      15.167  16.447   9.432  1.00  0.00     0.680 A 
ATOM      8  H2  UNL     1      13.642  17.334   8.358  1.00  0.00     0.186 HD
HETATM    9  N3  UNL     1      15.795  16.335  10.604  1.00  0.00    -0.155 N 
HETATM   10  C4  UNL     1      15.393  17.049  11.690  1.00  0.00     0.279 A 
ATOM     11  H3  UNL     1      16.591  15.703  10.687  1.00  0.00     0.187 HD
HETATM   12  O1  UNL     1      15.965  16.970  12.756  1.00  0.00    -0.266 OA
HETATM   13  C5  UNL     1      13.427  18.882  12.102  1.00  0.00     0.269 A 
HETATM   14  O2  UNL     1      13.333  19.387  13.263  1.00  0.00    -0.267 OA
BRANCH   7  15
HETATM   15  N1  UNL     1      15.601  15.756   8.396  1.00  0.00    -0.234 N 
ATOM     16  H12 UNL     1      14.976  15.092   7.938  1.00  0.00     0.174 HD
ATOM     17  H11 UNL     1      16.564  15.892   8.086  1.00  0.00     0.174 HD
ENDBRANCH   7  15
ENDBRANCH   2   3
ENDBRANCH   1   2
BRANCH   1  18
HETATM   18  O3  UNL     1       9.662  19.065  10.857  1.00  0.00    -0.336 OA
ATOM     19  H3  UNL     1       8.829  18.929  10.422  1.00  0.00     0.220 HD
ENDBRANCH   1  18
BRANCH   1  20
HETATM   20  N5  UNL     1      10.430  18.265   8.888  1.00  0.00    -0.300 NA
BRANCH  20  21
HETATM   21  N6  UNL     1      10.210  17.471   7.834  1.00  0.00    -0.199 N 
HETATM   22  C8  UNL     1      10.871  16.219   7.607  1.00  0.00     0.278 C 
HETATM   23  O4  UNL     1      11.779  15.950   8.408  1.00  0.00    -0.269 OA
ATOM     24  H6  UNL     1       9.525  17.778   7.143  1.00  0.00     0.205 HD
BRANCH  22  25
HETATM   25  C9  UNL     1      10.494  15.308   6.539  1.00  0.00     0.302 C 
BRANCH  25  26
HETATM   26  N7  UNL     1       9.013  15.367   6.324  1.00  0.00    -0.065 N 
ATOM     27  H73 UNL     1       8.773  15.757   5.412  1.00  0.00     0.275 HD
ATOM     28  H72 UNL     1       8.606  14.440   6.201  1.00  0.00     0.275 HD
ATOM     29  H71 UNL     1       8.574  15.881   7.088  1.00  0.00     0.275 HD
ENDBRANCH  25  26
BRANCH  25  30
HETATM   30  C10 UNL     1      11.157  15.338   5.227  1.00  0.00     0.272 C 
BRANCH  30  31
HETATM   31  N8  UNL     1      10.657  16.599   4.556  1.00  0.00    -0.077 N 
ATOM     32  H83 UNL     1      10.988  16.715   3.598  1.00  0.00     0.274 HD
ATOM     33  H82 UNL     1       9.661  16.582   4.336  1.00  0.00     0.274 HD
ATOM     34  H81 UNL     1      10.927  17.360   5.180  1.00  0.00     0.274 HD
ENDBRANCH  30  31
ENDBRANCH  25  30
ENDBRANCH  22  25
ENDBRANCH  20  21
ENDBRANCH   1  20
TORSDOF 10
ENDMDL
MODEL 4
REMARK VINA RESULT: -6.793884009      3.579      5.492
REMARK  10 active torsions:
REMARK  status: ('A' for Active; 'I' for Inactive)
REMARK    1  A    between atoms: N1_1  and  C1_4 
REMARK    2  A    between atoms: N4_15  and  C6_16 
REMARK    3  A    between atoms: C6_16  and  C7_17 
REMARK    4  A    between atoms: C7_17  and  O3_18 
REMARK    5  A    between atoms: C7_17  and  N5_20 
REMARK    6  A    between atoms: N5_20  and  N6_21 
REMARK       I    between atoms: N6_21  and  C8_23 
REMARK    7  A    between atoms: C8_23  and  C9_25 
REMARK    8  A    between atoms: C9_25  and  N7_26 
REMARK    9  A    between atoms: C9_25  and  C10_30 
REMARK   10  A    between atoms: C10_30  and  N8_31 
ROOT
HETATM    1  C7  UNL     1       9.830  16.194  13.325  1.00  0.00     0.233 C 
ENDROOT
BRANCH   1   2
HETATM    2  C6  UNL     1       8.513  15.470  13.062  1.00  0.00     0.236 C 
BRANCH   2   3
HETATM    3  N4  UNL     1       8.543  15.337  11.570  1.00  0.00    -0.289 N 
HETATM    4  C2  UNL     1       8.919  16.046  10.443  1.00  0.00     0.148 A 
HETATM    5  N2  UNL     1       9.345  17.218   9.858  1.00  0.00    -0.175 N 
HETATM    6  C3  UNL     1       8.778  14.918   9.651  1.00  0.00     0.145 A 
HETATM    7  C1  UNL     1       9.618  17.237   8.532  1.00  0.00     0.680 A 
ATOM      8  H2  UNL     1       9.454  18.064  10.418  1.00  0.00     0.186 HD
HETATM    9  N3  UNL     1       9.483  16.152   7.769  1.00  0.00    -0.155 N 
HETATM   10  C4  UNL     1       9.062  14.969   8.292  1.00  0.00     0.279 A 
ATOM     11  H3  UNL     1       9.699  16.210   6.774  1.00  0.00     0.187 HD
HETATM   12  O1  UNL     1       8.951  13.970   7.614  1.00  0.00    -0.266 OA
HETATM   13  C5  UNL     1       8.385  14.169  10.802  1.00  0.00     0.269 A 
HETATM   14  O2  UNL     1       8.047  12.956  10.957  1.00  0.00    -0.267 OA
BRANCH   7  15
HETATM   15  N1  UNL     1      10.052  18.360   7.992  1.00  0.00    -0.234 N 
ATOM     16  H12 UNL     1       9.925  19.240   8.493  1.00  0.00     0.174 HD
ATOM     17  H11 UNL     1      10.490  18.322   7.072  1.00  0.00     0.174 HD
ENDBRANCH   7  15
ENDBRANCH   2   3
ENDBRANCH   1   2
BRANCH   1  18
HETATM   18  O3  UNL     1      10.748  15.300  13.726  1.00  0.00    -0.336 OA
ATOM     19  H3  UNL     1      10.419  14.840  14.490  1.00  0.00     0.220 HD
ENDBRANCH   1  18
BRANCH   1  20
HETATM   20  N5  UNL     1      10.247  17.453  13.261  1.00  0.00    -0.300 NA
BRANCH  20  21
HETATM   21  N6  UNL     1      10.661  18.724  13.204  1.00  0.00    -0.199 N 
HETATM   22  C8  UNL     1      11.257  19.335  12.052  1.00  0.00     0.278 C 
HETATM   23  O4  UNL     1      11.486  18.564  11.107  1.00  0.00    -0.269 OA
ATOM     24  H6  UNL     1      10.545  19.299  14.039  1.00  0.00     0.205 HD
BRANCH  22  25
HETATM   25  C9  UNL     1      11.548  20.756  11.971  1.00  0.00     0.302 C 
BRANCH  25  26
HETATM   26  N7  UNL     1      12.469  21.018  10.820  1.00  0.00    -0.065 N 
ATOM     27  H73 UNL     1      13.449  20.909  11.080  1.00  0.00     0.275 HD
ATOM     28  H72 UNL     1      12.421  20.283  10.114  1.00  0.00     0.275 HD
ATOM     29  H71 UNL     1      12.276  21.940  10.428  1.00  0.00     0.275 HD
ENDBRANCH  25  26
BRANCH  25  30
HETATM   30  C10 UNL     1      10.478  21.765  11.951  1.00  0.00     0.272 C 
BRANCH  30  31
HETATM   31  N8  UNL     1       9.545  21.335  10.840  1.00  0.00    -0.077 N 
ATOM     32  H83 UNL     1       9.005  20.497  11.057  1.00  0.00     0.274 HD
ATOM     33  H82 UNL     1       8.748  21.958  10.708  1.00  0.00     0.274 HD
ATOM     34  H81 UNL     1      10.136  21.243  10.014  1.00  0.00     0.274 HD
ENDBRANCH  30  31
ENDBRANCH  25  30
ENDBRANCH  22  25
ENDBRANCH  20  21
ENDBRANCH   1  20
TORSDOF 10
ENDMDL
MODEL 5
REMARK VINA RESULT: -6.740776466      4.819      6.662
REMARK  10 active torsions:
REMARK  status: ('A' for Active; 'I' for Inactive)
REMARK    1  A    between atoms: N1_1  and  C1_4 
REMARK    2  A    between atoms: N4_15  and  C6_16 
REMARK    3  A    between atoms: C6_16  and  C7_17 
REMARK    4  A    between atoms: C7_17  and  O3_18 
REMARK    5  A    between atoms: C7_17  and  N5_20 
REMARK    6  A    between atoms: N5_20  and  N6_21 
REMARK       I    between atoms: N6_21  and  C8_23 
REMARK    7  A    between atoms: C8_23  and  C9_25 
REMARK    8  A    between atoms: C9_25  and  N7_26 
REMARK    9  A    between atoms: C9_25  and  C10_30 
REMARK   10  A    between atoms: C10_30  and  N8_31 
ROOT
HETATM    1  C7  UNL     1      11.118  18.608   9.911  1.00  0.00     0.233 C 
ENDROOT
BRANCH   1   2
HETATM    2  C6  UNL     1       9.837  18.048  10.522  1.00  0.00     0.236 C 
BRANCH   2   3
HETATM    3  N4  UNL     1       9.517  16.937   9.568  1.00  0.00    -0.289 N 
HETATM    4  C2  UNL     1       9.779  16.538   8.270  1.00  0.00     0.148 A 
HETATM    5  N2  UNL     1      10.299  16.802   7.022  1.00  0.00    -0.175 N 
HETATM    6  C3  UNL     1       9.242  15.285   8.517  1.00  0.00     0.145 A 
HETATM    7  C1  UNL     1      10.278  15.834   6.075  1.00  0.00     0.680 A 
ATOM      8  H2  UNL     1      10.697  17.718   6.813  1.00  0.00     0.186 HD
HETATM    9  N3  UNL     1       9.762  14.627   6.313  1.00  0.00    -0.155 N 
HETATM   10  C4  UNL     1       9.231  14.312   7.525  1.00  0.00     0.279 A 
ATOM     11  H3  UNL     1       9.766  13.927   5.571  1.00  0.00     0.187 HD
HETATM   12  O1  UNL     1       8.775  13.214   7.760  1.00  0.00    -0.266 OA
HETATM   13  C5  UNL     1       8.962  15.679   9.861  1.00  0.00     0.269 A 
HETATM   14  O2  UNL     1       8.424  15.069  10.836  1.00  0.00    -0.267 OA
BRANCH   7  15
HETATM   15  N1  UNL     1      10.805  16.094   4.895  1.00  0.00    -0.234 N 
ATOM     16  H12 UNL     1      11.643  15.593   4.598  1.00  0.00     0.174 HD
ATOM     17  H11 UNL     1      10.368  16.808   4.311  1.00  0.00     0.174 HD
ENDBRANCH   7  15
ENDBRANCH   2   3
ENDBRANCH   1   2
BRANCH   1  18
HETATM   18  O3  UNL     1      10.846  19.787   9.330  1.00  0.00    -0.336 OA
ATOM     19  H3  UNL     1      11.215  20.485   9.858  1.00  0.00     0.220 HD
ENDBRANCH   1  18
BRANCH   1  20
HETATM   20  N5  UNL     1      12.379  18.202   9.819  1.00  0.00    -0.300 NA
BRANCH  20  21
HETATM   21  N6  UNL     1      13.651  17.795   9.735  1.00  0.00    -0.199 N 
HETATM   22  C8  UNL     1      14.116  16.751   8.870  1.00  0.00     0.278 C 
HETATM   23  O4  UNL     1      13.227  16.137   8.261  1.00  0.00    -0.269 OA
ATOM     24  H6  UNL     1      14.338  18.260  10.329  1.00  0.00     0.205 HD
BRANCH  22  25
HETATM   25  C9  UNL     1      15.524  16.444   8.687  1.00  0.00     0.302 C 
BRANCH  25  26
HETATM   26  N7  UNL     1      16.064  15.793   9.924  1.00  0.00    -0.065 N 
ATOM     27  H73 UNL     1      17.046  16.019  10.079  1.00  0.00     0.275 HD
ATOM     28  H72 UNL     1      15.681  16.208  10.774  1.00  0.00     0.275 HD
ATOM     29  H71 UNL     1      15.903  14.787   9.881  1.00  0.00     0.275 HD
ENDBRANCH  25  26
BRANCH  25  30
HETATM   30  C10 UNL     1      16.008  15.695   7.517  1.00  0.00     0.272 C 
BRANCH  30  31
HETATM   31  N8  UNL     1      17.202  16.474   7.010  1.00  0.00    -0.077 N 
ATOM     32  H83 UNL     1      17.741  15.983   6.298  1.00  0.00     0.274 HD
ATOM     33  H82 UNL     1      16.954  17.280   6.435  1.00  0.00     0.274 HD
ATOM     34  H81 UNL     1      17.740  16.713   7.843  1.00  0.00     0.274 HD
ENDBRANCH  30  31
ENDBRANCH  25  30
ENDBRANCH  22  25
ENDBRANCH  20  21
ENDBRANCH   1  20
TORSDOF 10
ENDMDL
