MODEL 1
REMARK VINA RESULT: -7.598361489      0.000      0.000
REMARK  8 active torsions:
REMARK  status: ('A' for Active; 'I' for Inactive)
REMARK    1  A    between atoms: C1_2  and  C2_4 
REMARK    2  A    between atoms: C2_4  and  S1_5 
REMARK    3  A    between atoms: S1_5  and  C3_6 
REMARK    4  A    between atoms: C5_14  and  C6_15 
REMARK    5  A    between atoms: C7_18  and  O2_19 
REMARK    6  A    between atoms: C8_21  and  N6_22 
REMARK    7  A    between atoms: C10_27  and  N7_28 
REMARK    8  A    between atoms: C11_32  and  N8_33 
ROOT
HETATM    1  C6  UNL     1     -10.517 -18.671  10.104  1.00  0.00     0.181 C 
HETATM    2  N5  UNL     1      -9.734 -19.840  10.186  1.00  0.00    -0.382 N 
ATOM      3  H5  UNL     1      -9.516 -20.400   9.362  1.00  0.00     0.156 HD
HETATM    4  C7  UNL     1      -9.262 -20.200  11.483  1.00  0.00     0.244 C 
HETATM    5  C8  UNL     1     -10.162 -21.116  12.248  1.00  0.00     0.233 C 
HETATM    6  C9  UNL     1     -11.417 -20.468  12.736  1.00  0.00     0.072 C 
HETATM    7  C10 UNL     1     -12.178 -19.721  11.697  1.00  0.00     0.218 C 
HETATM    8  C11 UNL     1     -11.558 -18.485  11.185  1.00  0.00     0.243 C 
ENDROOT
BRANCH   1   9
HETATM    9  C5  UNL     1      -9.767 -17.389  10.037  1.00  0.00     0.137 A 
HETATM   10  N4  UNL     1      -8.801 -16.886  10.778  1.00  0.00    -0.174 N 
HETATM   11  C4  UNL     1      -8.483 -15.642  10.375  1.00  0.00     0.722 A 
ATOM     12  H4  UNL     1      -8.354 -17.374  11.554  1.00  0.00     0.185 HD
HETATM   13  N3  UNL     1      -7.728 -14.542  10.551  1.00  0.00    -0.128 N 
HETATM   14  N10 UNL     1      -9.286 -15.373   9.340  1.00  0.00    -0.059 N 
HETATM   15  N2  UNL     1      -8.063 -13.631   9.648  1.00  0.00    -0.263 N 
ATOM     16  H3  UNL     1      -7.010 -14.428  11.267  1.00  0.00     0.205 HD
HETATM   17  C3  UNL     1      -9.040 -14.124   8.874  1.00  0.00     0.199 A 
ATOM     18  H2  UNL     1      -7.645 -12.705   9.556  1.00  0.00     0.189 HD
HETATM   19  N9  UNL     1     -10.057 -16.412   9.129  1.00  0.00    -0.263 N 
ATOM     20  H9  UNL     1     -10.765 -16.479   8.397  1.00  0.00     0.189 HD
BRANCH  17  21
HETATM   21  S1  UNL     1      -9.913 -13.328   7.538  1.00  0.00    -0.081 SA
BRANCH  21  22
HETATM   22  C2  UNL     1      -9.443 -14.010   5.961  1.00  0.00     0.181 C 
BRANCH  22  23
HETATM   23  C1  UNL     1     -10.347 -15.071   5.500  1.00  0.00     0.240 C 
HETATM   24  N1  UNL     1     -11.062 -14.947   4.263  1.00  0.00    -0.061 NA
HETATM   25  O1  UNL     1     -10.515 -16.100   6.178  1.00  0.00    -0.276 OA
ENDBRANCH  22  23
ENDBRANCH  21  22
ENDBRANCH  17  21
ENDBRANCH   1   9
BRANCH   8  26
HETATM   26  N8  UNL     1     -11.039 -17.569  12.160  1.00  0.00    -0.071 N 
ATOM     27  H83 UNL     1     -10.124 -17.849  12.514  1.00  0.00     0.274 HD
ATOM     28  H82 UNL     1     -10.762 -16.676  11.751  1.00  0.00     0.274 HD
ATOM     29  H81 UNL     1     -11.730 -17.463  12.902  1.00  0.00     0.274 HD
ENDBRANCH   8  26
BRANCH   4  30
HETATM   30  O2  UNL     1      -8.033 -20.859  11.324  1.00  0.00    -0.375 OA
ATOM     31  H2  UNL     1      -8.126 -21.734  11.683  1.00  0.00     0.212 HD
ENDBRANCH   4  30
BRANCH   7  32
HETATM   32  N7  UNL     1     -12.522 -20.610  10.638  1.00  0.00    -0.073 N 
ATOM     33  H73 UNL     1     -12.182 -21.558  10.802  1.00  0.00     0.274 HD
ATOM     34  H72 UNL     1     -13.521 -20.817  10.615  1.00  0.00     0.274 HD
ATOM     35  H71 UNL     1     -12.186 -20.225   9.754  1.00  0.00     0.274 HD
ENDBRANCH   7  32
BRANCH   5  36
HETATM   36  N6  UNL     1     -10.327 -22.355  11.565  1.00  0.00    -0.071 N 
ATOM     37  H63 UNL     1     -11.096 -22.317  10.895  1.00  0.00     0.274 HD
ATOM     38  H62 UNL     1      -9.563 -22.530  10.912  1.00  0.00     0.274 HD
ATOM     39  H61 UNL     1     -10.442 -23.124  12.226  1.00  0.00     0.274 HD
ENDBRANCH   5  36
TORSDOF 8
ENDMDL
MODEL 2
REMARK VINA RESULT: -7.550956679      1.766      2.049
REMARK  8 active torsions:
REMARK  status: ('A' for Active; 'I' for Inactive)
REMARK    1  A    between atoms: C1_2  and  C2_4 
REMARK    2  A    between atoms: C2_4  and  S1_5 
REMARK    3  A    between atoms: S1_5  and  C3_6 
REMARK    4  A    between atoms: C5_14  and  C6_15 
REMARK    5  A    between atoms: C7_18  and  O2_19 
REMARK    6  A    between atoms: C8_21  and  N6_22 
REMARK    7  A    between atoms: C10_27  and  N7_28 
REMARK    8  A    between atoms: C11_32  and  N8_33 
ROOT
HETATM    1  C6  UNL     1     -10.536 -18.738   9.961  1.00  0.00     0.181 C 
HETATM    2  N5  UNL     1      -9.773 -19.916  10.098  1.00  0.00    -0.382 N 
ATOM      3  H5  UNL     1      -9.566 -20.517   9.301  1.00  0.00     0.156 HD
HETATM    4  C7  UNL     1      -9.306 -20.222  11.411  1.00  0.00     0.244 C 
HETATM    5  C8  UNL     1     -10.222 -21.086  12.217  1.00  0.00     0.233 C 
HETATM    6  C9  UNL     1     -11.465 -20.394  12.675  1.00  0.00     0.072 C 
HETATM    7  C10 UNL     1     -12.213 -19.683  11.602  1.00  0.00     0.218 C 
HETATM    8  C11 UNL     1     -11.573 -18.483  11.033  1.00  0.00     0.243 C 
ENDROOT
BRANCH   1   9
HETATM    9  C5  UNL     1      -9.764 -17.473   9.835  1.00  0.00     0.137 A 
HETATM   10  N4  UNL     1      -9.052 -16.778  10.698  1.00  0.00    -0.174 N 
HETATM   11  C4  UNL     1      -8.591 -15.644  10.139  1.00  0.00     0.722 A 
ATOM     12  H4  UNL     1      -8.874 -17.061  11.662  1.00  0.00     0.185 HD
HETATM   13  N3  UNL     1      -7.892 -14.503  10.280  1.00  0.00    -0.128 N 
HETATM   14  N10 UNL     1      -9.037 -15.647   8.878  1.00  0.00    -0.059 N 
HETATM   15  N2  UNL     1      -7.913 -13.831   9.136  1.00  0.00    -0.263 N 
ATOM     16  H3  UNL     1      -7.421 -14.202  11.133  1.00  0.00     0.205 HD
HETATM   17  C3  UNL     1      -8.626 -14.525   8.238  1.00  0.00     0.199 A 
ATOM     18  H2  UNL     1      -7.460 -12.933   8.968  1.00  0.00     0.189 HD
HETATM   19  N9  UNL     1      -9.738 -16.737   8.686  1.00  0.00    -0.263 N 
ATOM     20  H9  UNL     1     -10.194 -16.996   7.811  1.00  0.00     0.189 HD
BRANCH  17  21
HETATM   21  S1  UNL     1      -9.032 -14.085   6.558  1.00  0.00    -0.081 SA
BRANCH  21  22
HETATM   22  C2  UNL     1      -8.866 -12.332   6.291  1.00  0.00     0.181 C 
BRANCH  22  23
HETATM   23  C1  UNL     1      -7.483 -11.858   6.417  1.00  0.00     0.240 C 
HETATM   24  N1  UNL     1      -7.023 -11.232   7.624  1.00  0.00    -0.061 NA
HETATM   25  O1  UNL     1      -6.680 -11.985   5.477  1.00  0.00    -0.276 OA
ENDBRANCH  22  23
ENDBRANCH  21  22
ENDBRANCH  17  21
ENDBRANCH   1   9
BRANCH   8  26
HETATM   26  N8  UNL     1     -11.037 -17.532  11.964  1.00  0.00    -0.071 N 
ATOM     27  H83 UNL     1     -10.411 -17.960  12.647  1.00  0.00     0.274 HD
ATOM     28  H82 UNL     1     -10.361 -16.900  11.534  1.00  0.00     0.274 HD
ATOM     29  H81 UNL     1     -11.814 -17.037  12.401  1.00  0.00     0.274 HD
ENDBRANCH   8  26
BRANCH   4  30
HETATM   30  O2  UNL     1      -8.089 -20.910  11.282  1.00  0.00    -0.375 OA
ATOM     31  H2  UNL     1      -7.413 -20.269  11.095  1.00  0.00     0.212 HD
ENDBRANCH   4  30
BRANCH   7  32
HETATM   32  N7  UNL     1     -12.574 -20.615  10.585  1.00  0.00    -0.073 N 
ATOM     33  H73 UNL     1     -11.888 -21.363  10.484  1.00  0.00     0.274 HD
ATOM     34  H72 UNL     1     -13.374 -21.188  10.852  1.00  0.00     0.274 HD
ATOM     35  H71 UNL     1     -12.730 -20.113   9.710  1.00  0.00     0.274 HD
ENDBRANCH   7  32
BRANCH   5  36
HETATM   36  N6  UNL     1     -10.409 -22.353  11.592  1.00  0.00    -0.071 N 
ATOM     37  H63 UNL     1     -10.157 -23.121  12.215  1.00  0.00     0.274 HD
ATOM     38  H62 UNL     1     -11.398 -22.571  11.471  1.00  0.00     0.274 HD
ATOM     39  H61 UNL     1      -9.901 -22.403  10.709  1.00  0.00     0.274 HD
ENDBRANCH   5  36
TORSDOF 8
ENDMDL
MODEL 3
REMARK VINA RESULT: -7.266587645      2.180      3.512
REMARK  8 active torsions:
REMARK  status: ('A' for Active; 'I' for Inactive)
REMARK    1  A    between atoms: C1_2  and  C2_4 
REMARK    2  A    between atoms: C2_4  and  S1_5 
REMARK    3  A    between atoms: S1_5  and  C3_6 
REMARK    4  A    between atoms: C5_14  and  C6_15 
REMARK    5  A    between atoms: C7_18  and  O2_19 
REMARK    6  A    between atoms: C8_21  and  N6_22 
REMARK    7  A    between atoms: C10_27  and  N7_28 
REMARK    8  A    between atoms: C11_32  and  N8_33 
ROOT
HETATM    1  C6  UNL     1     -10.355 -18.660   9.198  1.00  0.00     0.181 C 
HETATM    2  N5  UNL     1      -9.450 -19.044  10.209  1.00  0.00    -0.382 N 
ATOM      3  H5  UNL     1      -8.766 -19.787  10.063  1.00  0.00     0.156 HD
HETATM    4  C7  UNL     1      -9.540 -18.339  11.445  1.00  0.00     0.244 C 
HETATM    5  C8  UNL     1     -10.454 -18.956  12.454  1.00  0.00     0.233 C 
HETATM    6  C9  UNL     1     -11.905 -18.827  12.120  1.00  0.00     0.072 C 
HETATM    7  C10 UNL     1     -12.268 -19.258  10.742  1.00  0.00     0.218 C 
HETATM    8  C11 UNL     1     -11.782 -18.413   9.635  1.00  0.00     0.243 C 
ENDROOT
BRANCH   1   9
HETATM    9  C5  UNL     1      -9.966 -17.473   8.392  1.00  0.00     0.137 A 
HETATM   10  N4  UNL     1      -9.960 -17.242   7.095  1.00  0.00    -0.174 N 
HETATM   11  C4  UNL     1      -9.447 -16.028   6.825  1.00  0.00     0.722 A 
ATOM     12  H4  UNL     1     -10.300 -17.897   6.390  1.00  0.00     0.185 HD
HETATM   13  N3  UNL     1      -9.099 -15.116   5.899  1.00  0.00    -0.128 N 
HETATM   14  N10 UNL     1      -9.127 -15.491   8.007  1.00  0.00    -0.059 N 
HETATM   15  N2  UNL     1      -8.583 -14.053   6.502  1.00  0.00    -0.263 N 
ATOM     16  H3  UNL     1      -9.214 -15.225   4.891  1.00  0.00     0.205 HD
HETATM   17  C3  UNL     1      -8.587 -14.261   7.827  1.00  0.00     0.199 A 
ATOM     18  H2  UNL     1      -8.239 -13.214   6.035  1.00  0.00     0.189 HD
HETATM   19  N9  UNL     1      -9.435 -16.346   8.951  1.00  0.00    -0.263 N 
ATOM     20  H9  UNL     1      -9.300 -16.192   9.950  1.00  0.00     0.189 HD
BRANCH  17  21
HETATM   21  S1  UNL     1      -7.969 -13.203   9.122  1.00  0.00    -0.081 SA
BRANCH  21  22
HETATM   22  C2  UNL     1      -8.797 -13.519  10.667  1.00  0.00     0.181 C 
BRANCH  22  23
HETATM   23  C1  UNL     1      -8.066 -14.451  11.533  1.00  0.00     0.240 C 
HETATM   24  N1  UNL     1      -7.673 -14.073  12.860  1.00  0.00    -0.061 NA
HETATM   25  O1  UNL     1      -7.765 -15.588  11.130  1.00  0.00    -0.276 OA
ENDBRANCH  22  23
ENDBRANCH  21  22
ENDBRANCH  17  21
ENDBRANCH   1   9
BRANCH   8  26
HETATM   26  N8  UNL     1     -11.975 -16.997   9.769  1.00  0.00    -0.071 N 
ATOM     27  H83 UNL     1     -12.779 -16.659   9.239  1.00  0.00     0.274 HD
ATOM     28  H82 UNL     1     -12.300 -16.732  10.699  1.00  0.00     0.274 HD
ATOM     29  H81 UNL     1     -11.108 -16.528   9.507  1.00  0.00     0.274 HD
ENDBRANCH   8  26
BRANCH   4  30
HETATM   30  O2  UNL     1      -8.257 -18.303  12.011  1.00  0.00    -0.375 OA
ATOM     31  H2  UNL     1      -8.232 -18.942  12.714  1.00  0.00     0.212 HD
ENDBRANCH   4  30
BRANCH   7  32
HETATM   32  N7  UNL     1     -11.891 -20.621  10.562  1.00  0.00    -0.073 N 
ATOM     33  H73 UNL     1     -11.236 -20.743   9.790  1.00  0.00     0.274 HD
ATOM     34  H72 UNL     1     -11.291 -20.959  11.315  1.00  0.00     0.274 HD
ATOM     35  H71 UNL     1     -12.731 -21.189  10.450  1.00  0.00     0.274 HD
ENDBRANCH   7  32
BRANCH   5  36
HETATM   36  N6  UNL     1     -10.012 -20.262  12.812  1.00  0.00    -0.071 N 
ATOM     37  H63 UNL     1     -10.434 -20.978  12.221  1.00  0.00     0.274 HD
ATOM     38  H62 UNL     1      -9.034 -20.410  12.560  1.00  0.00     0.274 HD
ATOM     39  H61 UNL     1     -10.177 -20.445  13.802  1.00  0.00     0.274 HD
ENDBRANCH   5  36
TORSDOF 8
ENDMDL
MODEL 4
REMARK VINA RESULT: -7.180948195      2.293      3.066
REMARK  8 active torsions:
REMARK  status: ('A' for Active; 'I' for Inactive)
REMARK    1  A    between atoms: C1_2  and  C2_4 
REMARK    2  A    between atoms: C2_4  and  S1_5 
REMARK    3  A    between atoms: S1_5  and  C3_6 
REMARK    4  A    between atoms: C5_14  and  C6_15 
REMARK    5  A    between atoms: C7_18  and  O2_19 
REMARK    6  A    between atoms: C8_21  and  N6_22 
REMARK    7  A    between atoms: C10_27  and  N7_28 
REMARK    8  A    between atoms: C11_32  and  N8_33 
ROOT
HETATM    1  C6  UNL     1     -10.317 -18.540   9.209  1.00  0.00     0.181 C 
HETATM    2  N5  UNL     1      -9.427 -18.872  10.252  1.00  0.00    -0.382 N 
ATOM      3  H5  UNL     1      -8.727 -19.607  10.146  1.00  0.00     0.156 HD
HETATM    4  C7  UNL     1      -9.557 -18.127  11.461  1.00  0.00     0.244 C 
HETATM    5  C8  UNL     1     -10.482 -18.726  12.471  1.00  0.00     0.233 C 
HETATM    6  C9  UNL     1     -11.927 -18.636  12.101  1.00  0.00     0.072 C 
HETATM    7  C10 UNL     1     -12.252 -19.120  10.731  1.00  0.00     0.218 C 
HETATM    8  C11 UNL     1     -11.757 -18.305   9.607  1.00  0.00     0.243 C 
ENDROOT
BRANCH   1   9
HETATM    9  C5  UNL     1      -9.931 -17.373   8.372  1.00  0.00     0.137 A 
HETATM   10  N4  UNL     1      -9.880 -17.193   7.068  1.00  0.00    -0.174 N 
HETATM   11  C4  UNL     1      -9.392 -15.975   6.768  1.00  0.00     0.722 A 
ATOM     12  H4  UNL     1     -10.172 -17.885   6.377  1.00  0.00     0.185 HD
HETATM   13  N3  UNL     1      -9.035 -15.090   5.821  1.00  0.00    -0.128 N 
HETATM   14  N10 UNL     1      -9.136 -15.382   7.940  1.00  0.00    -0.059 N 
HETATM   15  N2  UNL     1      -8.576 -13.988   6.400  1.00  0.00    -0.263 N 
ATOM     16  H3  UNL     1      -9.107 -15.241   4.815  1.00  0.00     0.205 HD
HETATM   17  C3  UNL     1      -8.626 -14.144   7.731  1.00  0.00     0.199 A 
ATOM     18  H2  UNL     1      -8.238 -13.158   5.913  1.00  0.00     0.189 HD
HETATM   19  N9  UNL     1      -9.456 -16.209   8.905  1.00  0.00    -0.263 N 
ATOM     20  H9  UNL     1      -9.365 -16.012   9.902  1.00  0.00     0.189 HD
BRANCH  17  21
HETATM   21  S1  UNL     1      -8.091 -13.017   9.006  1.00  0.00    -0.081 SA
BRANCH  21  22
HETATM   22  C2  UNL     1      -9.343 -12.812  10.255  1.00  0.00     0.181 C 
BRANCH  22  23
HETATM   23  C1  UNL     1     -10.684 -12.600   9.697  1.00  0.00     0.240 C 
HETATM   24  N1  UNL     1     -11.609 -13.688   9.561  1.00  0.00    -0.061 NA
HETATM   25  O1  UNL     1     -11.045 -11.470   9.324  1.00  0.00    -0.276 OA
ENDBRANCH  22  23
ENDBRANCH  21  22
ENDBRANCH  17  21
ENDBRANCH   1   9
BRANCH   8  26
HETATM   26  N8  UNL     1     -11.978 -16.889   9.688  1.00  0.00    -0.071 N 
ATOM     27  H83 UNL     1     -11.483 -16.372   8.961  1.00  0.00     0.274 HD
ATOM     28  H82 UNL     1     -12.928 -16.625   9.423  1.00  0.00     0.274 HD
ATOM     29  H81 UNL     1     -11.732 -16.578  10.627  1.00  0.00     0.274 HD
ENDBRANCH   8  26
BRANCH   4  30
HETATM   30  O2  UNL     1      -8.287 -18.048  12.053  1.00  0.00    -0.375 OA
ATOM     31  H2  UNL     1      -7.850 -18.879  11.912  1.00  0.00     0.212 HD
ENDBRANCH   4  30
BRANCH   7  32
HETATM   32  N7  UNL     1     -11.847 -20.481  10.606  1.00  0.00    -0.073 N 
ATOM     33  H73 UNL     1     -10.832 -20.581  10.562  1.00  0.00     0.274 HD
ATOM     34  H72 UNL     1     -12.007 -21.013  11.463  1.00  0.00     0.274 HD
ATOM     35  H71 UNL     1     -12.312 -20.897   9.799  1.00  0.00     0.274 HD
ENDBRANCH   7  32
BRANCH   5  36
HETATM   36  N6  UNL     1     -10.025 -20.011  12.883  1.00  0.00    -0.071 N 
ATOM     37  H63 UNL     1      -9.225 -19.942  13.513  1.00  0.00     0.274 HD
ATOM     38  H62 UNL     1     -10.684 -20.460  13.519  1.00  0.00     0.274 HD
ATOM     39  H61 UNL     1      -9.819 -20.601  12.076  1.00  0.00     0.274 HD
ENDBRANCH   5  36
TORSDOF 8
ENDMDL
MODEL 5
REMARK VINA RESULT: -7.142867654      2.436      3.830
REMARK  8 active torsions:
REMARK  status: ('A' for Active; 'I' for Inactive)
REMARK    1  A    between atoms: C1_2  and  C2_4 
REMARK    2  A    between atoms: C2_4  and  S1_5 
REMARK    3  A    between atoms: S1_5  and  C3_6 
REMARK    4  A    between atoms: C5_14  and  C6_15 
REMARK    5  A    between atoms: C7_18  and  O2_19 
REMARK    6  A    between atoms: C8_21  and  N6_22 
REMARK    7  A    between atoms: C10_27  and  N7_28 
REMARK    8  A    between atoms: C11_32  and  N8_33 
ROOT
HETATM    1  C6  UNL     1     -10.726 -16.765   9.904  1.00  0.00     0.181 C 
HETATM    2  N5  UNL     1     -11.007 -18.117  10.192  1.00  0.00    -0.382 N 
ATOM      3  H5  UNL     1     -11.956 -18.439  10.384  1.00  0.00     0.156 HD
HETATM    4  C7  UNL     1      -9.895 -19.009  10.202  1.00  0.00     0.244 C 
HETATM    5  C8  UNL     1      -9.238 -19.180  11.534  1.00  0.00     0.233 C 
HETATM    6  C9  UNL     1      -8.457 -17.987  11.984  1.00  0.00     0.072 C 
HETATM    7  C10 UNL     1      -9.196 -16.696  11.917  1.00  0.00     0.218 C 
HETATM    8  C11 UNL     1      -9.502 -16.179  10.571  1.00  0.00     0.243 C 
ENDROOT
BRANCH   1   9
HETATM    9  C5  UNL     1     -10.609 -16.419   8.463  1.00  0.00     0.137 A 
HETATM   10  N4  UNL     1     -10.613 -17.154   7.369  1.00  0.00    -0.174 N 
HETATM   11  C4  UNL     1     -10.401 -16.395   6.279  1.00  0.00     0.722 A 
ATOM     12  H4  UNL     1     -10.758 -18.163   7.352  1.00  0.00     0.185 HD
HETATM   13  N3  UNL     1     -10.252 -16.332   4.943  1.00  0.00    -0.128 N 
HETATM   14  N10 UNL     1     -10.263 -15.141   6.722  1.00  0.00    -0.059 N 
HETATM   15  N2  UNL     1     -10.032 -15.074   4.585  1.00  0.00    -0.263 N 
ATOM     16  H3  UNL     1     -10.302 -17.127   4.306  1.00  0.00     0.205 HD
HETATM   17  C3  UNL     1     -10.033 -14.303   5.682  1.00  0.00     0.199 A 
ATOM     18  H2  UNL     1      -9.886 -14.746   3.630  1.00  0.00     0.189 HD
HETATM   19  N9  UNL     1     -10.388 -15.144   8.027  1.00  0.00    -0.263 N 
ATOM     20  H9  UNL     1     -10.329 -14.319   8.625  1.00  0.00     0.189 HD
BRANCH  17  21
HETATM   21  S1  UNL     1      -9.736 -12.550   5.812  1.00  0.00    -0.081 SA
BRANCH  21  22
HETATM   22  C2  UNL     1      -8.751 -12.165   7.246  1.00  0.00     0.181 C 
BRANCH  22  23
HETATM   23  C1  UNL     1      -7.419 -11.648   6.908  1.00  0.00     0.240 C 
HETATM   24  N1  UNL     1      -6.962 -11.616   5.548  1.00  0.00    -0.061 NA
HETATM   25  O1  UNL     1      -6.656 -11.232   7.797  1.00  0.00    -0.276 OA
ENDBRANCH  22  23
ENDBRANCH  21  22
ENDBRANCH  17  21
ENDBRANCH   1   9
BRANCH   8  26
HETATM   26  N8  UNL     1      -8.428 -16.173   9.620  1.00  0.00    -0.071 N 
ATOM     27  H83 UNL     1      -8.108 -17.112   9.383  1.00  0.00     0.274 HD
ATOM     28  H82 UNL     1      -8.731 -15.890   8.687  1.00  0.00     0.274 HD
ATOM     29  H81 UNL     1      -7.679 -15.585   9.984  1.00  0.00     0.274 HD
ENDBRANCH   8  26
BRANCH   4  30
HETATM   30  O2  UNL     1     -10.357 -20.273   9.801  1.00  0.00    -0.375 OA
ATOM     31  H2  UNL     1      -9.622 -20.743   9.423  1.00  0.00     0.212 HD
ENDBRANCH   4  30
BRANCH   7  32
HETATM   32  N7  UNL     1     -10.370 -16.786  12.721  1.00  0.00    -0.073 N 
ATOM     33  H73 UNL     1     -11.168 -16.313  12.296  1.00  0.00     0.274 HD
ATOM     34  H72 UNL     1     -10.755 -17.731  12.740  1.00  0.00     0.274 HD
ATOM     35  H71 UNL     1     -10.164 -16.432  13.656  1.00  0.00     0.274 HD
ENDBRANCH   7  32
BRANCH   5  36
HETATM   36  N6  UNL     1     -10.148 -19.722  12.486  1.00  0.00    -0.071 N 
ATOM     37  H63 UNL     1      -9.814 -19.595  13.442  1.00  0.00     0.274 HD
ATOM     38  H62 UNL     1     -11.004 -19.169  12.547  1.00  0.00     0.274 HD
ATOM     39  H61 UNL     1     -10.347 -20.702  12.284  1.00  0.00     0.274 HD
ENDBRANCH   5  36
TORSDOF 8
ENDMDL
