MODEL 1
REMARK VINA RESULT: -7.420653858      0.000      0.000
REMARK  7 active torsions:
REMARK  status: ('A' for Active; 'I' for Inactive)
REMARK    1  A    between atoms: C2_7  and  S1_8 
REMARK    2  A    between atoms: S1_8  and  N3_9 
REMARK    3  A    between atoms: C5_20  and  C6_21 
REMARK    4  A    between atoms: N6_22  and  N7_24 
REMARK    5  A    between atoms: N8_27  and  C7_28 
REMARK    6  A    between atoms: C9_33  and  C10_34 
REMARK    7  A    between atoms: C10_34  and  O3_35 
ROOT
HETATM    1  N1  UNL     1      -9.485 -18.824   9.315  1.00  0.00    -0.383 N 
ATOM      2  H11 UNL     1      -9.807 -19.391  10.100  1.00  0.00     0.157 HD
ATOM      3  H12 UNL     1      -8.543 -18.952   8.945  1.00  0.00     0.157 HD
HETATM    4  C1  UNL     1     -10.266 -17.943   8.788  1.00  0.00     0.132 A 
HETATM    5  N2  UNL     1      -9.842 -17.198   7.757  1.00  0.00    -0.316 N 
ATOM      6  H2  UNL     1      -8.901 -17.324   7.384  1.00  0.00     0.169 HD
HETATM    7  C2  UNL     1     -10.667 -16.285   7.219  1.00  0.00     0.227 A 
HETATM    8  N4  UNL     1     -11.903 -16.114   7.703  1.00  0.00    -0.315 N 
ATOM      9  H4  UNL     1     -12.503 -15.411   7.271  1.00  0.00     0.169 HD
HETATM   10  C3  UNL     1     -12.391 -16.832   8.739  1.00  0.00     0.144 A 
HETATM   11  C4  UNL     1     -11.536 -17.770   9.288  1.00  0.00     0.123 A 
HETATM   12  N5  UNL     1     -12.219 -18.350  10.280  1.00  0.00    -0.335 N 
ATOM     13  H5  UNL     1     -11.867 -19.090  10.886  1.00  0.00     0.168 HD
HETATM   14  C5  UNL     1     -13.428 -17.808  10.349  1.00  0.00     0.129 A 
HETATM   15  N8  UNL     1     -13.570 -16.849   9.395  1.00  0.00    -0.286 N 
ENDROOT
BRANCH  15  16
HETATM   16  C7  UNL     1     -14.674 -16.022   9.099  1.00  0.00     0.260 C 
HETATM   17  C8  UNL     1     -14.524 -14.573   9.491  1.00  0.00     0.289 C 
HETATM   18  N9  UNL     1     -15.731 -14.045   8.868  1.00  0.00    -0.043 N 
HETATM   19  C9  UNL     1     -15.720 -14.751   7.600  1.00  0.00     0.346 C 
ATOM     20  H92 UNL     1     -16.586 -14.143   9.416  1.00  0.00     0.280 HD
ATOM     21  H91 UNL     1     -15.782 -13.028   8.804  1.00  0.00     0.280 HD
HETATM   22  O4  UNL     1     -14.995 -15.907   7.751  1.00  0.00    -0.330 OA
BRANCH  19  23
HETATM   23  C10 UNL     1     -17.160 -15.001   7.206  1.00  0.00     0.225 C 
BRANCH  23  24
HETATM   24  O3  UNL     1     -17.428 -16.323   6.926  1.00  0.00    -0.397 OA
ATOM     25  H3  UNL     1     -17.950 -16.444   6.141  1.00  0.00     0.209 HD
ENDBRANCH  23  24
ENDBRANCH  19  23
ENDBRANCH  15  16
BRANCH  14  26
HETATM   26  C6  UNL     1     -14.473 -18.142  11.273  1.00  0.00     0.155 C 
HETATM   27  N6  UNL     1     -14.590 -17.485  12.372  1.00  0.00    -0.315 N 
ATOM     28  H6  UNL     1     -15.338 -17.734  13.018  1.00  0.00     0.185 HD
BRANCH  27  29
HETATM   29  N7  UNL     1     -13.729 -16.446  12.709  1.00  0.00    -0.345 N 
ATOM     30  H72 UNL     1     -12.846 -16.375  12.202  1.00  0.00     0.176 HD
ATOM     31  H71 UNL     1     -13.955 -15.768  13.435  1.00  0.00     0.176 HD
ENDBRANCH  27  29
ENDBRANCH  14  26
BRANCH   7  32
HETATM   32  S1  UNL     1     -10.163 -15.283   5.869  1.00  0.00     0.289 S 
HETATM   33  O1  UNL     1     -10.906 -13.997   5.862  1.00  0.00    -0.198 OA
HETATM   34  O2  UNL     1      -8.690 -15.006   6.058  1.00  0.00    -0.198 OA
BRANCH  32  35
HETATM   35  N3  UNL     1     -10.338 -16.124   4.370  1.00  0.00    -0.322 N 
ATOM     36  H32 UNL     1      -9.732 -16.891   4.079  1.00  0.00     0.169 HD
ATOM     37  H31 UNL     1     -11.118 -15.752   3.828  1.00  0.00     0.169 HD
ENDBRANCH  32  35
ENDBRANCH   7  32
TORSDOF 7
ENDMDL
MODEL 2
REMARK VINA RESULT: -7.177983811      1.304      1.600
REMARK  7 active torsions:
REMARK  status: ('A' for Active; 'I' for Inactive)
REMARK    1  A    between atoms: C2_7  and  S1_8 
REMARK    2  A    between atoms: S1_8  and  N3_9 
REMARK    3  A    between atoms: C5_20  and  C6_21 
REMARK    4  A    between atoms: N6_22  and  N7_24 
REMARK    5  A    between atoms: N8_27  and  C7_28 
REMARK    6  A    between atoms: C9_33  and  C10_34 
REMARK    7  A    between atoms: C10_34  and  O3_35 
ROOT
HETATM    1  N1  UNL     1      -9.841 -18.869   8.987  1.00  0.00    -0.383 N 
ATOM      2  H11 UNL     1     -10.237 -19.418   9.751  1.00  0.00     0.157 HD
ATOM      3  H12 UNL     1      -8.939 -19.124   8.588  1.00  0.00     0.157 HD
HETATM    4  C1  UNL     1     -10.481 -17.849   8.523  1.00  0.00     0.132 A 
HETATM    5  N2  UNL     1      -9.961 -17.127   7.520  1.00  0.00    -0.316 N 
ATOM      6  H2  UNL     1      -9.059 -17.380   7.119  1.00  0.00     0.169 HD
HETATM    7  C2  UNL     1     -10.640 -16.068   7.049  1.00  0.00     0.227 A 
HETATM    8  N4  UNL     1     -11.825 -15.729   7.570  1.00  0.00    -0.315 N 
ATOM      9  H4  UNL     1     -12.313 -14.919   7.188  1.00  0.00     0.169 HD
HETATM   10  C3  UNL     1     -12.403 -16.415   8.581  1.00  0.00     0.144 A 
HETATM   11  C4  UNL     1     -11.699 -17.504   9.062  1.00  0.00     0.123 A 
HETATM   12  N5  UNL     1     -12.449 -18.019  10.041  1.00  0.00    -0.335 N 
ATOM     13  H5  UNL     1     -12.210 -18.837  10.601  1.00  0.00     0.168 HD
HETATM   14  C5  UNL     1     -13.555 -17.298  10.167  1.00  0.00     0.129 A 
HETATM   15  N8  UNL     1     -13.560 -16.280   9.265  1.00  0.00    -0.286 N 
ENDROOT
BRANCH  15  16
HETATM   16  C7  UNL     1     -14.522 -15.275   9.037  1.00  0.00     0.260 C 
HETATM   17  C8  UNL     1     -15.752 -15.710   8.281  1.00  0.00     0.289 C 
HETATM   18  N9  UNL     1     -16.544 -14.495   8.421  1.00  0.00    -0.043 N 
HETATM   19  C9  UNL     1     -16.285 -14.154   9.807  1.00  0.00     0.346 C 
ATOM     20  H92 UNL     1     -16.343 -13.759   7.743  1.00  0.00     0.280 HD
ATOM     21  H91 UNL     1     -17.529 -14.582   8.167  1.00  0.00     0.280 HD
HETATM   22  O4  UNL     1     -15.089 -14.716  10.178  1.00  0.00    -0.330 OA
BRANCH  19  23
HETATM   23  C10 UNL     1     -16.288 -12.643   9.912  1.00  0.00     0.225 C 
BRANCH  23  24
HETATM   24  O3  UNL     1     -15.598 -12.024   8.893  1.00  0.00    -0.397 OA
ATOM     25  H3  UNL     1     -15.214 -11.193   9.148  1.00  0.00     0.209 HD
ENDBRANCH  23  24
ENDBRANCH  19  23
ENDBRANCH  15  16
BRANCH  14  26
HETATM   26  C6  UNL     1     -14.625 -17.511  11.098  1.00  0.00     0.155 C 
HETATM   27  N6  UNL     1     -14.626 -16.890  12.224  1.00  0.00    -0.315 N 
ATOM     28  H6  UNL     1     -15.394 -17.051  12.875  1.00  0.00     0.185 HD
BRANCH  27  29
HETATM   29  N7  UNL     1     -13.615 -16.005  12.582  1.00  0.00    -0.345 N 
ATOM     30  H72 UNL     1     -13.319 -15.314  11.893  1.00  0.00     0.176 HD
ATOM     31  H71 UNL     1     -13.172 -16.031  13.500  1.00  0.00     0.176 HD
ENDBRANCH  27  29
ENDBRANCH  14  26
BRANCH   7  32
HETATM   32  S1  UNL     1     -10.005 -15.089   5.737  1.00  0.00     0.289 S 
HETATM   33  O1  UNL     1     -10.647 -13.749   5.722  1.00  0.00    -0.198 OA
HETATM   34  O2  UNL     1      -8.525 -14.928   5.991  1.00  0.00    -0.198 OA
BRANCH  32  35
HETATM   35  N3  UNL     1     -10.180 -15.893   4.218  1.00  0.00    -0.322 N 
ATOM     36  H32 UNL     1      -9.487 -16.536   3.837  1.00  0.00     0.169 HD
ATOM     37  H31 UNL     1     -11.058 -15.638   3.765  1.00  0.00     0.169 HD
ENDBRANCH  32  35
ENDBRANCH   7  32
TORSDOF 7
ENDMDL
MODEL 3
REMARK VINA RESULT: -7.139714485      1.231      1.377
REMARK  7 active torsions:
REMARK  status: ('A' for Active; 'I' for Inactive)
REMARK    1  A    between atoms: C2_7  and  S1_8 
REMARK    2  A    between atoms: S1_8  and  N3_9 
REMARK    3  A    between atoms: C5_20  and  C6_21 
REMARK    4  A    between atoms: N6_22  and  N7_24 
REMARK    5  A    between atoms: N8_27  and  C7_28 
REMARK    6  A    between atoms: C9_33  and  C10_34 
REMARK    7  A    between atoms: C10_34  and  O3_35 
ROOT
HETATM    1  N1  UNL     1      -8.507 -17.577  10.019  1.00  0.00    -0.383 N 
ATOM      2  H11 UNL     1      -8.716 -18.103  10.868  1.00  0.00     0.157 HD
ATOM      3  H12 UNL     1      -7.538 -17.437   9.731  1.00  0.00     0.157 HD
HETATM    4  C1  UNL     1      -9.464 -17.088   9.306  1.00  0.00     0.132 A 
HETATM    5  N2  UNL     1      -9.188 -16.398   8.191  1.00  0.00    -0.316 N 
ATOM      6  H2  UNL     1      -8.221 -16.256   7.900  1.00  0.00     0.169 HD
HETATM    7  C2  UNL     1     -10.196 -15.894   7.460  1.00  0.00     0.227 A 
HETATM    8  N4  UNL     1     -11.468 -16.076   7.835  1.00  0.00    -0.315 N 
ATOM      9  H4  UNL     1     -12.209 -15.680   7.256  1.00  0.00     0.169 HD
HETATM   10  C3  UNL     1     -11.813 -16.762   8.947  1.00  0.00     0.144 A 
HETATM   11  C4  UNL     1     -10.770 -17.277   9.695  1.00  0.00     0.123 A 
HETATM   12  N5  UNL     1     -11.339 -17.905  10.729  1.00  0.00    -0.335 N 
ATOM     13  H5  UNL     1     -10.839 -18.394  11.471  1.00  0.00     0.168 HD
HETATM   14  C5  UNL     1     -12.657 -17.789  10.636  1.00  0.00     0.129 A 
HETATM   15  N8  UNL     1     -12.991 -17.077   9.527  1.00  0.00    -0.286 N 
ENDROOT
BRANCH  15  16
HETATM   16  C7  UNL     1     -14.260 -16.711   9.032  1.00  0.00     0.260 C 
HETATM   17  C8  UNL     1     -15.138 -15.949   9.993  1.00  0.00     0.289 C 
HETATM   18  N9  UNL     1     -16.223 -15.605   9.082  1.00  0.00    -0.043 N 
HETATM   19  C9  UNL     1     -15.479 -15.237   7.892  1.00  0.00     0.346 C 
ATOM     20  H92 UNL     1     -16.931 -16.327   8.951  1.00  0.00     0.280 HD
ATOM     21  H91 UNL     1     -16.876 -14.901   9.426  1.00  0.00     0.280 HD
HETATM   22  O4  UNL     1     -14.255 -15.858   7.935  1.00  0.00    -0.330 OA
BRANCH  19  23
HETATM   23  C10 UNL     1     -16.309 -15.644   6.693  1.00  0.00     0.225 C 
BRANCH  23  24
HETATM   24  O3  UNL     1     -17.449 -16.340   7.029  1.00  0.00    -0.397 OA
ATOM     25  H3  UNL     1     -18.231 -16.011   6.602  1.00  0.00     0.209 HD
ENDBRANCH  23  24
ENDBRANCH  19  23
ENDBRANCH  15  16
BRANCH  14  26
HETATM   26  C6  UNL     1     -13.637 -18.317  11.541  1.00  0.00     0.155 C 
HETATM   27  N6  UNL     1     -13.779 -19.589  11.659  1.00  0.00    -0.315 N 
ATOM     28  H6  UNL     1     -14.480 -19.949  12.306  1.00  0.00     0.185 HD
BRANCH  27  29
HETATM   29  N7  UNL     1     -13.008 -20.491  10.933  1.00  0.00    -0.345 N 
ATOM     30  H72 UNL     1     -13.304 -21.467  10.919  1.00  0.00     0.176 HD
ATOM     31  H71 UNL     1     -12.171 -20.205  10.427  1.00  0.00     0.176 HD
ENDBRANCH  27  29
ENDBRANCH  14  26
BRANCH   7  32
HETATM   32  S1  UNL     1      -9.891 -14.982   5.991  1.00  0.00     0.289 S 
HETATM   33  O1  UNL     1     -10.638 -13.698   6.004  1.00  0.00    -0.198 OA
HETATM   34  O2  UNL     1      -8.408 -14.695   5.957  1.00  0.00    -0.198 OA
BRANCH  32  35
HETATM   35  N3  UNL     1     -10.264 -15.918   4.588  1.00  0.00    -0.322 N 
ATOM     36  H32 UNL     1      -9.610 -16.568   4.152  1.00  0.00     0.169 HD
ATOM     37  H31 UNL     1     -11.213 -15.733   4.263  1.00  0.00     0.169 HD
ENDBRANCH  32  35
ENDBRANCH   7  32
TORSDOF 7
ENDMDL
MODEL 4
REMARK VINA RESULT: -7.019933155      2.755      5.711
REMARK  7 active torsions:
REMARK  status: ('A' for Active; 'I' for Inactive)
REMARK    1  A    between atoms: C2_7  and  S1_8 
REMARK    2  A    between atoms: S1_8  and  N3_9 
REMARK    3  A    between atoms: C5_20  and  C6_21 
REMARK    4  A    between atoms: N6_22  and  N7_24 
REMARK    5  A    between atoms: N8_27  and  C7_28 
REMARK    6  A    between atoms: C9_33  and  C10_34 
REMARK    7  A    between atoms: C10_34  and  O3_35 
ROOT
HETATM    1  N1  UNL     1     -12.868 -16.204  12.836  1.00  0.00    -0.383 N 
ATOM      2  H11 UNL     1     -11.979 -16.632  13.096  1.00  0.00     0.157 HD
ATOM      3  H12 UNL     1     -13.637 -16.176  13.504  1.00  0.00     0.157 HD
HETATM    4  C1  UNL     1     -13.023 -15.695  11.660  1.00  0.00     0.132 A 
HETATM    5  N2  UNL     1     -14.191 -15.133  11.318  1.00  0.00    -0.316 N 
ATOM      6  H2  UNL     1     -14.962 -15.104  11.985  1.00  0.00     0.169 HD
HETATM    7  C2  UNL     1     -14.337 -14.608  10.091  1.00  0.00     0.227 A 
HETATM    8  N4  UNL     1     -13.329 -14.643   9.210  1.00  0.00    -0.315 N 
ATOM      9  H4  UNL     1     -13.475 -14.235   8.286  1.00  0.00     0.169 HD
HETATM   10  C3  UNL     1     -12.128 -15.194   9.492  1.00  0.00     0.144 A 
HETATM   11  C4  UNL     1     -11.985 -15.732  10.758  1.00  0.00     0.123 A 
HETATM   12  N5  UNL     1     -10.739 -16.212  10.811  1.00  0.00    -0.335 N 
ATOM     13  H5  UNL     1     -10.318 -16.676  11.616  1.00  0.00     0.168 HD
HETATM   14  C5  UNL     1     -10.138 -15.990   9.650  1.00  0.00     0.129 A 
HETATM   15  N8  UNL     1     -10.982 -15.351   8.797  1.00  0.00    -0.286 N 
ENDROOT
BRANCH  15  16
HETATM   16  C7  UNL     1     -10.774 -14.919   7.470  1.00  0.00     0.260 C 
HETATM   17  C8  UNL     1      -9.603 -13.991   7.264  1.00  0.00     0.289 C 
HETATM   18  N9  UNL     1      -9.611 -13.939   5.807  1.00  0.00    -0.043 N 
HETATM   19  C9  UNL     1      -9.861 -15.331   5.482  1.00  0.00     0.346 C 
ATOM     20  H92 UNL     1     -10.260 -13.269   5.396  1.00  0.00     0.280 HD
ATOM     21  H91 UNL     1      -8.779 -13.531   5.379  1.00  0.00     0.280 HD
HETATM   22  O4  UNL     1     -10.492 -15.921   6.548  1.00  0.00    -0.330 OA
BRANCH  19  23
HETATM   23  C10 UNL     1     -10.687 -15.359   4.213  1.00  0.00     0.225 C 
BRANCH  23  24
HETATM   24  O3  UNL     1     -10.432 -16.456   3.419  1.00  0.00    -0.397 OA
ATOM     25  H3  UNL     1     -11.089 -16.595   2.747  1.00  0.00     0.209 HD
ENDBRANCH  23  24
ENDBRANCH  19  23
ENDBRANCH  15  16
BRANCH  14  26
HETATM   26  C6  UNL     1      -8.796 -16.346   9.289  1.00  0.00     0.155 C 
HETATM   27  N6  UNL     1      -8.581 -17.400   8.585  1.00  0.00    -0.315 N 
ATOM     28  H6  UNL     1      -7.622 -17.640   8.336  1.00  0.00     0.185 HD
BRANCH  27  29
HETATM   29  N7  UNL     1      -9.615 -18.224   8.152  1.00  0.00    -0.345 N 
ATOM     30  H72 UNL     1      -9.807 -19.069   8.689  1.00  0.00     0.176 HD
ATOM     31  H71 UNL     1     -10.172 -18.006   7.326  1.00  0.00     0.176 HD
ENDBRANCH  27  29
ENDBRANCH  14  26
BRANCH   7  32
HETATM   32  S1  UNL     1     -15.844 -13.860   9.591  1.00  0.00     0.289 S 
HETATM   33  O1  UNL     1     -16.770 -13.719  10.745  1.00  0.00    -0.198 OA
HETATM   34  O2  UNL     1     -15.495 -12.488   9.063  1.00  0.00    -0.198 OA
BRANCH  32  35
HETATM   35  N3  UNL     1     -16.576 -14.737   8.295  1.00  0.00    -0.322 N 
ATOM     36  H32 UNL     1     -17.079 -15.615   8.421  1.00  0.00     0.169 HD
ATOM     37  H31 UNL     1     -16.435 -14.262   7.403  1.00  0.00     0.169 HD
ENDBRANCH  32  35
ENDBRANCH   7  32
TORSDOF 7
ENDMDL
MODEL 5
REMARK VINA RESULT: -6.753333705      1.958      5.473
REMARK  7 active torsions:
REMARK  status: ('A' for Active; 'I' for Inactive)
REMARK    1  A    between atoms: C2_7  and  S1_8 
REMARK    2  A    between atoms: S1_8  and  N3_9 
REMARK    3  A    between atoms: C5_20  and  C6_21 
REMARK    4  A    between atoms: N6_22  and  N7_24 
REMARK    5  A    between atoms: N8_27  and  C7_28 
REMARK    6  A    between atoms: C9_33  and  C10_34 
REMARK    7  A    between atoms: C10_34  and  O3_35 
ROOT
HETATM    1  N1  UNL     1     -14.911 -17.337  11.766  1.00  0.00    -0.383 N 
ATOM      2  H11 UNL     1     -14.213 -17.662  12.436  1.00  0.00     0.157 HD
ATOM      3  H12 UNL     1     -15.904 -17.405  11.990  1.00  0.00     0.157 HD
HETATM    4  C1  UNL     1     -14.542 -16.840  10.635  1.00  0.00     0.132 A 
HETATM    5  N2  UNL     1     -15.460 -16.414   9.755  1.00  0.00    -0.316 N 
ATOM      6  H2  UNL     1     -16.454 -16.480   9.976  1.00  0.00     0.169 HD
HETATM    7  C2  UNL     1     -15.060 -15.899   8.581  1.00  0.00     0.227 A 
HETATM    8  N4  UNL     1     -13.758 -15.808   8.284  1.00  0.00    -0.315 N 
ATOM      9  H4  UNL     1     -13.490 -15.412   7.383  1.00  0.00     0.169 HD
HETATM   10  C3  UNL     1     -12.784 -16.219   9.126  1.00  0.00     0.144 A 
HETATM   11  C4  UNL     1     -13.203 -16.748  10.333  1.00  0.00     0.123 A 
HETATM   12  N5  UNL     1     -12.089 -17.081  10.991  1.00  0.00    -0.335 N 
ATOM     13  H5  UNL     1     -12.054 -17.500  11.920  1.00  0.00     0.168 HD
HETATM   14  C5  UNL     1     -11.036 -16.780  10.243  1.00  0.00     0.129 A 
HETATM   15  N8  UNL     1     -11.436 -16.236   9.063  1.00  0.00    -0.286 N 
ENDROOT
BRANCH  15  16
HETATM   16  C7  UNL     1     -10.670 -15.770   7.973  1.00  0.00     0.260 C 
HETATM   17  C8  UNL     1     -10.307 -16.809   6.942  1.00  0.00     0.289 C 
HETATM   18  N9  UNL     1      -9.720 -15.933   5.936  1.00  0.00    -0.043 N 
HETATM   19  C9  UNL     1     -10.653 -14.822   5.959  1.00  0.00     0.346 C 
ATOM     20  H92 UNL     1      -8.742 -15.688   6.086  1.00  0.00     0.280 HD
ATOM     21  H91 UNL     1      -9.566 -16.358   5.022  1.00  0.00     0.280 HD
HETATM   22  O4  UNL     1     -11.278 -14.803   7.181  1.00  0.00    -0.330 OA
BRANCH  19  23
HETATM   23  C10 UNL     1      -9.864 -13.561   5.677  1.00  0.00     0.225 C 
BRANCH  23  24
HETATM   24  O3  UNL     1      -8.542 -13.647   6.055  1.00  0.00    -0.397 OA
ATOM     25  H3  UNL     1      -7.960 -13.130   5.511  1.00  0.00     0.209 HD
ENDBRANCH  23  24
ENDBRANCH  19  23
ENDBRANCH  15  16
BRANCH  14  26
HETATM   26  C6  UNL     1      -9.654 -16.975  10.576  1.00  0.00     0.155 C 
HETATM   27  N6  UNL     1      -9.077 -18.086  10.287  1.00  0.00    -0.315 N 
ATOM     28  H6  UNL     1      -8.094 -18.210  10.530  1.00  0.00     0.185 HD
BRANCH  27  29
HETATM   29  N7  UNL     1      -9.749 -19.127   9.654  1.00  0.00    -0.345 N 
ATOM     30  H72 UNL     1     -10.574 -19.512  10.114  1.00  0.00     0.176 HD
ATOM     31  H71 UNL     1      -9.442 -19.506   8.759  1.00  0.00     0.176 HD
ENDBRANCH  27  29
ENDBRANCH  14  26
BRANCH   7  32
HETATM   32  S1  UNL     1     -16.219 -15.326   7.394  1.00  0.00     0.289 S 
HETATM   33  O1  UNL     1     -15.643 -15.381   6.026  1.00  0.00    -0.198 OA
HETATM   34  O2  UNL     1     -17.412 -16.252   7.468  1.00  0.00    -0.198 OA
BRANCH  32  35
HETATM   35  N3  UNL     1     -16.778 -13.739   7.783  1.00  0.00    -0.322 N 
ATOM     36  H32 UNL     1     -17.440 -13.217   7.210  1.00  0.00     0.169 HD
ATOM     37  H31 UNL     1     -16.359 -13.403   8.651  1.00  0.00     0.169 HD
ENDBRANCH  32  35
ENDBRANCH   7  32
TORSDOF 7
ENDMDL
