MODEL 1
REMARK VINA RESULT: -9.306881075      0.000      0.000
REMARK  9 active torsions:
REMARK  status: ('A' for Active; 'I' for Inactive)
REMARK    1  A    between atoms: N1_2  and  C2_4 
REMARK    2  A    between atoms: C5_10  and  N4_11 
REMARK    3  A    between atoms: N4_11  and  C6_13 
REMARK    4  A    between atoms: C6_13  and  C7_14 
REMARK    5  A    between atoms: C7_14  and  N5_15 
REMARK    6  A    between atoms: N5_15  and  C8_17 
REMARK    7  A    between atoms: C9_18  and  C10_19 
REMARK       I    between atoms: C10_19  and  N6_21 
REMARK    8  A    between atoms: N6_21  and  N7_23 
REMARK    9  A    between atoms: C11_26  and  O2_27 
ROOT
HETATM    1  C8  UNL     1     -17.040 -14.326   7.262  1.00  0.00     0.101 A 
HETATM    2  C9  UNL     1     -17.804 -13.356   7.978  1.00  0.00     0.116 A 
HETATM    3  C11 UNL     1     -18.962 -12.885   7.454  1.00  0.00     0.175 A 
HETATM    4  N8  UNL     1     -19.420 -13.312   6.258  1.00  0.00    -0.255 N 
ATOM      5  H8  UNL     1     -20.294 -12.947   5.879  1.00  0.00     0.191 HD
HETATM    6  N9  UNL     1     -18.717 -14.215   5.581  1.00  0.00    -0.158 N 
HETATM    7  N10 UNL     1     -18.961 -14.783   4.395  1.00  0.00    -0.205 N 
ATOM      8  H10 UNL     1     -19.768 -14.597   3.800  1.00  0.00     0.212 HD
HETATM    9  N11 UNL     1     -17.987 -15.618   4.129  1.00  0.00    -0.225 N 
ATOM     10  H11 UNL     1     -17.911 -16.191   3.288  1.00  0.00     0.210 HD
HETATM   11  N12 UNL     1     -17.129 -15.598   5.112  1.00  0.00    -0.265 N 
ATOM     12  H12 UNL     1     -16.274 -16.150   5.172  1.00  0.00     0.190 HD
HETATM   13  C12 UNL     1     -17.572 -14.719   6.038  1.00  0.00     0.190 A 
ENDROOT
BRANCH   1  14
HETATM   14  N5  UNL     1     -15.973 -14.764   7.738  1.00  0.00    -0.364 N 
ATOM     15  H5  UNL     1     -15.216 -14.081   7.776  1.00  0.00     0.165 HD
BRANCH  14  16
HETATM   16  C7  UNL     1     -15.634 -16.023   8.226  1.00  0.00     0.081 C 
BRANCH  16  17
HETATM   17  C6  UNL     1     -14.432 -16.035   9.157  1.00  0.00     0.165 C 
BRANCH  17  18
HETATM   18  N4  UNL     1     -13.293 -15.402   8.570  1.00  0.00    -0.371 N 
ATOM     19  H4  UNL     1     -13.336 -14.390   8.456  1.00  0.00     0.161 HD
BRANCH  18  20
HETATM   20  C5  UNL     1     -12.222 -15.985   8.172  1.00  0.00     0.120 A 
HETATM   21  C4  UNL     1     -11.774 -17.049   8.947  1.00  0.00     0.094 A 
HETATM   22  C3  UNL     1     -10.634 -17.728   8.589  1.00  0.00     0.135 A 
HETATM   23  N2  UNL     1      -9.995 -17.323   7.484  1.00  0.00    -0.179 N 
HETATM   24  N3  UNL     1     -10.158 -18.820   9.368  1.00  0.00    -0.082 NA
HETATM   25  C2  UNL     1     -10.392 -16.313   6.719  1.00  0.00     0.680 A 
ATOM     26  H2  UNL     1      -9.149 -17.824   7.213  1.00  0.00     0.185 HD
HETATM   27  N13 UNL     1     -11.523 -15.647   7.083  1.00  0.00    -0.177 N 
ATOM     28  H13 UNL     1     -11.846 -14.869   6.508  1.00  0.00     0.185 HD
BRANCH  25  29
HETATM   29  N1  UNL     1      -9.799 -15.901   5.653  1.00  0.00    -0.230 N 
HETATM   30  C1  UNL     1     -10.659 -15.225   4.670  1.00  0.00     0.165 C 
ATOM     31  H1  UNL     1      -8.800 -16.033   5.501  1.00  0.00     0.177 HD
ENDBRANCH  25  29
ENDBRANCH  18  20
ENDBRANCH  17  18
ENDBRANCH  16  17
ENDBRANCH  14  16
ENDBRANCH   1  14
BRANCH   2  32
HETATM   32  C10 UNL     1     -17.249 -12.954   9.242  1.00  0.00     0.276 C 
HETATM   33  O1  UNL     1     -17.888 -13.232  10.327  1.00  0.00    -0.266 OA
HETATM   34  N6  UNL     1     -16.047 -12.268   9.448  1.00  0.00    -0.272 N 
ATOM     35  H6  UNL     1     -15.460 -11.998   8.659  1.00  0.00     0.189 HD
BRANCH  34  36
HETATM   36  N7  UNL     1     -15.657 -11.952  10.790  1.00  0.00    -0.342 N 
ATOM     37  H72 UNL     1     -16.174 -12.351  11.574  1.00  0.00     0.176 HD
ATOM     38  H71 UNL     1     -14.863 -11.328  10.935  1.00  0.00     0.176 HD
ENDBRANCH  34  36
ENDBRANCH   2  32
BRANCH   3  39
HETATM   39  O2  UNL     1     -19.721 -11.943   8.129  1.00  0.00    -0.344 OA
ATOM     40  H2  UNL     1     -19.507 -11.019   8.086  1.00  0.00     0.219 HD
ENDBRANCH   3  39
TORSDOF 9
ENDMDL
MODEL 2
REMARK VINA RESULT: -9.222919284      1.468      1.943
REMARK  9 active torsions:
REMARK  status: ('A' for Active; 'I' for Inactive)
REMARK    1  A    between atoms: N1_2  and  C2_4 
REMARK    2  A    between atoms: C5_10  and  N4_11 
REMARK    3  A    between atoms: N4_11  and  C6_13 
REMARK    4  A    between atoms: C6_13  and  C7_14 
REMARK    5  A    between atoms: C7_14  and  N5_15 
REMARK    6  A    between atoms: N5_15  and  C8_17 
REMARK    7  A    between atoms: C9_18  and  C10_19 
REMARK       I    between atoms: C10_19  and  N6_21 
REMARK    8  A    between atoms: N6_21  and  N7_23 
REMARK    9  A    between atoms: C11_26  and  O2_27 
ROOT
HETATM    1  C8  UNL     1     -16.995 -14.307   7.284  1.00  0.00     0.101 A 
HETATM    2  C9  UNL     1     -17.767 -13.350   8.008  1.00  0.00     0.116 A 
HETATM    3  C11 UNL     1     -18.938 -12.897   7.496  1.00  0.00     0.175 A 
HETATM    4  N8  UNL     1     -19.400 -13.330   6.304  1.00  0.00    -0.255 N 
ATOM      5  H8  UNL     1     -20.284 -12.979   5.935  1.00  0.00     0.191 HD
HETATM    6  N9  UNL     1     -18.690 -14.221   5.619  1.00  0.00    -0.158 N 
HETATM    7  N10 UNL     1     -18.936 -14.792   4.436  1.00  0.00    -0.205 N 
ATOM      8  H10 UNL     1     -19.752 -14.618   3.848  1.00  0.00     0.212 HD
HETATM    9  N11 UNL     1     -17.951 -15.612   4.159  1.00  0.00    -0.225 N 
ATOM     10  H11 UNL     1     -17.875 -16.183   3.317  1.00  0.00     0.210 HD
HETATM   11  N12 UNL     1     -17.085 -15.579   5.134  1.00  0.00    -0.265 N 
ATOM     12  H12 UNL     1     -16.220 -16.117   5.185  1.00  0.00     0.190 HD
HETATM   13  C12 UNL     1     -17.532 -14.708   6.065  1.00  0.00     0.190 A 
ENDROOT
BRANCH   1  14
HETATM   14  N5  UNL     1     -15.916 -14.728   7.749  1.00  0.00    -0.364 N 
ATOM     15  H5  UNL     1     -15.148 -14.059   7.705  1.00  0.00     0.165 HD
BRANCH  14  16
HETATM   16  C7  UNL     1     -15.578 -15.953   8.318  1.00  0.00     0.081 C 
BRANCH  16  17
HETATM   17  C6  UNL     1     -14.114 -16.083   8.707  1.00  0.00     0.165 C 
BRANCH  17  18
HETATM   18  N4  UNL     1     -13.893 -17.172   9.607  1.00  0.00    -0.371 N 
ATOM     19  H4  UNL     1     -14.641 -17.381  10.269  1.00  0.00     0.161 HD
BRANCH  18  20
HETATM   20  C5  UNL     1     -12.847 -17.911   9.662  1.00  0.00     0.120 A 
HETATM   21  C4  UNL     1     -12.909 -19.006  10.518  1.00  0.00     0.094 A 
HETATM   22  C3  UNL     1     -11.830 -19.849  10.635  1.00  0.00     0.135 A 
HETATM   23  N2  UNL     1     -10.746 -19.569   9.902  1.00  0.00    -0.179 N 
HETATM   24  N3  UNL     1     -11.873 -20.974  11.504  1.00  0.00    -0.082 NA
HETATM   25  C2  UNL     1     -10.648 -18.534   9.075  1.00  0.00     0.680 A 
ATOM     26  H2  UNL     1      -9.941 -20.191   9.984  1.00  0.00     0.185 HD
HETATM   27  N13 UNL     1     -11.723 -17.705   8.966  1.00  0.00    -0.177 N 
ATOM     28  H13 UNL     1     -11.670 -16.906   8.335  1.00  0.00     0.185 HD
BRANCH  25  29
HETATM   29  N1  UNL     1      -9.620 -18.240   8.358  1.00  0.00    -0.230 N 
HETATM   30  C1  UNL     1      -9.231 -16.822   8.359  1.00  0.00     0.165 C 
ATOM     31  H1  UNL     1      -9.109 -18.943   7.825  1.00  0.00     0.177 HD
ENDBRANCH  25  29
ENDBRANCH  18  20
ENDBRANCH  17  18
ENDBRANCH  16  17
ENDBRANCH  14  16
ENDBRANCH   1  14
BRANCH   2  32
HETATM   32  C10 UNL     1     -17.207 -12.940   9.267  1.00  0.00     0.276 C 
HETATM   33  O1  UNL     1     -17.848 -13.197  10.356  1.00  0.00    -0.266 OA
HETATM   34  N6  UNL     1     -15.995 -12.267   9.464  1.00  0.00    -0.272 N 
ATOM     35  H6  UNL     1     -15.405 -12.015   8.672  1.00  0.00     0.189 HD
BRANCH  34  36
HETATM   36  N7  UNL     1     -15.600 -11.940  10.803  1.00  0.00    -0.342 N 
ATOM     37  H72 UNL     1     -14.754 -12.354  11.195  1.00  0.00     0.176 HD
ATOM     38  H71 UNL     1     -16.179 -11.294  11.340  1.00  0.00     0.176 HD
ENDBRANCH  34  36
ENDBRANCH   2  32
BRANCH   3  39
HETATM   39  O2  UNL     1     -19.705 -11.968   8.180  1.00  0.00    -0.344 OA
ATOM     40  H2  UNL     1     -20.129 -12.191   9.000  1.00  0.00     0.219 HD
ENDBRANCH   3  39
TORSDOF 9
ENDMDL
MODEL 3
REMARK VINA RESULT: -9.178759419      1.228      2.434
REMARK  9 active torsions:
REMARK  status: ('A' for Active; 'I' for Inactive)
REMARK    1  A    between atoms: N1_2  and  C2_4 
REMARK    2  A    between atoms: C5_10  and  N4_11 
REMARK    3  A    between atoms: N4_11  and  C6_13 
REMARK    4  A    between atoms: C6_13  and  C7_14 
REMARK    5  A    between atoms: C7_14  and  N5_15 
REMARK    6  A    between atoms: N5_15  and  C8_17 
REMARK    7  A    between atoms: C9_18  and  C10_19 
REMARK       I    between atoms: C10_19  and  N6_21 
REMARK    8  A    between atoms: N6_21  and  N7_23 
REMARK    9  A    between atoms: C11_26  and  O2_27 
ROOT
HETATM    1  C8  UNL     1     -16.783 -14.460   7.166  1.00  0.00     0.101 A 
HETATM    2  C9  UNL     1     -17.512 -13.558   7.996  1.00  0.00     0.116 A 
HETATM    3  C11 UNL     1     -18.730 -13.109   7.603  1.00  0.00     0.175 A 
HETATM    4  N8  UNL     1     -19.279 -13.496   6.432  1.00  0.00    -0.255 N 
ATOM      5  H8  UNL     1     -20.197 -13.149   6.152  1.00  0.00     0.191 HD
HETATM    6  N9  UNL     1     -18.609 -14.336   5.649  1.00  0.00    -0.158 N 
HETATM    7  N10 UNL     1     -18.939 -14.855   4.463  1.00  0.00    -0.205 N 
ATOM      8  H10 UNL     1     -19.803 -14.674   3.952  1.00  0.00     0.212 HD
HETATM    9  N11 UNL     1     -17.964 -15.637   4.067  1.00  0.00    -0.225 N 
ATOM     10  H11 UNL     1     -17.945 -16.165   3.195  1.00  0.00     0.210 HD
HETATM   11  N12 UNL     1     -17.022 -15.630   4.970  1.00  0.00    -0.265 N 
ATOM     12  H12 UNL     1     -16.145 -16.149   4.925  1.00  0.00     0.190 HD
HETATM   13  C12 UNL     1     -17.409 -14.815   5.976  1.00  0.00     0.190 A 
ENDROOT
BRANCH   1  14
HETATM   14  N5  UNL     1     -15.661 -14.877   7.522  1.00  0.00    -0.364 N 
ATOM     15  H5  UNL     1     -14.891 -14.238   7.321  1.00  0.00     0.165 HD
BRANCH  14  16
HETATM   16  C7  UNL     1     -15.277 -16.061   8.144  1.00  0.00     0.081 C 
BRANCH  16  17
HETATM   17  C6  UNL     1     -14.028 -15.945   9.003  1.00  0.00     0.165 C 
BRANCH  17  18
HETATM   18  N4  UNL     1     -13.467 -17.223   9.309  1.00  0.00    -0.371 N 
ATOM     19  H4  UNL     1     -14.102 -17.925   9.690  1.00  0.00     0.161 HD
BRANCH  18  20
HETATM   20  C5  UNL     1     -12.244 -17.573   9.152  1.00  0.00     0.120 A 
HETATM   21  C4  UNL     1     -11.434 -16.688   8.449  1.00  0.00     0.094 A 
HETATM   22  C3  UNL     1     -10.109 -16.987   8.237  1.00  0.00     0.135 A 
HETATM   23  N2  UNL     1      -9.652 -18.145   8.730  1.00  0.00    -0.179 N 
HETATM   24  N3  UNL     1      -9.264 -16.095   7.520  1.00  0.00    -0.082 NA
HETATM   25  C2  UNL     1     -10.393 -19.015   9.405  1.00  0.00     0.680 A 
ATOM     26  H2  UNL     1      -8.669 -18.373   8.576  1.00  0.00     0.185 HD
HETATM   27  N13 UNL     1     -11.704 -18.708   9.610  1.00  0.00    -0.177 N 
ATOM     28  H13 UNL     1     -12.290 -19.362  10.128  1.00  0.00     0.185 HD
BRANCH  25  29
HETATM   29  N1  UNL     1      -9.981 -20.134   9.890  1.00  0.00    -0.230 N 
HETATM   30  C1  UNL     1      -9.410 -20.068  11.244  1.00  0.00     0.165 C 
ATOM     31  H1  UNL     1     -10.048 -21.009   9.370  1.00  0.00     0.177 HD
ENDBRANCH  25  29
ENDBRANCH  18  20
ENDBRANCH  17  18
ENDBRANCH  16  17
ENDBRANCH  14  16
ENDBRANCH   1  14
BRANCH   2  32
HETATM   32  C10 UNL     1     -16.860 -13.194   9.225  1.00  0.00     0.276 C 
HETATM   33  O1  UNL     1     -17.033 -13.929  10.271  1.00  0.00    -0.266 OA
HETATM   34  N6  UNL     1     -16.022 -12.093   9.434  1.00  0.00    -0.272 N 
ATOM     35  H6  UNL     1     -15.815 -11.445   8.673  1.00  0.00     0.189 HD
BRANCH  34  36
HETATM   36  N7  UNL     1     -15.460 -11.894  10.737  1.00  0.00    -0.342 N 
ATOM     37  H72 UNL     1     -15.377 -12.684  11.378  1.00  0.00     0.176 HD
ATOM     38  H71 UNL     1     -15.150 -10.958  10.999  1.00  0.00     0.176 HD
ENDBRANCH  34  36
ENDBRANCH   2  32
BRANCH   3  39
HETATM   39  O2  UNL     1     -19.458 -12.232   8.391  1.00  0.00    -0.344 OA
ATOM     40  H2  UNL     1     -20.259 -11.835   8.071  1.00  0.00     0.219 HD
ENDBRANCH   3  39
TORSDOF 9
ENDMDL
MODEL 4
REMARK VINA RESULT: -9.086241078      1.818      2.773
REMARK  9 active torsions:
REMARK  status: ('A' for Active; 'I' for Inactive)
REMARK    1  A    between atoms: N1_2  and  C2_4 
REMARK    2  A    between atoms: C5_10  and  N4_11 
REMARK    3  A    between atoms: N4_11  and  C6_13 
REMARK    4  A    between atoms: C6_13  and  C7_14 
REMARK    5  A    between atoms: C7_14  and  N5_15 
REMARK    6  A    between atoms: N5_15  and  C8_17 
REMARK    7  A    between atoms: C9_18  and  C10_19 
REMARK       I    between atoms: C10_19  and  N6_21 
REMARK    8  A    between atoms: N6_21  and  N7_23 
REMARK    9  A    between atoms: C11_26  and  O2_27 
ROOT
HETATM    1  C8  UNL     1     -16.960 -14.246   7.218  1.00  0.00     0.101 A 
HETATM    2  C9  UNL     1     -17.811 -13.396   7.985  1.00  0.00     0.116 A 
HETATM    3  C11 UNL     1     -19.045 -13.077   7.523  1.00  0.00     0.175 A 
HETATM    4  N8  UNL     1     -19.499 -13.548   6.343  1.00  0.00    -0.255 N 
ATOM      5  H8  UNL     1     -20.431 -13.298   6.011  1.00  0.00     0.191 HD
HETATM    6  N9  UNL     1     -18.716 -14.341   5.617  1.00  0.00    -0.158 N 
HETATM    7  N10 UNL     1     -18.939 -14.922   4.435  1.00  0.00    -0.205 N 
ATOM      8  H10 UNL     1     -19.791 -14.839   3.880  1.00  0.00     0.212 HD
HETATM    9  N11 UNL     1     -17.876 -15.617   4.109  1.00  0.00    -0.225 N 
ATOM     10  H11 UNL     1     -17.765 -16.165   3.255  1.00  0.00     0.210 HD
HETATM   11  N12 UNL     1     -16.983 -15.494   5.052  1.00  0.00    -0.265 N 
ATOM     12  H12 UNL     1     -16.059 -15.927   5.063  1.00  0.00     0.190 HD
HETATM   13  C12 UNL     1     -17.493 -14.693   6.013  1.00  0.00     0.190 A 
ENDROOT
BRANCH   1  14
HETATM   14  N5  UNL     1     -15.822 -14.543   7.637  1.00  0.00    -0.364 N 
ATOM     15  H5  UNL     1     -15.162 -13.766   7.649  1.00  0.00     0.165 HD
BRANCH  14  16
HETATM   16  C7  UNL     1     -15.297 -15.751   8.088  1.00  0.00     0.081 C 
BRANCH  16  17
HETATM   17  C6  UNL     1     -14.050 -15.612   8.948  1.00  0.00     0.165 C 
BRANCH  17  18
HETATM   18  N4  UNL     1     -13.057 -16.584   8.611  1.00  0.00    -0.371 N 
ATOM     19  H4  UNL     1     -12.593 -16.473   7.710  1.00  0.00     0.161 HD
BRANCH  18  20
HETATM   20  C5  UNL     1     -12.694 -17.579   9.332  1.00  0.00     0.120 A 
HETATM   21  C4  UNL     1     -13.581 -17.979  10.325  1.00  0.00     0.094 A 
HETATM   22  C3  UNL     1     -13.268 -19.039  11.142  1.00  0.00     0.135 A 
HETATM   23  N2  UNL     1     -12.096 -19.651  10.936  1.00  0.00    -0.179 N 
HETATM   24  N3  UNL     1     -14.163 -19.464  12.164  1.00  0.00    -0.082 NA
HETATM   25  C2  UNL     1     -11.223 -19.300  10.000  1.00  0.00     0.680 A 
ATOM     26  H2  UNL     1     -11.858 -20.439  11.539  1.00  0.00     0.185 HD
HETATM   27  N13 UNL     1     -11.543 -18.248   9.196  1.00  0.00    -0.177 N 
ATOM     28  H13 UNL     1     -10.887 -17.962   8.469  1.00  0.00     0.185 HD
BRANCH  25  29
HETATM   29  N1  UNL     1     -10.089 -19.867   9.779  1.00  0.00    -0.230 N 
HETATM   30  C1  UNL     1      -9.523 -20.618  10.910  1.00  0.00     0.165 C 
ATOM     31  H1  UNL     1      -9.614 -19.801   8.879  1.00  0.00     0.177 HD
ENDBRANCH  25  29
ENDBRANCH  18  20
ENDBRANCH  17  18
ENDBRANCH  16  17
ENDBRANCH  14  16
ENDBRANCH   1  14
BRANCH   2  32
HETATM   32  C10 UNL     1     -17.255 -12.937   9.229  1.00  0.00     0.276 C 
HETATM   33  O1  UNL     1     -17.877 -13.194  10.330  1.00  0.00    -0.266 OA
HETATM   34  N6  UNL     1     -16.067 -12.216   9.400  1.00  0.00    -0.272 N 
ATOM     35  H6  UNL     1     -15.494 -11.960   8.597  1.00  0.00     0.189 HD
BRANCH  34  36
HETATM   36  N7  UNL     1     -15.673 -11.846  10.727  1.00  0.00    -0.342 N 
ATOM     37  H72 UNL     1     -14.856 -12.285  11.153  1.00  0.00     0.176 HD
ATOM     38  H71 UNL     1     -16.222 -11.143  11.223  1.00  0.00     0.176 HD
ENDBRANCH  34  36
ENDBRANCH   2  32
BRANCH   3  39
HETATM   39  O2  UNL     1     -19.890 -12.253   8.250  1.00  0.00    -0.344 OA
ATOM     40  H2  UNL     1     -20.570 -12.615   8.804  1.00  0.00     0.219 HD
ENDBRANCH   3  39
TORSDOF 9
ENDMDL
MODEL 5
REMARK VINA RESULT: -9.036849621      0.936      2.121
REMARK  9 active torsions:
REMARK  status: ('A' for Active; 'I' for Inactive)
REMARK    1  A    between atoms: N1_2  and  C2_4 
REMARK    2  A    between atoms: C5_10  and  N4_11 
REMARK    3  A    between atoms: N4_11  and  C6_13 
REMARK    4  A    between atoms: C6_13  and  C7_14 
REMARK    5  A    between atoms: C7_14  and  N5_15 
REMARK    6  A    between atoms: N5_15  and  C8_17 
REMARK    7  A    between atoms: C9_18  and  C10_19 
REMARK       I    between atoms: C10_19  and  N6_21 
REMARK    8  A    between atoms: N6_21  and  N7_23 
REMARK    9  A    between atoms: C11_26  and  O2_27 
ROOT
HETATM    1  C8  UNL     1     -16.860 -14.313   7.595  1.00  0.00     0.101 A 
HETATM    2  C9  UNL     1     -17.383 -13.286   8.435  1.00  0.00     0.116 A 
HETATM    3  C11 UNL     1     -18.516 -12.631   8.080  1.00  0.00     0.175 A 
HETATM    4  N8  UNL     1     -19.172 -12.928   6.938  1.00  0.00    -0.255 N 
ATOM      5  H8  UNL     1     -20.024 -12.425   6.687  1.00  0.00     0.191 HD
HETATM    6  N9  UNL     1     -18.694 -13.882   6.146  1.00  0.00    -0.158 N 
HETATM    7  N10 UNL     1     -19.160 -14.348   4.983  1.00  0.00    -0.205 N 
ATOM      8  H10 UNL     1     -19.998 -14.021   4.502  1.00  0.00     0.212 HD
HETATM    9  N11 UNL     1     -18.356 -15.296   4.565  1.00  0.00    -0.225 N 
ATOM     10  H11 UNL     1     -18.466 -15.828   3.702  1.00  0.00     0.210 HD
HETATM   11  N12 UNL     1     -17.392 -15.446   5.431  1.00  0.00    -0.265 N 
ATOM     12  H12 UNL     1     -16.624 -16.114   5.362  1.00  0.00     0.190 HD
HETATM   13  C12 UNL     1     -17.587 -14.565   6.436  1.00  0.00     0.190 A 
ENDROOT
BRANCH   1  14
HETATM   14  N5  UNL     1     -15.817 -14.920   7.916  1.00  0.00    -0.364 N 
ATOM     15  H5  UNL     1     -14.964 -14.367   7.828  1.00  0.00     0.165 HD
BRANCH  14  16
HETATM   16  C7  UNL     1     -15.614 -16.220   8.371  1.00  0.00     0.081 C 
BRANCH  16  17
HETATM   17  C6  UNL     1     -14.240 -16.470   8.971  1.00  0.00     0.165 C 
BRANCH  17  18
HETATM   18  N4  UNL     1     -13.209 -15.791   8.250  1.00  0.00    -0.371 N 
ATOM     19  H4  UNL     1     -13.453 -14.892   7.835  1.00  0.00     0.161 HD
BRANCH  18  20
HETATM   20  C5  UNL     1     -12.008 -16.203   8.074  1.00  0.00     0.120 A 
HETATM   21  C4  UNL     1     -11.215 -15.450   7.215  1.00  0.00     0.094 A 
HETATM   22  C3  UNL     1      -9.915 -15.823   6.974  1.00  0.00     0.135 A 
HETATM   23  N2  UNL     1      -9.463 -16.921   7.592  1.00  0.00    -0.179 N 
HETATM   24  N3  UNL     1      -9.088 -15.066   6.098  1.00  0.00    -0.082 NA
HETATM   25  C2  UNL     1     -10.188 -17.666   8.418  1.00  0.00     0.680 A 
ATOM     26  H2  UNL     1      -8.498 -17.203   7.417  1.00  0.00     0.185 HD
HETATM   27  N13 UNL     1     -11.475 -17.287   8.651  1.00  0.00    -0.177 N 
ATOM     28  H13 UNL     1     -12.049 -17.844   9.284  1.00  0.00     0.185 HD
BRANCH  25  29
HETATM   29  N1  UNL     1      -9.782 -18.725   9.027  1.00  0.00    -0.230 N 
HETATM   30  C1  UNL     1     -10.785 -19.402   9.861  1.00  0.00     0.165 C 
ATOM     31  H1  UNL     1      -8.827 -19.072   8.936  1.00  0.00     0.177 HD
ENDBRANCH  25  29
ENDBRANCH  18  20
ENDBRANCH  17  18
ENDBRANCH  16  17
ENDBRANCH  14  16
ENDBRANCH   1  14
BRANCH   2  32
HETATM   32  C10 UNL     1     -16.627 -13.032   9.631  1.00  0.00     0.276 C 
HETATM   33  O1  UNL     1     -16.698 -13.867  10.612  1.00  0.00    -0.266 OA
HETATM   34  N6  UNL     1     -15.784 -11.941   9.873  1.00  0.00    -0.272 N 
ATOM     35  H6  UNL     1     -15.652 -11.218   9.165  1.00  0.00     0.189 HD
BRANCH  34  36
HETATM   36  N7  UNL     1     -15.110 -11.858  11.135  1.00  0.00    -0.342 N 
ATOM     37  H72 UNL     1     -14.823 -12.713  11.611  1.00  0.00     0.176 HD
ATOM     38  H71 UNL     1     -14.930 -10.937  11.534  1.00  0.00     0.176 HD
ENDBRANCH  34  36
ENDBRANCH   2  32
BRANCH   3  39
HETATM   39  O2  UNL     1     -19.043 -11.630   8.879  1.00  0.00    -0.344 OA
ATOM     40  H2  UNL     1     -19.864 -11.753   9.341  1.00  0.00     0.219 HD
ENDBRANCH   3  39
TORSDOF 9
ENDMDL
