MODEL 1
REMARK VINA RESULT: -7.209889477      0.000      0.000
REMARK  10 active torsions:
REMARK  status: ('A' for Active; 'I' for Inactive)
REMARK    1  A    between atoms: N1_3  and  N2_5 
REMARK       I    between atoms: N2_5  and  C3_7 
REMARK    2  A    between atoms: C3_7  and  C4_9 
REMARK    3  A    between atoms: C5_10  and  S1_11 
REMARK    4  A    between atoms: C7_14  and  O3_15 
REMARK    5  A    between atoms: C8_18  and  O5_19 
REMARK    6  A    between atoms: C8_18  and  C9_21 
REMARK    7  A    between atoms: C9_21  and  O6_22 
REMARK    8  A    between atoms: C9_21  and  C10_24 
REMARK    9  A    between atoms: C10_24  and  O7_25 
REMARK   10  A    between atoms: C11_30  and  N4_31 
ROOT
HETATM    1  C4  UNL     1     -11.730 -20.497  16.080  1.00  0.00     0.121 A 
HETATM    2  C5  UNL     1     -11.266 -20.818  14.817  1.00  0.00     0.157 A 
HETATM    3  O8  UNL     1     -10.883 -22.061  14.862  1.00  0.00    -0.228 OA
HETATM    4  N3  UNL     1     -11.058 -22.569  16.032  1.00  0.00    -0.243 N 
ATOM      5  H3  UNL     1     -10.834 -23.524  16.310  1.00  0.00     0.196 HD
HETATM    6  C11 UNL     1     -11.588 -21.621  16.827  1.00  0.00     0.138 A 
ENDROOT
BRANCH   2   7
HETATM    7  S1  UNL     1     -11.189 -19.797  13.418  1.00  0.00    -0.020 SA
HETATM    8  C6  UNL     1     -12.777 -19.406  12.783  1.00  0.00     0.242 C 
HETATM    9  O2  UNL     1     -13.757 -18.932  13.268  1.00  0.00    -0.280 OA
HETATM   10  C7  UNL     1     -12.652 -19.829  11.367  1.00  0.00     0.344 C 
HETATM   11  O4  UNL     1     -11.818 -20.866  11.222  1.00  0.00    -0.306 OA
HETATM   12  C8  UNL     1     -10.686 -20.755  11.977  1.00  0.00     0.250 C 
BRANCH  10  13
HETATM   13  O3  UNL     1     -12.377 -18.723  10.564  1.00  0.00    -0.364 OA
ATOM     14  H3  UNL     1     -11.993 -19.007   9.743  1.00  0.00     0.213 HD
ENDBRANCH  10  13
BRANCH  12  15
HETATM   15  O5  UNL     1     -10.334 -22.037  12.391  1.00  0.00    -0.355 OA
ATOM     16  H5  UNL     1      -9.793 -22.438  11.721  1.00  0.00     0.214 HD
ENDBRANCH  12  15
BRANCH  12  17
HETATM   17  C9  UNL     1      -9.593 -20.052  11.239  1.00  0.00     0.215 C 
BRANCH  17  18
HETATM   18  O6  UNL     1      -8.640 -20.956  10.844  1.00  0.00    -0.387 OA
ATOM     19  H6  UNL     1      -8.484 -20.875   9.910  1.00  0.00     0.210 HD
ENDBRANCH  17  18
BRANCH  17  20
HETATM   20  C10 UNL     1      -8.966 -18.943  12.044  1.00  0.00     0.202 C 
BRANCH  20  21
HETATM   21  O7  UNL     1      -8.024 -18.293  11.252  1.00  0.00    -0.398 OA
ATOM     22  H7  UNL     1      -7.459 -17.775  11.813  1.00  0.00     0.209 HD
ENDBRANCH  20  21
ENDBRANCH  17  20
ENDBRANCH  12  17
ENDBRANCH   2   7
BRANCH   1  23
HETATM   23  C3  UNL     1     -12.243 -19.204  16.434  1.00  0.00     0.277 C 
HETATM   24  N2  UNL     1     -13.618 -18.917  16.432  1.00  0.00    -0.266 N 
ATOM     25  H2  UNL     1     -14.297 -19.634  16.174  1.00  0.00     0.190 HD
HETATM   26  O1  UNL     1     -11.445 -18.287  16.758  1.00  0.00    -0.266 OA
BRANCH  24  27
HETATM   27  N1  UNL     1     -14.050 -17.605  16.797  1.00  0.00    -0.313 N 
HETATM   28  C2  UNL     1     -14.326 -16.749  15.883  1.00  0.00     0.076 C 
HETATM   29  C1  UNL     1     -14.775 -15.383  16.189  1.00  0.00     0.056 C 
ATOM     30  H1  UNL     1     -14.139 -17.351  17.781  1.00  0.00     0.185 HD
ENDBRANCH  24  27
ENDBRANCH   1  23
BRANCH   6  31
HETATM   31  N4  UNL     1     -11.877 -21.817  18.052  1.00  0.00    -0.383 N 
ATOM     32  H42 UNL     1     -11.801 -21.093  18.768  1.00  0.00     0.157 HD
ATOM     33  H41 UNL     1     -12.211 -22.665  18.509  1.00  0.00     0.157 HD
ENDBRANCH   6  31
TORSDOF 10
ENDMDL
MODEL 2
REMARK VINA RESULT: -7.089716458      4.563      6.692
REMARK  10 active torsions:
REMARK  status: ('A' for Active; 'I' for Inactive)
REMARK    1  A    between atoms: N1_3  and  N2_5 
REMARK       I    between atoms: N2_5  and  C3_7 
REMARK    2  A    between atoms: C3_7  and  C4_9 
REMARK    3  A    between atoms: C5_10  and  S1_11 
REMARK    4  A    between atoms: C7_14  and  O3_15 
REMARK    5  A    between atoms: C8_18  and  O5_19 
REMARK    6  A    between atoms: C8_18  and  C9_21 
REMARK    7  A    between atoms: C9_21  and  O6_22 
REMARK    8  A    between atoms: C9_21  and  C10_24 
REMARK    9  A    between atoms: C10_24  and  O7_25 
REMARK   10  A    between atoms: C11_30  and  N4_31 
ROOT
HETATM    1  C4  UNL     1      -9.595 -17.060   9.627  1.00  0.00     0.121 A 
HETATM    2  C5  UNL     1      -9.953 -18.342  10.006  1.00  0.00     0.157 A 
HETATM    3  O8  UNL     1     -10.049 -19.044   8.914  1.00  0.00    -0.228 OA
HETATM    4  N3  UNL     1      -9.787 -18.335   7.871  1.00  0.00    -0.243 N 
ATOM      5  H3  UNL     1      -9.797 -18.665   6.906  1.00  0.00     0.196 HD
HETATM    6  C11 UNL     1      -9.497 -17.085   8.274  1.00  0.00     0.138 A 
ENDROOT
BRANCH   2   7
HETATM    7  S1  UNL     1     -10.231 -18.941  11.609  1.00  0.00    -0.020 SA
HETATM    8  C6  UNL     1      -9.591 -20.558  11.842  1.00  0.00     0.242 C 
HETATM    9  O2  UNL     1      -8.514 -21.042  11.679  1.00  0.00    -0.280 OA
HETATM   10  C7  UNL     1     -10.783 -21.290  12.335  1.00  0.00     0.344 C 
HETATM   11  O4  UNL     1     -11.922 -20.800  11.826  1.00  0.00    -0.306 OA
HETATM   12  C8  UNL     1     -11.953 -19.436  11.796  1.00  0.00     0.250 C 
BRANCH  10  13
HETATM   13  O3  UNL     1     -10.741 -21.385  13.724  1.00  0.00    -0.364 OA
ATOM     14  H3  UNL     1     -11.423 -21.972  14.029  1.00  0.00     0.213 HD
ENDBRANCH  10  13
BRANCH  12  15
HETATM   15  O5  UNL     1     -12.656 -19.060  10.654  1.00  0.00    -0.355 OA
ATOM     16  H5  UNL     1     -13.129 -18.257  10.836  1.00  0.00     0.214 HD
ENDBRANCH  12  15
BRANCH  12  17
HETATM   17  C9  UNL     1     -12.525 -18.867  13.055  1.00  0.00     0.215 C 
BRANCH  17  18
HETATM   18  O6  UNL     1     -13.315 -19.803  13.673  1.00  0.00    -0.387 OA
ATOM     19  H6  UNL     1     -13.384 -19.607  14.600  1.00  0.00     0.210 HD
ENDBRANCH  17  18
BRANCH  17  20
HETATM   20  C10 UNL     1     -13.300 -17.596  12.820  1.00  0.00     0.202 C 
BRANCH  20  21
HETATM   21  O7  UNL     1     -14.635 -17.920  12.596  1.00  0.00    -0.398 OA
ATOM     22  H7  UNL     1     -15.015 -18.227  13.410  1.00  0.00     0.209 HD
ENDBRANCH  20  21
ENDBRANCH  17  20
ENDBRANCH  12  17
ENDBRANCH   2   7
BRANCH   1  23
HETATM   23  C3  UNL     1      -9.391 -15.985  10.555  1.00  0.00     0.277 C 
HETATM   24  N2  UNL     1      -8.108 -15.579  10.960  1.00  0.00    -0.266 N 
ATOM     25  H2  UNL     1      -7.277 -16.048  10.599  1.00  0.00     0.190 HD
HETATM   26  O1  UNL     1     -10.384 -15.376  11.029  1.00  0.00    -0.266 OA
BRANCH  24  27
HETATM   27  N1  UNL     1      -7.987 -14.499  11.888  1.00  0.00    -0.313 N 
HETATM   28  C2  UNL     1      -7.481 -13.384  11.504  1.00  0.00     0.076 C 
HETATM   29  C1  UNL     1      -7.328 -12.234  12.406  1.00  0.00     0.056 C 
ATOM     30  H1  UNL     1      -8.302 -14.614  12.851  1.00  0.00     0.185 HD
ENDBRANCH  24  27
ENDBRANCH   1  23
BRANCH   6  31
HETATM   31  N4  UNL     1      -9.193 -16.144   7.470  1.00  0.00    -0.383 N 
ATOM     32  H42 UNL     1      -9.420 -15.165   7.644  1.00  0.00     0.157 HD
ATOM     33  H41 UNL     1      -8.706 -16.191   6.575  1.00  0.00     0.157 HD
ENDBRANCH   6  31
TORSDOF 10
ENDMDL
MODEL 3
REMARK VINA RESULT: -7.057277905      3.329      5.784
REMARK  10 active torsions:
REMARK  status: ('A' for Active; 'I' for Inactive)
REMARK    1  A    between atoms: N1_3  and  N2_5 
REMARK       I    between atoms: N2_5  and  C3_7 
REMARK    2  A    between atoms: C3_7  and  C4_9 
REMARK    3  A    between atoms: C5_10  and  S1_11 
REMARK    4  A    between atoms: C7_14  and  O3_15 
REMARK    5  A    between atoms: C8_18  and  O5_19 
REMARK    6  A    between atoms: C8_18  and  C9_21 
REMARK    7  A    between atoms: C9_21  and  O6_22 
REMARK    8  A    between atoms: C9_21  and  C10_24 
REMARK    9  A    between atoms: C10_24  and  O7_25 
REMARK   10  A    between atoms: C11_30  and  N4_31 
ROOT
HETATM    1  C4  UNL     1     -11.492 -19.783  11.311  1.00  0.00     0.121 A 
HETATM    2  C5  UNL     1     -11.266 -20.070  12.645  1.00  0.00     0.157 A 
HETATM    3  O8  UNL     1     -10.044 -20.511  12.733  1.00  0.00    -0.228 OA
HETATM    4  N3  UNL     1      -9.465 -20.533  11.583  1.00  0.00    -0.243 N 
ATOM      5  H3  UNL     1      -8.509 -20.839  11.401  1.00  0.00     0.196 HD
HETATM    6  C11 UNL     1     -10.338 -20.084  10.664  1.00  0.00     0.138 A 
ENDROOT
BRANCH   2   7
HETATM    7  S1  UNL     1     -12.364 -19.894  13.974  1.00  0.00    -0.020 SA
HETATM    8  C6  UNL     1     -12.382 -18.262  14.620  1.00  0.00     0.242 C 
HETATM    9  O2  UNL     1     -12.559 -17.191  14.129  1.00  0.00    -0.280 OA
HETATM   10  C7  UNL     1     -12.101 -18.500  16.057  1.00  0.00     0.344 C 
HETATM   11  O4  UNL     1     -11.320 -19.572  16.248  1.00  0.00    -0.306 OA
HETATM   12  C8  UNL     1     -11.663 -20.633  15.461  1.00  0.00     0.250 C 
BRANCH  10  13
HETATM   13  O3  UNL     1     -13.291 -18.490  16.782  1.00  0.00    -0.364 OA
ATOM     14  H3  UNL     1     -14.030 -18.422  16.188  1.00  0.00     0.213 HD
ENDBRANCH  10  13
BRANCH  12  15
HETATM   15  O5  UNL     1     -10.488 -21.297  15.121  1.00  0.00    -0.355 OA
ATOM     16  H5  UNL     1      -9.788 -20.991  15.687  1.00  0.00     0.214 HD
ENDBRANCH  12  15
BRANCH  12  17
HETATM   17  C9  UNL     1     -12.668 -21.516  16.128  1.00  0.00     0.215 C 
BRANCH  17  18
HETATM   18  O6  UNL     1     -13.927 -20.992  15.971  1.00  0.00    -0.387 OA
ATOM     19  H6  UNL     1     -14.559 -21.694  15.871  1.00  0.00     0.210 HD
ENDBRANCH  17  18
BRANCH  17  20
HETATM   20  C10 UNL     1     -12.369 -21.740  17.588  1.00  0.00     0.202 C 
BRANCH  20  21
HETATM   21  O7  UNL     1     -13.259 -20.986  18.348  1.00  0.00    -0.398 OA
ATOM     22  H7  UNL     1     -14.057 -21.487  18.468  1.00  0.00     0.209 HD
ENDBRANCH  20  21
ENDBRANCH  17  20
ENDBRANCH  12  17
ENDBRANCH   2   7
BRANCH   1  23
HETATM   23  C3  UNL     1     -12.734 -19.270  10.808  1.00  0.00     0.277 C 
HETATM   24  N2  UNL     1     -12.881 -17.936  10.393  1.00  0.00    -0.266 N 
ATOM     25  H2  UNL     1     -12.094 -17.288  10.441  1.00  0.00     0.190 HD
HETATM   26  O1  UNL     1     -13.734 -20.030  10.729  1.00  0.00    -0.266 OA
BRANCH  24  27
HETATM   27  N1  UNL     1     -14.150 -17.501   9.903  1.00  0.00    -0.313 N 
HETATM   28  C2  UNL     1     -14.210 -16.543   9.052  1.00  0.00     0.076 C 
HETATM   29  C1  UNL     1     -15.482 -16.047   8.508  1.00  0.00     0.056 C 
ATOM     30  H1  UNL     1     -15.006 -17.951  10.228  1.00  0.00     0.185 HD
ENDBRANCH  24  27
ENDBRANCH   1  23
BRANCH   6  31
HETATM   31  N4  UNL     1     -10.060 -19.988   9.424  1.00  0.00    -0.383 N 
ATOM     32  H42 UNL     1     -10.769 -19.986   8.690  1.00  0.00     0.157 HD
ATOM     33  H41 UNL     1      -9.150 -19.902   8.970  1.00  0.00     0.157 HD
ENDBRANCH   6  31
TORSDOF 10
ENDMDL
MODEL 4
REMARK VINA RESULT: -6.970678285      5.484      7.519
REMARK  10 active torsions:
REMARK  status: ('A' for Active; 'I' for Inactive)
REMARK    1  A    between atoms: N1_3  and  N2_5 
REMARK       I    between atoms: N2_5  and  C3_7 
REMARK    2  A    between atoms: C3_7  and  C4_9 
REMARK    3  A    between atoms: C5_10  and  S1_11 
REMARK    4  A    between atoms: C7_14  and  O3_15 
REMARK    5  A    between atoms: C8_18  and  O5_19 
REMARK    6  A    between atoms: C8_18  and  C9_21 
REMARK    7  A    between atoms: C9_21  and  O6_22 
REMARK    8  A    between atoms: C9_21  and  C10_24 
REMARK    9  A    between atoms: C10_24  and  O7_25 
REMARK   10  A    between atoms: C11_30  and  N4_31 
ROOT
HETATM    1  C4  UNL     1      -8.640 -15.014   9.887  1.00  0.00     0.121 A 
HETATM    2  C5  UNL     1      -8.952 -16.153  10.606  1.00  0.00     0.157 A 
HETATM    3  O8  UNL     1      -8.429 -16.007  11.789  1.00  0.00    -0.228 OA
HETATM    4  N3  UNL     1      -7.812 -14.882  11.898  1.00  0.00    -0.243 N 
ATOM      5  H3  UNL     1      -7.325 -14.544  12.728  1.00  0.00     0.196 HD
HETATM    6  C11 UNL     1      -7.920 -14.228  10.727  1.00  0.00     0.138 A 
ENDROOT
BRANCH   2   7
HETATM    7  S1  UNL     1      -9.859 -17.533  10.077  1.00  0.00    -0.020 SA
HETATM    8  C6  UNL     1     -11.588 -17.232  10.056  1.00  0.00     0.242 C 
HETATM    9  O2  UNL     1     -12.265 -16.395   9.545  1.00  0.00    -0.280 OA
HETATM   10  C7  UNL     1     -12.101 -18.346  10.891  1.00  0.00     0.344 C 
HETATM   11  O4  UNL     1     -11.228 -18.709  11.839  1.00  0.00    -0.306 OA
HETATM   12  C8  UNL     1      -9.940 -18.763  11.391  1.00  0.00     0.250 C 
BRANCH  10  13
HETATM   13  O3  UNL     1     -12.562 -19.377  10.075  1.00  0.00    -0.364 OA
ATOM     14  H3  UNL     1     -12.162 -20.199  10.336  1.00  0.00     0.213 HD
ENDBRANCH  10  13
BRANCH  12  15
HETATM   15  O5  UNL     1      -9.118 -18.357  12.439  1.00  0.00    -0.355 OA
ATOM     16  H5  UNL     1      -9.219 -17.421  12.563  1.00  0.00     0.214 HD
ENDBRANCH  12  15
BRANCH  12  17
HETATM   17  C9  UNL     1      -9.595 -20.117  10.860  1.00  0.00     0.215 C 
BRANCH  17  18
HETATM   18  O6  UNL     1      -9.972 -20.212   9.544  1.00  0.00    -0.387 OA
ATOM     19  H6  UNL     1      -9.225 -20.049   8.981  1.00  0.00     0.210 HD
ENDBRANCH  17  18
BRANCH  17  20
HETATM   20  C10 UNL     1     -10.208 -21.233  11.666  1.00  0.00     0.202 C 
BRANCH  20  21
HETATM   21  O7  UNL     1      -9.567 -22.425  11.340  1.00  0.00    -0.398 OA
ATOM     22  H7  UNL     1     -10.166 -22.967  10.842  1.00  0.00     0.209 HD
ENDBRANCH  20  21
ENDBRANCH  17  20
ENDBRANCH  12  17
ENDBRANCH   2   7
BRANCH   1  23
HETATM   23  C3  UNL     1      -9.043 -14.797   8.528  1.00  0.00     0.277 C 
HETATM   24  N2  UNL     1      -8.585 -15.603   7.472  1.00  0.00    -0.266 N 
ATOM     25  H2  UNL     1      -7.944 -16.376   7.650  1.00  0.00     0.190 HD
HETATM   26  O1  UNL     1      -9.833 -13.855   8.257  1.00  0.00    -0.266 OA
BRANCH  24  27
HETATM   27  N1  UNL     1      -9.033 -15.322   6.145  1.00  0.00    -0.313 N 
HETATM   28  C2  UNL     1     -10.182 -15.741   5.758  1.00  0.00     0.076 C 
HETATM   29  C1  UNL     1     -10.703 -15.487   4.407  1.00  0.00     0.056 C 
ATOM     30  H1  UNL     1      -8.441 -14.790   5.506  1.00  0.00     0.185 HD
ENDBRANCH  24  27
ENDBRANCH   1  23
BRANCH   6  31
HETATM   31  N4  UNL     1      -7.410 -13.079  10.518  1.00  0.00    -0.383 N 
ATOM     32  H42 UNL     1      -7.555 -12.281  11.137  1.00  0.00     0.157 HD
ATOM     33  H41 UNL     1      -6.809 -12.769   9.754  1.00  0.00     0.157 HD
ENDBRANCH   6  31
TORSDOF 10
ENDMDL
MODEL 5
REMARK VINA RESULT: -6.957681217      4.977      6.873
REMARK  10 active torsions:
REMARK  status: ('A' for Active; 'I' for Inactive)
REMARK    1  A    between atoms: N1_3  and  N2_5 
REMARK       I    between atoms: N2_5  and  C3_7 
REMARK    2  A    between atoms: C3_7  and  C4_9 
REMARK    3  A    between atoms: C5_10  and  S1_11 
REMARK    4  A    between atoms: C7_14  and  O3_15 
REMARK    5  A    between atoms: C8_18  and  O5_19 
REMARK    6  A    between atoms: C8_18  and  C9_21 
REMARK    7  A    between atoms: C9_21  and  O6_22 
REMARK    8  A    between atoms: C9_21  and  C10_24 
REMARK    9  A    between atoms: C10_24  and  O7_25 
REMARK   10  A    between atoms: C11_30  and  N4_31 
ROOT
HETATM    1  C4  UNL     1      -9.172 -15.659  10.689  1.00  0.00     0.121 A 
HETATM    2  C5  UNL     1      -9.405 -16.505  11.758  1.00  0.00     0.157 A 
HETATM    3  O8  UNL     1      -8.648 -16.096  12.734  1.00  0.00    -0.228 OA
HETATM    4  N3  UNL     1      -7.952 -15.067  12.394  1.00  0.00    -0.243 N 
ATOM      5  H3  UNL     1      -7.288 -14.570  12.988  1.00  0.00     0.196 HD
HETATM    6  C11 UNL     1      -8.251 -14.760  11.118  1.00  0.00     0.138 A 
ENDROOT
BRANCH   2   7
HETATM    7  S1  UNL     1     -10.485 -17.860  11.829  1.00  0.00    -0.020 SA
HETATM    8  C6  UNL     1     -11.033 -18.196  13.461  1.00  0.00     0.242 C 
HETATM    9  O2  UNL     1     -11.561 -17.533  14.299  1.00  0.00    -0.280 OA
HETATM   10  C7  UNL     1     -10.673 -19.627  13.616  1.00  0.00     0.344 C 
HETATM   11  O4  UNL     1      -9.579 -19.950  12.912  1.00  0.00    -0.306 OA
HETATM   12  C8  UNL     1      -9.561 -19.398  11.664  1.00  0.00     0.250 C 
BRANCH  10  13
HETATM   13  O3  UNL     1     -11.790 -20.425  13.384  1.00  0.00    -0.364 OA
ATOM     14  H3  UNL     1     -11.785 -21.169  13.977  1.00  0.00     0.213 HD
ENDBRANCH  10  13
BRANCH  12  15
HETATM   15  O5  UNL     1      -8.236 -19.097  11.361  1.00  0.00    -0.355 OA
ATOM     16  H5  UNL     1      -7.717 -19.888  11.437  1.00  0.00     0.214 HD
ENDBRANCH  12  15
BRANCH  12  17
HETATM   17  C9  UNL     1     -10.210 -20.290  10.655  1.00  0.00     0.215 C 
BRANCH  17  18
HETATM   18  O6  UNL     1      -9.299 -21.202  10.184  1.00  0.00    -0.387 OA
ATOM     19  H6  UNL     1      -9.657 -21.659   9.432  1.00  0.00     0.210 HD
ENDBRANCH  17  18
BRANCH  17  20
HETATM   20  C10 UNL     1     -10.827 -19.524   9.512  1.00  0.00     0.202 C 
BRANCH  20  21
HETATM   21  O7  UNL     1      -9.814 -19.102   8.657  1.00  0.00    -0.398 OA
ATOM     22  H7  UNL     1      -9.031 -19.609   8.837  1.00  0.00     0.209 HD
ENDBRANCH  20  21
ENDBRANCH  17  20
ENDBRANCH  12  17
ENDBRANCH   2   7
BRANCH   1  23
HETATM   23  C3  UNL     1      -9.825 -15.786   9.417  1.00  0.00     0.277 C 
HETATM   24  N2  UNL     1      -9.160 -16.269   8.278  1.00  0.00    -0.266 N 
ATOM     25  H2  UNL     1      -8.179 -16.546   8.329  1.00  0.00     0.190 HD
HETATM   26  O1  UNL     1     -11.034 -15.456   9.304  1.00  0.00    -0.266 OA
BRANCH  24  27
HETATM   27  N1  UNL     1      -9.879 -16.366   7.048  1.00  0.00    -0.313 N 
HETATM   28  C2  UNL     1      -9.769 -15.436   6.171  1.00  0.00     0.076 C 
HETATM   29  C1  UNL     1     -10.481 -15.472   4.885  1.00  0.00     0.056 C 
ATOM     30  H1  UNL     1     -10.477 -17.172   6.866  1.00  0.00     0.185 HD
ENDBRANCH  24  27
ENDBRANCH   1  23
BRANCH   6  31
HETATM   31  N4  UNL     1      -7.721 -13.785  10.491  1.00  0.00    -0.383 N 
ATOM     32  H42 UNL     1      -7.631 -12.849  10.886  1.00  0.00     0.157 HD
ATOM     33  H41 UNL     1      -7.321 -13.762   9.553  1.00  0.00     0.157 HD
ENDBRANCH   6  31
TORSDOF 10
ENDMDL
