MODEL 1
REMARK VINA RESULT: -8.352056733      0.000      0.000
REMARK  6 active torsions:
REMARK  status: ('A' for Active; 'I' for Inactive)
REMARK    1  A    between atoms: N1_1  and  C1_4 
REMARK    2  A    between atoms: C4_12  and  C5_13 
REMARK    3  A    between atoms: N5_15  and  N6_17 
REMARK       I    between atoms: N6_17  and  C6_19 
REMARK    4  A    between atoms: C8_24  and  C9_25 
REMARK    5  A    between atoms: C10_28  and  C11_29 
REMARK    6  A    between atoms: C11_29  and  O5_30 
ROOT
HETATM    1  C1  UNL     1     -10.432 -18.195   9.187  1.00  0.00     0.677 A 
HETATM    2  N2  UNL     1     -11.718 -18.349   9.587  1.00  0.00    -0.184 N 
ATOM      3  H2  UNL     1     -12.000 -19.214  10.047  1.00  0.00     0.184 HD
HETATM    4  C2  UNL     1     -12.611 -17.394   9.391  1.00  0.00     0.153 A 
HETATM    5  C3  UNL     1     -13.917 -17.553   9.799  1.00  0.00     0.277 A 
HETATM    6  O1  UNL     1     -14.350 -18.581  10.370  1.00  0.00    -0.266 OA
HETATM    7  N3  UNL     1     -14.749 -16.533   9.558  1.00  0.00    -0.299 N 
ATOM      8  H3  UNL     1     -15.724 -16.613   9.845  1.00  0.00     0.171 HD
HETATM    9  C4  UNL     1     -14.342 -15.409   8.950  1.00  0.00     0.194 A 
HETATM   10  O3  UNL     1     -13.095 -15.274   8.568  1.00  0.00    -0.286 OA
HETATM   11  C7  UNL     1     -12.227 -16.217   8.765  1.00  0.00     0.138 A 
HETATM   12  C8  UNL     1     -10.911 -16.032   8.342  1.00  0.00     0.109 A 
HETATM   13  N9  UNL     1     -10.069 -17.052   8.582  1.00  0.00    -0.189 N 
ATOM     14  H9  UNL     1      -9.097 -16.952   8.287  1.00  0.00     0.184 HD
ENDROOT
BRANCH   9  15
HETATM   15  C5  UNL     1     -15.307 -14.338   8.720  1.00  0.00     0.182 C 
HETATM   16  N4  UNL     1     -15.191 -13.055   9.287  1.00  0.00    -0.077 NA
HETATM   17  N5  UNL     1     -16.317 -14.575   7.960  1.00  0.00    -0.281 N 
ATOM     18  H5  UNL     1     -16.404 -15.504   7.548  1.00  0.00     0.188 HD
BRANCH  17  19
HETATM   19  N6  UNL     1     -17.298 -13.629   7.672  1.00  0.00    -0.253 N 
HETATM   20  C6  UNL     1     -18.302 -13.915   6.713  1.00  0.00     0.347 C 
HETATM   21  N7  UNL     1     -19.317 -12.988   6.386  1.00  0.00    -0.038 NA
HETATM   22  O2  UNL     1     -18.312 -15.024   6.118  1.00  0.00    -0.249 OA
ATOM     23  H6  UNL     1     -17.294 -12.729   8.153  1.00  0.00     0.191 HD
ENDBRANCH  17  19
ENDBRANCH   9  15
BRANCH  12  24
HETATM   24  C9  UNL     1     -10.493 -14.776   7.672  1.00  0.00     0.298 C 
HETATM   25  N8  UNL     1      -9.091 -14.744   7.351  1.00  0.00    -0.059 NA
HETATM   26  O4  UNL     1      -9.056 -15.340   6.138  1.00  0.00    -0.249 OA
HETATM   27  C10 UNL     1     -10.100 -14.660   5.485  1.00  0.00     0.309 C 
HETATM   28  O6  UNL     1     -11.102 -14.590   6.456  1.00  0.00    -0.328 OA
BRANCH  27  29
HETATM   29  C11 UNL     1     -10.572 -15.547   4.342  1.00  0.00     0.226 C 
BRANCH  29  30
HETATM   30  O5  UNL     1     -10.296 -16.881   4.580  1.00  0.00    -0.396 OA
ATOM     31  H5  UNL     1     -10.880 -17.453   4.096  1.00  0.00     0.209 HD
ENDBRANCH  29  30
ENDBRANCH  27  29
ENDBRANCH  12  24
BRANCH   1  32
HETATM   32  N1  UNL     1      -9.629 -19.178   9.419  1.00  0.00    -0.234 N 
ATOM     33  H12 UNL     1      -9.268 -19.806   8.700  1.00  0.00     0.174 HD
ATOM     34  H11 UNL     1      -9.348 -19.323  10.389  1.00  0.00     0.174 HD
ENDBRANCH   1  32
TORSDOF 6
ENDMDL
MODEL 2
REMARK VINA RESULT: -8.108974436      4.537      7.792
REMARK  6 active torsions:
REMARK  status: ('A' for Active; 'I' for Inactive)
REMARK    1  A    between atoms: N1_1  and  C1_4 
REMARK    2  A    between atoms: C4_12  and  C5_13 
REMARK    3  A    between atoms: N5_15  and  N6_17 
REMARK       I    between atoms: N6_17  and  C6_19 
REMARK    4  A    between atoms: C8_24  and  C9_25 
REMARK    5  A    between atoms: C10_28  and  C11_29 
REMARK    6  A    between atoms: C11_29  and  O5_30 
ROOT
HETATM    1  C1  UNL     1     -11.127 -20.671  14.325  1.00  0.00     0.677 A 
HETATM    2  N2  UNL     1     -10.428 -20.989  13.208  1.00  0.00    -0.184 N 
ATOM      3  H2  UNL     1      -9.897 -21.859  13.178  1.00  0.00     0.184 HD
HETATM    4  C2  UNL     1     -10.423 -20.187  12.157  1.00  0.00     0.153 A 
HETATM    5  C3  UNL     1      -9.711 -20.512  11.023  1.00  0.00     0.277 A 
HETATM    6  O1  UNL     1      -9.033 -21.559  10.901  1.00  0.00    -0.266 OA
HETATM    7  N3  UNL     1      -9.766 -19.640  10.009  1.00  0.00    -0.299 N 
ATOM      8  H3  UNL     1      -9.252 -19.845   9.153  1.00  0.00     0.171 HD
HETATM    9  C4  UNL     1     -10.475 -18.504  10.084  1.00  0.00     0.194 A 
HETATM   10  O3  UNL     1     -11.148 -18.210  11.171  1.00  0.00    -0.286 OA
HETATM   11  C7  UNL     1     -11.145 -19.002  12.196  1.00  0.00     0.138 A 
HETATM   12  C8  UNL     1     -11.874 -18.651  13.332  1.00  0.00     0.109 A 
HETATM   13  N9  UNL     1     -11.824 -19.522  14.354  1.00  0.00    -0.189 N 
ATOM     14  H9  UNL     1     -12.346 -19.299  15.202  1.00  0.00     0.184 HD
ENDROOT
BRANCH   9  15
HETATM   15  C5  UNL     1     -10.488 -17.599   8.938  1.00  0.00     0.182 C 
HETATM   16  N4  UNL     1     -11.651 -16.962   8.467  1.00  0.00    -0.077 NA
HETATM   17  N5  UNL     1      -9.381 -17.371   8.324  1.00  0.00    -0.281 N 
ATOM     18  H5  UNL     1      -8.537 -17.831   8.664  1.00  0.00     0.188 HD
BRANCH  17  19
HETATM   19  N6  UNL     1      -9.277 -16.528   7.221  1.00  0.00    -0.253 N 
HETATM   20  C6  UNL     1      -8.721 -15.231   7.366  1.00  0.00     0.347 C 
HETATM   21  N7  UNL     1      -8.595 -14.340   6.277  1.00  0.00    -0.038 NA
HETATM   22  O2  UNL     1      -8.320 -14.837   8.492  1.00  0.00    -0.249 OA
ATOM     23  H6  UNL     1      -9.600 -16.843   6.307  1.00  0.00     0.191 HD
ENDBRANCH  17  19
ENDBRANCH   9  15
BRANCH  12  24
HETATM   24  C9  UNL     1     -12.648 -17.386  13.382  1.00  0.00     0.298 C 
HETATM   25  N8  UNL     1     -14.029 -17.580  13.737  1.00  0.00    -0.059 NA
HETATM   26  O4  UNL     1     -13.990 -17.548  15.087  1.00  0.00    -0.249 OA
HETATM   27  C10 UNL     1     -13.206 -16.400  15.297  1.00  0.00     0.309 C 
HETATM   28  O6  UNL     1     -12.193 -16.517  14.343  1.00  0.00    -0.328 OA
BRANCH  27  29
HETATM   29  C11 UNL     1     -12.598 -16.514  16.688  1.00  0.00     0.226 C 
BRANCH  29  30
HETATM   30  O5  UNL     1     -11.833 -17.658  16.821  1.00  0.00    -0.396 OA
ATOM     31  H5  UNL     1     -11.666 -17.866  17.732  1.00  0.00     0.209 HD
ENDBRANCH  29  30
ENDBRANCH  27  29
ENDBRANCH  12  24
BRANCH   1  32
HETATM   32  N1  UNL     1     -11.075 -21.512  15.302  1.00  0.00    -0.234 N 
ATOM     33  H12 UNL     1     -10.276 -22.116  15.496  1.00  0.00     0.174 HD
ATOM     34  H11 UNL     1     -11.893 -21.562  15.910  1.00  0.00     0.174 HD
ENDBRANCH   1  32
TORSDOF 6
ENDMDL
MODEL 3
REMARK VINA RESULT: -8.094533116      3.002      5.558
REMARK  6 active torsions:
REMARK  status: ('A' for Active; 'I' for Inactive)
REMARK    1  A    between atoms: N1_1  and  C1_4 
REMARK    2  A    between atoms: C4_12  and  C5_13 
REMARK    3  A    between atoms: N5_15  and  N6_17 
REMARK       I    between atoms: N6_17  and  C6_19 
REMARK    4  A    between atoms: C8_24  and  C9_25 
REMARK    5  A    between atoms: C10_28  and  C11_29 
REMARK    6  A    between atoms: C11_29  and  O5_30 
ROOT
HETATM    1  C1  UNL     1      -9.703 -19.702  10.855  1.00  0.00     0.677 A 
HETATM    2  N2  UNL     1      -9.808 -19.018   9.689  1.00  0.00    -0.184 N 
ATOM      3  H2  UNL     1      -9.162 -19.222   8.927  1.00  0.00     0.184 HD
HETATM    4  C2  UNL     1     -10.737 -18.092   9.525  1.00  0.00     0.153 A 
HETATM    5  C3  UNL     1     -10.843 -17.399   8.339  1.00  0.00     0.277 A 
HETATM    6  O1  UNL     1     -10.091 -17.584   7.353  1.00  0.00    -0.266 OA
HETATM    7  N3  UNL     1     -11.813 -16.480   8.265  1.00  0.00    -0.299 N 
ATOM      8  H3  UNL     1     -11.922 -15.946   7.403  1.00  0.00     0.171 HD
HETATM    9  C4  UNL     1     -12.645 -16.239   9.287  1.00  0.00     0.194 A 
HETATM   10  O3  UNL     1     -12.532 -16.908  10.410  1.00  0.00    -0.286 OA
HETATM   11  C7  UNL     1     -11.618 -17.814  10.561  1.00  0.00     0.138 A 
HETATM   12  C8  UNL     1     -11.532 -18.502  11.771  1.00  0.00     0.109 A 
HETATM   13  N9  UNL     1     -10.560 -19.427  11.853  1.00  0.00    -0.189 N 
ATOM     14  H9  UNL     1     -10.467 -19.950  12.723  1.00  0.00     0.184 HD
ENDROOT
BRANCH   9  15
HETATM   15  C5  UNL     1     -13.681 -15.221   9.134  1.00  0.00     0.182 C 
HETATM   16  N4  UNL     1     -13.557 -13.909   9.628  1.00  0.00    -0.077 NA
HETATM   17  N5  UNL     1     -14.764 -15.536   8.517  1.00  0.00    -0.281 N 
ATOM     18  H5  UNL     1     -14.857 -16.486   8.158  1.00  0.00     0.188 HD
BRANCH  17  19
HETATM   19  N6  UNL     1     -15.817 -14.647   8.314  1.00  0.00    -0.253 N 
HETATM   20  C6  UNL     1     -16.988 -15.073   7.637  1.00  0.00     0.347 C 
HETATM   21  N7  UNL     1     -18.081 -14.208   7.406  1.00  0.00    -0.038 NA
HETATM   22  O2  UNL     1     -17.081 -16.256   7.218  1.00  0.00    -0.249 OA
ATOM     23  H6  UNL     1     -15.745 -13.688   8.653  1.00  0.00     0.191 HD
ENDBRANCH  17  19
ENDBRANCH   9  15
BRANCH  12  24
HETATM   24  C9  UNL     1     -12.469 -18.210  12.883  1.00  0.00     0.298 C 
HETATM   25  N8  UNL     1     -13.594 -19.107  12.927  1.00  0.00    -0.059 NA
HETATM   26  O4  UNL     1     -13.119 -20.134  13.666  1.00  0.00    -0.249 OA
HETATM   27  C10 UNL     1     -12.540 -19.435  14.740  1.00  0.00     0.309 C 
HETATM   28  O6  UNL     1     -11.895 -18.362  14.121  1.00  0.00    -0.328 OA
BRANCH  27  29
HETATM   29  C11 UNL     1     -11.499 -20.351  15.367  1.00  0.00     0.226 C 
BRANCH  29  30
HETATM   30  O5  UNL     1     -10.745 -21.003  14.409  1.00  0.00    -0.396 OA
ATOM     31  H5  UNL     1     -10.328 -21.780  14.758  1.00  0.00     0.209 HD
ENDBRANCH  29  30
ENDBRANCH  27  29
ENDBRANCH  12  24
BRANCH   1  32
HETATM   32  N1  UNL     1      -8.767 -20.587  10.927  1.00  0.00    -0.234 N 
ATOM     33  H12 UNL     1      -7.974 -20.636  10.287  1.00  0.00     0.174 HD
ATOM     34  H11 UNL     1      -8.841 -21.275  11.677  1.00  0.00     0.174 HD
ENDBRANCH   1  32
TORSDOF 6
ENDMDL
MODEL 4
REMARK VINA RESULT: -8.068142208      4.206      7.532
REMARK  6 active torsions:
REMARK  status: ('A' for Active; 'I' for Inactive)
REMARK    1  A    between atoms: N1_1  and  C1_4 
REMARK    2  A    between atoms: C4_12  and  C5_13 
REMARK    3  A    between atoms: N5_15  and  N6_17 
REMARK       I    between atoms: N6_17  and  C6_19 
REMARK    4  A    between atoms: C8_24  and  C9_25 
REMARK    5  A    between atoms: C10_28  and  C11_29 
REMARK    6  A    between atoms: C11_29  and  O5_30 
ROOT
HETATM    1  C1  UNL     1     -11.349 -20.551  14.543  1.00  0.00     0.677 A 
HETATM    2  N2  UNL     1     -10.567 -20.977  13.521  1.00  0.00    -0.184 N 
ATOM      3  H2  UNL     1     -10.191 -21.925  13.538  1.00  0.00     0.184 HD
HETATM    4  C2  UNL     1     -10.284 -20.183  12.502  1.00  0.00     0.153 A 
HETATM    5  C3  UNL     1      -9.489 -20.619  11.465  1.00  0.00     0.277 A 
HETATM    6  O1  UNL     1      -8.986 -21.765  11.406  1.00  0.00    -0.266 OA
HETATM    7  N3  UNL     1      -9.258 -19.745  10.478  1.00  0.00    -0.299 N 
ATOM      8  H3  UNL     1      -8.673 -20.031   9.693  1.00  0.00     0.171 HD
HETATM    9  C4  UNL     1      -9.769 -18.506  10.489  1.00  0.00     0.194 A 
HETATM   10  O3  UNL     1     -10.525 -18.106  11.484  1.00  0.00    -0.286 OA
HETATM   11  C7  UNL     1     -10.795 -18.893  12.478  1.00  0.00     0.138 A 
HETATM   12  C8  UNL     1     -11.602 -18.428  13.516  1.00  0.00     0.109 A 
HETATM   13  N9  UNL     1     -11.840 -19.300  14.511  1.00  0.00    -0.189 N 
ATOM     14  H9  UNL     1     -12.427 -18.995  15.287  1.00  0.00     0.184 HD
ENDROOT
BRANCH   9  15
HETATM   15  C5  UNL     1      -9.473 -17.607   9.377  1.00  0.00     0.182 C 
HETATM   16  N4  UNL     1      -8.508 -16.585   9.443  1.00  0.00    -0.077 NA
HETATM   17  N5  UNL     1     -10.127 -17.753   8.280  1.00  0.00    -0.281 N 
ATOM     18  H5  UNL     1     -10.827 -18.493   8.229  1.00  0.00     0.188 HD
BRANCH  17  19
HETATM   19  N6  UNL     1      -9.929 -16.953   7.157  1.00  0.00    -0.253 N 
HETATM   20  C6  UNL     1     -10.896 -15.980   6.796  1.00  0.00     0.347 C 
HETATM   21  N7  UNL     1     -10.739 -15.147   5.667  1.00  0.00    -0.038 NA
HETATM   22  O2  UNL     1     -11.936 -15.835   7.489  1.00  0.00    -0.249 OA
ATOM     23  H6  UNL     1      -9.087 -17.067   6.594  1.00  0.00     0.191 HD
ENDBRANCH  17  19
ENDBRANCH   9  15
BRANCH  12  24
HETATM   24  C9  UNL     1     -12.152 -17.050  13.497  1.00  0.00     0.298 C 
HETATM   25  N8  UNL     1     -13.474 -16.975  12.935  1.00  0.00    -0.059 NA
HETATM   26  O4  UNL     1     -14.262 -17.218  14.006  1.00  0.00    -0.249 OA
HETATM   27  C10 UNL     1     -13.684 -16.354  14.953  1.00  0.00     0.309 C 
HETATM   28  O6  UNL     1     -12.312 -16.520  14.754  1.00  0.00    -0.328 OA
BRANCH  27  29
HETATM   29  C11 UNL     1     -14.057 -16.880  16.332  1.00  0.00     0.226 C 
BRANCH  29  30
HETATM   30  O5  UNL     1     -13.983 -18.258  16.392  1.00  0.00    -0.396 OA
ATOM     31  H5  UNL     1     -13.539 -18.621  15.635  1.00  0.00     0.209 HD
ENDBRANCH  29  30
ENDBRANCH  27  29
ENDBRANCH  12  24
BRANCH   1  32
HETATM   32  N1  UNL     1     -11.573 -21.393  15.494  1.00  0.00    -0.234 N 
ATOM     33  H12 UNL     1     -10.894 -21.633  16.218  1.00  0.00     0.174 HD
ATOM     34  H11 UNL     1     -12.491 -21.836  15.509  1.00  0.00     0.174 HD
ENDBRANCH   1  32
TORSDOF 6
ENDMDL
MODEL 5
REMARK VINA RESULT: -8.036270417      2.378      6.266
REMARK  6 active torsions:
REMARK  status: ('A' for Active; 'I' for Inactive)
REMARK    1  A    between atoms: N1_1  and  C1_4 
REMARK    2  A    between atoms: C4_12  and  C5_13 
REMARK    3  A    between atoms: N5_15  and  N6_17 
REMARK       I    between atoms: N6_17  and  C6_19 
REMARK    4  A    between atoms: C8_24  and  C9_25 
REMARK    5  A    between atoms: C10_28  and  C11_29 
REMARK    6  A    between atoms: C11_29  and  O5_30 
ROOT
HETATM    1  C1  UNL     1     -13.708 -18.588  10.709  1.00  0.00     0.677 A 
HETATM    2  N2  UNL     1     -12.407 -18.790  10.388  1.00  0.00    -0.184 N 
ATOM      3  H2  UNL     1     -11.885 -19.532  10.854  1.00  0.00     0.184 HD
HETATM    4  C2  UNL     1     -11.804 -18.040   9.482  1.00  0.00     0.153 A 
HETATM    5  C3  UNL     1     -10.481 -18.247   9.159  1.00  0.00     0.277 A 
HETATM    6  O1  UNL     1      -9.766 -19.134   9.681  1.00  0.00    -0.266 OA
HETATM    7  N3  UNL     1      -9.957 -17.438   8.231  1.00  0.00    -0.299 N 
ATOM      8  H3  UNL     1      -8.980 -17.561   7.964  1.00  0.00     0.171 HD
HETATM    9  C4  UNL     1     -10.674 -16.473   7.639  1.00  0.00     0.194 A 
HETATM   10  O3  UNL     1     -11.933 -16.288   7.958  1.00  0.00    -0.286 OA
HETATM   11  C7  UNL     1     -12.514 -17.030   8.848  1.00  0.00     0.138 A 
HETATM   12  C8  UNL     1     -13.855 -16.800   9.158  1.00  0.00     0.109 A 
HETATM   13  N9  UNL     1     -14.389 -17.608  10.090  1.00  0.00    -0.189 N 
ATOM     14  H9  UNL     1     -15.367 -17.470  10.341  1.00  0.00     0.184 HD
ENDROOT
BRANCH   9  15
HETATM   15  C5  UNL     1     -10.034 -15.628   6.634  1.00  0.00     0.182 C 
HETATM   16  N4  UNL     1     -10.257 -15.765   5.251  1.00  0.00    -0.077 NA
HETATM   17  N5  UNL     1      -9.225 -14.711   7.029  1.00  0.00    -0.281 N 
ATOM     18  H5  UNL     1      -9.062 -14.609   8.031  1.00  0.00     0.188 HD
BRANCH  17  19
HETATM   19  N6  UNL     1      -8.559 -13.849   6.160  1.00  0.00    -0.253 N 
HETATM   20  C6  UNL     1      -8.968 -12.496   6.048  1.00  0.00     0.347 C 
HETATM   21  N7  UNL     1      -8.325 -11.585   5.181  1.00  0.00    -0.038 NA
HETATM   22  O2  UNL     1      -9.932 -12.067   6.734  1.00  0.00    -0.249 OA
ATOM     23  H6  UNL     1      -7.777 -14.193   5.604  1.00  0.00     0.191 HD
ENDBRANCH  17  19
ENDBRANCH   9  15
BRANCH  12  24
HETATM   24  C9  UNL     1     -14.620 -15.722   8.485  1.00  0.00     0.298 C 
HETATM   25  N8  UNL     1     -16.044 -15.920   8.537  1.00  0.00    -0.059 NA
HETATM   26  O4  UNL     1     -16.376 -15.347   9.715  1.00  0.00    -0.249 OA
HETATM   27  C10 UNL     1     -15.685 -14.127   9.614  1.00  0.00     0.309 C 
HETATM   28  O6  UNL     1     -14.449 -14.494   9.076  1.00  0.00    -0.328 OA
BRANCH  27  29
HETATM   29  C11 UNL     1     -15.479 -13.604  11.028  1.00  0.00     0.226 C 
BRANCH  29  30
HETATM   30  O5  UNL     1     -15.626 -14.604  11.971  1.00  0.00    -0.396 OA
ATOM     31  H5  UNL     1     -15.953 -14.265  12.796  1.00  0.00     0.209 HD
ENDBRANCH  29  30
ENDBRANCH  27  29
ENDBRANCH  12  24
BRANCH   1  32
HETATM   32  N1  UNL     1     -14.215 -19.368  11.603  1.00  0.00    -0.234 N 
ATOM     33  H12 UNL     1     -14.750 -19.043  12.409  1.00  0.00     0.174 HD
ATOM     34  H11 UNL     1     -14.061 -20.369  11.481  1.00  0.00     0.174 HD
ENDBRANCH   1  32
TORSDOF 6
ENDMDL
