MODEL 1
REMARK VINA RESULT: -6.182377621      0.000      0.000
REMARK  18 active torsions:
REMARK  status: ('A' for Active; 'I' for Inactive)
REMARK    1  A    between atoms: C2_2  and  O1_3 
REMARK    2  A    between atoms: O1_3  and  C3_4 
REMARK       I    between atoms: C3_4  and  N1_6 
REMARK    3  A    between atoms: N1_6  and  C4_7 
REMARK    4  A    between atoms: N1_6  and  C9_12 
REMARK    5  A    between atoms: C4_7  and  C5_8 
REMARK    6  A    between atoms: C5_8  and  C6_9 
REMARK    7  A    between atoms: C9_12  and  C10_13 
REMARK    8  A    between atoms: C9_12  and  C28_42 
REMARK       I    between atoms: C10_13  and  N2_15 
REMARK       I    between atoms: N2_15  and  C11_17 
REMARK    9  A    between atoms: C11_17  and  C12_19 
REMARK   10  A    between atoms: C12_19  and  C13_20 
REMARK   11  A    between atoms: C12_19  and  C24_38 
REMARK   12  A    between atoms: C13_20  and  C14_21 
REMARK   13  A    between atoms: C14_21  and  O5_22 
REMARK   14  A    between atoms: C14_21  and  C15_24 
REMARK   15  A    between atoms: C15_24  and  N3_27 
REMARK   16  A    between atoms: N3_27  and  C18_29 
REMARK   17  A    between atoms: C18_29  and  C19_30 
REMARK   18  A    between atoms: C18_29  and  C21_35 
REMARK       I    between atoms: C19_30  and  N4_32 
ROOT
HETATM    1  C12 UNL     1       6.768  34.297  -0.673  1.00  0.00     0.088 C 
ENDROOT
BRANCH   1   2
HETATM    2  C11 UNL     1       6.818  35.382  -1.743  1.00  0.00     0.229 C 
HETATM    3  N2  UNL     1       7.792  36.365  -1.884  1.00  0.00    -0.295 N 
HETATM    4  C10 UNL     1       7.785  37.278  -2.972  1.00  0.00     0.248 C 
ATOM      5  H2  UNL     1       8.532  36.433  -1.186  1.00  0.00     0.171 HD
HETATM    6  O3  UNL     1       6.781  37.168  -3.763  1.00  0.00    -0.271 OA
HETATM    7  O4  UNL     1       5.871  35.358  -2.569  1.00  0.00    -0.273 OA
BRANCH   4   8
HETATM    8  C9  UNL     1       8.810  38.287  -3.249  1.00  0.00     0.189 C 
BRANCH   8   9
HETATM    9  N1  UNL     1       9.907  38.224  -2.338  1.00  0.00    -0.314 N 
HETATM   10  C3  UNL     1      10.793  37.203  -2.134  1.00  0.00     0.363 C 
HETATM   11  O2  UNL     1      11.733  37.367  -1.257  1.00  0.00    -0.238 OA
BRANCH  10  12
HETATM   12  O1  UNL     1      10.837  35.983  -2.740  1.00  0.00    -0.304 OA
BRANCH  12  13
HETATM   13  C2  UNL     1      12.041  35.386  -3.150  1.00  0.00     0.176 C 
HETATM   14  C1  UNL     1      12.051  35.076  -4.630  1.00  0.00     0.034 C 
ENDBRANCH  12  13
ENDBRANCH  10  12
BRANCH   9  15
HETATM   15  C4  UNL     1      10.109  39.438  -1.500  1.00  0.00     0.129 C 
BRANCH  15  16
HETATM   16  C5  UNL     1       8.997  39.545  -0.487  1.00  0.00     0.024 C 
BRANCH  16  17
HETATM   17  C6  UNL     1       9.423  39.042   0.849  1.00  0.00    -0.021 C 
HETATM   18  C7  UNL     1       9.254  40.099   1.935  1.00  0.00     0.009 C 
HETATM   19  C8  UNL     1       8.703  37.810   1.300  1.00  0.00     0.009 C 
ENDBRANCH  16  17
ENDBRANCH  15  16
ENDBRANCH   9  15
ENDBRANCH   8   9
BRANCH   8  20
HETATM   20  C28 UNL     1       9.189  38.305  -4.684  1.00  0.00    -0.022 C 
HETATM   21  C29 UNL     1      10.551  39.012  -4.879  1.00  0.00     0.017 C 
HETATM   22  C30 UNL     1       9.046  37.074  -5.491  1.00  0.00     0.017 C 
HETATM   23  C31 UNL     1       8.234  39.326  -5.381  1.00  0.00     0.017 C 
ENDBRANCH   8  20
ENDBRANCH   4   8
ENDBRANCH   1   2
BRANCH   1  24
HETATM   24  C13 UNL     1       8.138  34.319  -0.099  1.00  0.00     0.049 C 
BRANCH  24  25
HETATM   25  C14 UNL     1       9.085  33.222  -0.446  1.00  0.00     0.146 C 
BRANCH  25  26
HETATM   26  O5  UNL     1       9.592  33.507  -1.741  1.00  0.00    -0.393 OA
ATOM     27  H5  UNL     1       9.825  32.675  -2.137  1.00  0.00     0.210 HD
ENDBRANCH  25  26
BRANCH  25  28
HETATM   28  C15 UNL     1      10.317  33.266   0.447  1.00  0.00     0.045 C 
HETATM   29  C16 UNL     1      10.781  34.711   0.596  1.00  0.00     0.040 C 
HETATM   30  C17 UNL     1      11.414  32.581  -0.399  1.00  0.00     0.040 C 
BRANCH  28  31
HETATM   31  N3  UNL     1      10.205  32.568   1.626  1.00  0.00    -0.398 N 
ATOM     32  H3  UNL     1      10.575  33.030   2.456  1.00  0.00     0.154 HD
BRANCH  31  33
HETATM   33  C18 UNL     1       9.653  31.324   1.822  1.00  0.00     0.173 C 
BRANCH  33  34
HETATM   34  C19 UNL     1      10.435  30.170   2.282  1.00  0.00     0.240 C 
HETATM   35  O6  UNL     1      11.206  29.546   1.514  1.00  0.00    -0.271 OA
HETATM   36  N4  UNL     1      10.364  29.688   3.639  1.00  0.00    -0.364 N 
HETATM   37  C20 UNL     1      11.158  28.555   4.015  1.00  0.00     0.149 C 
ATOM     38  H4  UNL     1       9.758  30.146   4.321  1.00  0.00     0.161 HD
ENDBRANCH  33  34
BRANCH  33  39
HETATM   39  C21 UNL     1       8.506  31.490   2.870  1.00  0.00     0.009 C 
HETATM   40  C22 UNL     1       7.171  31.201   2.192  1.00  0.00     0.012 C 
HETATM   41  C23 UNL     1       8.504  32.870   3.435  1.00  0.00     0.012 C 
ENDBRANCH  33  39
ENDBRANCH  31  33
ENDBRANCH  28  31
ENDBRANCH  25  28
ENDBRANCH  24  25
ENDBRANCH   1  24
BRANCH   1  42
HETATM   42  C24 UNL     1       5.653  34.586   0.244  1.00  0.00    -0.039 C 
HETATM   43  C25 UNL     1       4.726  35.659  -0.198  1.00  0.00     0.015 C 
HETATM   44  C26 UNL     1       4.762  33.355   0.490  1.00  0.00     0.015 C 
HETATM   45  C27 UNL     1       6.165  34.984   1.637  1.00  0.00     0.015 C 
ENDBRANCH   1  42
TORSDOF 18
ENDMDL
MODEL 2
REMARK VINA RESULT: -6.161590968      1.724      2.659
REMARK  18 active torsions:
REMARK  status: ('A' for Active; 'I' for Inactive)
REMARK    1  A    between atoms: C2_2  and  O1_3 
REMARK    2  A    between atoms: O1_3  and  C3_4 
REMARK       I    between atoms: C3_4  and  N1_6 
REMARK    3  A    between atoms: N1_6  and  C4_7 
REMARK    4  A    between atoms: N1_6  and  C9_12 
REMARK    5  A    between atoms: C4_7  and  C5_8 
REMARK    6  A    between atoms: C5_8  and  C6_9 
REMARK    7  A    between atoms: C9_12  and  C10_13 
REMARK    8  A    between atoms: C9_12  and  C28_42 
REMARK       I    between atoms: C10_13  and  N2_15 
REMARK       I    between atoms: N2_15  and  C11_17 
REMARK    9  A    between atoms: C11_17  and  C12_19 
REMARK   10  A    between atoms: C12_19  and  C13_20 
REMARK   11  A    between atoms: C12_19  and  C24_38 
REMARK   12  A    between atoms: C13_20  and  C14_21 
REMARK   13  A    between atoms: C14_21  and  O5_22 
REMARK   14  A    between atoms: C14_21  and  C15_24 
REMARK   15  A    between atoms: C15_24  and  N3_27 
REMARK   16  A    between atoms: N3_27  and  C18_29 
REMARK   17  A    between atoms: C18_29  and  C19_30 
REMARK   18  A    between atoms: C18_29  and  C21_35 
REMARK       I    between atoms: C19_30  and  N4_32 
ROOT
HETATM    1  C12 UNL     1       6.726  34.164  -0.629  1.00  0.00     0.088 C 
ENDROOT
BRANCH   1   2
HETATM    2  C11 UNL     1       6.803  35.241  -1.705  1.00  0.00     0.229 C 
HETATM    3  N2  UNL     1       7.628  36.360  -1.703  1.00  0.00    -0.295 N 
HETATM    4  C10 UNL     1       7.679  37.258  -2.802  1.00  0.00     0.248 C 
ATOM      5  H2  UNL     1       8.215  36.541  -0.888  1.00  0.00     0.171 HD
HETATM    6  O3  UNL     1       6.857  36.995  -3.753  1.00  0.00    -0.271 OA
HETATM    7  O4  UNL     1       6.030  35.071  -2.683  1.00  0.00    -0.273 OA
BRANCH   4   8
HETATM    8  C9  UNL     1       8.574  38.410  -2.925  1.00  0.00     0.189 C 
BRANCH   8   9
HETATM    9  N1  UNL     1       8.345  39.397  -1.919  1.00  0.00    -0.314 N 
HETATM   10  C3  UNL     1       8.493  39.291  -0.565  1.00  0.00     0.363 C 
HETATM   11  O2  UNL     1       8.241  40.329   0.167  1.00  0.00    -0.238 OA
BRANCH  10  12
HETATM   12  O1  UNL     1       8.881  38.207   0.164  1.00  0.00    -0.304 OA
BRANCH  12  13
HETATM   13  C2  UNL     1       9.578  38.323   1.378  1.00  0.00     0.176 C 
HETATM   14  C1  UNL     1      11.071  38.452   1.171  1.00  0.00     0.034 C 
ENDBRANCH  12  13
ENDBRANCH  10  12
BRANCH   9  15
HETATM   15  C4  UNL     1       7.883  40.721  -2.422  1.00  0.00     0.129 C 
BRANCH  15  16
HETATM   16  C5  UNL     1       6.578  40.555  -3.161  1.00  0.00     0.024 C 
BRANCH  16  17
HETATM   17  C6  UNL     1       5.415  40.582  -2.230  1.00  0.00    -0.021 C 
HETATM   18  C7  UNL     1       4.270  41.427  -2.775  1.00  0.00     0.009 C 
HETATM   19  C8  UNL     1       4.863  39.231  -1.898  1.00  0.00     0.009 C 
ENDBRANCH  16  17
ENDBRANCH  15  16
ENDBRANCH   9  15
ENDBRANCH   8   9
BRANCH   8  20
HETATM   20  C28 UNL     1       9.990  37.992  -3.078  1.00  0.00    -0.022 C 
HETATM   21  C29 UNL     1      10.935  39.210  -2.959  1.00  0.00     0.017 C 
HETATM   22  C30 UNL     1      10.478  36.797  -2.356  1.00  0.00     0.017 C 
HETATM   23  C31 UNL     1      10.182  37.626  -4.585  1.00  0.00     0.017 C 
ENDBRANCH   8  20
ENDBRANCH   4   8
ENDBRANCH   1   2
BRANCH   1  24
HETATM   24  C13 UNL     1       8.080  34.193  -0.018  1.00  0.00     0.049 C 
BRANCH  24  25
HETATM   25  C14 UNL     1       9.081  33.167  -0.428  1.00  0.00     0.146 C 
BRANCH  25  26
HETATM   26  O5  UNL     1       9.544  33.532  -1.719  1.00  0.00    -0.393 OA
ATOM     27  H5  UNL     1      10.479  33.684  -1.645  1.00  0.00     0.210 HD
ENDBRANCH  25  26
BRANCH  25  28
HETATM   28  C15 UNL     1      10.326  33.245   0.443  1.00  0.00     0.045 C 
HETATM   29  C16 UNL     1      10.751  34.703   0.588  1.00  0.00     0.040 C 
HETATM   30  C17 UNL     1      11.428  32.594  -0.422  1.00  0.00     0.040 C 
BRANCH  28  31
HETATM   31  N3  UNL     1      10.255  32.543   1.623  1.00  0.00    -0.398 N 
ATOM     32  H3  UNL     1      10.669  32.995   2.439  1.00  0.00     0.154 HD
BRANCH  31  33
HETATM   33  C18 UNL     1       9.692  31.307   1.838  1.00  0.00     0.173 C 
BRANCH  33  34
HETATM   34  C19 UNL     1      10.467  30.150   2.303  1.00  0.00     0.240 C 
HETATM   35  O6  UNL     1      11.266  29.545   1.548  1.00  0.00    -0.271 OA
HETATM   36  N4  UNL     1      10.355  29.644   3.648  1.00  0.00    -0.364 N 
HETATM   37  C20 UNL     1      11.145  28.508   4.028  1.00  0.00     0.149 C 
ATOM     38  H4  UNL     1       9.726  30.086   4.318  1.00  0.00     0.161 HD
ENDBRANCH  33  34
BRANCH  33  39
HETATM   39  C21 UNL     1       8.558  31.496   2.896  1.00  0.00     0.009 C 
HETATM   40  C22 UNL     1       7.211  31.236   2.229  1.00  0.00     0.012 C 
HETATM   41  C23 UNL     1       8.589  32.875   3.462  1.00  0.00     0.012 C 
ENDBRANCH  33  39
ENDBRANCH  31  33
ENDBRANCH  28  31
ENDBRANCH  25  28
ENDBRANCH  24  25
ENDBRANCH   1  24
BRANCH   1  42
HETATM   42  C24 UNL     1       5.586  34.456   0.256  1.00  0.00    -0.039 C 
HETATM   43  C25 UNL     1       4.682  35.539  -0.207  1.00  0.00     0.015 C 
HETATM   44  C26 UNL     1       4.679  33.232   0.468  1.00  0.00     0.015 C 
HETATM   45  C27 UNL     1       6.059  34.842   1.666  1.00  0.00     0.015 C 
ENDBRANCH   1  42
TORSDOF 18
ENDMDL
MODEL 3
REMARK VINA RESULT: -6.119055033      2.032      3.067
REMARK  18 active torsions:
REMARK  status: ('A' for Active; 'I' for Inactive)
REMARK    1  A    between atoms: C2_2  and  O1_3 
REMARK    2  A    between atoms: O1_3  and  C3_4 
REMARK       I    between atoms: C3_4  and  N1_6 
REMARK    3  A    between atoms: N1_6  and  C4_7 
REMARK    4  A    between atoms: N1_6  and  C9_12 
REMARK    5  A    between atoms: C4_7  and  C5_8 
REMARK    6  A    between atoms: C5_8  and  C6_9 
REMARK    7  A    between atoms: C9_12  and  C10_13 
REMARK    8  A    between atoms: C9_12  and  C28_42 
REMARK       I    between atoms: C10_13  and  N2_15 
REMARK       I    between atoms: N2_15  and  C11_17 
REMARK    9  A    between atoms: C11_17  and  C12_19 
REMARK   10  A    between atoms: C12_19  and  C13_20 
REMARK   11  A    between atoms: C12_19  and  C24_38 
REMARK   12  A    between atoms: C13_20  and  C14_21 
REMARK   13  A    between atoms: C14_21  and  O5_22 
REMARK   14  A    between atoms: C14_21  and  C15_24 
REMARK   15  A    between atoms: C15_24  and  N3_27 
REMARK   16  A    between atoms: N3_27  and  C18_29 
REMARK   17  A    between atoms: C18_29  and  C19_30 
REMARK   18  A    between atoms: C18_29  and  C21_35 
REMARK       I    between atoms: C19_30  and  N4_32 
ROOT
HETATM    1  C12 UNL     1       6.553  34.276  -0.827  1.00  0.00     0.088 C 
ENDROOT
BRANCH   1   2
HETATM    2  C11 UNL     1       6.376  35.245  -1.991  1.00  0.00     0.229 C 
HETATM    3  N2  UNL     1       7.077  36.428  -2.199  1.00  0.00    -0.295 N 
HETATM    4  C10 UNL     1       6.889  37.215  -3.366  1.00  0.00     0.248 C 
ATOM      5  H2  UNL     1       7.744  36.739  -1.494  1.00  0.00     0.171 HD
HETATM    6  O3  UNL     1       5.981  36.789  -4.166  1.00  0.00    -0.271 OA
HETATM    7  O4  UNL     1       5.503  34.912  -2.832  1.00  0.00    -0.273 OA
BRANCH   4   8
HETATM    8  C9  UNL     1       7.638  38.426  -3.712  1.00  0.00     0.189 C 
BRANCH   8   9
HETATM    9  N1  UNL     1       7.420  39.492  -2.788  1.00  0.00    -0.314 N 
HETATM   10  C3  UNL     1       7.740  39.554  -1.460  1.00  0.00     0.363 C 
HETATM   11  O2  UNL     1       7.462  40.638  -0.808  1.00  0.00    -0.238 OA
BRANCH  10  12
HETATM   12  O1  UNL     1       8.334  38.604  -0.685  1.00  0.00    -0.304 OA
BRANCH  12  13
HETATM   13  C2  UNL     1       9.521  38.842   0.026  1.00  0.00     0.176 C 
HETATM   14  C1  UNL     1       9.340  38.667   1.518  1.00  0.00     0.034 C 
ENDBRANCH  12  13
ENDBRANCH  10  12
BRANCH   9  15
HETATM   15  C4  UNL     1       6.754  40.698  -3.354  1.00  0.00     0.129 C 
BRANCH  15  16
HETATM   16  C5  UNL     1       5.265  40.469  -3.419  1.00  0.00     0.024 C 
BRANCH  16  17
HETATM   17  C6  UNL     1       4.512  41.577  -2.768  1.00  0.00    -0.021 C 
HETATM   18  C7  UNL     1       3.300  42.002  -3.589  1.00  0.00     0.009 C 
HETATM   19  C8  UNL     1       4.033  41.264  -1.385  1.00  0.00     0.009 C 
ENDBRANCH  16  17
ENDBRANCH  15  16
ENDBRANCH   9  15
ENDBRANCH   8   9
BRANCH   8  20
HETATM   20  C28 UNL     1       9.064  38.126  -3.995  1.00  0.00    -0.022 C 
HETATM   21  C29 UNL     1       9.891  39.431  -4.070  1.00  0.00     0.017 C 
HETATM   22  C30 UNL     1       9.743  37.043  -3.251  1.00  0.00     0.017 C 
HETATM   23  C31 UNL     1       9.131  37.660  -5.484  1.00  0.00     0.017 C 
ENDBRANCH   8  20
ENDBRANCH   4   8
ENDBRANCH   1   2
BRANCH   1  24
HETATM   24  C13 UNL     1       7.952  34.515  -0.391  1.00  0.00     0.049 C 
BRANCH  24  25
HETATM   25  C14 UNL     1       8.949  33.415  -0.523  1.00  0.00     0.146 C 
BRANCH  25  26
HETATM   26  O5  UNL     1       9.531  33.535  -1.812  1.00  0.00    -0.393 OA
ATOM     27  H5  UNL     1      10.308  32.987  -1.818  1.00  0.00     0.210 HD
ENDBRANCH  25  26
BRANCH  25  28
HETATM   28  C15 UNL     1      10.120  33.626   0.427  1.00  0.00     0.045 C 
HETATM   29  C16 UNL     1      10.307  35.119   0.673  1.00  0.00     0.040 C 
HETATM   30  C17 UNL     1      11.353  33.201  -0.401  1.00  0.00     0.040 C 
BRANCH  28  31
HETATM   31  N3  UNL     1      10.093  32.850   1.562  1.00  0.00    -0.398 N 
ATOM     32  H3  UNL     1      10.508  33.264   2.397  1.00  0.00     0.154 HD
BRANCH  31  33
HETATM   33  C18 UNL     1       9.574  31.586   1.709  1.00  0.00     0.173 C 
BRANCH  33  34
HETATM   34  C19 UNL     1      10.400  30.421   2.050  1.00  0.00     0.240 C 
HETATM   35  O6  UNL     1      11.291  29.994   1.275  1.00  0.00    -0.271 OA
HETATM   36  N4  UNL     1      10.239  29.704   3.290  1.00  0.00    -0.364 N 
HETATM   37  C20 UNL     1      11.084  28.575   3.552  1.00  0.00     0.149 C 
ATOM     38  H4  UNL     1       9.536  29.994   3.969  1.00  0.00     0.161 HD
ENDBRANCH  33  34
BRANCH  33  39
HETATM   39  C21 UNL     1       8.487  31.662   2.829  1.00  0.00     0.009 C 
HETATM   40  C22 UNL     1       7.123  31.365   2.215  1.00  0.00     0.012 C 
HETATM   41  C23 UNL     1       8.479  33.011   3.464  1.00  0.00     0.012 C 
ENDBRANCH  33  39
ENDBRANCH  31  33
ENDBRANCH  28  31
ENDBRANCH  25  28
ENDBRANCH  24  25
ENDBRANCH   1  24
BRANCH   1  42
HETATM   42  C24 UNL     1       5.491  34.523   0.163  1.00  0.00    -0.039 C 
HETATM   43  C25 UNL     1       4.598  33.369   0.440  1.00  0.00     0.015 C 
HETATM   44  C26 UNL     1       6.053  34.941   1.533  1.00  0.00     0.015 C 
HETATM   45  C27 UNL     1       4.591  35.692  -0.266  1.00  0.00     0.015 C 
ENDBRANCH   1  42
TORSDOF 18
ENDMDL
MODEL 4
REMARK VINA RESULT: -6.077030563      2.369      2.896
REMARK  18 active torsions:
REMARK  status: ('A' for Active; 'I' for Inactive)
REMARK    1  A    between atoms: C2_2  and  O1_3 
REMARK    2  A    between atoms: O1_3  and  C3_4 
REMARK       I    between atoms: C3_4  and  N1_6 
REMARK    3  A    between atoms: N1_6  and  C4_7 
REMARK    4  A    between atoms: N1_6  and  C9_12 
REMARK    5  A    between atoms: C4_7  and  C5_8 
REMARK    6  A    between atoms: C5_8  and  C6_9 
REMARK    7  A    between atoms: C9_12  and  C10_13 
REMARK    8  A    between atoms: C9_12  and  C28_42 
REMARK       I    between atoms: C10_13  and  N2_15 
REMARK       I    between atoms: N2_15  and  C11_17 
REMARK    9  A    between atoms: C11_17  and  C12_19 
REMARK   10  A    between atoms: C12_19  and  C13_20 
REMARK   11  A    between atoms: C12_19  and  C24_38 
REMARK   12  A    between atoms: C13_20  and  C14_21 
REMARK   13  A    between atoms: C14_21  and  O5_22 
REMARK   14  A    between atoms: C14_21  and  C15_24 
REMARK   15  A    between atoms: C15_24  and  N3_27 
REMARK   16  A    between atoms: N3_27  and  C18_29 
REMARK   17  A    between atoms: C18_29  and  C19_30 
REMARK   18  A    between atoms: C18_29  and  C21_35 
REMARK       I    between atoms: C19_30  and  N4_32 
ROOT
HETATM    1  C12 UNL     1       6.601  34.559  -1.138  1.00  0.00     0.088 C 
ENDROOT
BRANCH   1   2
HETATM    2  C11 UNL     1       6.190  35.636  -2.135  1.00  0.00     0.229 C 
HETATM    3  N2  UNL     1       6.606  36.963  -2.142  1.00  0.00    -0.295 N 
HETATM    4  C10 UNL     1       6.225  37.864  -3.172  1.00  0.00     0.248 C 
ATOM      5  H2  UNL     1       7.203  37.300  -1.386  1.00  0.00     0.171 HD
HETATM    6  O3  UNL     1       5.418  37.378  -4.044  1.00  0.00    -0.271 OA
HETATM    7  O4  UNL     1       5.395  35.255  -3.032  1.00  0.00    -0.273 OA
BRANCH   4   8
HETATM    8  C9  UNL     1       6.680  39.250  -3.310  1.00  0.00     0.189 C 
BRANCH   8   9
HETATM    9  N1  UNL     1       7.008  39.849  -2.056  1.00  0.00    -0.314 N 
HETATM   10  C3  UNL     1       7.993  39.505  -1.173  1.00  0.00     0.363 C 
HETATM   11  O2  UNL     1       8.123  40.205  -0.090  1.00  0.00    -0.238 OA
BRANCH  10  12
HETATM   12  O1  UNL     1       8.898  38.491  -1.264  1.00  0.00    -0.304 OA
BRANCH  12  13
HETATM   13  C2  UNL     1      10.280  38.718  -1.361  1.00  0.00     0.176 C 
HETATM   14  C1  UNL     1      10.995  37.599  -2.086  1.00  0.00     0.034 C 
ENDBRANCH  12  13
ENDBRANCH  10  12
BRANCH   9  15
HETATM   15  C4  UNL     1       6.157  41.007  -1.664  1.00  0.00     0.129 C 
BRANCH  15  16
HETATM   16  C5  UNL     1       4.887  41.001  -2.478  1.00  0.00     0.024 C 
BRANCH  16  17
HETATM   17  C6  UNL     1       3.941  42.059  -2.025  1.00  0.00    -0.021 C 
HETATM   18  C7  UNL     1       2.854  42.331  -3.058  1.00  0.00     0.009 C 
HETATM   19  C8  UNL     1       3.265  41.761  -0.724  1.00  0.00     0.009 C 
ENDBRANCH  16  17
ENDBRANCH  15  16
ENDBRANCH   9  15
ENDBRANCH   8   9
BRANCH   8  20
HETATM   20  C28 UNL     1       7.722  39.384  -4.358  1.00  0.00    -0.022 C 
HETATM   21  C29 UNL     1       8.577  40.650  -4.118  1.00  0.00     0.017 C 
HETATM   22  C30 UNL     1       8.521  38.201  -4.747  1.00  0.00     0.017 C 
HETATM   23  C31 UNL     1       6.979  39.785  -5.671  1.00  0.00     0.017 C 
ENDBRANCH   8  20
ENDBRANCH   4   8
ENDBRANCH   1   2
BRANCH   1  24
HETATM   24  C13 UNL     1       7.994  34.932  -0.785  1.00  0.00     0.049 C 
BRANCH  24  25
HETATM   25  C14 UNL     1       9.027  33.863  -0.684  1.00  0.00     0.146 C 
BRANCH  25  26
HETATM   26  O5  UNL     1       9.803  33.923  -1.871  1.00  0.00    -0.393 OA
ATOM     27  H5  UNL     1       9.394  33.339  -2.500  1.00  0.00     0.210 HD
ENDBRANCH  25  26
BRANCH  25  28
HETATM   28  C15 UNL     1      10.026  34.174   0.422  1.00  0.00     0.045 C 
HETATM   29  C16 UNL     1       9.878  35.633   0.839  1.00  0.00     0.040 C 
HETATM   30  C17 UNL     1      11.398  34.098  -0.283  1.00  0.00     0.040 C 
BRANCH  28  31
HETATM   31  N3  UNL     1      10.041  33.273   1.460  1.00  0.00    -0.398 N 
ATOM     32  H3  UNL     1      10.384  33.626   2.354  1.00  0.00     0.154 HD
BRANCH  31  33
HETATM   33  C18 UNL     1       9.649  31.955   1.442  1.00  0.00     0.173 C 
BRANCH  33  34
HETATM   34  C19 UNL     1      10.604  30.841   1.451  1.00  0.00     0.240 C 
HETATM   35  O6  UNL     1      11.245  30.512   0.423  1.00  0.00    -0.271 OA
HETATM   36  N4  UNL     1      10.862  30.062   2.636  1.00  0.00    -0.364 N 
HETATM   37  C20 UNL     1      11.809  28.987   2.567  1.00  0.00     0.149 C 
ATOM     38  H4  UNL     1      10.378  30.271   3.510  1.00  0.00     0.161 HD
ENDBRANCH  33  34
BRANCH  33  39
HETATM   39  C21 UNL     1       8.739  31.729   2.691  1.00  0.00     0.009 C 
HETATM   40  C22 UNL     1       7.409  31.139   2.234  1.00  0.00     0.012 C 
HETATM   41  C23 UNL     1       8.506  33.013   3.414  1.00  0.00     0.012 C 
ENDBRANCH  33  39
ENDBRANCH  31  33
ENDBRANCH  28  31
ENDBRANCH  25  28
ENDBRANCH  24  25
ENDBRANCH   1  24
BRANCH   1  42
HETATM   42  C24 UNL     1       5.618  34.526  -0.042  1.00  0.00    -0.039 C 
HETATM   43  C25 UNL     1       4.375  35.304  -0.278  1.00  0.00     0.015 C 
HETATM   44  C26 UNL     1       5.149  33.097   0.282  1.00  0.00     0.015 C 
HETATM   45  C27 UNL     1       6.228  35.045   1.269  1.00  0.00     0.015 C 
ENDBRANCH   1  42
TORSDOF 18
ENDMDL
MODEL 5
REMARK VINA RESULT: -6.058877094      2.713      4.933
REMARK  18 active torsions:
REMARK  status: ('A' for Active; 'I' for Inactive)
REMARK    1  A    between atoms: C2_2  and  O1_3 
REMARK    2  A    between atoms: O1_3  and  C3_4 
REMARK       I    between atoms: C3_4  and  N1_6 
REMARK    3  A    between atoms: N1_6  and  C4_7 
REMARK    4  A    between atoms: N1_6  and  C9_12 
REMARK    5  A    between atoms: C4_7  and  C5_8 
REMARK    6  A    between atoms: C5_8  and  C6_9 
REMARK    7  A    between atoms: C9_12  and  C10_13 
REMARK    8  A    between atoms: C9_12  and  C28_42 
REMARK       I    between atoms: C10_13  and  N2_15 
REMARK       I    between atoms: N2_15  and  C11_17 
REMARK    9  A    between atoms: C11_17  and  C12_19 
REMARK   10  A    between atoms: C12_19  and  C13_20 
REMARK   11  A    between atoms: C12_19  and  C24_38 
REMARK   12  A    between atoms: C13_20  and  C14_21 
REMARK   13  A    between atoms: C14_21  and  O5_22 
REMARK   14  A    between atoms: C14_21  and  C15_24 
REMARK   15  A    between atoms: C15_24  and  N3_27 
REMARK   16  A    between atoms: N3_27  and  C18_29 
REMARK   17  A    between atoms: C18_29  and  C19_30 
REMARK   18  A    between atoms: C18_29  and  C21_35 
REMARK       I    between atoms: C19_30  and  N4_32 
ROOT
HETATM    1  C12 UNL     1       6.654  33.630   0.016  1.00  0.00     0.088 C 
ENDROOT
BRANCH   1   2
HETATM    2  C11 UNL     1       5.831  34.803  -0.504  1.00  0.00     0.229 C 
HETATM    3  N2  UNL     1       6.307  35.907  -1.202  1.00  0.00    -0.295 N 
HETATM    4  C10 UNL     1       5.436  36.905  -1.714  1.00  0.00     0.248 C 
ATOM      5  H2  UNL     1       7.312  36.003  -1.352  1.00  0.00     0.171 HD
HETATM    6  O3  UNL     1       4.197  36.744  -1.420  1.00  0.00    -0.271 OA
HETATM    7  O4  UNL     1       4.598  34.736  -0.262  1.00  0.00    -0.273 OA
BRANCH   4   8
HETATM    8  C9  UNL     1       5.836  38.053  -2.531  1.00  0.00     0.189 C 
BRANCH   8   9
HETATM    9  N1  UNL     1       6.638  38.990  -1.811  1.00  0.00    -0.314 N 
HETATM   10  C3  UNL     1       7.813  38.777  -1.146  1.00  0.00     0.363 C 
HETATM   11  O2  UNL     1       8.386  39.786  -0.568  1.00  0.00    -0.238 OA
BRANCH  10  12
HETATM   12  O1  UNL     1       8.503  37.612  -0.991  1.00  0.00    -0.304 OA
BRANCH  12  13
HETATM   13  C2  UNL     1       9.732  37.546  -0.316  1.00  0.00     0.176 C 
HETATM   14  C1  UNL     1       9.563  37.218   1.151  1.00  0.00     0.034 C 
ENDBRANCH  12  13
ENDBRANCH  10  12
BRANCH   9  15
HETATM   15  C4  UNL     1       6.119  40.385  -1.788  1.00  0.00     0.129 C 
BRANCH  15  16
HETATM   16  C5  UNL     1       4.615  40.368  -1.904  1.00  0.00     0.024 C 
BRANCH  16  17
HETATM   17  C6  UNL     1       4.044  41.741  -1.819  1.00  0.00    -0.021 C 
HETATM   18  C7  UNL     1       3.248  42.105  -3.067  1.00  0.00     0.009 C 
HETATM   19  C8  UNL     1       3.156  41.964  -0.635  1.00  0.00     0.009 C 
ENDBRANCH  16  17
ENDBRANCH  15  16
ENDBRANCH   9  15
ENDBRANCH   8   9
BRANCH   8  20
HETATM   20  C28 UNL     1       6.393  37.629  -3.840  1.00  0.00    -0.022 C 
HETATM   21  C29 UNL     1       5.969  38.609  -4.958  1.00  0.00     0.017 C 
HETATM   22  C30 UNL     1       7.811  37.216  -3.928  1.00  0.00     0.017 C 
HETATM   23  C31 UNL     1       5.602  36.351  -4.264  1.00  0.00     0.017 C 
ENDBRANCH   8  20
ENDBRANCH   4   8
ENDBRANCH   1   2
BRANCH   1  24
HETATM   24  C13 UNL     1       8.050  34.127  -0.068  1.00  0.00     0.049 C 
BRANCH  24  25
HETATM   25  C14 UNL     1       8.934  33.625  -1.157  1.00  0.00     0.146 C 
BRANCH  25  26
HETATM   26  O5  UNL     1       9.059  34.673  -2.106  1.00  0.00    -0.393 OA
ATOM     27  H5  UNL     1       9.386  34.283  -2.909  1.00  0.00     0.210 HD
ENDBRANCH  25  26
BRANCH  25  28
HETATM   28  C15 UNL     1      10.355  33.417  -0.652  1.00  0.00     0.045 C 
HETATM   29  C16 UNL     1      10.753  31.958  -0.851  1.00  0.00     0.040 C 
HETATM   30  C17 UNL     1      10.236  33.591   0.878  1.00  0.00     0.040 C 
BRANCH  28  31
HETATM   31  N3  UNL     1      11.272  34.335  -1.106  1.00  0.00    -0.398 N 
ATOM     32  H3  UNL     1      11.160  35.288  -0.761  1.00  0.00     0.154 HD
BRANCH  31  33
HETATM   33  C18 UNL     1      12.324  34.124  -1.967  1.00  0.00     0.173 C 
BRANCH  33  34
HETATM   34  C19 UNL     1      12.317  34.587  -3.359  1.00  0.00     0.240 C 
HETATM   35  O6  UNL     1      13.279  34.362  -4.134  1.00  0.00    -0.271 OA
HETATM   36  N4  UNL     1      11.210  35.323  -3.917  1.00  0.00    -0.364 N 
HETATM   37  C20 UNL     1      11.276  35.742  -5.287  1.00  0.00     0.149 C 
ATOM     38  H4  UNL     1      10.393  35.541  -3.347  1.00  0.00     0.161 HD
ENDBRANCH  33  34
BRANCH  33  39
HETATM   39  C21 UNL     1      13.586  34.780  -1.320  1.00  0.00     0.009 C 
HETATM   40  C22 UNL     1      14.194  33.802  -0.320  1.00  0.00     0.012 C 
HETATM   41  C23 UNL     1      13.225  36.054  -0.633  1.00  0.00     0.012 C 
ENDBRANCH  33  39
ENDBRANCH  31  33
ENDBRANCH  28  31
ENDBRANCH  25  28
ENDBRANCH  24  25
ENDBRANCH   1  24
BRANCH   1  42
HETATM   42  C24 UNL     1       6.155  33.253   1.349  1.00  0.00    -0.039 C 
HETATM   43  C25 UNL     1       4.753  32.766   1.390  1.00  0.00     0.015 C 
HETATM   44  C26 UNL     1       6.993  32.135   1.994  1.00  0.00     0.015 C 
HETATM   45  C27 UNL     1       6.248  34.430   2.332  1.00  0.00     0.015 C 
ENDBRANCH   1  42
TORSDOF 18
ENDMDL
