MODEL 1
REMARK VINA RESULT: -7.015278391      0.000      0.000
REMARK  16 active torsions:
REMARK  status: ('A' for Active; 'I' for Inactive)
REMARK    1  A    between atoms: O1_2  and  C2_3 
REMARK    2  A    between atoms: C2_3  and  C3_5 
REMARK    3  A    between atoms: C3_5  and  C4_6 
REMARK    4  A    between atoms: C4_6  and  N1_7 
REMARK    5  A    between atoms: C4_6  and  C29_43 
REMARK       I    between atoms: N1_7  and  C5_9 
REMARK    6  A    between atoms: C5_9  and  C6_11 
REMARK    7  A    between atoms: C6_11  and  N2_12 
REMARK    8  A    between atoms: C6_11  and  C26_40 
REMARK       I    between atoms: N2_12  and  C7_14 
REMARK    9  A    between atoms: C7_14  and  C8_16 
REMARK       I    between atoms: C8_16  and  N3_18 
REMARK   10  A    between atoms: N3_18  and  C9_20 
REMARK   11  A    between atoms: C9_20  and  C10_21 
REMARK   12  A    between atoms: C9_20  and  C17_28 
REMARK   13  A    between atoms: C10_21  and  C11_22 
REMARK   14  A    between atoms: C17_28  and  N4_29 
REMARK   15  A    between atoms: C17_28  and  C22_36 
REMARK       I    between atoms: N4_29  and  C18_31 
REMARK   16  A    between atoms: C18_31  and  C19_33 
ROOT
HETATM    1  C8  UNL     1      11.368  28.944   3.126  1.00  0.00     0.313 C 
HETATM    2  O5  UNL     1      10.632  28.105   3.741  1.00  0.00    -0.262 OA
HETATM    3  N3  UNL     1      12.771  28.953   3.343  1.00  0.00    -0.321 N 
ATOM      4  H3  UNL     1      13.315  29.642   2.824  1.00  0.00     0.169 HD
ENDROOT
BRANCH   1   5
HETATM    5  C7  UNL     1      10.693  29.841   2.232  1.00  0.00     0.310 C 
HETATM    6  N2  UNL     1      11.350  30.717   1.338  1.00  0.00    -0.339 N 
ATOM      7  H2  UNL     1      12.370  30.721   1.319  1.00  0.00     0.163 HD
HETATM    8  O4  UNL     1       9.431  29.856   2.237  1.00  0.00    -0.262 OA
BRANCH   6   9
HETATM    9  C6  UNL     1      10.619  31.629   0.428  1.00  0.00     0.180 C 
BRANCH   9  10
HETATM   10  C5  UNL     1       9.893  32.632   1.183  1.00  0.00     0.241 C 
HETATM   11  N1  UNL     1       8.512  32.869   1.126  1.00  0.00    -0.354 N 
ATOM     12  H1  UNL     1       7.938  32.311   0.496  1.00  0.00     0.162 HD
HETATM   13  O3  UNL     1      10.562  33.374   1.985  1.00  0.00    -0.271 OA
BRANCH  11  14
HETATM   14  C4  UNL     1       7.862  33.917   1.964  1.00  0.00     0.097 C 
BRANCH  14  15
HETATM   15  C3  UNL     1       6.646  33.246   2.525  1.00  0.00     0.136 C 
BRANCH  15  16
HETATM   16  C2  UNL     1       6.115  32.137   1.736  1.00  0.00     0.260 C 
HETATM   17  O2  UNL     1       6.275  30.956   2.126  1.00  0.00    -0.265 OA
BRANCH  16  18
HETATM   18  O1  UNL     1       5.432  32.340   0.554  1.00  0.00    -0.326 OA
HETATM   19  C1  UNL     1       4.139  32.958   0.532  1.00  0.00     0.213 C 
ENDBRANCH  16  18
ENDBRANCH  15  16
ENDBRANCH  14  15
BRANCH  14  20
HETATM   20  C29 UNL     1       7.569  35.036   0.997  1.00  0.00     0.001 C 
HETATM   21  C30 UNL     1       8.687  36.019   0.846  1.00  0.00     0.011 C 
HETATM   22  C31 UNL     1       6.342  35.769   1.504  1.00  0.00     0.011 C 
ENDBRANCH  14  20
ENDBRANCH  11  14
ENDBRANCH   9  10
BRANCH   9  23
HETATM   23  C26 UNL     1      11.520  32.075  -0.669  1.00  0.00     0.009 C 
HETATM   24  C27 UNL     1      11.075  33.298  -1.422  1.00  0.00     0.012 C 
HETATM   25  C28 UNL     1      12.977  32.192  -0.294  1.00  0.00     0.012 C 
ENDBRANCH   9  23
ENDBRANCH   6   9
ENDBRANCH   1   5
BRANCH   3  26
HETATM   26  C9  UNL     1      13.498  28.080   4.227  1.00  0.00     0.032 C 
BRANCH  26  27
HETATM   27  C10 UNL     1      13.693  26.721   3.665  1.00  0.00     0.005 C 
BRANCH  27  28
HETATM   28  C11 UNL     1      15.013  26.203   3.313  1.00  0.00     0.010 C 
HETATM   29  C12 UNL     1      14.856  25.406   1.989  1.00  0.00     0.008 C 
HETATM   30  C13 UNL     1      16.191  25.101   1.400  1.00  0.00     0.001 C 
HETATM   31  C14 UNL     1      17.283  25.092   2.468  1.00  0.00     0.000 C 
HETATM   32  C15 UNL     1      17.448  26.414   3.119  1.00  0.00     0.001 C 
HETATM   33  C16 UNL     1      16.120  27.167   3.085  1.00  0.00     0.008 C 
ENDBRANCH  27  28
ENDBRANCH  26  27
BRANCH  26  34
HETATM   34  C17 UNL     1      13.322  28.254   5.678  1.00  0.00     0.141 C 
BRANCH  34  35
HETATM   35  N4  UNL     1      13.477  26.989   6.383  1.00  0.00    -0.350 N 
HETATM   36  C18 UNL     1      12.475  26.032   6.608  1.00  0.00     0.222 C 
HETATM   37  O6  UNL     1      11.319  26.251   6.178  1.00  0.00    -0.273 OA
ATOM     38  H4  UNL     1      14.405  26.777   6.749  1.00  0.00     0.163 HD
BRANCH  36  39
HETATM   39  C19 UNL     1      12.735  24.783   7.335  1.00  0.00     0.078 A 
HETATM   40  C20 UNL     1      13.979  24.579   8.134  1.00  0.00     0.015 A 
HETATM   41  C21 UNL     1      13.821  23.849   6.840  1.00  0.00     0.015 A 
ENDBRANCH  36  39
ENDBRANCH  34  35
BRANCH  34  42
HETATM   42  C22 UNL     1      14.259  29.202   6.369  1.00  0.00    -0.025 C 
HETATM   43  C23 UNL     1      15.152  30.047   5.548  1.00  0.00     0.017 C 
HETATM   44  C24 UNL     1      13.349  30.164   7.162  1.00  0.00     0.017 C 
HETATM   45  C25 UNL     1      15.124  28.525   7.409  1.00  0.00     0.017 C 
ENDBRANCH  34  42
ENDBRANCH  26  34
ENDBRANCH   3  26
TORSDOF 16
ENDMDL
MODEL 2
REMARK VINA RESULT: -6.917834401      2.439     10.338
REMARK  16 active torsions:
REMARK  status: ('A' for Active; 'I' for Inactive)
REMARK    1  A    between atoms: O1_2  and  C2_3 
REMARK    2  A    between atoms: C2_3  and  C3_5 
REMARK    3  A    between atoms: C3_5  and  C4_6 
REMARK    4  A    between atoms: C4_6  and  N1_7 
REMARK    5  A    between atoms: C4_6  and  C29_43 
REMARK       I    between atoms: N1_7  and  C5_9 
REMARK    6  A    between atoms: C5_9  and  C6_11 
REMARK    7  A    between atoms: C6_11  and  N2_12 
REMARK    8  A    between atoms: C6_11  and  C26_40 
REMARK       I    between atoms: N2_12  and  C7_14 
REMARK    9  A    between atoms: C7_14  and  C8_16 
REMARK       I    between atoms: C8_16  and  N3_18 
REMARK   10  A    between atoms: N3_18  and  C9_20 
REMARK   11  A    between atoms: C9_20  and  C10_21 
REMARK   12  A    between atoms: C9_20  and  C17_28 
REMARK   13  A    between atoms: C10_21  and  C11_22 
REMARK   14  A    between atoms: C17_28  and  N4_29 
REMARK   15  A    between atoms: C17_28  and  C22_36 
REMARK       I    between atoms: N4_29  and  C18_31 
REMARK   16  A    between atoms: C18_31  and  C19_33 
ROOT
HETATM    1  C8  UNL     1       9.928  31.395   2.051  1.00  0.00     0.313 C 
HETATM    2  O5  UNL     1       9.145  32.063   2.801  1.00  0.00    -0.262 OA
HETATM    3  N3  UNL     1      10.395  31.953   0.831  1.00  0.00    -0.321 N 
ATOM      4  H3  UNL     1      11.023  31.379   0.270  1.00  0.00     0.169 HD
ENDROOT
BRANCH   1   5
HETATM    5  C7  UNL     1      10.289  30.087   2.518  1.00  0.00     0.310 C 
HETATM    6  N2  UNL     1      11.452  29.803   3.269  1.00  0.00    -0.339 N 
ATOM      7  H2  UNL     1      12.085  30.569   3.498  1.00  0.00     0.163 HD
HETATM    8  O4  UNL     1       9.522  29.120   2.248  1.00  0.00    -0.262 OA
BRANCH   6   9
HETATM    9  C6  UNL     1      11.790  28.438   3.735  1.00  0.00     0.180 C 
BRANCH   9  10
HETATM   10  C5  UNL     1      13.226  28.233   3.723  1.00  0.00     0.241 C 
HETATM   11  N1  UNL     1      14.178  29.018   4.391  1.00  0.00    -0.354 N 
ATOM     12  H1  UNL     1      13.866  29.823   4.933  1.00  0.00     0.162 HD
HETATM   13  O3  UNL     1      13.682  27.244   3.049  1.00  0.00    -0.271 OA
BRANCH  11  14
HETATM   14  C4  UNL     1      15.634  28.706   4.328  1.00  0.00     0.097 C 
BRANCH  14  15
HETATM   15  C3  UNL     1      16.036  28.507   5.757  1.00  0.00     0.136 C 
BRANCH  15  16
HETATM   16  C2  UNL     1      14.942  28.261   6.693  1.00  0.00     0.260 C 
HETATM   17  O2  UNL     1      14.540  27.091   6.897  1.00  0.00    -0.265 OA
BRANCH  16  18
HETATM   18  O1  UNL     1      14.318  29.286   7.376  1.00  0.00    -0.326 OA
HETATM   19  C1  UNL     1      14.992  30.022   8.404  1.00  0.00     0.213 C 
ENDBRANCH  16  18
ENDBRANCH  15  16
ENDBRANCH  14  15
BRANCH  14  20
HETATM   20  C29 UNL     1      16.245  29.916   3.669  1.00  0.00     0.001 C 
HETATM   21  C30 UNL     1      17.572  29.656   3.028  1.00  0.00     0.011 C 
HETATM   22  C31 UNL     1      16.421  30.979   4.737  1.00  0.00     0.011 C 
ENDBRANCH  14  20
ENDBRANCH  11  14
ENDBRANCH   9  10
BRANCH   9  23
HETATM   23  C26 UNL     1      11.036  28.132   4.982  1.00  0.00     0.009 C 
HETATM   24  C27 UNL     1      11.271  26.766   5.567  1.00  0.00     0.012 C 
HETATM   25  C28 UNL     1      11.122  29.185   6.059  1.00  0.00     0.012 C 
ENDBRANCH   9  23
ENDBRANCH   6   9
ENDBRANCH   1   5
BRANCH   3  26
HETATM   26  C9  UNL     1      10.065  33.255   0.314  1.00  0.00     0.032 C 
BRANCH  26  27
HETATM   27  C10 UNL     1       8.788  33.271  -0.440  1.00  0.00     0.005 C 
BRANCH  27  28
HETATM   28  C11 UNL     1       7.693  34.178  -0.104  1.00  0.00     0.010 C 
HETATM   29  C12 UNL     1       6.367  33.393  -0.302  1.00  0.00     0.008 C 
HETATM   30  C13 UNL     1       5.224  34.135   0.302  1.00  0.00     0.001 C 
HETATM   31  C14 UNL     1       5.515  35.632   0.390  1.00  0.00     0.000 C 
HETATM   32  C15 UNL     1       6.671  35.933   1.270  1.00  0.00     0.001 C 
HETATM   33  C16 UNL     1       7.633  34.747   1.267  1.00  0.00     0.008 C 
ENDBRANCH  27  28
ENDBRANCH  26  27
BRANCH  26  34
HETATM   34  C17 UNL     1      11.167  34.143  -0.095  1.00  0.00     0.141 C 
BRANCH  34  35
HETATM   35  N4  UNL     1      10.891  34.766  -1.381  1.00  0.00    -0.350 N 
HETATM   36  C18 UNL     1      11.599  34.562  -2.576  1.00  0.00     0.222 C 
HETATM   37  O6  UNL     1      12.573  33.773  -2.577  1.00  0.00    -0.273 OA
ATOM     38  H4  UNL     1      10.106  35.416  -1.418  1.00  0.00     0.163 HD
BRANCH  36  39
HETATM   39  C19 UNL     1      11.239  35.244  -3.826  1.00  0.00     0.078 A 
HETATM   40  C20 UNL     1      12.100  35.168  -5.042  1.00  0.00     0.015 A 
HETATM   41  C21 UNL     1      12.044  36.447  -4.273  1.00  0.00     0.015 A 
ENDBRANCH  36  39
ENDBRANCH  34  35
BRANCH  34  42
HETATM   42  C22 UNL     1      11.500  35.280   0.826  1.00  0.00    -0.025 C 
HETATM   43  C23 UNL     1      11.184  35.152   2.264  1.00  0.00     0.017 C 
HETATM   44  C24 UNL     1      13.032  35.445   0.726  1.00  0.00     0.017 C 
HETATM   45  C25 UNL     1      10.928  36.603   0.364  1.00  0.00     0.017 C 
ENDBRANCH  34  42
ENDBRANCH  26  34
ENDBRANCH   3  26
TORSDOF 16
ENDMDL
MODEL 3
REMARK VINA RESULT: -6.813971936      1.779      2.584
REMARK  16 active torsions:
REMARK  status: ('A' for Active; 'I' for Inactive)
REMARK    1  A    between atoms: O1_2  and  C2_3 
REMARK    2  A    between atoms: C2_3  and  C3_5 
REMARK    3  A    between atoms: C3_5  and  C4_6 
REMARK    4  A    between atoms: C4_6  and  N1_7 
REMARK    5  A    between atoms: C4_6  and  C29_43 
REMARK       I    between atoms: N1_7  and  C5_9 
REMARK    6  A    between atoms: C5_9  and  C6_11 
REMARK    7  A    between atoms: C6_11  and  N2_12 
REMARK    8  A    between atoms: C6_11  and  C26_40 
REMARK       I    between atoms: N2_12  and  C7_14 
REMARK    9  A    between atoms: C7_14  and  C8_16 
REMARK       I    between atoms: C8_16  and  N3_18 
REMARK   10  A    between atoms: N3_18  and  C9_20 
REMARK   11  A    between atoms: C9_20  and  C10_21 
REMARK   12  A    between atoms: C9_20  and  C17_28 
REMARK   13  A    between atoms: C10_21  and  C11_22 
REMARK   14  A    between atoms: C17_28  and  N4_29 
REMARK   15  A    between atoms: C17_28  and  C22_36 
REMARK       I    between atoms: N4_29  and  C18_31 
REMARK   16  A    between atoms: C18_31  and  C19_33 
ROOT
HETATM    1  C8  UNL     1      11.493  29.630   2.053  1.00  0.00     0.313 C 
HETATM    2  O5  UNL     1      10.537  28.849   2.369  1.00  0.00    -0.262 OA
HETATM    3  N3  UNL     1      12.797  29.405   2.567  1.00  0.00    -0.321 N 
ATOM      4  H3  UNL     1      13.526  30.058   2.280  1.00  0.00     0.169 HD
ENDROOT
BRANCH   1   5
HETATM    5  C7  UNL     1      11.159  30.711   1.169  1.00  0.00     0.310 C 
HETATM    6  N2  UNL     1      10.816  32.013   1.600  1.00  0.00    -0.339 N 
ATOM      7  H2  UNL     1      10.801  32.209   2.600  1.00  0.00     0.163 HD
HETATM    8  O4  UNL     1      11.171  30.495  -0.075  1.00  0.00    -0.262 OA
BRANCH   6   9
HETATM    9  C6  UNL     1      10.479  33.104   0.657  1.00  0.00     0.180 C 
BRANCH   9  10
HETATM   10  C5  UNL     1       9.042  33.223   0.503  1.00  0.00     0.241 C 
HETATM   11  N1  UNL     1       8.115  33.427   1.536  1.00  0.00    -0.354 N 
ATOM     12  H1  UNL     1       8.449  33.489   2.497  1.00  0.00     0.162 HD
HETATM   13  O3  UNL     1       8.559  33.141  -0.681  1.00  0.00    -0.271 OA
BRANCH  11  14
HETATM   14  C4  UNL     1       6.655  33.556   1.264  1.00  0.00     0.097 C 
BRANCH  14  15
HETATM   15  C3  UNL     1       6.356  35.003   1.506  1.00  0.00     0.136 C 
BRANCH  15  16
HETATM   16  C2  UNL     1       6.105  35.805   0.311  1.00  0.00     0.260 C 
HETATM   17  O2  UNL     1       7.042  36.438  -0.230  1.00  0.00    -0.265 OA
BRANCH  16  18
HETATM   18  O1  UNL     1       4.851  35.896  -0.260  1.00  0.00    -0.326 OA
HETATM   19  C1  UNL     1       4.621  36.665  -1.446  1.00  0.00     0.213 C 
ENDBRANCH  16  18
ENDBRANCH  15  16
ENDBRANCH  14  15
BRANCH  14  20
HETATM   20  C29 UNL     1       6.010  32.611   2.247  1.00  0.00     0.001 C 
HETATM   21  C30 UNL     1       6.611  31.241   2.259  1.00  0.00     0.011 C 
HETATM   22  C31 UNL     1       4.544  32.496   1.876  1.00  0.00     0.011 C 
ENDBRANCH  14  20
ENDBRANCH  11  14
ENDBRANCH   9  10
BRANCH   9  23
HETATM   23  C26 UNL     1      11.263  34.323   0.996  1.00  0.00     0.009 C 
HETATM   24  C27 UNL     1      12.747  34.227   0.770  1.00  0.00     0.012 C 
HETATM   25  C28 UNL     1      10.728  35.611   0.420  1.00  0.00     0.012 C 
ENDBRANCH   9  23
ENDBRANCH   6   9
ENDBRANCH   1   5
BRANCH   3  26
HETATM   26  C9  UNL     1      13.186  28.341   3.455  1.00  0.00     0.032 C 
BRANCH  26  27
HETATM   27  C10 UNL     1      13.346  27.040   2.763  1.00  0.00     0.005 C 
BRANCH  27  28
HETATM   28  C11 UNL     1      14.571  26.248   2.859  1.00  0.00     0.010 C 
HETATM   29  C12 UNL     1      14.633  25.341   1.600  1.00  0.00     0.008 C 
HETATM   30  C13 UNL     1      15.984  24.726   1.463  1.00  0.00     0.001 C 
HETATM   31  C14 UNL     1      16.698  24.643   2.811  1.00  0.00     0.000 C 
HETATM   32  C15 UNL     1      16.947  25.981   3.402  1.00  0.00     0.001 C 
HETATM   33  C16 UNL     1      15.874  26.956   2.921  1.00  0.00     0.008 C 
ENDBRANCH  27  28
ENDBRANCH  26  27
BRANCH  26  34
HETATM   34  C17 UNL     1      12.693  28.377   4.842  1.00  0.00     0.141 C 
BRANCH  34  35
HETATM   35  N4  UNL     1      12.253  27.059   5.278  1.00  0.00    -0.350 N 
HETATM   36  C18 UNL     1      11.057  26.760   5.950  1.00  0.00     0.222 C 
HETATM   37  O6  UNL     1      10.264  27.690   6.220  1.00  0.00    -0.273 OA
ATOM     38  H4  UNL     1      12.874  26.276   5.076  1.00  0.00     0.163 HD
BRANCH  36  39
HETATM   39  C19 UNL     1      10.705  25.390   6.349  1.00  0.00     0.078 A 
HETATM   40  C20 UNL     1       9.910  25.107   7.579  1.00  0.00     0.015 A 
HETATM   41  C21 UNL     1      11.367  24.779   7.566  1.00  0.00     0.015 A 
ENDBRANCH  36  39
ENDBRANCH  34  35
BRANCH  34  42
HETATM   42  C22 UNL     1      13.661  28.832   5.896  1.00  0.00    -0.025 C 
HETATM   43  C23 UNL     1      13.170  29.696   6.990  1.00  0.00     0.017 C 
HETATM   44  C24 UNL     1      14.177  27.536   6.557  1.00  0.00     0.017 C 
HETATM   45  C25 UNL     1      14.890  29.501   5.320  1.00  0.00     0.017 C 
ENDBRANCH  34  42
ENDBRANCH  26  34
ENDBRANCH   3  26
TORSDOF 16
ENDMDL
MODEL 4
REMARK VINA RESULT: -6.809194724      4.258     11.572
REMARK  16 active torsions:
REMARK  status: ('A' for Active; 'I' for Inactive)
REMARK    1  A    between atoms: O1_2  and  C2_3 
REMARK    2  A    between atoms: C2_3  and  C3_5 
REMARK    3  A    between atoms: C3_5  and  C4_6 
REMARK    4  A    between atoms: C4_6  and  N1_7 
REMARK    5  A    between atoms: C4_6  and  C29_43 
REMARK       I    between atoms: N1_7  and  C5_9 
REMARK    6  A    between atoms: C5_9  and  C6_11 
REMARK    7  A    between atoms: C6_11  and  N2_12 
REMARK    8  A    between atoms: C6_11  and  C26_40 
REMARK       I    between atoms: N2_12  and  C7_14 
REMARK    9  A    between atoms: C7_14  and  C8_16 
REMARK       I    between atoms: C8_16  and  N3_18 
REMARK   10  A    between atoms: N3_18  and  C9_20 
REMARK   11  A    between atoms: C9_20  and  C10_21 
REMARK   12  A    between atoms: C9_20  and  C17_28 
REMARK   13  A    between atoms: C10_21  and  C11_22 
REMARK   14  A    between atoms: C17_28  and  N4_29 
REMARK   15  A    between atoms: C17_28  and  C22_36 
REMARK       I    between atoms: N4_29  and  C18_31 
REMARK   16  A    between atoms: C18_31  and  C19_33 
ROOT
HETATM    1  C8  UNL     1       8.922  35.422  -1.427  1.00  0.00     0.313 C 
HETATM    2  O5  UNL     1       8.596  36.475  -0.787  1.00  0.00    -0.262 OA
HETATM    3  N3  UNL     1       9.575  35.527  -2.684  1.00  0.00    -0.321 N 
ATOM      4  H3  UNL     1       9.817  34.654  -3.153  1.00  0.00     0.169 HD
ENDROOT
BRANCH   1   5
HETATM    5  C7  UNL     1       8.592  34.174  -0.801  1.00  0.00     0.310 C 
HETATM    6  N2  UNL     1       7.944  34.059   0.450  1.00  0.00    -0.339 N 
ATOM      7  H2  UNL     1       7.690  34.911   0.950  1.00  0.00     0.163 HD
HETATM    8  O4  UNL     1       8.895  33.104  -1.399  1.00  0.00    -0.262 OA
BRANCH   6   9
HETATM    9  C6  UNL     1       7.618  32.751   1.065  1.00  0.00     0.180 C 
BRANCH   9  10
HETATM   10  C5  UNL     1       8.776  32.199   1.740  1.00  0.00     0.241 C 
HETATM   11  N1  UNL     1       9.593  31.163   1.266  1.00  0.00    -0.354 N 
ATOM     12  H1  UNL     1       9.372  30.725   0.372  1.00  0.00     0.162 HD
HETATM   13  O3  UNL     1       9.100  32.699   2.875  1.00  0.00    -0.271 OA
BRANCH  11  14
HETATM   14  C4  UNL     1      10.777  30.683   2.034  1.00  0.00     0.097 C 
BRANCH  14  15
HETATM   15  C3  UNL     1      11.804  30.378   0.987  1.00  0.00     0.136 C 
BRANCH  15  16
HETATM   16  C2  UNL     1      11.654  31.099  -0.274  1.00  0.00     0.260 C 
HETATM   17  O2  UNL     1      11.282  30.491  -1.305  1.00  0.00    -0.265 OA
BRANCH  16  18
HETATM   18  O1  UNL     1      11.912  32.451  -0.380  1.00  0.00    -0.326 OA
HETATM   19  C1  UNL     1      13.235  32.977  -0.221  1.00  0.00     0.213 C 
ENDBRANCH  16  18
ENDBRANCH  15  16
ENDBRANCH  14  15
BRANCH  14  20
HETATM   20  C29 UNL     1      10.270  29.477   2.783  1.00  0.00     0.001 C 
HETATM   21  C30 UNL     1      10.392  29.588   4.270  1.00  0.00     0.011 C 
HETATM   22  C31 UNL     1      11.073  28.278   2.317  1.00  0.00     0.011 C 
ENDBRANCH  14  20
ENDBRANCH  11  14
ENDBRANCH   9  10
BRANCH   9  23
HETATM   23  C26 UNL     1       6.336  32.853   1.814  1.00  0.00     0.009 C 
HETATM   24  C27 UNL     1       5.251  33.651   1.145  1.00  0.00     0.012 C 
HETATM   25  C28 UNL     1       5.785  31.544   2.323  1.00  0.00     0.012 C 
ENDBRANCH   9  23
ENDBRANCH   6   9
ENDBRANCH   1   5
BRANCH   3  26
HETATM   26  C9  UNL     1       9.927  36.749  -3.357  1.00  0.00     0.032 C 
BRANCH  26  27
HETATM   27  C10 UNL     1       8.907  37.178  -4.345  1.00  0.00     0.005 C 
BRANCH  27  28
HETATM   28  C11 UNL     1       7.487  37.269  -4.014  1.00  0.00     0.010 C 
HETATM   29  C12 UNL     1       7.270  38.624  -3.287  1.00  0.00     0.008 C 
HETATM   30  C13 UNL     1       5.816  38.935  -3.183  1.00  0.00     0.001 C 
HETATM   31  C14 UNL     1       4.968  37.666  -3.241  1.00  0.00     0.000 C 
HETATM   32  C15 UNL     1       5.112  36.948  -4.531  1.00  0.00     0.001 C 
HETATM   33  C16 UNL     1       6.494  37.230  -5.117  1.00  0.00     0.008 C 
ENDBRANCH  27  28
ENDBRANCH  26  27
BRANCH  26  34
HETATM   34  C17 UNL     1      11.352  37.019  -3.612  1.00  0.00     0.141 C 
BRANCH  34  35
HETATM   35  N4  UNL     1      11.795  36.387  -4.847  1.00  0.00    -0.350 N 
HETATM   36  C18 UNL     1      12.314  35.090  -4.980  1.00  0.00     0.222 C 
HETATM   37  O6  UNL     1      12.424  34.373  -3.959  1.00  0.00    -0.273 OA
ATOM     38  H4  UNL     1      11.721  36.942  -5.700  1.00  0.00     0.163 HD
BRANCH  36  39
HETATM   39  C19 UNL     1      12.735  34.545  -6.277  1.00  0.00     0.078 A 
HETATM   40  C20 UNL     1      13.968  33.717  -6.422  1.00  0.00     0.015 A 
HETATM   41  C21 UNL     1      13.965  35.112  -6.956  1.00  0.00     0.015 A 
ENDBRANCH  36  39
ENDBRANCH  34  35
BRANCH  34  42
HETATM   42  C22 UNL     1      11.758  38.458  -3.743  1.00  0.00    -0.025 C 
HETATM   43  C23 UNL     1      11.007  39.484  -2.989  1.00  0.00     0.017 C 
HETATM   44  C24 UNL     1      13.213  38.515  -3.232  1.00  0.00     0.017 C 
HETATM   45  C25 UNL     1      11.823  38.925  -5.181  1.00  0.00     0.017 C 
ENDBRANCH  34  42
ENDBRANCH  26  34
ENDBRANCH   3  26
TORSDOF 16
ENDMDL
MODEL 5
REMARK VINA RESULT: -6.791968648      1.872      4.118
REMARK  16 active torsions:
REMARK  status: ('A' for Active; 'I' for Inactive)
REMARK    1  A    between atoms: O1_2  and  C2_3 
REMARK    2  A    between atoms: C2_3  and  C3_5 
REMARK    3  A    between atoms: C3_5  and  C4_6 
REMARK    4  A    between atoms: C4_6  and  N1_7 
REMARK    5  A    between atoms: C4_6  and  C29_43 
REMARK       I    between atoms: N1_7  and  C5_9 
REMARK    6  A    between atoms: C5_9  and  C6_11 
REMARK    7  A    between atoms: C6_11  and  N2_12 
REMARK    8  A    between atoms: C6_11  and  C26_40 
REMARK       I    between atoms: N2_12  and  C7_14 
REMARK    9  A    between atoms: C7_14  and  C8_16 
REMARK       I    between atoms: C8_16  and  N3_18 
REMARK   10  A    between atoms: N3_18  and  C9_20 
REMARK   11  A    between atoms: C9_20  and  C10_21 
REMARK   12  A    between atoms: C9_20  and  C17_28 
REMARK   13  A    between atoms: C10_21  and  C11_22 
REMARK   14  A    between atoms: C17_28  and  N4_29 
REMARK   15  A    between atoms: C17_28  and  C22_36 
REMARK       I    between atoms: N4_29  and  C18_31 
REMARK   16  A    between atoms: C18_31  and  C19_33 
ROOT
HETATM    1  C8  UNL     1      11.505  28.573   4.247  1.00  0.00     0.313 C 
HETATM    2  O5  UNL     1      11.499  29.317   5.281  1.00  0.00    -0.262 OA
HETATM    3  N3  UNL     1      12.078  27.275   4.307  1.00  0.00    -0.321 N 
ATOM      4  H3  UNL     1      12.054  26.719   3.452  1.00  0.00     0.169 HD
ENDROOT
BRANCH   1   5
HETATM    5  C7  UNL     1      10.908  29.127   3.066  1.00  0.00     0.310 C 
HETATM    6  N2  UNL     1      10.934  30.500   2.731  1.00  0.00    -0.339 N 
ATOM      7  H2  UNL     1      11.403  31.149   3.362  1.00  0.00     0.163 HD
HETATM    8  O4  UNL     1      10.319  28.346   2.267  1.00  0.00    -0.262 OA
BRANCH   6   9
HETATM    9  C6  UNL     1      10.306  31.036   1.500  1.00  0.00     0.180 C 
BRANCH   9  10
HETATM   10  C5  UNL     1       9.258  31.982   1.829  1.00  0.00     0.241 C 
HETATM   11  N1  UNL     1       8.528  32.757   0.916  1.00  0.00    -0.354 N 
ATOM     12  H1  UNL     1       8.739  32.682  -0.079  1.00  0.00     0.162 HD
HETATM   13  O3  UNL     1       8.954  32.130   3.065  1.00  0.00    -0.271 OA
BRANCH  11  14
HETATM   14  C4  UNL     1       7.453  33.687   1.361  1.00  0.00     0.097 C 
BRANCH  14  15
HETATM   15  C3  UNL     1       6.216  33.181   0.686  1.00  0.00     0.136 C 
BRANCH  15  16
HETATM   16  C2  UNL     1       5.295  32.429   1.535  1.00  0.00     0.260 C 
HETATM   17  O2  UNL     1       5.738  31.583   2.347  1.00  0.00    -0.265 OA
BRANCH  16  18
HETATM   18  O1  UNL     1       3.928  32.615   1.477  1.00  0.00    -0.326 OA
HETATM   19  C1  UNL     1       3.279  33.035   0.271  1.00  0.00     0.213 C 
ENDBRANCH  16  18
ENDBRANCH  15  16
ENDBRANCH  14  15
BRANCH  14  20
HETATM   20  C29 UNL     1       7.914  35.042   0.887  1.00  0.00     0.001 C 
HETATM   21  C30 UNL     1       6.890  36.122   1.039  1.00  0.00     0.011 C 
HETATM   22  C31 UNL     1       8.273  34.915  -0.581  1.00  0.00     0.011 C 
ENDBRANCH  14  20
ENDBRANCH  11  14
ENDBRANCH   9  10
BRANCH   9  23
HETATM   23  C26 UNL     1      11.363  31.448   0.535  1.00  0.00     0.009 C 
HETATM   24  C27 UNL     1      11.136  31.039  -0.894  1.00  0.00     0.012 C 
HETATM   25  C28 UNL     1      11.764  32.900   0.607  1.00  0.00     0.012 C 
ENDBRANCH   9  23
ENDBRANCH   6   9
ENDBRANCH   1   5
BRANCH   3  26
HETATM   26  C9  UNL     1      12.691  26.672   5.461  1.00  0.00     0.032 C 
BRANCH  26  27
HETATM   27  C10 UNL     1      11.717  26.363   6.537  1.00  0.00     0.005 C 
BRANCH  27  28
HETATM   28  C11 UNL     1      11.281  24.999   6.828  1.00  0.00     0.010 C 
HETATM   29  C12 UNL     1      12.107  24.502   8.046  1.00  0.00     0.008 C 
HETATM   30  C13 UNL     1      11.522  23.247   8.598  1.00  0.00     0.001 C 
HETATM   31  C14 UNL     1      10.718  22.494   7.540  1.00  0.00     0.000 C 
HETATM   32  C15 UNL     1       9.554  23.274   7.053  1.00  0.00     0.001 C 
HETATM   33  C16 UNL     1       9.856  24.766   7.174  1.00  0.00     0.008 C 
ENDBRANCH  27  28
ENDBRANCH  26  27
BRANCH  26  34
HETATM   34  C17 UNL     1      14.065  27.071   5.810  1.00  0.00     0.141 C 
BRANCH  34  35
HETATM   35  N4  UNL     1      14.076  27.974   6.953  1.00  0.00    -0.350 N 
HETATM   36  C18 UNL     1      14.413  29.336   6.935  1.00  0.00     0.222 C 
HETATM   37  O6  UNL     1      14.743  29.866   5.849  1.00  0.00    -0.273 OA
ATOM     38  H4  UNL     1      13.815  27.577   7.855  1.00  0.00     0.163 HD
BRANCH  36  39
HETATM   39  C19 UNL     1      14.395  30.163   8.149  1.00  0.00     0.078 A 
HETATM   40  C20 UNL     1      15.144  31.450   8.238  1.00  0.00     0.015 A 
HETATM   41  C21 UNL     1      15.646  30.264   8.996  1.00  0.00     0.015 A 
ENDBRANCH  36  39
ENDBRANCH  34  35
BRANCH  34  42
HETATM   42  C22 UNL     1      15.021  25.972   6.172  1.00  0.00    -0.025 C 
HETATM   43  C23 UNL     1      14.771  24.609   5.655  1.00  0.00     0.017 C 
HETATM   44  C24 UNL     1      16.383  26.416   5.599  1.00  0.00     0.017 C 
HETATM   45  C25 UNL     1      15.239  25.846   7.664  1.00  0.00     0.017 C 
ENDBRANCH  34  42
ENDBRANCH  26  34
ENDBRANCH   3  26
TORSDOF 16
ENDMDL
