MODEL 1
REMARK VINA RESULT: -6.655386692      0.000      0.000
REMARK  2 active torsions:
REMARK  status: ('A' for Active; 'I' for Inactive)
REMARK    1  A    between atoms: C1_2  and  C2_4 
REMARK       I    between atoms: N2_10  and  C7_11 
REMARK    2  A    between atoms: C7_11  and  C8_13 
ROOT
HETATM    1  C2  UNL     1      24.682  51.325  -7.061  1.00  0.00     0.070 C 
HETATM    2  C3  UNL     1      24.590  52.585  -7.879  1.00  0.00     0.027 C 
HETATM    3  C4  UNL     1      24.516  53.760  -6.981  1.00  0.00    -0.002 C 
HETATM    4  C5  UNL     1      25.950  54.254  -6.744  1.00  0.00     0.080 C 
HETATM    5  S1  UNL     1      26.899  52.766  -6.256  1.00  0.00    -0.142 SA
HETATM    6  C6  UNL     1      25.709  51.453  -5.950  1.00  0.00     0.167 C 
HETATM    7  N2  UNL     1      24.954  51.640  -4.734  1.00  0.00    -0.332 N 
HETATM    8  C7  UNL     1      25.391  51.300  -3.430  1.00  0.00     0.225 C 
HETATM    9  O2  UNL     1      26.550  50.776  -3.253  1.00  0.00    -0.273 OA
HETATM   10  C14 UNL     1      23.704  52.218  -5.146  1.00  0.00     0.090 C 
HETATM   11  C15 UNL     1      23.797  53.598  -5.712  1.00  0.00     0.031 C 
HETATM   12  C16 UNL     1      23.353  51.249  -6.292  1.00  0.00     0.047 C 
ENDROOT
BRANCH   8  13
HETATM   13  C8  UNL     1      24.565  51.520  -2.221  1.00  0.00     0.078 C 
HETATM   14  C9  UNL     1      23.749  50.293  -1.967  1.00  0.00     0.014 C 
HETATM   15  C10 UNL     1      22.951  50.357  -0.690  1.00  0.00     0.001 C 
HETATM   16  C11 UNL     1      23.626  51.228   0.350  1.00  0.00     0.000 C 
HETATM   17  C12 UNL     1      25.131  51.064   0.113  1.00  0.00     0.001 C 
HETATM   18  C13 UNL     1      25.477  51.882  -1.089  1.00  0.00     0.014 C 
ENDBRANCH   8  13
BRANCH   1  19
HETATM   19  C1  UNL     1      24.898  50.112  -7.862  1.00  0.00     0.242 C 
HETATM   20  N1  UNL     1      24.636  50.027  -9.243  1.00  0.00    -0.061 NA
HETATM   21  O1  UNL     1      25.347  49.088  -7.263  1.00  0.00    -0.276 OA
ENDBRANCH   1  19
TORSDOF 2
ENDMDL
MODEL 2
REMARK VINA RESULT: -6.554855533      7.947     10.656
REMARK  2 active torsions:
REMARK  status: ('A' for Active; 'I' for Inactive)
REMARK    1  A    between atoms: C1_2  and  C2_4 
REMARK       I    between atoms: N2_10  and  C7_11 
REMARK    2  A    between atoms: C7_11  and  C8_13 
ROOT
HETATM    1  C2  UNL     1      33.404  53.143   2.673  1.00  0.00     0.070 C 
HETATM    2  C3  UNL     1      33.715  54.602   2.873  1.00  0.00     0.027 C 
HETATM    3  C4  UNL     1      32.471  55.398   2.765  1.00  0.00    -0.002 C 
HETATM    4  C5  UNL     1      31.883  55.533   4.176  1.00  0.00     0.080 C 
HETATM    5  S1  UNL     1      31.844  53.830   4.849  1.00  0.00    -0.142 SA
HETATM    6  C6  UNL     1      32.196  52.712   3.485  1.00  0.00     0.167 C 
HETATM    7  N2  UNL     1      31.106  52.600   2.545  1.00  0.00    -0.332 N 
HETATM    8  C7  UNL     1      29.969  51.769   2.694  1.00  0.00     0.225 C 
HETATM    9  O2  UNL     1      29.841  51.029   3.735  1.00  0.00    -0.273 OA
HETATM   10  C14 UNL     1      31.444  53.485   1.464  1.00  0.00     0.090 C 
HETATM   11  C15 UNL     1      31.454  54.939   1.812  1.00  0.00     0.031 C 
HETATM   12  C16 UNL     1      32.899  53.037   1.225  1.00  0.00     0.047 C 
ENDROOT
BRANCH   8  13
HETATM   13  C8  UNL     1      28.883  51.703   1.689  1.00  0.00     0.078 C 
HETATM   14  C9  UNL     1      29.405  51.024   0.462  1.00  0.00     0.014 C 
HETATM   15  C10 UNL     1      28.352  50.794  -0.591  1.00  0.00     0.001 C 
HETATM   16  C11 UNL     1      26.975  50.631   0.020  1.00  0.00     0.000 C 
HETATM   17  C12 UNL     1      27.202  49.956   1.377  1.00  0.00     0.001 C 
HETATM   18  C13 UNL     1      27.711  51.008   2.309  1.00  0.00     0.014 C 
ENDBRANCH   8  13
BRANCH   1  19
HETATM   19  C1  UNL     1      34.554  52.256   2.898  1.00  0.00     0.242 C 
HETATM   20  N1  UNL     1      34.439  50.896   3.243  1.00  0.00    -0.061 NA
HETATM   21  O1  UNL     1      35.712  52.756   2.768  1.00  0.00    -0.276 OA
ENDBRANCH   1  19
TORSDOF 2
ENDMDL
MODEL 3
REMARK VINA RESULT: -6.251444195      7.859     10.520
REMARK  2 active torsions:
REMARK  status: ('A' for Active; 'I' for Inactive)
REMARK    1  A    between atoms: C1_2  and  C2_4 
REMARK       I    between atoms: N2_10  and  C7_11 
REMARK    2  A    between atoms: C7_11  and  C8_13 
ROOT
HETATM    1  C2  UNL     1      33.316  54.349   2.114  1.00  0.00     0.070 C 
HETATM    2  C3  UNL     1      33.238  55.527   3.047  1.00  0.00     0.027 C 
HETATM    3  C4  UNL     1      31.852  55.677   3.547  1.00  0.00    -0.002 C 
HETATM    4  C5  UNL     1      31.743  54.885   4.857  1.00  0.00     0.080 C 
HETATM    5  S1  UNL     1      32.421  53.227   4.477  1.00  0.00    -0.142 SA
HETATM    6  C6  UNL     1      32.618  53.131   2.692  1.00  0.00     0.167 C 
HETATM    7  N2  UNL     1      31.364  53.021   1.985  1.00  0.00    -0.332 N 
HETATM    8  C7  UNL     1      30.630  51.826   1.787  1.00  0.00     0.225 C 
HETATM    9  O2  UNL     1      31.069  50.712   2.253  1.00  0.00    -0.273 OA
HETATM   10  C14 UNL     1      31.060  54.353   1.541  1.00  0.00     0.090 C 
HETATM   11  C15 UNL     1      30.760  55.333   2.629  1.00  0.00     0.031 C 
HETATM   12  C16 UNL     1      32.422  54.722   0.922  1.00  0.00     0.047 C 
ENDROOT
BRANCH   8  13
HETATM   13  C8  UNL     1      29.345  51.782   1.052  1.00  0.00     0.078 C 
HETATM   14  C9  UNL     1      29.552  51.045  -0.234  1.00  0.00     0.014 C 
HETATM   15  C10 UNL     1      28.281  50.837  -1.016  1.00  0.00     0.001 C 
HETATM   16  C11 UNL     1      27.070  50.756  -0.109  1.00  0.00     0.000 C 
HETATM   17  C12 UNL     1      27.568  50.110   1.188  1.00  0.00     0.001 C 
HETATM   18  C13 UNL     1      28.314  51.162   1.943  1.00  0.00     0.014 C 
ENDBRANCH   8  13
BRANCH   1  19
HETATM   19  C1  UNL     1      34.681  54.033   1.671  1.00  0.00     0.242 C 
HETATM   20  N1  UNL     1      34.979  53.147   0.618  1.00  0.00    -0.061 NA
HETATM   21  O1  UNL     1      35.639  54.599   2.280  1.00  0.00    -0.276 OA
ENDBRANCH   1  19
TORSDOF 2
ENDMDL
MODEL 4
REMARK VINA RESULT: -6.187250868      3.577      5.258
REMARK  2 active torsions:
REMARK  status: ('A' for Active; 'I' for Inactive)
REMARK    1  A    between atoms: C1_2  and  C2_4 
REMARK       I    between atoms: N2_10  and  C7_11 
REMARK    2  A    between atoms: C7_11  and  C8_13 
ROOT
HETATM    1  C2  UNL     1      29.820  52.097  -3.073  1.00  0.00     0.070 C 
HETATM    2  C3  UNL     1      30.346  51.553  -4.373  1.00  0.00     0.027 C 
HETATM    3  C4  UNL     1      29.295  50.755  -5.045  1.00  0.00    -0.002 C 
HETATM    4  C5  UNL     1      28.523  51.697  -5.978  1.00  0.00     0.080 C 
HETATM    5  S1  UNL     1      28.079  53.144  -4.948  1.00  0.00    -0.142 SA
HETATM    6  C6  UNL     1      28.442  52.711  -3.241  1.00  0.00     0.167 C 
HETATM    7  N2  UNL     1      27.512  51.755  -2.686  1.00  0.00    -0.332 N 
HETATM    8  C7  UNL     1      26.238  52.058  -2.148  1.00  0.00     0.225 C 
HETATM    9  O2  UNL     1      25.818  53.271  -2.125  1.00  0.00    -0.273 OA
HETATM   10  C14 UNL     1      28.168  50.480  -2.795  1.00  0.00     0.090 C 
HETATM   11  C15 UNL     1      28.378  49.991  -4.191  1.00  0.00     0.031 C 
HETATM   12  C16 UNL     1      29.540  50.859  -2.206  1.00  0.00     0.047 C 
ENDROOT
BRANCH   8  13
HETATM   13  C8  UNL     1      25.331  51.026  -1.595  1.00  0.00     0.078 C 
HETATM   14  C9  UNL     1      25.208  51.237  -0.119  1.00  0.00     0.014 C 
HETATM   15  C10 UNL     1      24.214  50.313   0.537  1.00  0.00     0.001 C 
HETATM   16  C11 UNL     1      23.109  49.909  -0.417  1.00  0.00     0.000 C 
HETATM   17  C12 UNL     1      22.901  51.112  -1.342  1.00  0.00     0.001 C 
HETATM   18  C13 UNL     1      24.026  51.107  -2.326  1.00  0.00     0.014 C 
ENDBRANCH   8  13
BRANCH   1  19
HETATM   19  C1  UNL     1      30.745  53.017  -2.397  1.00  0.00     0.242 C 
HETATM   20  N1  UNL     1      31.404  54.081  -3.042  1.00  0.00    -0.061 NA
HETATM   21  O1  UNL     1      30.953  52.832  -1.159  1.00  0.00    -0.276 OA
ENDBRANCH   1  19
TORSDOF 2
ENDMDL
MODEL 5
REMARK VINA RESULT: -6.080533409      3.220      3.744
REMARK  2 active torsions:
REMARK  status: ('A' for Active; 'I' for Inactive)
REMARK    1  A    between atoms: C1_2  and  C2_4 
REMARK       I    between atoms: N2_10  and  C7_11 
REMARK    2  A    between atoms: C7_11  and  C8_13 
ROOT
HETATM    1  C2  UNL     1      28.549  50.759  -4.741  1.00  0.00     0.070 C 
HETATM    2  C3  UNL     1      29.142  51.958  -5.430  1.00  0.00     0.027 C 
HETATM    3  C4  UNL     1      28.674  53.198  -4.769  1.00  0.00    -0.002 C 
HETATM    4  C5  UNL     1      29.698  53.561  -3.685  1.00  0.00     0.080 C 
HETATM    5  S1  UNL     1      29.944  52.026  -2.718  1.00  0.00    -0.142 SA
HETATM    6  C6  UNL     1      28.670  50.865  -3.231  1.00  0.00     0.167 C 
HETATM    7  N2  UNL     1      27.354  51.216  -2.752  1.00  0.00    -0.332 N 
HETATM    8  C7  UNL     1      26.840  50.930  -1.463  1.00  0.00     0.225 C 
HETATM    9  O2  UNL     1      27.562  50.307  -0.603  1.00  0.00    -0.273 OA
HETATM   10  C14 UNL     1      26.714  51.884  -3.852  1.00  0.00     0.090 C 
HETATM   11  C15 UNL     1      27.310  53.203  -4.228  1.00  0.00     0.031 C 
HETATM   12  C16 UNL     1      27.033  50.874  -4.971  1.00  0.00     0.047 C 
ENDROOT
BRANCH   8  13
HETATM   13  C8  UNL     1      25.478  51.321  -1.034  1.00  0.00     0.078 C 
HETATM   14  C9  UNL     1      24.482  50.628  -1.909  1.00  0.00     0.014 C 
HETATM   15  C10 UNL     1      23.053  50.861  -1.490  1.00  0.00     0.001 C 
HETATM   16  C11 UNL     1      22.937  51.102   0.001  1.00  0.00     0.000 C 
HETATM   17  C12 UNL     1      24.048  50.264   0.643  1.00  0.00     0.001 C 
HETATM   18  C13 UNL     1      25.332  50.995   0.421  1.00  0.00     0.014 C 
ENDBRANCH   8  13
BRANCH   1  19
HETATM   19  C1  UNL     1      29.062  49.475  -5.237  1.00  0.00     0.242 C 
HETATM   20  N1  UNL     1      30.400  49.059  -5.100  1.00  0.00    -0.061 NA
HETATM   21  O1  UNL     1      28.241  48.704  -5.822  1.00  0.00    -0.276 OA
ENDBRANCH   1  19
TORSDOF 2
ENDMDL
