MODEL 1
REMARK VINA RESULT: -5.802720073      0.000      0.000
REMARK  4 active torsions:
REMARK  status: ('A' for Active; 'I' for Inactive)
REMARK    1  A    between atoms: C2_2  and  N1_4 
REMARK       I    between atoms: N1_4  and  C4_6 
REMARK    2  A    between atoms: C4_6  and  O2_8 
REMARK    3  A    between atoms: O2_8  and  C5_9 
REMARK    4  A    between atoms: N2_14  and  C11_16 
ROOT
HETATM    1  C5  UNL     1      24.926  52.386  -2.272  1.00  0.00     0.139 C 
HETATM    2  C6  UNL     1      25.553  53.570  -2.948  1.00  0.00     0.058 C 
HETATM    3  C7  UNL     1      24.614  54.023  -4.044  1.00  0.00     0.089 C 
HETATM    4  C8  UNL     1      25.489  54.182  -5.296  1.00  0.00     0.053 C 
HETATM    5  C9  UNL     1      26.072  52.910  -5.776  1.00  0.00     0.242 C 
HETATM    6  N2  UNL     1      25.325  51.709  -5.600  1.00  0.00    -0.042 N 
HETATM    7  C10 UNL     1      26.322  50.693  -5.205  1.00  0.00     0.276 C 
HETATM    8  C15 UNL     1      24.295  51.740  -4.614  1.00  0.00     0.293 C 
HETATM    9  C16 UNL     1      24.650  51.239  -3.240  1.00  0.00     0.087 C 
HETATM   10  N3  UNL     1      23.701  53.031  -4.391  1.00  0.00    -0.367 N 
HETATM   11  C17 UNL     1      22.360  53.132  -4.156  1.00  0.00     0.117 C 
ENDROOT
BRANCH   1  12
HETATM   12  O2  UNL     1      25.679  51.935  -1.161  1.00  0.00    -0.298 OA
BRANCH  12  13
HETATM   13  C4  UNL     1      25.167  51.086  -0.195  1.00  0.00     0.361 C 
HETATM   14  N1  UNL     1      25.703  49.802   0.076  1.00  0.00    -0.333 N 
ATOM     15  H1  UNL     1      26.506  49.496  -0.472  1.00  0.00     0.165 HD
HETATM   16  O1  UNL     1      24.169  51.514   0.457  1.00  0.00    -0.238 OA
BRANCH  14  17
HETATM   17  C2  UNL     1      25.188  48.904   1.072  1.00  0.00     0.078 C 
HETATM   18  C1  UNL     1      24.135  47.964   0.516  1.00  0.00     0.032 C 
HETATM   19  C3  UNL     1      26.252  48.061   1.727  1.00  0.00     0.032 C 
ENDBRANCH  14  17
ENDBRANCH  12  13
ENDBRANCH   1  12
BRANCH   6  20
HETATM   20  C11 UNL     1      24.840  51.251  -6.897  1.00  0.00     0.121 C 
HETATM   21  C12 UNL     1      24.828  52.288  -7.959  1.00  0.00     0.046 C 
HETATM   22  C13 UNL     1      23.438  50.664  -6.827  1.00  0.00     0.046 C 
HETATM   23  C14 UNL     1      25.697  50.108  -7.452  1.00  0.00     0.046 C 
ENDBRANCH   6  20
TORSDOF 4
ENDMDL
MODEL 2
REMARK VINA RESULT: -5.738744655      7.617     10.067
REMARK  4 active torsions:
REMARK  status: ('A' for Active; 'I' for Inactive)
REMARK    1  A    between atoms: C2_2  and  N1_4 
REMARK       I    between atoms: N1_4  and  C4_6 
REMARK    2  A    between atoms: C4_6  and  O2_8 
REMARK    3  A    between atoms: O2_8  and  C5_9 
REMARK    4  A    between atoms: N2_14  and  C11_16 
ROOT
HETATM    1  C5  UNL     1      30.533  52.720   1.959  1.00  0.00     0.139 C 
HETATM    2  C6  UNL     1      30.114  53.888   2.803  1.00  0.00     0.058 C 
HETATM    3  C7  UNL     1      30.881  55.100   2.323  1.00  0.00     0.089 C 
HETATM    4  C8  UNL     1      31.460  55.749   3.589  1.00  0.00     0.053 C 
HETATM    5  C9  UNL     1      32.454  54.904   4.285  1.00  0.00     0.242 C 
HETATM    6  N2  UNL     1      33.281  54.042   3.506  1.00  0.00    -0.042 N 
HETATM    7  C10 UNL     1      33.364  52.788   4.282  1.00  0.00     0.276 C 
HETATM    8  C15 UNL     1      32.818  53.733   2.193  1.00  0.00     0.293 C 
HETATM    9  C16 UNL     1      32.035  52.459   2.029  1.00  0.00     0.087 C 
HETATM   10  N3  UNL     1      32.003  54.746   1.579  1.00  0.00    -0.367 N 
HETATM   11  C17 UNL     1      32.127  55.002   0.243  1.00  0.00     0.117 C 
ENDROOT
BRANCH   1  12
HETATM   12  O2  UNL     1      29.804  51.544   2.260  1.00  0.00    -0.298 OA
BRANCH  12  13
HETATM   13  C4  UNL     1      28.943  50.938   1.362  1.00  0.00     0.361 C 
HETATM   14  N1  UNL     1      27.808  50.186   1.757  1.00  0.00    -0.333 N 
ATOM     15  H1  UNL     1      27.623  50.091   2.755  1.00  0.00     0.165 HD
HETATM   16  O1  UNL     1      29.217  51.086   0.134  1.00  0.00    -0.238 OA
BRANCH  14  17
HETATM   17  C2  UNL     1      26.902  49.548   0.843  1.00  0.00     0.078 C 
HETATM   18  C1  UNL     1      26.352  48.244   1.389  1.00  0.00     0.032 C 
HETATM   19  C3  UNL     1      25.729  50.413   0.459  1.00  0.00     0.032 C 
ENDBRANCH  14  17
ENDBRANCH  12  13
ENDBRANCH   1  12
BRANCH   6  20
HETATM   20  C11 UNL     1      34.645  54.558   3.508  1.00  0.00     0.121 C 
HETATM   21  C12 UNL     1      34.753  56.036   3.424  1.00  0.00     0.046 C 
HETATM   22  C13 UNL     1      35.493  53.981   2.384  1.00  0.00     0.046 C 
HETATM   23  C14 UNL     1      35.398  54.164   4.784  1.00  0.00     0.046 C 
ENDBRANCH   6  20
TORSDOF 4
ENDMDL
MODEL 3
REMARK VINA RESULT: -5.718667635      2.045      3.182
REMARK  4 active torsions:
REMARK  status: ('A' for Active; 'I' for Inactive)
REMARK    1  A    between atoms: C2_2  and  N1_4 
REMARK       I    between atoms: N1_4  and  C4_6 
REMARK    2  A    between atoms: C4_6  and  O2_8 
REMARK    3  A    between atoms: O2_8  and  C5_9 
REMARK    4  A    between atoms: N2_14  and  C11_16 
ROOT
HETATM    1  C5  UNL     1      23.672  51.527  -2.572  1.00  0.00     0.139 C 
HETATM    2  C6  UNL     1      24.135  52.947  -2.717  1.00  0.00     0.058 C 
HETATM    3  C7  UNL     1      24.914  53.045  -4.010  1.00  0.00     0.089 C 
HETATM    4  C8  UNL     1      26.218  53.772  -3.651  1.00  0.00     0.053 C 
HETATM    5  C9  UNL     1      27.084  53.011  -2.725  1.00  0.00     0.242 C 
HETATM    6  N2  UNL     1      27.083  51.588  -2.806  1.00  0.00    -0.042 N 
HETATM    7  C10 UNL     1      27.121  51.124  -1.404  1.00  0.00     0.276 C 
HETATM    8  C15 UNL     1      25.961  50.989  -3.451  1.00  0.00     0.293 C 
HETATM    9  C16 UNL     1      24.830  50.533  -2.569  1.00  0.00     0.087 C 
HETATM   10  N3  UNL     1      25.334  51.798  -4.462  1.00  0.00    -0.367 N 
HETATM   11  C17 UNL     1      24.859  51.215  -5.603  1.00  0.00     0.117 C 
ENDROOT
BRANCH   1  12
HETATM   12  O2  UNL     1      22.847  51.340  -1.436  1.00  0.00    -0.298 OA
BRANCH  12  13
HETATM   13  C4  UNL     1      23.289  50.730  -0.274  1.00  0.00     0.361 C 
HETATM   14  N1  UNL     1      23.103  49.352   0.001  1.00  0.00    -0.333 N 
ATOM     15  H1  UNL     1      22.619  48.788  -0.697  1.00  0.00     0.165 HD
HETATM   16  O1  UNL     1      23.883  51.475   0.560  1.00  0.00    -0.238 OA
BRANCH  14  17
HETATM   17  C2  UNL     1      23.552  48.698   1.199  1.00  0.00     0.078 C 
HETATM   18  C1  UNL     1      22.640  47.559   1.613  1.00  0.00     0.032 C 
HETATM   19  C3  UNL     1      24.951  48.148   1.095  1.00  0.00     0.032 C 
ENDBRANCH  14  17
ENDBRANCH  12  13
ENDBRANCH   1  12
BRANCH   6  20
HETATM   20  C11 UNL     1      28.353  51.139  -3.367  1.00  0.00     0.121 C 
HETATM   21  C12 UNL     1      29.182  52.212  -3.970  1.00  0.00     0.046 C 
HETATM   22  C13 UNL     1      28.178  50.059  -4.425  1.00  0.00     0.046 C 
HETATM   23  C14 UNL     1      29.242  50.482  -2.306  1.00  0.00     0.046 C 
ENDBRANCH   6  20
TORSDOF 4
ENDMDL
MODEL 4
REMARK VINA RESULT: -5.641602468      7.474     10.160
REMARK  4 active torsions:
REMARK  status: ('A' for Active; 'I' for Inactive)
REMARK    1  A    between atoms: C2_2  and  N1_4 
REMARK       I    between atoms: N1_4  and  C4_6 
REMARK    2  A    between atoms: C4_6  and  O2_8 
REMARK    3  A    between atoms: O2_8  and  C5_9 
REMARK    4  A    between atoms: N2_14  and  C11_16 
ROOT
HETATM    1  C5  UNL     1      30.303  52.327   2.444  1.00  0.00     0.139 C 
HETATM    2  C6  UNL     1      30.300  52.455   3.939  1.00  0.00     0.058 C 
HETATM    3  C7  UNL     1      30.618  53.894   4.278  1.00  0.00     0.089 C 
HETATM    4  C8  UNL     1      31.722  53.832   5.344  1.00  0.00     0.053 C 
HETATM    5  C9  UNL     1      32.990  53.252   4.851  1.00  0.00     0.242 C 
HETATM    6  N2  UNL     1      33.353  53.466   3.490  1.00  0.00    -0.042 N 
HETATM    7  C10 UNL     1      33.915  52.178   3.036  1.00  0.00     0.276 C 
HETATM    8  C15 UNL     1      32.301  53.839   2.602  1.00  0.00     0.293 C 
HETATM    9  C16 UNL     1      31.638  52.733   1.827  1.00  0.00     0.087 C 
HETATM   10  N3  UNL     1      31.215  54.560   3.211  1.00  0.00    -0.367 N 
HETATM   11  C17 UNL     1      30.611  55.581   2.533  1.00  0.00     0.117 C 
ENDROOT
BRANCH   1  12
HETATM   12  O2  UNL     1      29.921  51.034   2.010  1.00  0.00    -0.298 OA
BRANCH  12  13
HETATM   13  C4  UNL     1      28.844  50.807   1.171  1.00  0.00     0.361 C 
HETATM   14  N1  UNL     1      27.731  50.006   1.531  1.00  0.00    -0.333 N 
ATOM     15  H1  UNL     1      27.732  49.580   2.457  1.00  0.00     0.165 HD
HETATM   16  O1  UNL     1      28.893  51.359   0.032  1.00  0.00    -0.238 OA
BRANCH  14  17
HETATM   17  C2  UNL     1      26.603  49.756   0.678  1.00  0.00     0.078 C 
HETATM   18  C1  UNL     1      25.865  48.485   1.052  1.00  0.00     0.032 C 
HETATM   19  C3  UNL     1      25.599  50.880   0.665  1.00  0.00     0.032 C 
ENDBRANCH  14  17
ENDBRANCH  12  13
ENDBRANCH   1  12
BRANCH   6  20
HETATM   20  C11 UNL     1      34.481  54.390   3.435  1.00  0.00     0.121 C 
HETATM   21  C12 UNL     1      34.160  55.789   3.813  1.00  0.00     0.046 C 
HETATM   22  C13 UNL     1      35.137  54.435   2.063  1.00  0.00     0.046 C 
HETATM   23  C14 UNL     1      35.612  53.961   4.376  1.00  0.00     0.046 C 
ENDBRANCH   6  20
TORSDOF 4
ENDMDL
MODEL 5
REMARK VINA RESULT: -5.608377085      2.237      3.108
REMARK  4 active torsions:
REMARK  status: ('A' for Active; 'I' for Inactive)
REMARK    1  A    between atoms: C2_2  and  N1_4 
REMARK       I    between atoms: N1_4  and  C4_6 
REMARK    2  A    between atoms: C4_6  and  O2_8 
REMARK    3  A    between atoms: O2_8  and  C5_9 
REMARK    4  A    between atoms: N2_14  and  C11_16 
ROOT
HETATM    1  C5  UNL     1      25.210  52.091  -1.980  1.00  0.00     0.139 C 
HETATM    2  C6  UNL     1      25.963  53.306  -2.437  1.00  0.00     0.058 C 
HETATM    3  C7  UNL     1      26.181  53.177  -3.928  1.00  0.00     0.089 C 
HETATM    4  C8  UNL     1      27.671  53.471  -4.154  1.00  0.00     0.053 C 
HETATM    5  C9  UNL     1      28.571  52.473  -3.536  1.00  0.00     0.242 C 
HETATM    6  N2  UNL     1      28.136  51.118  -3.458  1.00  0.00    -0.042 N 
HETATM    7  C10 UNL     1      28.575  50.651  -2.128  1.00  0.00     0.276 C 
HETATM    8  C15 UNL     1      26.732  50.894  -3.578  1.00  0.00     0.293 C 
HETATM    9  C16 UNL     1      25.947  50.793  -2.298  1.00  0.00     0.087 C 
HETATM   10  N3  UNL     1      26.023  51.865  -4.366  1.00  0.00    -0.367 N 
HETATM   11  C17 UNL     1      25.004  51.466  -5.183  1.00  0.00     0.117 C 
ENDROOT
BRANCH   1  12
HETATM   12  O2  UNL     1      24.866  52.150  -0.608  1.00  0.00    -0.298 OA
BRANCH  12  13
HETATM   13  C4  UNL     1      24.725  51.024   0.185  1.00  0.00     0.361 C 
HETATM   14  N1  UNL     1      23.621  50.140   0.092  1.00  0.00    -0.333 N 
ATOM     15  H1  UNL     1      22.898  50.351  -0.596  1.00  0.00     0.165 HD
HETATM   16  O1  UNL     1      25.649  50.808   1.023  1.00  0.00    -0.238 OA
BRANCH  14  17
HETATM   17  C2  UNL     1      23.452  48.967   0.904  1.00  0.00     0.078 C 
HETATM   18  C1  UNL     1      22.071  48.356   0.759  1.00  0.00     0.032 C 
HETATM   19  C3  UNL     1      24.462  47.886   0.613  1.00  0.00     0.032 C 
ENDBRANCH  14  17
ENDBRANCH  12  13
ENDBRANCH   1  12
BRANCH   6  20
HETATM   20  C11 UNL     1      28.910  50.312  -4.396  1.00  0.00     0.121 C 
HETATM   21  C12 UNL     1      29.966  51.052  -5.131  1.00  0.00     0.046 C 
HETATM   22  C13 UNL     1      28.039  49.622  -5.436  1.00  0.00     0.046 C 
HETATM   23  C14 UNL     1      29.633  49.160  -3.691  1.00  0.00     0.046 C 
ENDBRANCH   6  20
TORSDOF 4
ENDMDL
