MODEL 1
REMARK VINA RESULT: -5.977744571      0.000      0.000
REMARK  5 active torsions:
REMARK  status: ('A' for Active; 'I' for Inactive)
REMARK    1  A    between atoms: N1_2  and  C3_4 
REMARK    2  A    between atoms: N2_11  and  C10_12 
REMARK    3  A    between atoms: C10_12  and  O1_13 
REMARK    4  A    between atoms: C10_12  and  C11_15 
REMARK    5  A    between atoms: C11_15  and  O2_16 
ROOT
HETATM    1  C10 UNL     1      23.843  51.571  -2.521  1.00  0.00     0.151 C 
ENDROOT
BRANCH   1   2
HETATM    2  N2  UNL     1      24.713  52.129  -3.422  1.00  0.00    -0.332 N 
HETATM    3  C3  UNL     1      25.022  51.735  -4.751  1.00  0.00     0.325 C 
HETATM    4  C4  UNL     1      26.278  50.890  -4.610  1.00  0.00     0.062 C 
HETATM    5  C5  UNL     1      27.350  51.811  -4.106  1.00  0.00    -0.005 A 
HETATM    6  C6  UNL     1      28.132  51.167  -2.965  1.00  0.00     0.005 A 
HETATM    7  C8  UNL     1      26.998  52.976  -3.311  1.00  0.00     0.008 A 
HETATM    8  C7  UNL     1      27.712  52.347  -2.110  1.00  0.00     0.007 A 
HETATM    9  C9  UNL     1      25.570  53.247  -2.969  1.00  0.00     0.132 C 
BRANCH   3  10
HETATM   10  N1  UNL     1      24.006  51.212  -5.582  1.00  0.00     0.102 N 
HETATM   11  C1  UNL     1      24.558  50.532  -6.762  1.00  0.00     0.312 C 
HETATM   12  C2  UNL     1      23.260  52.351  -6.190  1.00  0.00     0.312 C 
ENDBRANCH   3  10
ENDBRANCH   1   2
BRANCH   1  13
HETATM   13  O1  UNL     1      22.614  52.066  -2.612  1.00  0.00    -0.347 OA
ATOM     14  H1  UNL     1      22.572  52.993  -2.412  1.00  0.00     0.219 HD
ENDBRANCH   1  13
BRANCH   1  15
HETATM   15  C11 UNL     1      23.956  50.559  -1.478  1.00  0.00     0.126 C 
HETATM   16  C12 UNL     1      25.388  50.042  -1.329  1.00  0.00     0.051 C 
HETATM   17  C13 UNL     1      25.548  49.558   0.081  1.00  0.00    -0.011 C 
HETATM   18  C14 UNL     1      24.277  49.042   0.712  1.00  0.00     0.005 C 
HETATM   19  C18 UNL     1      25.928  50.806   0.892  1.00  0.00     0.005 C 
HETATM   20  C15 UNL     1      23.194  50.112   0.782  1.00  0.00     0.008 C 
HETATM   21  C16 UNL     1      23.664  51.230  -0.135  1.00  0.00     0.028 C 
HETATM   22  C17 UNL     1      24.883  51.845   0.493  1.00  0.00     0.008 C 
BRANCH  15  23
HETATM   23  O2  UNL     1      23.187  49.432  -1.584  1.00  0.00    -0.381 OA
ATOM     24  H2  UNL     1      22.586  49.229  -0.876  1.00  0.00     0.211 HD
ENDBRANCH  15  23
ENDBRANCH   1  15
TORSDOF 5
ENDMDL
MODEL 2
REMARK VINA RESULT: -5.630879685      4.381      6.470
REMARK  5 active torsions:
REMARK  status: ('A' for Active; 'I' for Inactive)
REMARK    1  A    between atoms: N1_2  and  C3_4 
REMARK    2  A    between atoms: N2_11  and  C10_12 
REMARK    3  A    between atoms: C10_12  and  O1_13 
REMARK    4  A    between atoms: C10_12  and  C11_15 
REMARK    5  A    between atoms: C11_15  and  O2_16 
ROOT
HETATM    1  C10 UNL     1      28.338  51.153   1.796  1.00  0.00     0.151 C 
ENDROOT
BRANCH   1   2
HETATM    2  N2  UNL     1      27.820  50.394   0.780  1.00  0.00    -0.332 N 
HETATM    3  C3  UNL     1      27.937  50.556  -0.626  1.00  0.00     0.325 C 
HETATM    4  C4  UNL     1      26.675  51.303  -1.025  1.00  0.00     0.062 C 
HETATM    5  C5  UNL     1      25.529  50.381  -0.729  1.00  0.00    -0.005 A 
HETATM    6  C6  UNL     1      24.404  51.120  -0.012  1.00  0.00     0.005 A 
HETATM    7  C8  UNL     1      25.648  49.382   0.321  1.00  0.00     0.008 A 
HETATM    8  C7  UNL     1      24.569  50.121   1.118  1.00  0.00     0.007 A 
HETATM    9  C9  UNL     1      26.901  49.288   1.128  1.00  0.00     0.132 C 
BRANCH   3  10
HETATM   10  N1  UNL     1      29.147  51.033  -1.179  1.00  0.00     0.102 N 
HETATM   11  C1  UNL     1      28.971  52.325  -1.856  1.00  0.00     0.312 C 
HETATM   12  C2  UNL     1      29.539  50.136  -2.304  1.00  0.00     0.312 C 
ENDBRANCH   3  10
ENDBRANCH   1   2
BRANCH   1  13
HETATM   13  O1  UNL     1      27.420  51.888   2.414  1.00  0.00    -0.347 OA
ATOM     14  H1  UNL     1      26.940  51.403   3.075  1.00  0.00     0.219 HD
ENDBRANCH   1  13
BRANCH   1  15
HETATM   15  C11 UNL     1      29.670  51.345   2.357  1.00  0.00     0.126 C 
HETATM   16  C12 UNL     1      30.770  50.867   1.407  1.00  0.00     0.051 C 
HETATM   17  C13 UNL     1      32.009  51.649   1.722  1.00  0.00    -0.011 C 
HETATM   18  C14 UNL     1      32.118  52.093   3.161  1.00  0.00     0.005 C 
HETATM   19  C18 UNL     1      31.885  52.943   0.904  1.00  0.00     0.005 C 
HETATM   20  C15 UNL     1      30.964  53.000   3.572  1.00  0.00     0.008 C 
HETATM   21  C16 UNL     1      29.917  52.851   2.480  1.00  0.00     0.028 C 
HETATM   22  C17 UNL     1      30.484  53.457   1.227  1.00  0.00     0.008 C 
BRANCH  15  23
HETATM   23  O2  UNL     1      29.960  50.752   3.555  1.00  0.00    -0.381 OA
ATOM     24  H2  UNL     1      29.496  51.051   4.329  1.00  0.00     0.211 HD
ENDBRANCH  15  23
ENDBRANCH   1  15
TORSDOF 5
ENDMDL
MODEL 3
REMARK VINA RESULT: -5.380289039      1.931      5.643
REMARK  5 active torsions:
REMARK  status: ('A' for Active; 'I' for Inactive)
REMARK    1  A    between atoms: N1_2  and  C3_4 
REMARK    2  A    between atoms: N2_11  and  C10_12 
REMARK    3  A    between atoms: C10_12  and  O1_13 
REMARK    4  A    between atoms: C10_12  and  C11_15 
REMARK    5  A    between atoms: C11_15  and  O2_16 
ROOT
HETATM    1  C10 UNL     1      24.522  50.995  -1.642  1.00  0.00     0.151 C 
ENDROOT
BRANCH   1   2
HETATM    2  N2  UNL     1      24.622  50.739  -0.299  1.00  0.00    -0.332 N 
HETATM    3  C3  UNL     1      25.760  50.393   0.477  1.00  0.00     0.325 C 
HETATM    4  C4  UNL     1      25.713  48.876   0.558  1.00  0.00     0.062 C 
HETATM    5  C5  UNL     1      24.470  48.534   1.326  1.00  0.00    -0.005 A 
HETATM    6  C6  UNL     1      23.698  47.410   0.642  1.00  0.00     0.005 A 
HETATM    7  C8  UNL     1      23.329  49.435   1.307  1.00  0.00     0.008 A 
HETATM    8  C7  UNL     1      22.524  48.367   0.558  1.00  0.00     0.007 A 
HETATM    9  C9  UNL     1      23.379  50.691   0.502  1.00  0.00     0.132 C 
BRANCH   3  10
HETATM   10  N1  UNL     1      27.016  50.965   0.175  1.00  0.00     0.102 N 
HETATM   11  C1  UNL     1      27.797  50.122  -0.741  1.00  0.00     0.312 C 
HETATM   12  C2  UNL     1      27.852  50.951   1.410  1.00  0.00     0.312 C 
ENDBRANCH   3  10
ENDBRANCH   1   2
BRANCH   1  13
HETATM   13  O1  UNL     1      23.669  50.186  -2.261  1.00  0.00    -0.347 OA
ATOM     14  H1  UNL     1      23.991  49.881  -3.101  1.00  0.00     0.219 HD
ENDBRANCH   1  13
BRANCH   1  15
HETATM   15  C11 UNL     1      25.139  51.950  -2.553  1.00  0.00     0.126 C 
HETATM   16  C12 UNL     1      26.031  51.263  -3.590  1.00  0.00     0.051 C 
HETATM   17  C13 UNL     1      26.080  52.148  -4.798  1.00  0.00    -0.011 C 
HETATM   18  C14 UNL     1      25.922  53.620  -4.502  1.00  0.00     0.005 C 
HETATM   19  C18 UNL     1      24.845  51.764  -5.627  1.00  0.00     0.005 C 
HETATM   20  C15 UNL     1      24.586  53.933  -3.839  1.00  0.00     0.008 C 
HETATM   21  C16 UNL     1      24.029  52.592  -3.389  1.00  0.00     0.028 C 
HETATM   22  C17 UNL     1      23.695  51.805  -4.625  1.00  0.00     0.008 C 
BRANCH  15  23
HETATM   23  O2  UNL     1      25.919  52.941  -2.022  1.00  0.00    -0.381 OA
ATOM     24  H2  UNL     1      26.181  52.868  -1.112  1.00  0.00     0.211 HD
ENDBRANCH  15  23
ENDBRANCH   1  15
TORSDOF 5
ENDMDL
MODEL 4
REMARK VINA RESULT: -5.375700283      1.091      3.337
REMARK  5 active torsions:
REMARK  status: ('A' for Active; 'I' for Inactive)
REMARK    1  A    between atoms: N1_2  and  C3_4 
REMARK    2  A    between atoms: N2_11  and  C10_12 
REMARK    3  A    between atoms: C10_12  and  O1_13 
REMARK    4  A    between atoms: C10_12  and  C11_15 
REMARK    5  A    between atoms: C11_15  and  O2_16 
ROOT
HETATM    1  C10 UNL     1      23.647  51.531  -2.699  1.00  0.00     0.151 C 
ENDROOT
BRANCH   1   2
HETATM    2  N2  UNL     1      24.341  51.982  -3.792  1.00  0.00    -0.332 N 
HETATM    3  C3  UNL     1      25.004  53.221  -3.999  1.00  0.00     0.325 C 
HETATM    4  C4  UNL     1      23.988  54.070  -4.745  1.00  0.00     0.062 C 
HETATM    5  C5  UNL     1      23.769  53.400  -6.069  1.00  0.00    -0.005 A 
HETATM    6  C6  UNL     1      22.282  53.316  -6.400  1.00  0.00     0.005 A 
HETATM    7  C8  UNL     1      23.959  51.965  -6.201  1.00  0.00     0.008 A 
HETATM    8  C7  UNL     1      22.459  51.811  -6.473  1.00  0.00     0.007 A 
HETATM    9  C9  UNL     1      24.347  51.147  -5.014  1.00  0.00     0.132 C 
BRANCH   3  10
HETATM   10  N1  UNL     1      25.675  53.847  -2.925  1.00  0.00     0.102 N 
HETATM   11  C1  UNL     1      25.940  55.266  -3.195  1.00  0.00     0.312 C 
HETATM   12  C2  UNL     1      27.050  53.278  -2.830  1.00  0.00     0.312 C 
ENDBRANCH   3  10
ENDBRANCH   1   2
BRANCH   1  13
HETATM   13  O1  UNL     1      22.465  52.120  -2.556  1.00  0.00    -0.347 OA
ATOM     14  H1  UNL     1      22.313  52.436  -1.673  1.00  0.00     0.219 HD
ENDBRANCH   1  13
BRANCH   1  15
HETATM   15  C11 UNL     1      23.909  50.553  -1.650  1.00  0.00     0.126 C 
HETATM   16  C12 UNL     1      25.402  50.256  -1.498  1.00  0.00     0.051 C 
HETATM   17  C13 UNL     1      25.631  49.810  -0.086  1.00  0.00    -0.011 C 
HETATM   18  C14 UNL     1      24.451  49.115   0.550  1.00  0.00     0.005 C 
HETATM   19  C18 UNL     1      25.822  51.106   0.717  1.00  0.00     0.005 C 
HETATM   20  C15 UNL     1      23.221  50.013   0.614  1.00  0.00     0.008 C 
HETATM   21  C16 UNL     1      23.519  51.183  -0.311  1.00  0.00     0.028 C 
HETATM   22  C17 UNL     1      24.634  51.976   0.312  1.00  0.00     0.008 C 
BRANCH  15  23
HETATM   23  O2  UNL     1      23.315  49.324  -1.748  1.00  0.00    -0.381 OA
ATOM     24  H2  UNL     1      22.495  49.183  -1.289  1.00  0.00     0.211 HD
ENDBRANCH  15  23
ENDBRANCH   1  15
TORSDOF 5
ENDMDL
MODEL 5
REMARK VINA RESULT: -5.341598764      2.878      4.424
REMARK  5 active torsions:
REMARK  status: ('A' for Active; 'I' for Inactive)
REMARK    1  A    between atoms: N1_2  and  C3_4 
REMARK    2  A    between atoms: N2_11  and  C10_12 
REMARK    3  A    between atoms: C10_12  and  O1_13 
REMARK    4  A    between atoms: C10_12  and  C11_15 
REMARK    5  A    between atoms: C11_15  and  O2_16 
ROOT
HETATM    1  C10 UNL     1      27.609  52.488  -4.796  1.00  0.00     0.151 C 
ENDROOT
BRANCH   1   2
HETATM    2  N2  UNL     1      28.795  52.012  -4.300  1.00  0.00    -0.332 N 
HETATM    3  C3  UNL     1      29.487  50.808  -4.598  1.00  0.00     0.325 C 
HETATM    4  C4  UNL     1      29.059  49.848  -3.502  1.00  0.00     0.062 C 
HETATM    5  C5  UNL     1      29.586  50.414  -2.216  1.00  0.00    -0.005 A 
HETATM    6  C6  UNL     1      28.521  50.379  -1.126  1.00  0.00     0.005 A 
HETATM    7  C8  UNL     1      29.791  51.847  -2.079  1.00  0.00     0.008 A 
HETATM    8  C7  UNL     1      28.680  51.884  -1.025  1.00  0.00     0.007 A 
HETATM    9  C9  UNL     1      29.451  52.764  -3.208  1.00  0.00     0.132 C 
BRANCH   3  10
HETATM   10  N1  UNL     1      29.474  50.299  -5.917  1.00  0.00     0.102 N 
HETATM   11  C1  UNL     1      28.587  49.136  -6.047  1.00  0.00     0.312 C 
HETATM   12  C2  UNL     1      30.814  49.714  -6.210  1.00  0.00     0.312 C 
ENDBRANCH   3  10
ENDBRANCH   1   2
BRANCH   1  13
HETATM   13  O1  UNL     1      27.774  53.393  -5.754  1.00  0.00    -0.347 OA
ATOM     14  H1  UNL     1      28.687  53.563  -5.951  1.00  0.00     0.219 HD
ENDBRANCH   1  13
BRANCH   1  15
HETATM   15  C11 UNL     1      26.202  52.234  -4.511  1.00  0.00     0.126 C 
HETATM   16  C12 UNL     1      26.013  51.069  -3.537  1.00  0.00     0.051 C 
HETATM   17  C13 UNL     1      24.713  51.285  -2.823  1.00  0.00    -0.011 C 
HETATM   18  C14 UNL     1      23.677  52.035  -3.626  1.00  0.00     0.005 C 
HETATM   19  C18 UNL     1      25.053  52.203  -1.639  1.00  0.00     0.005 C 
HETATM   20  C15 UNL     1      24.150  53.431  -4.016  1.00  0.00     0.008 C 
HETATM   21  C16 UNL     1      25.648  53.442  -3.754  1.00  0.00     0.028 C 
HETATM   22  C17 UNL     1      25.846  53.346  -2.267  1.00  0.00     0.008 C 
BRANCH  15  23
HETATM   23  O2  UNL     1      25.370  51.951  -5.560  1.00  0.00    -0.381 OA
ATOM     24  H2  UNL     1      24.604  51.414  -5.394  1.00  0.00     0.211 HD
ENDBRANCH  15  23
ENDBRANCH   1  15
TORSDOF 5
ENDMDL
