MODEL 1
REMARK VINA RESULT: -5.902112435      0.000      0.000
REMARK  3 active torsions:
REMARK  status: ('A' for Active; 'I' for Inactive)
REMARK    1  A    between atoms: C2_2  and  N1_4 
REMARK       I    between atoms: N1_4  and  C5_6 
REMARK       I    between atoms: C5_6  and  N2_8 
REMARK    2  A    between atoms: N2_8  and  C6_10 
REMARK       I    between atoms: N3_12  and  C8_13 
REMARK    3  A    between atoms: C8_13  and  C9_15 
ROOT
HETATM    1  C6  UNL     1      30.176  52.450   1.380  1.00  0.00     0.121 C 
HETATM    2  C7  UNL     1      29.820  51.051   0.964  1.00  0.00     0.152 C 
HETATM    3  N3  UNL     1      28.356  50.945   1.058  1.00  0.00    -0.349 N 
HETATM    4  C8  UNL     1      27.557  50.601  -0.034  1.00  0.00     0.227 C 
HETATM    5  O2  UNL     1      28.180  50.377  -1.132  1.00  0.00    -0.273 OA
HETATM    6  C13 UNL     1      27.784  51.213   2.351  1.00  0.00     0.127 C 
HETATM    7  C14 UNL     1      28.915  51.549   3.326  1.00  0.00     0.041 C 
HETATM    8  C15 UNL     1      29.790  52.657   2.810  1.00  0.00     0.118 C 
HETATM    9  C16 UNL     1      30.985  52.694   3.667  1.00  0.00     0.066 C 
HETATM   10  N4  UNL     1      31.939  52.727   4.332  1.00  0.00    -0.197 NA
ENDROOT
BRANCH   1  11
HETATM   11  N2  UNL     1      31.583  52.724   1.154  1.00  0.00    -0.335 N 
HETATM   12  C5  UNL     1      32.064  53.205  -0.076  1.00  0.00     0.318 C 
HETATM   13  N1  UNL     1      33.419  53.494  -0.365  1.00  0.00    -0.335 N 
HETATM   14  O1  UNL     1      31.192  53.392  -0.997  1.00  0.00    -0.247 OA
HETATM   15  C4  UNL     1      33.812  53.988  -1.670  1.00  0.00     0.154 C 
ATOM     16  H2  UNL     1      32.245  52.563   1.913  1.00  0.00     0.164 HD
BRANCH  13  17
HETATM   17  C2  UNL     1      34.467  53.314   0.610  1.00  0.00     0.080 C 
HETATM   18  C1  UNL     1      35.062  54.711   0.840  1.00  0.00     0.032 C 
HETATM   19  C3  UNL     1      35.568  52.521  -0.101  1.00  0.00     0.032 C 
ENDBRANCH  13  17
ENDBRANCH   1  11
BRANCH   4  20
HETATM   20  C9  UNL     1      26.102  50.475  -0.050  1.00  0.00     0.030 C 
HETATM   21  C10 UNL     1      25.677  49.148   0.602  1.00  0.00     0.025 C 
HETATM   22  C11 UNL     1      25.568  50.469  -1.480  1.00  0.00     0.025 C 
HETATM   23  C12 UNL     1      25.376  51.583   0.683  1.00  0.00     0.025 C 
ENDBRANCH   4  20
TORSDOF 3
ENDMDL
MODEL 2
REMARK VINA RESULT: -5.636240808      6.244      9.566
REMARK  3 active torsions:
REMARK  status: ('A' for Active; 'I' for Inactive)
REMARK    1  A    between atoms: C2_2  and  N1_4 
REMARK       I    between atoms: N1_4  and  C5_6 
REMARK       I    between atoms: C5_6  and  N2_8 
REMARK    2  A    between atoms: N2_8  and  C6_10 
REMARK       I    between atoms: N3_12  and  C8_13 
REMARK    3  A    between atoms: C8_13  and  C9_15 
ROOT
HETATM    1  C6  UNL     1      23.891  51.276  -5.208  1.00  0.00     0.121 C 
HETATM    2  C7  UNL     1      23.536  52.695  -5.551  1.00  0.00     0.152 C 
HETATM    3  N3  UNL     1      22.172  52.665  -6.099  1.00  0.00    -0.349 N 
HETATM    4  C8  UNL     1      21.122  53.397  -5.542  1.00  0.00     0.227 C 
HETATM    5  O2  UNL     1      21.421  54.106  -4.515  1.00  0.00    -0.273 OA
HETATM    6  C13 UNL     1      21.975  51.837  -7.259  1.00  0.00     0.127 C 
HETATM    7  C14 UNL     1      23.309  51.182  -7.625  1.00  0.00     0.041 C 
HETATM    8  C15 UNL     1      23.915  50.454  -6.457  1.00  0.00     0.118 C 
HETATM    9  C16 UNL     1      25.299  50.123  -6.830  1.00  0.00     0.066 C 
HETATM   10  N4  UNL     1      26.398  49.863  -7.111  1.00  0.00    -0.197 NA
ENDROOT
BRANCH   1  11
HETATM   11  N2  UNL     1      25.151  51.207  -4.491  1.00  0.00    -0.335 N 
HETATM   12  C5  UNL     1      25.212  50.961  -3.109  1.00  0.00     0.318 C 
HETATM   13  N1  UNL     1      26.402  50.880  -2.346  1.00  0.00    -0.335 N 
HETATM   14  O1  UNL     1      24.092  50.798  -2.506  1.00  0.00    -0.247 OA
HETATM   15  C4  UNL     1      26.357  50.620  -0.921  1.00  0.00     0.154 C 
ATOM     16  H2  UNL     1      26.021  51.342  -5.007  1.00  0.00     0.164 HD
BRANCH  13  17
HETATM   17  C2  UNL     1      27.707  51.050  -2.940  1.00  0.00     0.080 C 
HETATM   18  C1  UNL     1      28.700  50.451  -1.933  1.00  0.00     0.032 C 
HETATM   19  C3  UNL     1      27.979  52.557  -2.925  1.00  0.00     0.032 C 
ENDBRANCH  13  17
ENDBRANCH   1  11
BRANCH   4  20
HETATM   20  C9  UNL     1      19.737  53.433  -6.002  1.00  0.00     0.030 C 
HETATM   21  C10 UNL     1      18.918  54.413  -5.145  1.00  0.00     0.025 C 
HETATM   22  C11 UNL     1      19.081  52.060  -5.875  1.00  0.00     0.025 C 
HETATM   23  C12 UNL     1      19.575  53.863  -7.445  1.00  0.00     0.025 C 
ENDBRANCH   4  20
TORSDOF 3
ENDMDL
MODEL 3
REMARK VINA RESULT: -5.592812433      5.715      8.704
REMARK  3 active torsions:
REMARK  status: ('A' for Active; 'I' for Inactive)
REMARK    1  A    between atoms: C2_2  and  N1_4 
REMARK       I    between atoms: N1_4  and  C5_6 
REMARK       I    between atoms: C5_6  and  N2_8 
REMARK    2  A    between atoms: N2_8  and  C6_10 
REMARK       I    between atoms: N3_12  and  C8_13 
REMARK    3  A    between atoms: C8_13  and  C9_15 
ROOT
HETATM    1  C6  UNL     1      24.930  51.150  -3.641  1.00  0.00     0.121 C 
HETATM    2  C7  UNL     1      24.499  52.587  -3.567  1.00  0.00     0.152 C 
HETATM    3  N3  UNL     1      23.892  52.911  -4.867  1.00  0.00    -0.349 N 
HETATM    4  C8  UNL     1      22.580  53.372  -4.989  1.00  0.00     0.227 C 
HETATM    5  O2  UNL     1      21.930  53.502  -3.891  1.00  0.00    -0.273 OA
HETATM    6  C13 UNL     1      24.734  52.730  -6.020  1.00  0.00     0.127 C 
HETATM    7  C14 UNL     1      26.102  52.227  -5.553  1.00  0.00     0.041 C 
HETATM    8  C15 UNL     1      25.985  51.001  -4.691  1.00  0.00     0.118 C 
HETATM    9  C16 UNL     1      27.302  50.785  -4.073  1.00  0.00     0.066 C 
HETATM   10  N4  UNL     1      28.337  50.609  -3.571  1.00  0.00    -0.197 NA
ENDROOT
BRANCH   1  11
HETATM   11  N2  UNL     1      25.382  50.669  -2.349  1.00  0.00    -0.335 N 
HETATM   12  C5  UNL     1      24.492  50.168  -1.384  1.00  0.00     0.318 C 
HETATM   13  N1  UNL     1      24.861  49.682  -0.107  1.00  0.00    -0.335 N 
HETATM   14  O1  UNL     1      23.250  50.155  -1.703  1.00  0.00    -0.247 OA
HETATM   15  C4  UNL     1      23.862  49.184   0.818  1.00  0.00     0.154 C 
ATOM     16  H2  UNL     1      26.379  50.695  -2.134  1.00  0.00     0.164 HD
BRANCH  13  17
HETATM   17  C2  UNL     1      26.235  49.658   0.337  1.00  0.00     0.080 C 
HETATM   18  C1  UNL     1      26.346  48.441   1.266  1.00  0.00     0.032 C 
HETATM   19  C3  UNL     1      26.400  50.877   1.250  1.00  0.00     0.032 C 
ENDBRANCH  13  17
ENDBRANCH   1  11
BRANCH   4  20
HETATM   20  C9  UNL     1      21.883  53.714  -6.226  1.00  0.00     0.030 C 
HETATM   21  C10 UNL     1      20.478  54.256  -5.911  1.00  0.00     0.025 C 
HETATM   22  C11 UNL     1      21.707  52.485  -7.114  1.00  0.00     0.025 C 
HETATM   23  C12 UNL     1      22.586  54.762  -7.064  1.00  0.00     0.025 C 
ENDBRANCH   4  20
TORSDOF 3
ENDMDL
MODEL 4
REMARK VINA RESULT: -5.590939829      6.414     10.005
REMARK  3 active torsions:
REMARK  status: ('A' for Active; 'I' for Inactive)
REMARK    1  A    between atoms: C2_2  and  N1_4 
REMARK       I    between atoms: N1_4  and  C5_6 
REMARK       I    between atoms: C5_6  and  N2_8 
REMARK    2  A    between atoms: N2_8  and  C6_10 
REMARK       I    between atoms: N3_12  and  C8_13 
REMARK    3  A    between atoms: C8_13  and  C9_15 
ROOT
HETATM    1  C6  UNL     1      23.597  52.642  -4.022  1.00  0.00     0.121 C 
HETATM    2  C7  UNL     1      24.253  51.330  -3.697  1.00  0.00     0.152 C 
HETATM    3  N3  UNL     1      24.611  51.382  -2.271  1.00  0.00    -0.349 N 
HETATM    4  C8  UNL     1      24.143  50.447  -1.345  1.00  0.00     0.227 C 
HETATM    5  O2  UNL     1      23.378  49.531  -1.816  1.00  0.00    -0.273 OA
HETATM    6  C13 UNL     1      25.483  52.456  -1.877  1.00  0.00     0.127 C 
HETATM    7  C14 UNL     1      25.820  53.292  -3.114  1.00  0.00     0.041 C 
HETATM    8  C15 UNL     1      24.584  53.751  -3.835  1.00  0.00     0.118 C 
HETATM    9  C16 UNL     1      25.018  54.281  -5.136  1.00  0.00     0.066 C 
HETATM   10  N4  UNL     1      25.349  54.694  -6.172  1.00  0.00    -0.197 NA
ENDROOT
BRANCH   1  11
HETATM   11  N2  UNL     1      23.041  52.634  -5.362  1.00  0.00    -0.335 N 
HETATM   12  C5  UNL     1      21.761  53.142  -5.643  1.00  0.00     0.318 C 
HETATM   13  N1  UNL     1      21.156  53.168  -6.922  1.00  0.00    -0.335 N 
HETATM   14  O1  UNL     1      21.102  53.616  -4.650  1.00  0.00    -0.247 OA
HETATM   15  C4  UNL     1      19.827  53.715  -7.107  1.00  0.00     0.154 C 
ATOM     16  H2  UNL     1      23.597  52.248  -6.125  1.00  0.00     0.164 HD
BRANCH  13  17
HETATM   17  C2  UNL     1      21.822  52.656  -8.096  1.00  0.00     0.080 C 
HETATM   18  C1  UNL     1      22.565  53.854  -8.705  1.00  0.00     0.032 C 
HETATM   19  C3  UNL     1      20.711  52.323  -9.096  1.00  0.00     0.032 C 
ENDBRANCH  13  17
ENDBRANCH   1  11
BRANCH   4  20
HETATM   20  C9  UNL     1      24.430  50.412   0.086  1.00  0.00     0.030 C 
HETATM   21  C10 UNL     1      23.943  49.085   0.692  1.00  0.00     0.025 C 
HETATM   22  C11 UNL     1      23.706  51.539   0.819  1.00  0.00     0.025 C 
HETATM   23  C12 UNL     1      25.900  50.543   0.426  1.00  0.00     0.025 C 
ENDBRANCH   4  20
TORSDOF 3
ENDMDL
MODEL 5
REMARK VINA RESULT: -5.526164857      5.500      7.251
REMARK  3 active torsions:
REMARK  status: ('A' for Active; 'I' for Inactive)
REMARK    1  A    between atoms: C2_2  and  N1_4 
REMARK       I    between atoms: N1_4  and  C5_6 
REMARK       I    between atoms: C5_6  and  N2_8 
REMARK    2  A    between atoms: N2_8  and  C6_10 
REMARK       I    between atoms: N3_12  and  C8_13 
REMARK    3  A    between atoms: C8_13  and  C9_15 
ROOT
HETATM    1  C6  UNL     1      26.937  50.630  -4.484  1.00  0.00     0.121 C 
HETATM    2  C7  UNL     1      26.985  51.446  -3.224  1.00  0.00     0.152 C 
HETATM    3  N3  UNL     1      25.804  51.065  -2.434  1.00  0.00    -0.349 N 
HETATM    4  C8  UNL     1      25.901  50.554  -1.138  1.00  0.00     0.227 C 
HETATM    5  O2  UNL     1      27.090  50.437  -0.672  1.00  0.00    -0.273 OA
HETATM    6  C13 UNL     1      24.528  51.256  -3.071  1.00  0.00     0.127 C 
HETATM    7  C14 UNL     1      24.761  51.835  -4.468  1.00  0.00     0.041 C 
HETATM    8  C15 UNL     1      25.719  50.999  -5.270  1.00  0.00     0.118 C 
HETATM    9  C16 UNL     1      26.089  51.787  -6.455  1.00  0.00     0.066 C 
HETATM   10  N4  UNL     1      26.395  52.406  -7.392  1.00  0.00    -0.197 NA
ENDROOT
BRANCH   1  11
HETATM   11  N2  UNL     1      28.152  50.792  -5.262  1.00  0.00    -0.335 N 
HETATM   12  C5  UNL     1      28.850  49.695  -5.796  1.00  0.00     0.318 C 
HETATM   13  N1  UNL     1      30.037  49.778  -6.563  1.00  0.00    -0.335 N 
HETATM   14  O1  UNL     1      28.358  48.534  -5.561  1.00  0.00    -0.247 OA
HETATM   15  C4  UNL     1      30.681  48.583  -7.069  1.00  0.00     0.154 C 
ATOM     16  H2  UNL     1      28.510  51.733  -5.427  1.00  0.00     0.164 HD
BRANCH  13  17
HETATM   17  C2  UNL     1      30.661  51.042  -6.876  1.00  0.00     0.080 C 
HETATM   18  C1  UNL     1      31.229  50.881  -8.294  1.00  0.00     0.032 C 
HETATM   19  C3  UNL     1      31.885  51.141  -5.961  1.00  0.00     0.032 C 
ENDBRANCH  13  17
ENDBRANCH   1  11
BRANCH   4  20
HETATM   20  C9  UNL     1      24.798  50.142  -0.274  1.00  0.00     0.030 C 
HETATM   21  C10 UNL     1      24.240  51.355   0.489  1.00  0.00     0.025 C 
HETATM   22  C11 UNL     1      25.267  49.127   0.767  1.00  0.00     0.025 C 
HETATM   23  C12 UNL     1      23.637  49.507  -1.011  1.00  0.00     0.025 C 
ENDBRANCH   4  20
TORSDOF 3
ENDMDL
