MODEL 1
REMARK VINA RESULT: -6.142670260      0.000      0.000
REMARK  8 active torsions:
REMARK  status: ('A' for Active; 'I' for Inactive)
REMARK    1  A    between atoms: C4_4  and  O1_5 
REMARK    2  A    between atoms: C5_7  and  O2_8 
REMARK    3  A    between atoms: C6_10  and  C7_11 
REMARK    4  A    between atoms: C7_11  and  O3_12 
REMARK    5  A    between atoms: N1_14  and  C8_15 
REMARK    6  A    between atoms: C8_15  and  C9_16 
REMARK    7  A    between atoms: N2_17  and  O4_19 
REMARK    8  A    between atoms: N3_21  and  O5_23 
ROOT
HETATM    1  C1  UNL     1       0.121   2.884  53.666  1.00  0.00     0.041 C 
HETATM    2  C2  UNL     1       1.025   2.282  54.685  1.00  0.00     0.056 C 
HETATM    3  C3  UNL     1       0.999   0.794  54.572  1.00  0.00     0.041 C 
HETATM    4  C4  UNL     1       0.601   2.669  56.103  1.00  0.00     0.176 C 
HETATM    5  C5  UNL     1       0.986   4.156  56.046  1.00  0.00     0.174 C 
HETATM    6  C6  UNL     1       2.361   4.048  55.441  1.00  0.00     0.141 C 
HETATM    7  N1  UNL     1       2.331   2.855  54.608  1.00  0.00    -0.344 N 
ENDROOT
BRANCH   7   8
HETATM    8  C8  UNL     1       3.418   2.322  53.869  1.00  0.00     0.141 C 
HETATM    9  N3  UNL     1       3.307   2.293  52.551  1.00  0.00    -0.252 N 
ATOM     10  H3  UNL     1       2.451   2.653  52.129  1.00  0.00     0.196 HD
BRANCH   8  11
HETATM   11  C9  UNL     1       4.649   1.799  54.402  1.00  0.00     0.163 C 
HETATM   12  N2  UNL     1       5.749   2.448  54.357  1.00  0.00    -0.277 N 
ATOM     13  H2  UNL     1       5.768   3.373  53.929  1.00  0.00     0.193 HD
BRANCH  12  14
HETATM   14  O4  UNL     1       6.905   1.920  54.875  1.00  0.00    -0.290 OA
ATOM     15  H4  UNL     1       7.501   1.419  54.332  1.00  0.00     0.244 HD
ENDBRANCH  12  14
ENDBRANCH   8  11
BRANCH   9  16
HETATM   16  O5  UNL     1       4.275   1.808  51.732  1.00  0.00    -0.288 OA
ATOM     17  H5  UNL     1       4.327   2.014  50.806  1.00  0.00     0.244 HD
ENDBRANCH   9  16
ENDBRANCH   7   8
BRANCH   6  18
HETATM   18  C7  UNL     1       2.689   5.306  54.727  1.00  0.00     0.192 C 
BRANCH  18  19
HETATM   19  O3  UNL     1       2.749   6.434  55.533  1.00  0.00    -0.399 OA
ATOM     20  H3  UNL     1       3.615   6.815  55.621  1.00  0.00     0.209 HD
ENDBRANCH  18  19
ENDBRANCH   6  18
BRANCH   4  21
HETATM   21  O1  UNL     1      -0.737   2.480  56.333  1.00  0.00    -0.390 OA
ATOM     22  H1  UNL     1      -0.923   1.674  56.799  1.00  0.00     0.210 HD
ENDBRANCH   4  21
BRANCH   5  23
HETATM   23  O2  UNL     1       1.002   4.638  57.341  1.00  0.00    -0.391 OA
ATOM     24  H2  UNL     1       1.910   4.746  57.600  1.00  0.00     0.210 HD
ENDBRANCH   5  23
TORSDOF 8
ENDMDL
MODEL 2
REMARK VINA RESULT: -6.133410559      8.242     10.095
REMARK  8 active torsions:
REMARK  status: ('A' for Active; 'I' for Inactive)
REMARK    1  A    between atoms: C4_4  and  O1_5 
REMARK    2  A    between atoms: C5_7  and  O2_8 
REMARK    3  A    between atoms: C6_10  and  C7_11 
REMARK    4  A    between atoms: C7_11  and  O3_12 
REMARK    5  A    between atoms: N1_14  and  C8_15 
REMARK    6  A    between atoms: C8_15  and  C9_16 
REMARK    7  A    between atoms: N2_17  and  O4_19 
REMARK    8  A    between atoms: N3_21  and  O5_23 
ROOT
HETATM    1  C1  UNL     1      -1.927   2.633  61.381  1.00  0.00     0.041 C 
HETATM    2  C2  UNL     1      -3.415   2.653  61.452  1.00  0.00     0.056 C 
HETATM    3  C3  UNL     1      -3.883   1.737  62.535  1.00  0.00     0.041 C 
HETATM    4  C4  UNL     1      -4.041   2.204  60.131  1.00  0.00     0.176 C 
HETATM    5  C5  UNL     1      -3.659   3.429  59.284  1.00  0.00     0.174 C 
HETATM    6  C6  UNL     1      -4.064   4.535  60.223  1.00  0.00     0.141 C 
HETATM    7  N1  UNL     1      -3.900   3.991  61.564  1.00  0.00    -0.344 N 
ENDROOT
BRANCH   7   8
HETATM    8  C8  UNL     1      -4.201   4.656  62.779  1.00  0.00     0.141 C 
HETATM    9  N3  UNL     1      -5.477   4.826  63.086  1.00  0.00    -0.252 N 
ATOM     10  H3  UNL     1      -6.181   4.472  62.439  1.00  0.00     0.196 HD
BRANCH   8  11
HETATM   11  C9  UNL     1      -3.256   5.178  63.733  1.00  0.00     0.163 C 
HETATM   12  N2  UNL     1      -2.746   6.344  63.629  1.00  0.00    -0.277 N 
ATOM     13  H2  UNL     1      -3.010   6.938  62.843  1.00  0.00     0.193 HD
BRANCH  12  14
HETATM   14  O4  UNL     1      -1.848   6.810  64.555  1.00  0.00    -0.290 OA
ATOM     15  H4  UNL     1      -1.719   7.742  64.687  1.00  0.00     0.244 HD
ENDBRANCH  12  14
ENDBRANCH   8  11
BRANCH   9  16
HETATM   16  O5  UNL     1      -5.895   5.446  64.218  1.00  0.00    -0.288 OA
ATOM     17  H5  UNL     1      -6.172   6.355  64.244  1.00  0.00     0.244 HD
ENDBRANCH   9  16
ENDBRANCH   7   8
BRANCH   6  18
HETATM   18  C7  UNL     1      -3.262   5.748  59.934  1.00  0.00     0.192 C 
BRANCH  18  19
HETATM   19  O3  UNL     1      -2.098   5.520  59.215  1.00  0.00    -0.399 OA
ATOM     20  H3  UNL     1      -2.076   5.920  58.353  1.00  0.00     0.209 HD
ENDBRANCH  18  19
ENDBRANCH   6  18
BRANCH   4  21
HETATM   21  O1  UNL     1      -3.502   1.041  59.649  1.00  0.00    -0.390 OA
ATOM     22  H1  UNL     1      -3.901   0.755  58.836  1.00  0.00     0.210 HD
ENDBRANCH   4  21
BRANCH   5  23
HETATM   23  O2  UNL     1      -4.417   3.396  58.129  1.00  0.00    -0.391 OA
ATOM     24  H2  UNL     1      -4.755   2.514  58.028  1.00  0.00     0.210 HD
ENDBRANCH   5  23
TORSDOF 8
ENDMDL
MODEL 3
REMARK VINA RESULT: -6.090163492      1.654      3.241
REMARK  8 active torsions:
REMARK  status: ('A' for Active; 'I' for Inactive)
REMARK    1  A    between atoms: C4_4  and  O1_5 
REMARK    2  A    between atoms: C5_7  and  O2_8 
REMARK    3  A    between atoms: C6_10  and  C7_11 
REMARK    4  A    between atoms: C7_11  and  O3_12 
REMARK    5  A    between atoms: N1_14  and  C8_15 
REMARK    6  A    between atoms: C8_15  and  C9_16 
REMARK    7  A    between atoms: N2_17  and  O4_19 
REMARK    8  A    between atoms: N3_21  and  O5_23 
ROOT
HETATM    1  C1  UNL     1       1.737   1.582  56.177  1.00  0.00     0.041 C 
HETATM    2  C2  UNL     1       1.717   2.643  55.132  1.00  0.00     0.056 C 
HETATM    3  C3  UNL     1       2.323   3.897  55.669  1.00  0.00     0.041 C 
HETATM    4  C4  UNL     1       0.289   2.949  54.677  1.00  0.00     0.176 C 
HETATM    5  C5  UNL     1       0.014   1.636  53.928  1.00  0.00     0.174 C 
HETATM    6  C6  UNL     1       1.283   1.521  53.125  1.00  0.00     0.141 C 
HETATM    7  N1  UNL     1       2.312   2.175  53.921  1.00  0.00    -0.344 N 
ENDROOT
BRANCH   7   8
HETATM    8  C8  UNL     1       3.669   2.354  53.551  1.00  0.00     0.141 C 
HETATM    9  N3  UNL     1       3.955   2.370  52.260  1.00  0.00    -0.252 N 
ATOM     10  H3  UNL     1       3.192   2.255  51.593  1.00  0.00     0.196 HD
BRANCH   8  11
HETATM   11  C9  UNL     1       4.790   2.522  54.440  1.00  0.00     0.163 C 
HETATM   12  N2  UNL     1       5.555   1.554  54.772  1.00  0.00    -0.277 N 
ATOM     13  H2  UNL     1       5.376   0.622  54.399  1.00  0.00     0.193 HD
BRANCH  12  14
HETATM   14  O4  UNL     1       6.615   1.749  55.622  1.00  0.00    -0.290 OA
ATOM     15  H4  UNL     1       6.645   2.499  56.203  1.00  0.00     0.244 HD
ENDBRANCH  12  14
ENDBRANCH   8  11
BRANCH   9  16
HETATM   16  O5  UNL     1       5.214   2.533  51.777  1.00  0.00    -0.288 OA
ATOM     17  H5  UNL     1       5.859   1.835  51.754  1.00  0.00     0.244 HD
ENDBRANCH   9  16
ENDBRANCH   7   8
BRANCH   6  18
HETATM   18  C7  UNL     1       1.543   0.095  52.810  1.00  0.00     0.192 C 
BRANCH  18  19
HETATM   19  O3  UNL     1       2.081  -0.136  51.553  1.00  0.00    -0.399 OA
ATOM     20  H3  UNL     1       2.056  -1.042  51.268  1.00  0.00     0.209 HD
ENDBRANCH  18  19
ENDBRANCH   6  18
BRANCH   4  21
HETATM   21  O1  UNL     1      -0.574   3.150  55.722  1.00  0.00    -0.390 OA
ATOM     22  H1  UNL     1      -0.143   3.478  56.503  1.00  0.00     0.210 HD
ENDBRANCH   4  21
BRANCH   5  23
HETATM   23  O2  UNL     1      -1.107   1.824  53.143  1.00  0.00    -0.391 OA
ATOM     24  H2  UNL     1      -1.377   0.974  52.813  1.00  0.00     0.210 HD
ENDBRANCH   5  23
TORSDOF 8
ENDMDL
MODEL 4
REMARK VINA RESULT: -6.009724351      1.052      1.924
REMARK  8 active torsions:
REMARK  status: ('A' for Active; 'I' for Inactive)
REMARK    1  A    between atoms: C4_4  and  O1_5 
REMARK    2  A    between atoms: C5_7  and  O2_8 
REMARK    3  A    between atoms: C6_10  and  C7_11 
REMARK    4  A    between atoms: C7_11  and  O3_12 
REMARK    5  A    between atoms: N1_14  and  C8_15 
REMARK    6  A    between atoms: C8_15  and  C9_16 
REMARK    7  A    between atoms: N2_17  and  O4_19 
REMARK    8  A    between atoms: N3_21  and  O5_23 
ROOT
HETATM    1  C1  UNL     1      -0.225   2.681  53.817  1.00  0.00     0.041 C 
HETATM    2  C2  UNL     1       0.719   2.010  54.753  1.00  0.00     0.056 C 
HETATM    3  C3  UNL     1       0.859   0.569  54.386  1.00  0.00     0.041 C 
HETATM    4  C4  UNL     1       0.225   2.098  56.199  1.00  0.00     0.176 C 
HETATM    5  C5  UNL     1       0.446   3.603  56.411  1.00  0.00     0.174 C 
HETATM    6  C6  UNL     1       1.837   3.747  55.851  1.00  0.00     0.141 C 
HETATM    7  N1  UNL     1       1.955   2.720  54.826  1.00  0.00    -0.344 N 
ENDROOT
BRANCH   7   8
HETATM    8  C8  UNL     1       3.109   2.442  54.050  1.00  0.00     0.141 C 
HETATM    9  N3  UNL     1       4.283   2.498  54.655  1.00  0.00    -0.252 N 
ATOM     10  H3  UNL     1       4.307   2.738  55.646  1.00  0.00     0.196 HD
BRANCH   8  11
HETATM   11  C9  UNL     1       3.144   2.099  52.651  1.00  0.00     0.163 C 
HETATM   12  N2  UNL     1       3.672   1.018  52.221  1.00  0.00    -0.277 N 
ATOM     13  H2  UNL     1       4.089   0.365  52.884  1.00  0.00     0.193 HD
BRANCH  12  14
HETATM   14  O4  UNL     1       3.689   0.722  50.881  1.00  0.00    -0.290 OA
ATOM     15  H4  UNL     1       3.646  -0.177  50.577  1.00  0.00     0.244 HD
ENDBRANCH  12  14
ENDBRANCH   8  11
BRANCH   9  16
HETATM   16  O5  UNL     1       5.460   2.254  54.023  1.00  0.00    -0.288 OA
ATOM     17  H5  UNL     1       5.530   1.732  53.232  1.00  0.00     0.244 HD
ENDBRANCH   9  16
ENDBRANCH   7   8
BRANCH   6  18
HETATM   18  C7  UNL     1       2.038   5.137  55.376  1.00  0.00     0.192 C 
BRANCH  18  19
HETATM   19  O3  UNL     1       3.364   5.512  55.216  1.00  0.00    -0.399 OA
ATOM     20  H3  UNL     1       3.870   4.952  54.638  1.00  0.00     0.209 HD
ENDBRANCH  18  19
ENDBRANCH   6  18
BRANCH   4  21
HETATM   21  O1  UNL     1      -1.088   1.732  56.340  1.00  0.00    -0.390 OA
ATOM     22  H1  UNL     1      -1.307   0.941  55.860  1.00  0.00     0.210 HD
ENDBRANCH   4  21
BRANCH   5  23
HETATM   23  O2  UNL     1       0.382   3.852  57.769  1.00  0.00    -0.391 OA
ATOM     24  H2  UNL     1       1.198   4.265  58.027  1.00  0.00     0.210 HD
ENDBRANCH   5  23
TORSDOF 8
ENDMDL
MODEL 5
REMARK VINA RESULT: -5.978842517      2.206      4.285
REMARK  8 active torsions:
REMARK  status: ('A' for Active; 'I' for Inactive)
REMARK    1  A    between atoms: C4_4  and  O1_5 
REMARK    2  A    between atoms: C5_7  and  O2_8 
REMARK    3  A    between atoms: C6_10  and  C7_11 
REMARK    4  A    between atoms: C7_11  and  O3_12 
REMARK    5  A    between atoms: N1_14  and  C8_15 
REMARK    6  A    between atoms: C8_15  and  C9_16 
REMARK    7  A    between atoms: N2_17  and  O4_19 
REMARK    8  A    between atoms: N3_21  and  O5_23 
ROOT
HETATM    1  C1  UNL     1       3.615   2.507  55.062  1.00  0.00     0.041 C 
HETATM    2  C2  UNL     1       2.581   3.143  54.199  1.00  0.00     0.056 C 
HETATM    3  C3  UNL     1       2.534   2.457  52.874  1.00  0.00     0.041 C 
HETATM    4  C4  UNL     1       2.884   4.625  53.968  1.00  0.00     0.176 C 
HETATM    5  C5  UNL     1       2.592   5.129  55.390  1.00  0.00     0.174 C 
HETATM    6  C6  UNL     1       1.280   4.437  55.650  1.00  0.00     0.141 C 
HETATM    7  N1  UNL     1       1.324   3.207  54.874  1.00  0.00    -0.344 N 
ENDROOT
BRANCH   7   8
HETATM    8  C8  UNL     1       0.288   2.245  54.770  1.00  0.00     0.141 C 
HETATM    9  N3  UNL     1      -0.716   2.510  53.950  1.00  0.00    -0.252 N 
ATOM     10  H3  UNL     1      -0.699   3.389  53.433  1.00  0.00     0.196 HD
BRANCH   8  11
HETATM   11  C9  UNL     1       0.205   0.989  55.470  1.00  0.00     0.163 C 
HETATM   12  N2  UNL     1      -0.365   0.872  56.608  1.00  0.00    -0.277 N 
ATOM     13  H2  UNL     1      -0.781   1.693  57.047  1.00  0.00     0.193 HD
BRANCH  12  14
HETATM   14  O4  UNL     1      -0.427  -0.340  57.248  1.00  0.00    -0.290 OA
ATOM     15  H4  UNL     1      -0.965  -0.459  58.021  1.00  0.00     0.244 HD
ENDBRANCH  12  14
ENDBRANCH   8  11
BRANCH   9  16
HETATM   16  O5  UNL     1      -1.767   1.672  53.763  1.00  0.00    -0.288 OA
ATOM     17  H5  UNL     1      -2.186   1.194  54.469  1.00  0.00     0.244 HD
ENDBRANCH   9  16
ENDBRANCH   7   8
BRANCH   6  18
HETATM   18  C7  UNL     1       1.097   4.254  57.111  1.00  0.00     0.192 C 
BRANCH  18  19
HETATM   19  O3  UNL     1       0.953   5.430  57.832  1.00  0.00    -0.399 OA
ATOM     20  H3  UNL     1       1.754   5.759  58.222  1.00  0.00     0.209 HD
ENDBRANCH  18  19
ENDBRANCH   6  18
BRANCH   4  21
HETATM   21  O1  UNL     1       4.179   4.853  53.583  1.00  0.00    -0.390 OA
ATOM     22  H1  UNL     1       4.723   5.183  54.289  1.00  0.00     0.210 HD
ENDBRANCH   4  21
BRANCH   5  23
HETATM   23  O2  UNL     1       2.475   6.505  55.334  1.00  0.00    -0.391 OA
ATOM     24  H2  UNL     1       1.554   6.715  55.235  1.00  0.00     0.210 HD
ENDBRANCH   5  23
TORSDOF 8
ENDMDL
