MODEL 1
REMARK VINA RESULT: -6.547873581      0.000      0.000
REMARK  7 active torsions:
REMARK  status: ('A' for Active; 'I' for Inactive)
REMARK    1  A    between atoms: N2_3  and  C2_5 
REMARK    2  A    between atoms: C2_5  and  O2_10 
REMARK    3  A    between atoms: N3_6  and  O1_8 
REMARK    4  A    between atoms: O2_10  and  C3_11 
REMARK    5  A    between atoms: C3_11  and  C4_12 
REMARK    6  A    between atoms: C6_17  and  C7_18 
REMARK    7  A    between atoms: C7_18  and  O3_19 
ROOT
HETATM    1  N1  UNL     1       7.261   2.238  55.367  1.00  0.00    -0.172 NA
HETATM    2  C1  UNL     1       6.554   2.566  54.508  1.00  0.00     0.185 C 
HETATM    3  N2  UNL     1       5.701   2.974  53.459  1.00  0.00    -0.257 N 
ATOM      4  H2  UNL     1       6.088   3.450  52.643  1.00  0.00     0.181 HD
ENDROOT
BRANCH   3   5
HETATM    5  C2  UNL     1       4.317   2.726  53.537  1.00  0.00     0.252 C 
HETATM    6  N3  UNL     1       3.725   2.048  52.627  1.00  0.00    -0.232 N 
ATOM      7  H3  UNL     1       2.722   1.902  52.740  1.00  0.00     0.198 HD
BRANCH   6   8
HETATM    8  O1  UNL     1       4.298   1.507  51.534  1.00  0.00    -0.287 OA
ATOM      9  H1  UNL     1       3.870   0.962  50.885  1.00  0.00     0.244 HD
ENDBRANCH   6   8
BRANCH   5  10
HETATM   10  O2  UNL     1       3.560   3.187  54.565  1.00  0.00    -0.319 OA
BRANCH  10  11
HETATM   11  C3  UNL     1       2.195   3.484  54.481  1.00  0.00     0.202 C 
BRANCH  11  12
HETATM   12  C4  UNL     1       1.305   2.671  55.290  1.00  0.00     0.128 C 
HETATM   13  N4  UNL     1       0.180   3.437  55.814  1.00  0.00    -0.140 NA
HETATM   14  N5  UNL     1      -0.606   2.457  56.473  1.00  0.00    -0.131 NA
HETATM   15  C5  UNL     1      -0.504   1.268  55.645  1.00  0.00     0.175 C 
HETATM   16  S1  UNL     1      -2.016   1.101  54.701  1.00  0.00    -0.072 SA
HETATM   17  C6  UNL     1       0.725   1.421  54.766  1.00  0.00     0.063 C 
BRANCH  17  18
HETATM   18  C7  UNL     1       0.281   1.430  53.349  1.00  0.00     0.173 C 
BRANCH  18  19
HETATM   19  O3  UNL     1       1.247   0.753  52.591  1.00  0.00    -0.400 OA
ATOM     20  H3  UNL     1       0.843  -0.030  52.236  1.00  0.00     0.209 HD
ENDBRANCH  18  19
ENDBRANCH  17  18
ENDBRANCH  11  12
ENDBRANCH  10  11
ENDBRANCH   5  10
ENDBRANCH   3   5
TORSDOF 7
ENDMDL
MODEL 2
REMARK VINA RESULT: -6.273972262      2.397      3.232
REMARK  7 active torsions:
REMARK  status: ('A' for Active; 'I' for Inactive)
REMARK    1  A    between atoms: N2_3  and  C2_5 
REMARK    2  A    between atoms: C2_5  and  O2_10 
REMARK    3  A    between atoms: N3_6  and  O1_8 
REMARK    4  A    between atoms: O2_10  and  C3_11 
REMARK    5  A    between atoms: C3_11  and  C4_12 
REMARK    6  A    between atoms: C6_17  and  C7_18 
REMARK    7  A    between atoms: C7_18  and  O3_19 
ROOT
HETATM    1  N1  UNL     1       4.340   2.845  54.422  1.00  0.00    -0.172 NA
HETATM    2  C1  UNL     1       3.408   2.662  53.757  1.00  0.00     0.185 C 
HETATM    3  N2  UNL     1       2.269   2.452  52.949  1.00  0.00    -0.257 N 
ATOM      4  H2  UNL     1       1.855   3.233  52.439  1.00  0.00     0.181 HD
ENDROOT
BRANCH   3   5
HETATM    5  C2  UNL     1       1.704   1.166  52.846  1.00  0.00     0.252 C 
HETATM    6  N3  UNL     1       1.939   0.432  51.823  1.00  0.00    -0.232 N 
ATOM      7  H3  UNL     1       1.501  -0.489  51.807  1.00  0.00     0.198 HD
BRANCH   6   8
HETATM    8  O1  UNL     1       2.708   0.758  50.766  1.00  0.00    -0.287 OA
ATOM      9  H1  UNL     1       2.505   1.405  50.101  1.00  0.00     0.244 HD
ENDBRANCH   6   8
BRANCH   5  10
HETATM   10  O2  UNL     1       0.899   0.653  53.811  1.00  0.00    -0.319 OA
BRANCH  10  11
HETATM   11  C3  UNL     1      -0.079   1.377  54.503  1.00  0.00     0.202 C 
BRANCH  11  12
HETATM   12  C4  UNL     1       0.308   1.915  55.794  1.00  0.00     0.128 C 
HETATM   13  N4  UNL     1       0.066   3.351  55.889  1.00  0.00    -0.140 NA
HETATM   14  N5  UNL     1       0.405   3.652  57.233  1.00  0.00    -0.131 NA
HETATM   15  C5  UNL     1      -0.047   2.508  58.005  1.00  0.00     0.175 C 
HETATM   16  S1  UNL     1      -1.571   2.948  58.834  1.00  0.00    -0.072 SA
HETATM   17  C6  UNL     1      -0.212   1.341  57.048  1.00  0.00     0.063 C 
BRANCH  17  18
HETATM   18  C7  UNL     1      -1.641   0.935  57.058  1.00  0.00     0.173 C 
BRANCH  18  19
HETATM   19  O3  UNL     1      -1.709  -0.388  57.518  1.00  0.00    -0.400 OA
ATOM     20  H3  UNL     1      -1.365  -0.952  56.836  1.00  0.00     0.209 HD
ENDBRANCH  18  19
ENDBRANCH  17  18
ENDBRANCH  11  12
ENDBRANCH  10  11
ENDBRANCH   5  10
ENDBRANCH   3   5
TORSDOF 7
ENDMDL
MODEL 3
REMARK VINA RESULT: -6.200264546      3.965      5.588
REMARK  7 active torsions:
REMARK  status: ('A' for Active; 'I' for Inactive)
REMARK    1  A    between atoms: N2_3  and  C2_5 
REMARK    2  A    between atoms: C2_5  and  O2_10 
REMARK    3  A    between atoms: N3_6  and  O1_8 
REMARK    4  A    between atoms: O2_10  and  C3_11 
REMARK    5  A    between atoms: C3_11  and  C4_12 
REMARK    6  A    between atoms: C6_17  and  C7_18 
REMARK    7  A    between atoms: C7_18  and  O3_19 
ROOT
HETATM    1  N1  UNL     1       0.264  10.143  58.231  1.00  0.00    -0.172 NA
HETATM    2  C1  UNL     1       1.034   9.281  58.137  1.00  0.00     0.185 C 
HETATM    3  N2  UNL     1       1.979   8.237  58.031  1.00  0.00    -0.257 N 
ATOM      4  H2  UNL     1       2.663   8.092  58.773  1.00  0.00     0.181 HD
ENDROOT
BRANCH   3   5
HETATM    5  C2  UNL     1       1.977   7.395  56.902  1.00  0.00     0.252 C 
HETATM    6  N3  UNL     1       2.247   7.862  55.741  1.00  0.00    -0.232 N 
ATOM      7  H3  UNL     1       2.230   7.203  54.963  1.00  0.00     0.198 HD
BRANCH   6   8
HETATM    8  O1  UNL     1       2.554   9.142  55.447  1.00  0.00    -0.287 OA
ATOM      9  H1  UNL     1       3.167   9.435  54.783  1.00  0.00     0.244 HD
ENDBRANCH   6   8
BRANCH   5  10
HETATM   10  O2  UNL     1       1.693   6.071  56.991  1.00  0.00    -0.319 OA
BRANCH  10  11
HETATM   11  C3  UNL     1       2.142   5.095  56.093  1.00  0.00     0.202 C 
BRANCH  11  12
HETATM   12  C4  UNL     1       1.425   3.833  56.099  1.00  0.00     0.128 C 
HETATM   13  N4  UNL     1       0.136   3.928  55.421  1.00  0.00    -0.140 NA
HETATM   14  N5  UNL     1      -0.346   2.593  55.446  1.00  0.00    -0.131 NA
HETATM   15  C5  UNL     1       0.829   1.762  55.250  1.00  0.00     0.175 C 
HETATM   16  S1  UNL     1       0.838   1.181  53.557  1.00  0.00    -0.072 SA
HETATM   17  C6  UNL     1       2.049   2.598  55.593  1.00  0.00     0.063 C 
BRANCH  17  18
HETATM   18  C7  UNL     1       2.884   2.720  54.370  1.00  0.00     0.173 C 
BRANCH  18  19
HETATM   19  O3  UNL     1       4.220   2.506  54.738  1.00  0.00    -0.400 OA
ATOM     20  H3  UNL     1       4.693   3.317  54.601  1.00  0.00     0.209 HD
ENDBRANCH  18  19
ENDBRANCH  17  18
ENDBRANCH  11  12
ENDBRANCH  10  11
ENDBRANCH   5  10
ENDBRANCH   3   5
TORSDOF 7
ENDMDL
MODEL 4
REMARK VINA RESULT: -6.144946519      5.139      7.137
REMARK  7 active torsions:
REMARK  status: ('A' for Active; 'I' for Inactive)
REMARK    1  A    between atoms: N2_3  and  C2_5 
REMARK    2  A    between atoms: C2_5  and  O2_10 
REMARK    3  A    between atoms: N3_6  and  O1_8 
REMARK    4  A    between atoms: O2_10  and  C3_11 
REMARK    5  A    between atoms: C3_11  and  C4_12 
REMARK    6  A    between atoms: C6_17  and  C7_18 
REMARK    7  A    between atoms: C7_18  and  O3_19 
ROOT
HETATM    1  N1  UNL     1      -1.762  10.679  58.520  1.00  0.00    -0.172 NA
HETATM    2  C1  UNL     1      -0.753  10.107  58.534  1.00  0.00     0.185 C 
HETATM    3  N2  UNL     1       0.478   9.415  58.563  1.00  0.00    -0.257 N 
ATOM      4  H2  UNL     1       0.905   9.173  59.457  1.00  0.00     0.181 HD
ENDROOT
BRANCH   3   5
HETATM    5  C2  UNL     1       1.115   9.059  57.359  1.00  0.00     0.252 C 
HETATM    6  N3  UNL     1       1.858   9.900  56.741  1.00  0.00    -0.232 N 
ATOM      7  H3  UNL     1       2.291   9.582  55.875  1.00  0.00     0.198 HD
BRANCH   6   8
HETATM    8  O1  UNL     1       2.121  11.165  57.126  1.00  0.00    -0.287 OA
ATOM      9  H1  UNL     1       1.885  11.956  56.656  1.00  0.00     0.244 HD
ENDBRANCH   6   8
BRANCH   5  10
HETATM   10  O2  UNL     1       0.975   7.827  56.807  1.00  0.00    -0.319 OA
BRANCH  10  11
HETATM   11  C3  UNL     1       2.009   7.098  56.207  1.00  0.00     0.202 C 
BRANCH  11  12
HETATM   12  C4  UNL     1       1.979   5.659  56.397  1.00  0.00     0.128 C 
HETATM   13  N4  UNL     1       0.617   5.136  56.440  1.00  0.00    -0.140 NA
HETATM   14  N5  UNL     1       0.808   3.733  56.524  1.00  0.00    -0.131 NA
HETATM   15  C5  UNL     1       1.961   3.455  55.684  1.00  0.00     0.175 C 
HETATM   16  S1  UNL     1       1.383   2.764  54.137  1.00  0.00    -0.072 SA
HETATM   17  C6  UNL     1       2.723   4.755  55.501  1.00  0.00     0.063 C 
BRANCH  17  18
HETATM   18  C7  UNL     1       2.720   5.092  54.054  1.00  0.00     0.173 C 
BRANCH  18  19
HETATM   19  O3  UNL     1       4.038   4.992  53.587  1.00  0.00    -0.400 OA
ATOM     20  H3  UNL     1       4.078   5.409  52.734  1.00  0.00     0.209 HD
ENDBRANCH  18  19
ENDBRANCH  17  18
ENDBRANCH  11  12
ENDBRANCH  10  11
ENDBRANCH   5  10
ENDBRANCH   3   5
TORSDOF 7
ENDMDL
MODEL 5
REMARK VINA RESULT: -6.138690991      2.058      2.791
REMARK  7 active torsions:
REMARK  status: ('A' for Active; 'I' for Inactive)
REMARK    1  A    between atoms: N2_3  and  C2_5 
REMARK    2  A    between atoms: C2_5  and  O2_10 
REMARK    3  A    between atoms: N3_6  and  O1_8 
REMARK    4  A    between atoms: O2_10  and  C3_11 
REMARK    5  A    between atoms: C3_11  and  C4_12 
REMARK    6  A    between atoms: C6_17  and  C7_18 
REMARK    7  A    between atoms: C7_18  and  O3_19 
ROOT
HETATM    1  N1  UNL     1       4.426   4.020  53.543  1.00  0.00    -0.172 NA
HETATM    2  C1  UNL     1       4.143   2.897  53.487  1.00  0.00     0.185 C 
HETATM    3  N2  UNL     1       3.809   1.526  53.422  1.00  0.00    -0.257 N 
ATOM      4  H2  UNL     1       4.373   0.841  53.926  1.00  0.00     0.181 HD
ENDROOT
BRANCH   3   5
HETATM    5  C2  UNL     1       2.701   1.105  52.664  1.00  0.00     0.252 C 
HETATM    6  N3  UNL     1       2.849   0.724  51.450  1.00  0.00    -0.232 N 
ATOM      7  H3  UNL     1       2.008   0.431  50.953  1.00  0.00     0.198 HD
BRANCH   6   8
HETATM    8  O1  UNL     1       4.008   0.674  50.765  1.00  0.00    -0.287 OA
ATOM      9  H1  UNL     1       4.829   0.308  51.074  1.00  0.00     0.244 HD
ENDBRANCH   6   8
BRANCH   5  10
HETATM   10  O2  UNL     1       1.444   1.081  53.176  1.00  0.00    -0.319 OA
BRANCH  10  11
HETATM   11  C3  UNL     1       0.627   2.206  53.339  1.00  0.00     0.202 C 
BRANCH  11  12
HETATM   12  C4  UNL     1      -0.224   2.221  54.515  1.00  0.00     0.128 C 
HETATM   13  N4  UNL     1      -0.664   0.883  54.895  1.00  0.00    -0.140 NA
HETATM   14  N5  UNL     1      -1.381   1.105  56.100  1.00  0.00    -0.131 NA
HETATM   15  C5  UNL     1      -0.648   2.151  56.791  1.00  0.00     0.175 C 
HETATM   16  S1  UNL     1       0.310   1.401  58.104  1.00  0.00    -0.072 SA
HETATM   17  C6  UNL     1       0.215   2.865  55.766  1.00  0.00     0.063 C 
BRANCH  17  18
HETATM   18  C7  UNL     1       1.637   2.683  56.152  1.00  0.00     0.173 C 
BRANCH  18  19
HETATM   19  O3  UNL     1       2.298   3.903  55.953  1.00  0.00    -0.400 OA
ATOM     20  H3  UNL     1       1.820   4.574  56.426  1.00  0.00     0.209 HD
ENDBRANCH  18  19
ENDBRANCH  17  18
ENDBRANCH  11  12
ENDBRANCH  10  11
ENDBRANCH   5  10
ENDBRANCH   3   5
TORSDOF 7
ENDMDL
