MODEL 1
REMARK VINA RESULT: -5.782343895      0.000      0.000
REMARK  7 active torsions:
REMARK  status: ('A' for Active; 'I' for Inactive)
REMARK    1  A    between atoms: S1_2  and  C2_3 
REMARK    2  A    between atoms: C2_3  and  C3_4 
REMARK    3  A    between atoms: C4_6  and  O2_7 
REMARK    4  A    between atoms: C5_9  and  O3_10 
REMARK    5  A    between atoms: C6_12  and  O4_13 
REMARK    6  A    between atoms: C7_15  and  C8_16 
REMARK    7  A    between atoms: C8_16  and  O5_20 
ROOT
HETATM    1  C3  UNL     1       1.270   3.190  53.716  1.00  0.00     0.148 C 
HETATM    2  O1  UNL     1       2.518   3.372  53.226  1.00  0.00    -0.352 OA
HETATM    3  C4  UNL     1       3.286   2.296  52.972  1.00  0.00     0.288 C 
HETATM    4  C5  UNL     1       2.840   0.991  53.508  1.00  0.00     0.202 C 
HETATM    5  C6  UNL     1       1.421   0.749  53.046  1.00  0.00     0.166 C 
HETATM    6  C7  UNL     1       0.552   1.943  53.288  1.00  0.00     0.121 C 
ENDROOT
BRANCH   6   7
HETATM    7  C8  UNL     1      -0.538   1.567  54.212  1.00  0.00     0.118 C 
HETATM    8  N1  UNL     1      -0.318   0.763  55.170  1.00  0.00    -0.383 N 
ATOM      9  H12 UNL     1       0.621   0.384  55.288  1.00  0.00     0.157 HD
ATOM     10  H11 UNL     1      -1.071   0.503  55.807  1.00  0.00     0.157 HD
BRANCH   7  11
HETATM   11  O5  UNL     1      -1.804   2.078  54.052  1.00  0.00    -0.349 OA
ATOM     12  H5  UNL     1      -2.551   1.669  54.474  1.00  0.00     0.219 HD
ENDBRANCH   7  11
ENDBRANCH   6   7
BRANCH   1  13
HETATM   13  C2  UNL     1       1.291   3.417  55.208  1.00  0.00     0.106 C 
BRANCH  13  14
HETATM   14  S1  UNL     1       2.192   4.962  55.522  1.00  0.00    -0.171 SA
HETATM   15  C1  UNL     1       1.638   5.837  56.981  1.00  0.00     0.089 C 
ENDBRANCH  13  14
ENDBRANCH   1  13
BRANCH   5  16
HETATM   16  O4  UNL     1       1.514   0.381  51.700  1.00  0.00    -0.392 OA
ATOM     17  H4  UNL     1       0.662   0.562  51.321  1.00  0.00     0.210 HD
ENDBRANCH   5  16
BRANCH   4  18
HETATM   18  O3  UNL     1       3.624  -0.027  52.914  1.00  0.00    -0.388 OA
ATOM     19  H3  UNL     1       4.328   0.384  52.427  1.00  0.00     0.210 HD
ENDBRANCH   4  18
BRANCH   3  20
HETATM   20  O2  UNL     1       3.383   2.163  51.567  1.00  0.00    -0.369 OA
ATOM     21  H2  UNL     1       4.143   2.658  51.283  1.00  0.00     0.212 HD
ENDBRANCH   3  20
TORSDOF 7
ENDMDL
MODEL 2
REMARK VINA RESULT: -5.631521329      2.478      3.581
REMARK  7 active torsions:
REMARK  status: ('A' for Active; 'I' for Inactive)
REMARK    1  A    between atoms: S1_2  and  C2_3 
REMARK    2  A    between atoms: C2_3  and  C3_4 
REMARK    3  A    between atoms: C4_6  and  O2_7 
REMARK    4  A    between atoms: C5_9  and  O3_10 
REMARK    5  A    between atoms: C6_12  and  O4_13 
REMARK    6  A    between atoms: C7_15  and  C8_16 
REMARK    7  A    between atoms: C8_16  and  O5_20 
ROOT
HETATM    1  C3  UNL     1       1.447   1.817  54.385  1.00  0.00     0.148 C 
HETATM    2  O1  UNL     1       1.747   0.857  53.481  1.00  0.00    -0.352 OA
HETATM    3  C4  UNL     1       2.794   1.038  52.654  1.00  0.00     0.288 C 
HETATM    4  C5  UNL     1       3.384   2.394  52.580  1.00  0.00     0.202 C 
HETATM    5  C6  UNL     1       3.733   2.836  53.982  1.00  0.00     0.166 C 
HETATM    6  C7  UNL     1       2.596   2.615  54.929  1.00  0.00     0.121 C 
ENDROOT
BRANCH   6   7
HETATM    7  C8  UNL     1       2.173   3.916  55.487  1.00  0.00     0.118 C 
HETATM    8  N1  UNL     1       2.582   5.000  54.968  1.00  0.00    -0.383 N 
ATOM      9  H12 UNL     1       3.204   4.955  54.162  1.00  0.00     0.157 HD
ATOM     10  H11 UNL     1       2.291   5.898  55.354  1.00  0.00     0.157 HD
BRANCH   7  11
HETATM   11  O5  UNL     1       1.334   3.976  56.575  1.00  0.00    -0.349 OA
ATOM     12  H5  UNL     1       1.358   4.719  57.167  1.00  0.00     0.219 HD
ENDBRANCH   7  11
ENDBRANCH   6   7
BRANCH   1  13
HETATM   13  C2  UNL     1       0.304   2.650  53.855  1.00  0.00     0.106 C 
BRANCH  13  14
HETATM   14  S1  UNL     1      -1.219   1.676  54.028  1.00  0.00    -0.171 SA
HETATM   15  C1  UNL     1      -1.369   0.843  55.604  1.00  0.00     0.089 C 
ENDBRANCH  13  14
ENDBRANCH   1  13
BRANCH   5  16
HETATM   16  O4  UNL     1       4.897   2.139  54.324  1.00  0.00    -0.392 OA
ATOM     17  H4  UNL     1       4.730   1.755  55.177  1.00  0.00     0.210 HD
ENDBRANCH   5  16
BRANCH   4  18
HETATM   18  O3  UNL     1       4.611   2.308  51.878  1.00  0.00    -0.388 OA
ATOM     19  H3  UNL     1       4.572   2.899  51.136  1.00  0.00     0.210 HD
ENDBRANCH   4  18
BRANCH   3  20
HETATM   20  O2  UNL     1       3.820   0.155  53.065  1.00  0.00    -0.369 OA
ATOM     21  H2  UNL     1       4.302  -0.106  52.289  1.00  0.00     0.212 HD
ENDBRANCH   3  20
TORSDOF 7
ENDMDL
MODEL 3
REMARK VINA RESULT: -5.569998896      2.389      3.218
REMARK  7 active torsions:
REMARK  status: ('A' for Active; 'I' for Inactive)
REMARK    1  A    between atoms: S1_2  and  C2_3 
REMARK    2  A    between atoms: C2_3  and  C3_4 
REMARK    3  A    between atoms: C4_6  and  O2_7 
REMARK    4  A    between atoms: C5_9  and  O3_10 
REMARK    5  A    between atoms: C6_12  and  O4_13 
REMARK    6  A    between atoms: C7_15  and  C8_16 
REMARK    7  A    between atoms: C8_16  and  O5_20 
ROOT
HETATM    1  C3  UNL     1       0.069   2.947  55.426  1.00  0.00     0.148 C 
HETATM    2  O1  UNL     1       0.836   3.828  56.106  1.00  0.00    -0.352 OA
HETATM    3  C4  UNL     1       2.138   3.949  55.785  1.00  0.00     0.288 C 
HETATM    4  C5  UNL     1       2.728   2.914  54.906  1.00  0.00     0.202 C 
HETATM    5  C6  UNL     1       1.882   2.813  53.659  1.00  0.00     0.166 C 
HETATM    6  C7  UNL     1       0.426   2.710  53.987  1.00  0.00     0.121 C 
ENDROOT
BRANCH   6   7
HETATM    7  C8  UNL     1      -0.095   1.426  53.474  1.00  0.00     0.118 C 
HETATM    8  N1  UNL     1       0.703   0.533  53.051  1.00  0.00    -0.383 N 
ATOM      9  H12 UNL     1       1.705   0.720  53.072  1.00  0.00     0.157 HD
ATOM     10  H11 UNL     1       0.344  -0.353  52.696  1.00  0.00     0.157 HD
BRANCH   7  11
HETATM   11  O5  UNL     1      -1.446   1.175  53.446  1.00  0.00    -0.349 OA
ATOM     12  H5  UNL     1      -1.886   0.795  54.197  1.00  0.00     0.219 HD
ENDBRANCH   7  11
ENDBRANCH   6   7
BRANCH   1  13
HETATM   13  C2  UNL     1      -0.078   1.689  56.248  1.00  0.00     0.106 C 
BRANCH  13  14
HETATM   14  S1  UNL     1      -0.584   2.175  57.922  1.00  0.00    -0.171 SA
HETATM   15  C1  UNL     1       0.089   1.131  59.211  1.00  0.00     0.089 C 
ENDBRANCH  13  14
ENDBRANCH   1  13
BRANCH   5  16
HETATM   16  O4  UNL     1       2.208   3.931  52.883  1.00  0.00    -0.392 OA
ATOM     17  H4  UNL     1       2.489   3.591  52.042  1.00  0.00     0.210 HD
ENDBRANCH   5  16
BRANCH   4  18
HETATM   18  O3  UNL     1       4.002   3.364  54.481  1.00  0.00    -0.388 OA
ATOM     19  H3  UNL     1       4.377   3.897  55.172  1.00  0.00     0.210 HD
ENDBRANCH   4  18
BRANCH   3  20
HETATM   20  O2  UNL     1       2.303   5.196  55.136  1.00  0.00    -0.369 OA
ATOM     21  H2  UNL     1       2.228   5.045  54.201  1.00  0.00     0.212 HD
ENDBRANCH   3  20
TORSDOF 7
ENDMDL
MODEL 4
REMARK VINA RESULT: -5.448773974      1.752      1.989
REMARK  7 active torsions:
REMARK  status: ('A' for Active; 'I' for Inactive)
REMARK    1  A    between atoms: S1_2  and  C2_3 
REMARK    2  A    between atoms: C2_3  and  C3_4 
REMARK    3  A    between atoms: C4_6  and  O2_7 
REMARK    4  A    between atoms: C5_9  and  O3_10 
REMARK    5  A    between atoms: C6_12  and  O4_13 
REMARK    6  A    between atoms: C7_15  and  C8_16 
REMARK    7  A    between atoms: C8_16  and  O5_20 
ROOT
HETATM    1  C3  UNL     1       2.235   4.081  53.775  1.00  0.00     0.148 C 
HETATM    2  O1  UNL     1       3.505   4.541  53.713  1.00  0.00    -0.352 OA
HETATM    3  C4  UNL     1       4.523   3.686  53.923  1.00  0.00     0.288 C 
HETATM    4  C5  UNL     1       4.200   2.359  54.493  1.00  0.00     0.202 C 
HETATM    5  C6  UNL     1       3.141   1.717  53.628  1.00  0.00     0.166 C 
HETATM    6  C7  UNL     1       2.010   2.658  53.352  1.00  0.00     0.121 C 
ENDROOT
BRANCH   6   7
HETATM    7  C8  UNL     1       0.763   2.089  53.902  1.00  0.00     0.118 C 
HETATM    8  N1  UNL     1      -0.322   2.166  53.246  1.00  0.00    -0.383 N 
ATOM      9  H12 UNL     1      -0.314   2.627  52.337  1.00  0.00     0.157 HD
ATOM     10  H11 UNL     1      -1.183   1.774  53.627  1.00  0.00     0.157 HD
BRANCH   7  11
HETATM   11  O5  UNL     1       0.754   1.468  55.129  1.00  0.00    -0.349 OA
ATOM     12  H5  UNL     1       0.079   0.837  55.349  1.00  0.00     0.219 HD
ENDBRANCH   7  11
ENDBRANCH   6   7
BRANCH   1  13
HETATM   13  C2  UNL     1       1.652   4.430  55.123  1.00  0.00     0.106 C 
BRANCH  13  14
HETATM   14  S1  UNL     1       2.438   5.966  55.687  1.00  0.00    -0.171 SA
HETATM   15  C1  UNL     1       1.696   6.659  57.161  1.00  0.00     0.089 C 
ENDBRANCH  13  14
ENDBRANCH   1  13
BRANCH   5  16
HETATM   16  O4  UNL     1       3.802   1.275  52.477  1.00  0.00    -0.392 OA
ATOM     17  H4  UNL     1       3.970   0.350  52.612  1.00  0.00     0.210 HD
ENDBRANCH   5  16
BRANCH   4  18
HETATM   18  O3  UNL     1       5.347   1.536  54.385  1.00  0.00    -0.388 OA
ATOM     19  H3  UNL     1       5.110   0.756  53.898  1.00  0.00     0.210 HD
ENDBRANCH   4  18
BRANCH   3  20
HETATM   20  O2  UNL     1       5.160   3.466  52.679  1.00  0.00    -0.369 OA
ATOM     21  H2  UNL     1       6.030   3.843  52.731  1.00  0.00     0.212 HD
ENDBRANCH   3  20
TORSDOF 7
ENDMDL
MODEL 5
REMARK VINA RESULT: -5.405024271      2.165      3.685
REMARK  7 active torsions:
REMARK  status: ('A' for Active; 'I' for Inactive)
REMARK    1  A    between atoms: S1_2  and  C2_3 
REMARK    2  A    between atoms: C2_3  and  C3_4 
REMARK    3  A    between atoms: C4_6  and  O2_7 
REMARK    4  A    between atoms: C5_9  and  O3_10 
REMARK    5  A    between atoms: C6_12  and  O4_13 
REMARK    6  A    between atoms: C7_15  and  C8_16 
REMARK    7  A    between atoms: C8_16  and  O5_20 
ROOT
HETATM    1  C3  UNL     1       2.209   3.136  55.528  1.00  0.00     0.148 C 
HETATM    2  O1  UNL     1       1.069   3.136  56.255  1.00  0.00    -0.352 OA
HETATM    3  C4  UNL     1      -0.087   2.781  55.662  1.00  0.00     0.288 C 
HETATM    4  C5  UNL     1      -0.100   2.689  54.185  1.00  0.00     0.202 C 
HETATM    5  C6  UNL     1       1.019   1.769  53.756  1.00  0.00     0.166 C 
HETATM    6  C7  UNL     1       2.309   2.122  54.427  1.00  0.00     0.121 C 
ENDROOT
BRANCH   6   7
HETATM    7  C8  UNL     1       3.302   2.493  53.398  1.00  0.00     0.118 C 
HETATM    8  N1  UNL     1       4.544   2.457  53.660  1.00  0.00    -0.383 N 
ATOM      9  H12 UNL     1       4.840   2.167  54.592  1.00  0.00     0.157 HD
ATOM     10  H11 UNL     1       5.229   2.714  52.950  1.00  0.00     0.157 HD
BRANCH   7  11
HETATM   11  O5  UNL     1       2.901   2.884  52.141  1.00  0.00    -0.349 OA
ATOM     12  H5  UNL     1       3.470   3.408  51.590  1.00  0.00     0.219 HD
ENDBRANCH   7  11
ENDBRANCH   6   7
BRANCH   1  13
HETATM   13  C2  UNL     1       2.519   4.552  55.103  1.00  0.00     0.106 C 
BRANCH  13  14
HETATM   14  S1  UNL     1       1.923   5.666  56.407  1.00  0.00    -0.171 SA
HETATM   15  C1  UNL     1       2.035   7.400  55.982  1.00  0.00     0.089 C 
ENDBRANCH  13  14
ENDBRANCH   1  13
BRANCH   5  16
HETATM   16  O4  UNL     1       0.575   0.471  54.033  1.00  0.00    -0.392 OA
ATOM     17  H4  UNL     1       1.296   0.038  54.474  1.00  0.00     0.210 HD
ENDBRANCH   5  16
BRANCH   4  18
HETATM   18  O3  UNL     1      -1.303   2.055  53.788  1.00  0.00    -0.388 OA
ATOM     19  H3  UNL     1      -1.970   2.247  54.436  1.00  0.00     0.210 HD
ENDBRANCH   4  18
BRANCH   3  20
HETATM   20  O2  UNL     1      -0.452   1.510  56.166  1.00  0.00    -0.369 OA
ATOM     21  H2  UNL     1       0.310   0.946  56.102  1.00  0.00     0.212 HD
ENDBRANCH   3  20
TORSDOF 7
ENDMDL
