MODEL 1
REMARK VINA RESULT: -7.654586267      0.000      0.000
REMARK  9 active torsions:
REMARK  status: ('A' for Active; 'I' for Inactive)
REMARK    1  A    between atoms: C2_2  and  C3_3 
REMARK    2  A    between atoms: C3_3  and  N1_4 
REMARK    3  A    between atoms: N1_4  and  C4_7 
REMARK    4  A    between atoms: C4_7  and  C5_8 
REMARK       I    between atoms: N2_15  and  C12_16 
REMARK    5  A    between atoms: C12_16  and  C13_18 
REMARK    6  A    between atoms: C16_24  and  C17_25 
REMARK       I    between atoms: C17_25  and  N4_27 
REMARK    7  A    between atoms: N4_27  and  C18_29 
REMARK    8  A    between atoms: C18_29  and  C20_32 
REMARK    9  A    between atoms: C20_32  and  C22_34 
ROOT
HETATM    1  C18 UNL     1      76.975  33.836   0.594  1.00  0.00     0.195 C 
HETATM    2  C19 UNL     1      77.098  34.822   1.706  1.00  0.00     0.085 C 
HETATM    3  N5  UNL     1      77.211  35.589   2.561  1.00  0.00    -0.195 NA
ENDROOT
BRANCH   1   4
HETATM    4  N4  UNL     1      78.300  33.409   0.211  1.00  0.00    -0.343 N 
HETATM    5  C17 UNL     1      79.089  34.273  -0.585  1.00  0.00     0.225 C 
HETATM    6  O2  UNL     1      78.659  35.394  -0.971  1.00  0.00    -0.273 OA
ATOM      7  H4  UNL     1      78.661  32.503   0.508  1.00  0.00     0.163 HD
BRANCH   5   8
HETATM    8  C16 UNL     1      80.449  33.847  -0.972  1.00  0.00     0.118 C 
HETATM    9  C13 UNL     1      81.308  33.473   0.181  1.00  0.00     0.118 C 
HETATM   10  C14 UNL     1      82.663  34.019  -0.151  1.00  0.00     0.247 C 
HETATM   11  N3  UNL     1      82.580  34.648  -1.475  1.00  0.00    -0.073 N 
HETATM   12  C15 UNL     1      81.175  35.013  -1.591  1.00  0.00     0.247 C 
ATOM     13  H32 UNL     1      83.230  35.422  -1.617  1.00  0.00     0.277 HD
ATOM     14  H31 UNL     1      82.931  34.072  -2.240  1.00  0.00     0.277 HD
BRANCH   9  15
HETATM   15  C12 UNL     1      81.340  32.004   0.413  1.00  0.00     0.226 C 
HETATM   16  N2  UNL     1      81.058  31.513   1.713  1.00  0.00    -0.351 N 
HETATM   17  C11 UNL     1      80.708  32.206   2.936  1.00  0.00     0.126 C 
HETATM   18  C24 UNL     1      81.065  30.082   2.100  1.00  0.00     0.135 C 
HETATM   19  C10 UNL     1      81.233  31.321   4.069  1.00  0.00     0.031 C 
HETATM   20  C9  UNL     1      81.867  30.143   3.406  1.00  0.00    -0.017 C 
HETATM   21  C5  UNL     1      81.802  28.861   4.179  1.00  0.00     0.021 C 
HETATM   22  C8  UNL     1      83.328  30.385   3.093  1.00  0.00     0.012 C 
HETATM   23  C6  UNL     1      83.031  28.134   3.683  1.00  0.00     0.007 C 
HETATM   24  C7  UNL     1      84.083  29.221   3.705  1.00  0.00     0.001 C 
HETATM   25  O1  UNL     1      81.611  31.212  -0.512  1.00  0.00    -0.273 OA
BRANCH  21  26
HETATM   26  C4  UNL     1      81.935  29.064   5.661  1.00  0.00     0.238 C 
BRANCH  26  27
HETATM   27  N1  UNL     1      82.486  27.948   6.374  1.00  0.00    -0.072 N 
ATOM     28  H12 UNL     1      82.498  27.107   5.797  1.00  0.00     0.277 HD
ATOM     29  H11 UNL     1      81.855  27.628   7.109  1.00  0.00     0.277 HD
BRANCH  27  30
HETATM   30  C3  UNL     1      83.810  28.247   6.905  1.00  0.00     0.259 C 
BRANCH  30  31
HETATM   31  C2  UNL     1      83.935  29.700   7.195  1.00  0.00    -0.010 C 
HETATM   32  C1  UNL     1      85.120  30.217   7.407  1.00  0.00     0.008 C 
ENDBRANCH  30  31
ENDBRANCH  27  30
ENDBRANCH  26  27
ENDBRANCH  21  26
ENDBRANCH   9  15
ENDBRANCH   5   8
ENDBRANCH   1   4
BRANCH   1  33
HETATM   33  C20 UNL     1      76.045  32.785   1.052  1.00  0.00     0.018 C 
HETATM   34  C21 UNL     1      74.592  33.090   0.783  1.00  0.00     0.013 C 
BRANCH  33  35
HETATM   35  C22 UNL     1      76.204  32.298   2.450  1.00  0.00     0.003 C 
HETATM   36  C23 UNL     1      77.083  31.105   2.624  1.00  0.00     0.005 C 
ENDBRANCH  33  35
ENDBRANCH   1  33
TORSDOF 9
ENDMDL
MODEL 2
REMARK VINA RESULT: -7.598345046      3.409      6.166
REMARK  9 active torsions:
REMARK  status: ('A' for Active; 'I' for Inactive)
REMARK    1  A    between atoms: C2_2  and  C3_3 
REMARK    2  A    between atoms: C3_3  and  N1_4 
REMARK    3  A    between atoms: N1_4  and  C4_7 
REMARK    4  A    between atoms: C4_7  and  C5_8 
REMARK       I    between atoms: N2_15  and  C12_16 
REMARK    5  A    between atoms: C12_16  and  C13_18 
REMARK    6  A    between atoms: C16_24  and  C17_25 
REMARK       I    between atoms: C17_25  and  N4_27 
REMARK    7  A    between atoms: N4_27  and  C18_29 
REMARK    8  A    between atoms: C18_29  and  C20_32 
REMARK    9  A    between atoms: C20_32  and  C22_34 
ROOT
HETATM    1  C18 UNL     1      77.242  37.788  -2.353  1.00  0.00     0.195 C 
HETATM    2  C19 UNL     1      76.345  36.865  -1.599  1.00  0.00     0.085 C 
HETATM    3  N5  UNL     1      75.666  36.140  -1.010  1.00  0.00    -0.195 NA
ENDROOT
BRANCH   1   4
HETATM    4  N4  UNL     1      78.483  37.103  -2.624  1.00  0.00    -0.343 N 
HETATM    5  C17 UNL     1      79.701  37.775  -2.367  1.00  0.00     0.225 C 
HETATM    6  O2  UNL     1      79.725  38.954  -1.918  1.00  0.00    -0.273 OA
ATOM      7  H4  UNL     1      78.482  36.152  -2.993  1.00  0.00     0.163 HD
BRANCH   5   8
HETATM    8  C16 UNL     1      80.974  37.076  -2.632  1.00  0.00     0.118 C 
HETATM    9  C13 UNL     1      81.629  36.544  -1.409  1.00  0.00     0.118 C 
HETATM   10  C14 UNL     1      83.092  36.796  -1.611  1.00  0.00     0.247 C 
HETATM   11  N3  UNL     1      83.261  37.417  -2.930  1.00  0.00    -0.073 N 
HETATM   12  C15 UNL     1      81.978  38.062  -3.171  1.00  0.00     0.247 C 
ATOM     13  H32 UNL     1      84.066  38.039  -3.005  1.00  0.00     0.277 HD
ATOM     14  H31 UNL     1      83.555  36.775  -3.665  1.00  0.00     0.277 HD
BRANCH   9  15
HETATM   15  C12 UNL     1      81.337  35.101  -1.190  1.00  0.00     0.226 C 
HETATM   16  N2  UNL     1      80.220  34.746  -0.392  1.00  0.00    -0.351 N 
HETATM   17  C11 UNL     1      79.235  35.564   0.284  1.00  0.00     0.126 C 
HETATM   18  C24 UNL     1      79.813  33.356  -0.073  1.00  0.00     0.135 C 
HETATM   19  C10 UNL     1      78.787  34.744   1.497  1.00  0.00     0.031 C 
HETATM   20  C9  UNL     1      79.563  33.470   1.436  1.00  0.00    -0.017 C 
HETATM   21  C5  UNL     1      78.866  32.268   1.994  1.00  0.00     0.021 C 
HETATM   22  C8  UNL     1      80.888  33.577   2.162  1.00  0.00     0.012 C 
HETATM   23  C6  UNL     1      80.028  31.413   2.445  1.00  0.00     0.007 C 
HETATM   24  C7  UNL     1      80.921  32.418   3.139  1.00  0.00     0.001 C 
HETATM   25  O1  UNL     1      82.057  34.215  -1.692  1.00  0.00    -0.273 OA
BRANCH  21  26
HETATM   26  C4  UNL     1      78.017  32.587   3.192  1.00  0.00     0.238 C 
BRANCH  26  27
HETATM   27  N1  UNL     1      76.618  32.317   3.026  1.00  0.00    -0.072 N 
ATOM     28  H12 UNL     1      76.045  33.046   3.452  1.00  0.00     0.277 HD
ATOM     29  H11 UNL     1      76.321  31.527   3.599  1.00  0.00     0.277 HD
BRANCH  27  30
HETATM   30  C3  UNL     1      76.268  32.118   1.626  1.00  0.00     0.259 C 
BRANCH  30  31
HETATM   31  C2  UNL     1      75.397  33.224   1.148  1.00  0.00    -0.010 C 
HETATM   32  C1  UNL     1      74.167  32.965   0.779  1.00  0.00     0.008 C 
ENDBRANCH  30  31
ENDBRANCH  27  30
ENDBRANCH  26  27
ENDBRANCH  21  26
ENDBRANCH   9  15
ENDBRANCH   5   8
ENDBRANCH   1   4
BRANCH   1  33
HETATM   33  C20 UNL     1      76.478  38.269  -3.522  1.00  0.00     0.018 C 
HETATM   34  C21 UNL     1      76.906  37.654  -4.831  1.00  0.00     0.013 C 
BRANCH  33  35
HETATM   35  C22 UNL     1      76.338  39.743  -3.683  1.00  0.00     0.003 C 
HETATM   36  C23 UNL     1      76.383  40.539  -2.423  1.00  0.00     0.005 C 
ENDBRANCH  33  35
ENDBRANCH   1  33
TORSDOF 9
ENDMDL
MODEL 3
REMARK VINA RESULT: -7.516692192      3.821      6.117
REMARK  9 active torsions:
REMARK  status: ('A' for Active; 'I' for Inactive)
REMARK    1  A    between atoms: C2_2  and  C3_3 
REMARK    2  A    between atoms: C3_3  and  N1_4 
REMARK    3  A    between atoms: N1_4  and  C4_7 
REMARK    4  A    between atoms: C4_7  and  C5_8 
REMARK       I    between atoms: N2_15  and  C12_16 
REMARK    5  A    between atoms: C12_16  and  C13_18 
REMARK    6  A    between atoms: C16_24  and  C17_25 
REMARK       I    between atoms: C17_25  and  N4_27 
REMARK    7  A    between atoms: N4_27  and  C18_29 
REMARK    8  A    between atoms: C18_29  and  C20_32 
REMARK    9  A    between atoms: C20_32  and  C22_34 
ROOT
HETATM    1  C18 UNL     1      78.595  38.099  -4.663  1.00  0.00     0.195 C 
HETATM    2  C19 UNL     1      79.155  39.470  -4.489  1.00  0.00     0.085 C 
HETATM    3  N5  UNL     1      79.584  40.531  -4.337  1.00  0.00    -0.195 NA
ENDROOT
BRANCH   1   4
HETATM    4  N4  UNL     1      77.734  37.810  -3.541  1.00  0.00    -0.343 N 
HETATM    5  C17 UNL     1      78.317  37.359  -2.333  1.00  0.00     0.225 C 
HETATM    6  O2  UNL     1      79.564  37.197  -2.221  1.00  0.00    -0.273 OA
ATOM      7  H4  UNL     1      76.723  37.928  -3.617  1.00  0.00     0.163 HD
BRANCH   5   8
HETATM    8  C16 UNL     1      77.443  37.072  -1.179  1.00  0.00     0.118 C 
HETATM    9  C13 UNL     1      77.565  35.682  -0.669  1.00  0.00     0.118 C 
HETATM   10  C14 UNL     1      76.166  35.272  -0.323  1.00  0.00     0.247 C 
HETATM   11  N3  UNL     1      75.285  36.415  -0.593  1.00  0.00    -0.073 N 
HETATM   12  C15 UNL     1      76.003  37.166  -1.612  1.00  0.00     0.247 C 
ATOM     13  H32 UNL     1      74.330  36.161  -0.851  1.00  0.00     0.277 HD
ATOM     14  H31 UNL     1      75.032  36.958   0.232  1.00  0.00     0.277 HD
BRANCH   9  15
HETATM   15  C12 UNL     1      78.480  35.584   0.501  1.00  0.00     0.226 C 
HETATM   16  N2  UNL     1      79.524  34.626   0.469  1.00  0.00    -0.351 N 
HETATM   17  C11 UNL     1      79.909  33.671  -0.550  1.00  0.00     0.126 C 
HETATM   18  C24 UNL     1      80.502  34.401   1.560  1.00  0.00     0.135 C 
HETATM   19  C10 UNL     1      80.543  32.501   0.207  1.00  0.00     0.031 C 
HETATM   20  C9  UNL     1      80.481  32.870   1.652  1.00  0.00    -0.017 C 
HETATM   21  C5  UNL     1      81.594  32.331   2.499  1.00  0.00     0.021 C 
HETATM   22  C8  UNL     1      79.189  32.418   2.299  1.00  0.00     0.012 C 
HETATM   23  C6  UNL     1      80.934  32.229   3.855  1.00  0.00     0.007 C 
HETATM   24  C7  UNL     1      79.593  31.615   3.520  1.00  0.00     0.001 C 
HETATM   25  O1  UNL     1      78.336  36.324   1.495  1.00  0.00    -0.273 OA
BRANCH  21  26
HETATM   26  C4  UNL     1      82.034  30.957   2.080  1.00  0.00     0.238 C 
BRANCH  26  27
HETATM   27  N1  UNL     1      82.685  30.195   3.107  1.00  0.00    -0.072 N 
ATOM     28  H12 UNL     1      82.567  30.628   4.023  1.00  0.00     0.277 HD
ATOM     29  H11 UNL     1      83.701  30.259   3.031  1.00  0.00     0.277 HD
BRANCH  27  30
HETATM   30  C3  UNL     1      82.241  28.807   3.114  1.00  0.00     0.259 C 
BRANCH  30  31
HETATM   31  C2  UNL     1      81.963  28.361   4.505  1.00  0.00    -0.010 C 
HETATM   32  C1  UNL     1      82.093  29.210   5.494  1.00  0.00     0.008 C 
ENDBRANCH  30  31
ENDBRANCH  27  30
ENDBRANCH  26  27
ENDBRANCH  21  26
ENDBRANCH   9  15
ENDBRANCH   5   8
ENDBRANCH   1   4
BRANCH   1  33
HETATM   33  C20 UNL     1      77.979  38.052  -6.004  1.00  0.00     0.018 C 
HETATM   34  C21 UNL     1      78.974  38.051  -7.138  1.00  0.00     0.013 C 
BRANCH  33  35
HETATM   35  C22 UNL     1      76.895  39.032  -6.289  1.00  0.00     0.003 C 
HETATM   36  C23 UNL     1      75.510  38.478  -6.308  1.00  0.00     0.005 C 
ENDBRANCH  33  35
ENDBRANCH   1  33
TORSDOF 9
ENDMDL
MODEL 4
REMARK VINA RESULT: -7.478331810      2.773      6.016
REMARK  9 active torsions:
REMARK  status: ('A' for Active; 'I' for Inactive)
REMARK    1  A    between atoms: C2_2  and  C3_3 
REMARK    2  A    between atoms: C3_3  and  N1_4 
REMARK    3  A    between atoms: N1_4  and  C4_7 
REMARK    4  A    between atoms: C4_7  and  C5_8 
REMARK       I    between atoms: N2_15  and  C12_16 
REMARK    5  A    between atoms: C12_16  and  C13_18 
REMARK    6  A    between atoms: C16_24  and  C17_25 
REMARK       I    between atoms: C17_25  and  N4_27 
REMARK    7  A    between atoms: N4_27  and  C18_29 
REMARK    8  A    between atoms: C18_29  and  C20_32 
REMARK    9  A    between atoms: C20_32  and  C22_34 
ROOT
HETATM    1  C18 UNL     1      80.850  37.331  -3.240  1.00  0.00     0.195 C 
HETATM    2  C19 UNL     1      81.749  36.142  -3.292  1.00  0.00     0.085 C 
HETATM    3  N5  UNL     1      82.433  35.212  -3.322  1.00  0.00    -0.195 NA
ENDROOT
BRANCH   1   4
HETATM    4  N4  UNL     1      79.931  37.163  -2.139  1.00  0.00    -0.343 N 
HETATM    5  C17 UNL     1      78.544  37.301  -2.383  1.00  0.00     0.225 C 
HETATM    6  O2  UNL     1      78.099  37.574  -3.532  1.00  0.00    -0.273 OA
ATOM      7  H4  UNL     1      80.275  36.949  -1.203  1.00  0.00     0.163 HD
BRANCH   5   8
HETATM    8  C16 UNL     1      77.599  37.120  -1.264  1.00  0.00     0.118 C 
HETATM    9  C13 UNL     1      77.583  35.741  -0.712  1.00  0.00     0.118 C 
HETATM   10  C14 UNL     1      76.141  35.455  -0.422  1.00  0.00     0.247 C 
HETATM   11  N3  UNL     1      75.369  36.657  -0.764  1.00  0.00    -0.073 N 
HETATM   12  C15 UNL     1      76.192  37.317  -1.767  1.00  0.00     0.247 C 
ATOM     13  H32 UNL     1      74.410  36.473  -1.059  1.00  0.00     0.277 HD
ATOM     14  H31 UNL     1      75.125  37.243   0.033  1.00  0.00     0.277 HD
BRANCH   9  15
HETATM   15  C12 UNL     1      78.434  35.605   0.502  1.00  0.00     0.226 C 
HETATM   16  N2  UNL     1      79.513  34.687   0.477  1.00  0.00    -0.351 N 
HETATM   17  C11 UNL     1      79.991  33.808  -0.570  1.00  0.00     0.126 C 
HETATM   18  C24 UNL     1      80.436  34.431   1.609  1.00  0.00     0.135 C 
HETATM   19  C10 UNL     1      80.624  32.617   0.155  1.00  0.00     0.031 C 
HETATM   20  C9  UNL     1      80.467  32.897   1.612  1.00  0.00    -0.017 C 
HETATM   21  C5  UNL     1      81.549  32.348   2.491  1.00  0.00     0.021 C 
HETATM   22  C8  UNL     1      79.157  32.365   2.155  1.00  0.00     0.012 C 
HETATM   23  C6  UNL     1      80.818  32.144   3.798  1.00  0.00     0.007 C 
HETATM   24  C7  UNL     1      79.522  31.505   3.350  1.00  0.00     0.001 C 
HETATM   25  O1  UNL     1      78.206  36.280   1.526  1.00  0.00    -0.273 OA
BRANCH  21  26
HETATM   26  C4  UNL     1      82.064  31.017   2.021  1.00  0.00     0.238 C 
BRANCH  26  27
HETATM   27  N1  UNL     1      82.823  30.288   2.996  1.00  0.00    -0.072 N 
ATOM     28  H12 UNL     1      82.704  30.680   3.930  1.00  0.00     0.277 HD
ATOM     29  H11 UNL     1      83.825  30.447   2.882  1.00  0.00     0.277 HD
BRANCH  27  30
HETATM   30  C3  UNL     1      82.507  28.865   2.974  1.00  0.00     0.259 C 
BRANCH  30  31
HETATM   31  C2  UNL     1      81.793  28.475   4.218  1.00  0.00    -0.010 C 
HETATM   32  C1  UNL     1      82.105  29.055   5.350  1.00  0.00     0.008 C 
ENDBRANCH  30  31
ENDBRANCH  27  30
ENDBRANCH  26  27
ENDBRANCH  21  26
ENDBRANCH   9  15
ENDBRANCH   5   8
ENDBRANCH   1   4
BRANCH   1  33
HETATM   33  C20 UNL     1      81.717  38.526  -3.206  1.00  0.00     0.018 C 
HETATM   34  C21 UNL     1      82.330  38.802  -1.856  1.00  0.00     0.013 C 
BRANCH  33  35
HETATM   35  C22 UNL     1      81.162  39.786  -3.772  1.00  0.00     0.003 C 
HETATM   36  C23 UNL     1      80.438  39.649  -5.070  1.00  0.00     0.005 C 
ENDBRANCH  33  35
ENDBRANCH   1  33
TORSDOF 9
ENDMDL
MODEL 5
REMARK VINA RESULT: -7.429708140      2.660      7.294
REMARK  9 active torsions:
REMARK  status: ('A' for Active; 'I' for Inactive)
REMARK    1  A    between atoms: C2_2  and  C3_3 
REMARK    2  A    between atoms: C3_3  and  N1_4 
REMARK    3  A    between atoms: N1_4  and  C4_7 
REMARK    4  A    between atoms: C4_7  and  C5_8 
REMARK       I    between atoms: N2_15  and  C12_16 
REMARK    5  A    between atoms: C12_16  and  C13_18 
REMARK    6  A    between atoms: C16_24  and  C17_25 
REMARK       I    between atoms: C17_25  and  N4_27 
REMARK    7  A    between atoms: N4_27  and  C18_29 
REMARK    8  A    between atoms: C18_29  and  C20_32 
REMARK    9  A    between atoms: C20_32  and  C22_34 
ROOT
HETATM    1  C18 UNL     1      82.079  32.414   1.690  1.00  0.00     0.195 C 
HETATM    2  C19 UNL     1      82.174  31.439   0.566  1.00  0.00     0.085 C 
HETATM    3  N5  UNL     1      82.254  30.697  -0.316  1.00  0.00    -0.195 NA
ENDROOT
BRANCH   1   4
HETATM    4  N4  UNL     1      82.049  33.748   1.138  1.00  0.00    -0.343 N 
HETATM    5  C17 UNL     1      83.250  34.494   1.096  1.00  0.00     0.225 C 
HETATM    6  O2  UNL     1      84.336  34.025   1.535  1.00  0.00    -0.273 OA
ATOM      7  H4  UNL     1      81.178  34.145   0.786  1.00  0.00     0.163 HD
BRANCH   5   8
HETATM    8  C16 UNL     1      83.228  35.855   0.524  1.00  0.00     0.118 C 
HETATM    9  C13 UNL     1      82.222  36.033  -0.555  1.00  0.00     0.118 C 
HETATM   10  C14 UNL     1      82.899  36.891  -1.580  1.00  0.00     0.247 C 
HETATM   11  N3  UNL     1      84.237  37.221  -1.073  1.00  0.00    -0.073 N 
HETATM   12  C15 UNL     1      84.540  36.122  -0.168  1.00  0.00     0.247 C 
ATOM     13  H32 UNL     1      84.937  37.375  -1.799  1.00  0.00     0.277 HD
ATOM     14  H31 UNL     1      84.313  38.147  -0.653  1.00  0.00     0.277 HD
BRANCH   9  15
HETATM   15  C12 UNL     1      80.960  36.647  -0.059  1.00  0.00     0.226 C 
HETATM   16  N2  UNL     1      79.837  35.810   0.162  1.00  0.00    -0.351 N 
HETATM   17  C11 UNL     1      79.669  34.381   0.002  1.00  0.00     0.126 C 
HETATM   18  C24 UNL     1      78.513  36.276   0.639  1.00  0.00     0.135 C 
HETATM   19  C10 UNL     1      78.188  34.178  -0.329  1.00  0.00     0.031 C 
HETATM   20  C9  UNL     1      77.583  35.543  -0.337  1.00  0.00    -0.017 C 
HETATM   21  C5  UNL     1      76.146  35.609   0.081  1.00  0.00     0.021 C 
HETATM   22  C8  UNL     1      77.666  36.194  -1.702  1.00  0.00     0.012 C 
HETATM   23  C6  UNL     1      75.657  36.827  -0.669  1.00  0.00     0.007 C 
HETATM   24  C7  UNL     1      76.252  36.622  -2.044  1.00  0.00     0.001 C 
HETATM   25  O1  UNL     1      80.883  37.873   0.159  1.00  0.00    -0.273 OA
BRANCH  21  26
HETATM   26  C4  UNL     1      75.350  34.418  -0.372  1.00  0.00     0.238 C 
BRANCH  26  27
HETATM   27  N1  UNL     1      74.707  33.688   0.682  1.00  0.00    -0.072 N 
ATOM     28  H12 UNL     1      73.729  33.498   0.461  1.00  0.00     0.277 HD
ATOM     29  H11 UNL     1      74.573  34.269   1.509  1.00  0.00     0.277 HD
BRANCH  27  30
HETATM   30  C3  UNL     1      75.425  32.462   1.006  1.00  0.00     0.259 C 
BRANCH  30  31
HETATM   31  C2  UNL     1      76.141  32.609   2.300  1.00  0.00    -0.010 C 
HETATM   32  C1  UNL     1      77.079  31.752   2.620  1.00  0.00     0.008 C 
ENDBRANCH  30  31
ENDBRANCH  27  30
ENDBRANCH  26  27
ENDBRANCH  21  26
ENDBRANCH   9  15
ENDBRANCH   5   8
ENDBRANCH   1   4
BRANCH   1  33
HETATM   33  C20 UNL     1      80.923  32.009   2.515  1.00  0.00     0.018 C 
HETATM   34  C21 UNL     1      80.596  32.972   3.629  1.00  0.00     0.013 C 
BRANCH  33  35
HETATM   35  C22 UNL     1      80.917  30.616   3.039  1.00  0.00     0.003 C 
HETATM   36  C23 UNL     1      81.723  30.384   4.274  1.00  0.00     0.005 C 
ENDBRANCH  33  35
ENDBRANCH   1  33
TORSDOF 9
ENDMDL
