MODEL 1
REMARK VINA RESULT: -7.365873362      0.000      0.000
REMARK  10 active torsions:
REMARK  status: ('A' for Active; 'I' for Inactive)
REMARK    1  A    between atoms: C2_2  and  N1_4 
REMARK       I    between atoms: N1_4  and  C4_6 
REMARK    2  A    between atoms: C4_6  and  C5_8 
REMARK    3  A    between atoms: N2_12  and  C9_13 
REMARK    4  A    between atoms: C9_13  and  C10_14 
REMARK    5  A    between atoms: C10_14  and  N3_15 
REMARK    6  A    between atoms: C10_14  and  C11_19 
REMARK    7  A    between atoms: C11_19  and  N4_20 
REMARK    8  A    between atoms: C11_19  and  C20_31 
REMARK       I    between atoms: N4_20  and  C12_22 
REMARK    9  A    between atoms: C12_22  and  C13_24 
REMARK   10  A    between atoms: C20_31  and  C22_33 
ROOT
HETATM    1  C10 UNL     1      82.043  33.682   1.127  1.00  0.00     0.234 C 
ENDROOT
BRANCH   1   2
HETATM    2  C9  UNL     1      80.933  32.705   0.925  1.00  0.00     0.308 C 
BRANCH   2   3
HETATM    3  N2  UNL     1      80.773  31.630   1.795  1.00  0.00     0.104 N 
HETATM    4  C5  UNL     1      81.553  31.940   3.006  1.00  0.00     0.314 C 
HETATM    5  C6  UNL     1      80.611  32.635   3.925  1.00  0.00     0.047 C 
HETATM    6  C7  UNL     1      79.247  32.270   3.465  1.00  0.00     0.033 C 
HETATM    7  C8  UNL     1      79.532  31.282   2.346  1.00  0.00     0.273 C 
BRANCH   4   8
HETATM    8  C4  UNL     1      82.151  30.737   3.610  1.00  0.00     0.251 C 
HETATM    9  N1  UNL     1      82.074  30.456   4.983  1.00  0.00    -0.355 N 
ATOM     10  H1  UNL     1      81.584  31.107   5.597  1.00  0.00     0.162 HD
HETATM   11  O1  UNL     1      82.765  29.909   2.864  1.00  0.00    -0.271 OA
BRANCH   9  12
HETATM   12  C2  UNL     1      82.671  29.270   5.547  1.00  0.00     0.076 C 
HETATM   13  C1  UNL     1      81.689  28.550   6.446  1.00  0.00     0.032 C 
HETATM   14  C3  UNL     1      83.915  29.628   6.367  1.00  0.00     0.032 C 
ENDBRANCH   9  12
ENDBRANCH   4   8
ENDBRANCH   2   3
ENDBRANCH   1   2
BRANCH   1  15
HETATM   15  N3  UNL     1      83.132  33.358   0.240  1.00  0.00    -0.071 N 
ATOM     16  H33 UNL     1      83.677  32.562   0.572  1.00  0.00     0.274 HD
ATOM     17  H32 UNL     1      82.808  32.955  -0.639  1.00  0.00     0.274 HD
ATOM     18  H31 UNL     1      83.708  34.187   0.095  1.00  0.00     0.274 HD
ENDBRANCH   1  15
BRANCH   1  19
HETATM   19  C11 UNL     1      81.523  35.035   0.753  1.00  0.00     0.120 C 
BRANCH  19  20
HETATM   20  N4  UNL     1      80.062  34.950   0.520  1.00  0.00    -0.354 N 
HETATM   21  C12 UNL     1      79.148  35.908   0.973  1.00  0.00     0.222 C 
HETATM   22  O2  UNL     1      79.560  36.901   1.613  1.00  0.00    -0.273 OA
ATOM     23  H4  UNL     1      79.703  34.148   0.002  1.00  0.00     0.162 HD
BRANCH  21  24
HETATM   24  C13 UNL     1      77.709  35.750   0.701  1.00  0.00     0.079 C 
HETATM   25  C14 UNL     1      76.922  35.047   1.812  1.00  0.00     0.023 C 
HETATM   26  C15 UNL     1      76.361  34.155   0.755  1.00  0.00    -0.039 C 
HETATM   27  C16 UNL     1      74.932  34.278   0.407  1.00  0.00     0.010 C 
HETATM   28  C18 UNL     1      76.212  32.714   1.055  1.00  0.00     0.010 C 
HETATM   29  C19 UNL     1      77.382  34.581  -0.241  1.00  0.00     0.023 C 
HETATM   30  C17 UNL     1      74.693  32.937   1.118  1.00  0.00     0.002 C 
ENDBRANCH  21  24
ENDBRANCH  19  20
BRANCH  19  31
HETATM   31  C20 UNL     1      82.106  35.719  -0.409  1.00  0.00     0.010 C 
HETATM   32  C21 UNL     1      82.693  37.083  -0.106  1.00  0.00     0.012 C 
BRANCH  31  33
HETATM   33  C22 UNL     1      81.324  35.817  -1.674  1.00  0.00    -0.017 C 
HETATM   34  C23 UNL     1      82.244  35.304  -2.796  1.00  0.00     0.010 C 
HETATM   35  C24 UNL     1      80.897  37.189  -2.093  1.00  0.00     0.010 C 
ENDBRANCH  31  33
ENDBRANCH  19  31
ENDBRANCH   1  19
TORSDOF 10
ENDMDL
MODEL 2
REMARK VINA RESULT: -7.231690436      2.748      4.879
REMARK  10 active torsions:
REMARK  status: ('A' for Active; 'I' for Inactive)
REMARK    1  A    between atoms: C2_2  and  N1_4 
REMARK       I    between atoms: N1_4  and  C4_6 
REMARK    2  A    between atoms: C4_6  and  C5_8 
REMARK    3  A    between atoms: N2_12  and  C9_13 
REMARK    4  A    between atoms: C9_13  and  C10_14 
REMARK    5  A    between atoms: C10_14  and  N3_15 
REMARK    6  A    between atoms: C10_14  and  C11_19 
REMARK    7  A    between atoms: C11_19  and  N4_20 
REMARK    8  A    between atoms: C11_19  and  C20_31 
REMARK       I    between atoms: N4_20  and  C12_22 
REMARK    9  A    between atoms: C12_22  and  C13_24 
REMARK   10  A    between atoms: C20_31  and  C22_33 
ROOT
HETATM    1  C10 UNL     1      79.291  34.814  -0.029  1.00  0.00     0.234 C 
ENDROOT
BRANCH   1   2
HETATM    2  C9  UNL     1      80.209  33.650   0.140  1.00  0.00     0.308 C 
BRANCH   2   3
HETATM    3  N2  UNL     1      80.613  33.248   1.410  1.00  0.00     0.104 N 
HETATM    4  C5  UNL     1      81.248  31.926   1.258  1.00  0.00     0.314 C 
HETATM    5  C6  UNL     1      82.696  32.198   1.044  1.00  0.00     0.047 C 
HETATM    6  C7  UNL     1      82.937  33.566   1.568  1.00  0.00     0.033 C 
HETATM    7  C8  UNL     1      81.583  33.938   2.149  1.00  0.00     0.273 C 
BRANCH   4   8
HETATM    8  C4  UNL     1      81.000  31.050   2.416  1.00  0.00     0.251 C 
HETATM    9  N1  UNL     1      82.032  30.535   3.215  1.00  0.00    -0.355 N 
ATOM     10  H1  UNL     1      82.999  30.773   2.994  1.00  0.00     0.162 HD
HETATM   11  O1  UNL     1      79.802  30.741   2.714  1.00  0.00    -0.271 OA
BRANCH   9  12
HETATM   12  C2  UNL     1      81.759  29.677   4.343  1.00  0.00     0.076 C 
HETATM   13  C1  UNL     1      82.746  29.931   5.463  1.00  0.00     0.032 C 
HETATM   14  C3  UNL     1      81.848  28.202   3.934  1.00  0.00     0.032 C 
ENDBRANCH   9  12
ENDBRANCH   4   8
ENDBRANCH   2   3
ENDBRANCH   1   2
BRANCH   1  15
HETATM   15  N3  UNL     1      79.726  35.608  -1.151  1.00  0.00    -0.071 N 
ATOM     16  H33 UNL     1      80.415  35.121  -1.724  1.00  0.00     0.274 HD
ATOM     17  H32 UNL     1      78.997  35.711  -1.857  1.00  0.00     0.274 HD
ATOM     18  H31 UNL     1      80.069  36.507  -0.815  1.00  0.00     0.274 HD
ENDBRANCH   1  15
BRANCH   1  19
HETATM   19  C11 UNL     1      77.931  34.272  -0.339  1.00  0.00     0.120 C 
BRANCH  19  20
HETATM   20  N4  UNL     1      77.313  35.087  -1.411  1.00  0.00    -0.354 N 
HETATM   21  C12 UNL     1      76.420  36.136  -1.169  1.00  0.00     0.222 C 
HETATM   22  O2  UNL     1      76.107  36.423   0.008  1.00  0.00    -0.273 OA
ATOM     23  H4  UNL     1      77.552  34.871  -2.379  1.00  0.00     0.162 HD
BRANCH  21  24
HETATM   24  C13 UNL     1      75.847  36.900  -2.292  1.00  0.00     0.079 C 
HETATM   25  C14 UNL     1      76.184  36.344  -3.680  1.00  0.00     0.023 C 
HETATM   26  C15 UNL     1      76.603  37.727  -4.055  1.00  0.00    -0.039 C 
HETATM   27  C16 UNL     1      75.784  38.480  -5.024  1.00  0.00     0.010 C 
HETATM   28  C18 UNL     1      77.818  37.894  -4.882  1.00  0.00     0.010 C 
HETATM   29  C19 UNL     1      76.631  38.175  -2.636  1.00  0.00     0.023 C 
HETATM   30  C17 UNL     1      76.904  38.278  -6.055  1.00  0.00     0.002 C 
ENDBRANCH  21  24
ENDBRANCH  19  20
BRANCH  19  31
HETATM   31  C20 UNL     1      76.947  34.170   0.747  1.00  0.00     0.010 C 
HETATM   32  C21 UNL     1      77.446  34.652   2.094  1.00  0.00     0.012 C 
BRANCH  31  33
HETATM   33  C22 UNL     1      76.207  32.892   0.952  1.00  0.00    -0.017 C 
HETATM   34  C23 UNL     1      74.713  33.221   0.784  1.00  0.00     0.010 C 
HETATM   35  C24 UNL     1      76.335  32.253   2.300  1.00  0.00     0.010 C 
ENDBRANCH  31  33
ENDBRANCH  19  31
ENDBRANCH   1  19
TORSDOF 10
ENDMDL
MODEL 3
REMARK VINA RESULT: -7.211636624      2.906      5.195
REMARK  10 active torsions:
REMARK  status: ('A' for Active; 'I' for Inactive)
REMARK    1  A    between atoms: C2_2  and  N1_4 
REMARK       I    between atoms: N1_4  and  C4_6 
REMARK    2  A    between atoms: C4_6  and  C5_8 
REMARK    3  A    between atoms: N2_12  and  C9_13 
REMARK    4  A    between atoms: C9_13  and  C10_14 
REMARK    5  A    between atoms: C10_14  and  N3_15 
REMARK    6  A    between atoms: C10_14  and  C11_19 
REMARK    7  A    between atoms: C11_19  and  N4_20 
REMARK    8  A    between atoms: C11_19  and  C20_31 
REMARK       I    between atoms: N4_20  and  C12_22 
REMARK    9  A    between atoms: C12_22  and  C13_24 
REMARK   10  A    between atoms: C20_31  and  C22_33 
ROOT
HETATM    1  C10 UNL     1      79.240  35.591   0.875  1.00  0.00     0.234 C 
ENDROOT
BRANCH   1   2
HETATM    2  C9  UNL     1      80.177  34.506   0.461  1.00  0.00     0.308 C 
BRANCH   2   3
HETATM    3  N2  UNL     1      80.834  33.738   1.419  1.00  0.00     0.104 N 
HETATM    4  C5  UNL     1      80.662  32.327   1.027  1.00  0.00     0.314 C 
HETATM    5  C6  UNL     1      81.836  32.001   0.173  1.00  0.00     0.047 C 
HETATM    6  C7  UNL     1      82.872  33.014   0.496  1.00  0.00     0.033 C 
HETATM    7  C8  UNL     1      82.219  33.803   1.619  1.00  0.00     0.273 C 
BRANCH   4   8
HETATM    8  C4  UNL     1      80.542  31.434   2.193  1.00  0.00     0.251 C 
HETATM    9  N1  UNL     1      81.475  30.425   2.477  1.00  0.00    -0.355 N 
ATOM     10  H1  UNL     1      82.275  30.299   1.857  1.00  0.00     0.162 HD
HETATM   11  O1  UNL     1      79.554  31.576   2.983  1.00  0.00    -0.271 OA
BRANCH   9  12
HETATM   12  C2  UNL     1      81.331  29.564   3.626  1.00  0.00     0.076 C 
HETATM   13  C1  UNL     1      82.077  30.127   4.817  1.00  0.00     0.032 C 
HETATM   14  C3  UNL     1      81.875  28.164   3.323  1.00  0.00     0.032 C 
ENDBRANCH   9  12
ENDBRANCH   4   8
ENDBRANCH   2   3
ENDBRANCH   1   2
BRANCH   1  15
HETATM   15  N3  UNL     1      79.673  36.841   0.300  1.00  0.00    -0.071 N 
ATOM     16  H33 UNL     1      79.995  37.501   1.008  1.00  0.00     0.274 HD
ATOM     17  H32 UNL     1      80.547  36.746  -0.216  1.00  0.00     0.274 HD
ATOM     18  H31 UNL     1      78.924  37.226  -0.275  1.00  0.00     0.274 HD
ENDBRANCH   1  15
BRANCH   1  19
HETATM   19  C11 UNL     1      77.893  35.260   0.312  1.00  0.00     0.120 C 
BRANCH  19  20
HETATM   20  N4  UNL     1      77.304  36.478  -0.292  1.00  0.00    -0.354 N 
HETATM   21  C12 UNL     1      76.612  36.482  -1.508  1.00  0.00     0.222 C 
HETATM   22  O2  UNL     1      76.469  35.412  -2.142  1.00  0.00    -0.273 OA
ATOM     23  H4  UNL     1      77.408  37.362   0.206  1.00  0.00     0.162 HD
BRANCH  21  24
HETATM   24  C13 UNL     1      76.055  37.738  -2.043  1.00  0.00     0.079 C 
HETATM   25  C14 UNL     1      76.280  37.947  -3.545  1.00  0.00     0.023 C 
HETATM   26  C15 UNL     1      76.797  39.306  -3.207  1.00  0.00    -0.039 C 
HETATM   27  C16 UNL     1      76.001  40.486  -3.595  1.00  0.00     0.010 C 
HETATM   28  C18 UNL     1      77.983  39.809  -3.933  1.00  0.00     0.010 C 
HETATM   29  C19 UNL     1      76.928  38.970  -1.762  1.00  0.00     0.023 C 
HETATM   30  C17 UNL     1      77.052  40.779  -4.675  1.00  0.00     0.002 C 
ENDBRANCH  21  24
ENDBRANCH  19  20
BRANCH  19  31
HETATM   31  C20 UNL     1      76.877  34.686   1.205  1.00  0.00     0.010 C 
HETATM   32  C21 UNL     1      77.259  34.683   2.671  1.00  0.00     0.012 C 
BRANCH  31  33
HETATM   33  C22 UNL     1      76.270  33.365   0.876  1.00  0.00    -0.017 C 
HETATM   34  C23 UNL     1      74.774  33.622   0.625  1.00  0.00     0.010 C 
HETATM   35  C24 UNL     1      76.330  32.317   1.943  1.00  0.00     0.010 C 
ENDBRANCH  31  33
ENDBRANCH  19  31
ENDBRANCH   1  19
TORSDOF 10
ENDMDL
MODEL 4
REMARK VINA RESULT: -7.167074211      1.978      8.054
REMARK  10 active torsions:
REMARK  status: ('A' for Active; 'I' for Inactive)
REMARK    1  A    between atoms: C2_2  and  N1_4 
REMARK       I    between atoms: N1_4  and  C4_6 
REMARK    2  A    between atoms: C4_6  and  C5_8 
REMARK    3  A    between atoms: N2_12  and  C9_13 
REMARK    4  A    between atoms: C9_13  and  C10_14 
REMARK    5  A    between atoms: C10_14  and  N3_15 
REMARK    6  A    between atoms: C10_14  and  C11_19 
REMARK    7  A    between atoms: C11_19  and  N4_20 
REMARK    8  A    between atoms: C11_19  and  C20_31 
REMARK       I    between atoms: N4_20  and  C12_22 
REMARK    9  A    between atoms: C12_22  and  C13_24 
REMARK   10  A    between atoms: C20_31  and  C22_33 
ROOT
HETATM    1  C10 UNL     1      80.200  32.626   3.019  1.00  0.00     0.234 C 
ENDROOT
BRANCH   1   2
HETATM    2  C9  UNL     1      79.091  32.618   2.020  1.00  0.00     0.308 C 
BRANCH   2   3
HETATM    3  N2  UNL     1      78.401  33.790   1.724  1.00  0.00     0.104 N 
HETATM    4  C5  UNL     1      77.823  33.617   0.379  1.00  0.00     0.314 C 
HETATM    5  C6  UNL     1      76.466  33.045   0.594  1.00  0.00     0.047 C 
HETATM    6  C7  UNL     1      76.104  33.368   1.998  1.00  0.00     0.033 C 
HETATM    7  C8  UNL     1      77.282  34.213   2.454  1.00  0.00     0.273 C 
BRANCH   4   8
HETATM    8  C4  UNL     1      77.793  34.878  -0.383  1.00  0.00     0.251 C 
HETATM    9  N1  UNL     1      76.680  35.288  -1.132  1.00  0.00    -0.355 N 
ATOM     10  H1  UNL     1      75.850  34.696  -1.154  1.00  0.00     0.162 HD
HETATM   11  O1  UNL     1      78.816  35.635  -0.368  1.00  0.00    -0.271 OA
BRANCH   9  12
HETATM   12  C2  UNL     1      76.680  36.528  -1.871  1.00  0.00     0.076 C 
HETATM   13  C1  UNL     1      75.754  37.537  -1.226  1.00  0.00     0.032 C 
HETATM   14  C3  UNL     1      76.225  36.296  -3.315  1.00  0.00     0.032 C 
ENDBRANCH   9  12
ENDBRANCH   4   8
ENDBRANCH   2   3
ENDBRANCH   1   2
BRANCH   1  15
HETATM   15  N3  UNL     1      79.781  31.918   4.203  1.00  0.00    -0.071 N 
ATOM     16  H33 UNL     1      79.445  32.548   4.932  1.00  0.00     0.274 HD
ATOM     17  H32 UNL     1      78.918  31.395   4.055  1.00  0.00     0.274 HD
ATOM     18  H31 UNL     1      80.542  31.322   4.528  1.00  0.00     0.274 HD
ENDBRANCH   1  15
BRANCH   1  19
HETATM   19  C11 UNL     1      81.353  31.886   2.416  1.00  0.00     0.120 C 
BRANCH  19  20
HETATM   20  N4  UNL     1      81.985  31.037   3.454  1.00  0.00    -0.354 N 
HETATM   21  C12 UNL     1      82.430  29.731   3.220  1.00  0.00     0.222 C 
HETATM   22  O2  UNL     1      82.299  29.228   2.082  1.00  0.00    -0.273 OA
ATOM     23  H4  UNL     1      82.101  31.426   4.389  1.00  0.00     0.162 HD
BRANCH  21  24
HETATM   24  C13 UNL     1      83.048  28.950   4.307  1.00  0.00     0.079 C 
HETATM   25  C14 UNL     1      82.990  29.617   5.685  1.00  0.00     0.023 C 
HETATM   26  C15 UNL     1      84.454  29.350   5.799  1.00  0.00    -0.039 C 
HETATM   27  C16 UNL     1      84.920  28.346   6.775  1.00  0.00     0.010 C 
HETATM   28  C18 UNL     1      85.317  30.395   6.391  1.00  0.00     0.010 C 
HETATM   29  C19 UNL     1      84.580  29.051   4.346  1.00  0.00     0.023 C 
HETATM   30  C17 UNL     1      85.458  29.501   7.632  1.00  0.00     0.002 C 
ENDBRANCH  21  24
ENDBRANCH  19  20
BRANCH  19  31
HETATM   31  C20 UNL     1      82.427  32.656   1.775  1.00  0.00     0.010 C 
HETATM   32  C21 UNL     1      82.413  34.138   2.090  1.00  0.00     0.012 C 
BRANCH  31  33
HETATM   33  C22 UNL     1      82.682  32.490   0.316  1.00  0.00    -0.017 C 
HETATM   34  C23 UNL     1      82.427  33.864  -0.330  1.00  0.00     0.010 C 
HETATM   35  C24 UNL     1      81.798  31.527  -0.413  1.00  0.00     0.010 C 
ENDBRANCH  31  33
ENDBRANCH  19  31
ENDBRANCH   1  19
TORSDOF 10
ENDMDL
MODEL 5
REMARK VINA RESULT: -7.108340524      3.257      8.741
REMARK  10 active torsions:
REMARK  status: ('A' for Active; 'I' for Inactive)
REMARK    1  A    between atoms: C2_2  and  N1_4 
REMARK       I    between atoms: N1_4  and  C4_6 
REMARK    2  A    between atoms: C4_6  and  C5_8 
REMARK    3  A    between atoms: N2_12  and  C9_13 
REMARK    4  A    between atoms: C9_13  and  C10_14 
REMARK    5  A    between atoms: C10_14  and  N3_15 
REMARK    6  A    between atoms: C10_14  and  C11_19 
REMARK    7  A    between atoms: C11_19  and  N4_20 
REMARK    8  A    between atoms: C11_19  and  C20_31 
REMARK       I    between atoms: N4_20  and  C12_22 
REMARK    9  A    between atoms: C12_22  and  C13_24 
REMARK   10  A    between atoms: C20_31  and  C22_33 
ROOT
HETATM    1  C10 UNL     1      78.644  34.793  -0.845  1.00  0.00     0.234 C 
ENDROOT
BRANCH   1   2
HETATM    2  C9  UNL     1      78.875  36.268  -0.878  1.00  0.00     0.308 C 
BRANCH   2   3
HETATM    3  N2  UNL     1      77.799  37.151  -0.894  1.00  0.00     0.104 N 
HETATM    4  C5  UNL     1      78.029  38.083  -2.013  1.00  0.00     0.314 C 
HETATM    5  C6  UNL     1      77.356  37.471  -3.191  1.00  0.00     0.047 C 
HETATM    6  C7  UNL     1      76.363  36.512  -2.643  1.00  0.00     0.033 C 
HETATM    7  C8  UNL     1      76.485  36.736  -1.144  1.00  0.00     0.273 C 
BRANCH   4   8
HETATM    8  C4  UNL     1      77.537  39.441  -1.719  1.00  0.00     0.251 C 
HETATM    9  N1  UNL     1      76.338  39.946  -2.245  1.00  0.00    -0.355 N 
ATOM     10  H1  UNL     1      75.775  39.354  -2.856  1.00  0.00     0.162 HD
HETATM   11  O1  UNL     1      78.221  40.195  -0.956  1.00  0.00    -0.271 OA
BRANCH   9  12
HETATM   12  C2  UNL     1      75.882  41.281  -1.942  1.00  0.00     0.076 C 
HETATM   13  C1  UNL     1      75.013  41.283  -0.702  1.00  0.00     0.032 C 
HETATM   14  C3  UNL     1      75.073  41.854  -3.110  1.00  0.00     0.032 C 
ENDBRANCH   9  12
ENDBRANCH   4   8
ENDBRANCH   2   3
ENDBRANCH   1   2
BRANCH   1  15
HETATM   15  N3  UNL     1      79.765  34.120  -1.451  1.00  0.00    -0.071 N 
ATOM     16  H33 UNL     1      80.527  34.762  -1.674  1.00  0.00     0.274 HD
ATOM     17  H32 UNL     1      80.265  33.528  -0.788  1.00  0.00     0.274 HD
ATOM     18  H31 UNL     1      79.445  33.601  -2.269  1.00  0.00     0.274 HD
ENDBRANCH   1  15
BRANCH   1  19
HETATM   19  C11 UNL     1      78.573  34.382   0.593  1.00  0.00     0.120 C 
BRANCH  19  20
HETATM   20  N4  UNL     1      79.187  33.042   0.747  1.00  0.00    -0.354 N 
HETATM   21  C12 UNL     1      80.131  32.732   1.732  1.00  0.00     0.222 C 
HETATM   22  O2  UNL     1      80.496  33.616   2.540  1.00  0.00    -0.273 OA
ATOM     23  H4  UNL     1      78.906  32.306   0.101  1.00  0.00     0.162 HD
BRANCH  21  24
HETATM   24  C13 UNL     1      80.696  31.374   1.820  1.00  0.00     0.079 C 
HETATM   25  C14 UNL     1      80.119  30.514   2.950  1.00  0.00     0.023 C 
HETATM   26  C15 UNL     1      81.527  30.214   3.346  1.00  0.00    -0.039 C 
HETATM   27  C16 UNL     1      82.046  28.847   3.146  1.00  0.00     0.010 C 
HETATM   28  C18 UNL     1      81.861  30.181   4.787  1.00  0.00     0.010 C 
HETATM   29  C19 UNL     1      82.069  31.318   2.507  1.00  0.00     0.023 C 
HETATM   30  C17 UNL     1      81.986  28.655   4.669  1.00  0.00     0.002 C 
ENDBRANCH  21  24
ENDBRANCH  19  20
BRANCH  19  31
HETATM   31  C20 UNL     1      77.260  34.334   1.249  1.00  0.00     0.010 C 
HETATM   32  C21 UNL     1      77.249  34.859   2.670  1.00  0.00     0.012 C 
BRANCH  31  33
HETATM   33  C22 UNL     1      76.463  33.075   1.209  1.00  0.00    -0.017 C 
HETATM   34  C23 UNL     1      75.036  33.475   0.794  1.00  0.00     0.010 C 
HETATM   35  C24 UNL     1      76.319  32.332   2.501  1.00  0.00     0.010 C 
ENDBRANCH  31  33
ENDBRANCH  19  31
ENDBRANCH   1  19
TORSDOF 10
ENDMDL
