MODEL 1
REMARK VINA RESULT: -7.850563714      0.000      0.000
REMARK  8 active torsions:
REMARK  status: ('A' for Active; 'I' for Inactive)
REMARK       I    between atoms: C2_2  and  N1_4 
REMARK    1  A    between atoms: N1_4  and  C3_6 
REMARK    2  A    between atoms: C3_6  and  C4_7 
REMARK    3  A    between atoms: C3_6  and  C16_25 
REMARK       I    between atoms: C4_7  and  N2_9 
REMARK    4  A    between atoms: N2_9  and  C5_10 
REMARK    5  A    between atoms: C5_10  and  C6_11 
REMARK    6  A    between atoms: C5_10  and  C10_15 
REMARK    7  A    between atoms: C6_11  and  C7_12 
REMARK       I    between atoms: C10_15  and  N3_17 
REMARK    8  A    between atoms: C14_21  and  C15_22 
ROOT
HETATM    1  C4  UNL     1      77.727  35.056   1.371  1.00  0.00     0.310 C 
HETATM    2  O2  UNL     1      77.173  35.608   2.394  1.00  0.00    -0.255 OA
HETATM    3  N2  UNL     1      78.976  34.527   1.405  1.00  0.00    -0.398 NA
ENDROOT
BRANCH   3   4
HETATM    4  C5  UNL     1      80.253  33.986   1.441  1.00  0.00     0.259 C 
BRANCH   4   5
HETATM    5  C6  UNL     1      80.202  32.437   1.231  1.00  0.00     0.053 C 
BRANCH   5   6
HETATM    6  C7  UNL     1      80.140  31.682   2.511  1.00  0.00    -0.019 C 
HETATM    7  C8  UNL     1      78.737  31.461   3.002  1.00  0.00     0.009 C 
HETATM    8  C9  UNL     1      80.896  32.452   3.570  1.00  0.00     0.009 C 
ENDBRANCH   5   6
ENDBRANCH   4   5
BRANCH   4   9
HETATM    9  C10 UNL     1      81.072  34.421   0.275  1.00  0.00     0.256 C 
HETATM   10  O3  UNL     1      80.591  34.455  -0.907  1.00  0.00    -0.270 OA
HETATM   11  N3  UNL     1      82.432  34.818   0.374  1.00  0.00    -0.335 N 
HETATM   12  C11 UNL     1      83.374  35.143  -0.682  1.00  0.00     0.127 C 
HETATM   13  C14 UNL     1      83.100  35.020   1.660  1.00  0.00     0.188 C 
HETATM   14  C12 UNL     1      84.662  35.572  -0.032  1.00  0.00     0.022 C 
HETATM   15  C13 UNL     1      84.580  34.918   1.337  1.00  0.00     0.038 C 
BRANCH  13  16
HETATM   16  C15 UNL     1      82.764  36.382   2.158  1.00  0.00     0.196 C 
HETATM   17  O4  UNL     1      83.155  36.737   3.292  1.00  0.00    -0.646 OA
HETATM   18  O5  UNL     1      82.035  37.244   1.382  1.00  0.00    -0.646 OA
ENDBRANCH  13  16
ENDBRANCH   4   9
ENDBRANCH   3   4
BRANCH   1  19
HETATM   19  C3  UNL     1      76.863  35.044   0.130  1.00  0.00     0.195 C 
BRANCH  19  20
HETATM   20  N1  UNL     1      75.496  34.749   0.394  1.00  0.00    -0.347 N 
HETATM   21  C2  UNL     1      75.196  33.377   0.745  1.00  0.00     0.214 C 
HETATM   22  C1  UNL     1      73.787  33.013   1.040  1.00  0.00     0.117 C 
HETATM   23  O1  UNL     1      76.090  32.496   0.808  1.00  0.00    -0.274 OA
ATOM     24  H1  UNL     1      74.769  35.463   0.340  1.00  0.00     0.163 HD
ENDBRANCH  19  20
BRANCH  19  25
HETATM   25  C16 UNL     1      76.881  36.427  -0.564  1.00  0.00     0.022 C 
HETATM   26  C17 UNL     1      75.614  36.653  -1.270  1.00  0.00     0.007 C 
HETATM   27  C18 UNL     1      75.696  37.450  -2.526  1.00  0.00     0.000 C 
HETATM   28  C19 UNL     1      76.899  38.375  -2.522  1.00  0.00     0.000 C 
HETATM   29  C20 UNL     1      78.092  37.487  -2.466  1.00  0.00     0.005 C 
HETATM   30  C21 UNL     1      78.185  36.707  -1.191  1.00  0.00    -0.012 C 
HETATM   31  C22 UNL     1      79.085  37.549  -0.261  1.00  0.00     0.010 C 
ENDBRANCH  19  25
ENDBRANCH   1  19
TORSDOF 8
ENDMDL
MODEL 2
REMARK VINA RESULT: -7.607395391      2.493      6.382
REMARK  8 active torsions:
REMARK  status: ('A' for Active; 'I' for Inactive)
REMARK       I    between atoms: C2_2  and  N1_4 
REMARK    1  A    between atoms: N1_4  and  C3_6 
REMARK    2  A    between atoms: C3_6  and  C4_7 
REMARK    3  A    between atoms: C3_6  and  C16_25 
REMARK       I    between atoms: C4_7  and  N2_9 
REMARK    4  A    between atoms: N2_9  and  C5_10 
REMARK    5  A    between atoms: C5_10  and  C6_11 
REMARK    6  A    between atoms: C5_10  and  C10_15 
REMARK    7  A    between atoms: C6_11  and  C7_12 
REMARK       I    between atoms: C10_15  and  N3_17 
REMARK    8  A    between atoms: C14_21  and  C15_22 
ROOT
HETATM    1  C4  UNL     1      80.190  35.047   1.041  1.00  0.00     0.310 C 
HETATM    2  O2  UNL     1      81.126  34.991   1.923  1.00  0.00    -0.255 OA
HETATM    3  N2  UNL     1      79.791  36.207   0.462  1.00  0.00    -0.398 NA
ENDROOT
BRANCH   3   4
HETATM    4  C5  UNL     1      79.384  37.395  -0.129  1.00  0.00     0.259 C 
BRANCH   4   5
HETATM    5  C6  UNL     1      80.384  38.549   0.207  1.00  0.00     0.053 C 
BRANCH   5   6
HETATM    6  C7  UNL     1      80.608  38.713   1.669  1.00  0.00    -0.019 C 
HETATM    7  C8  UNL     1      80.231  40.077   2.177  1.00  0.00     0.009 C 
HETATM    8  C9  UNL     1      82.072  38.485   1.968  1.00  0.00     0.009 C 
ENDBRANCH   5   6
ENDBRANCH   4   5
BRANCH   4   9
HETATM    9  C10 UNL     1      79.480  37.336  -1.614  1.00  0.00     0.256 C 
HETATM   10  O3  UNL     1      80.497  36.836  -2.201  1.00  0.00    -0.270 OA
HETATM   11  N3  UNL     1      78.474  37.829  -2.487  1.00  0.00    -0.335 N 
HETATM   12  C11 UNL     1      78.489  37.946  -3.934  1.00  0.00     0.127 C 
HETATM   13  C14 UNL     1      77.162  38.267  -2.008  1.00  0.00     0.188 C 
HETATM   14  C12 UNL     1      77.142  38.462  -4.367  1.00  0.00     0.022 C 
HETATM   15  C13 UNL     1      76.633  39.158  -3.117  1.00  0.00     0.038 C 
BRANCH  13  16
HETATM   16  C15 UNL     1      76.296  37.069  -1.838  1.00  0.00     0.196 C 
HETATM   17  O4  UNL     1      75.172  37.191  -1.305  1.00  0.00    -0.646 OA
HETATM   18  O5  UNL     1      76.723  35.838  -2.264  1.00  0.00    -0.646 OA
ENDBRANCH  13  16
ENDBRANCH   4   9
ENDBRANCH   3   4
BRANCH   1  19
HETATM   19  C3  UNL     1      79.576  33.707   0.702  1.00  0.00     0.195 C 
BRANCH  19  20
HETATM   20  N1  UNL     1      80.456  32.610   0.921  1.00  0.00    -0.347 N 
HETATM   21  C2  UNL     1      81.415  32.342  -0.131  1.00  0.00     0.214 C 
HETATM   22  C1  UNL     1      82.364  31.214   0.047  1.00  0.00     0.117 C 
HETATM   23  O1  UNL     1      81.465  33.035  -1.177  1.00  0.00    -0.274 OA
ATOM     24  H1  UNL     1      80.414  32.044   1.769  1.00  0.00     0.163 HD
ENDBRANCH  19  20
BRANCH  19  25
HETATM   25  C16 UNL     1      78.326  33.440   1.574  1.00  0.00     0.022 C 
HETATM   26  C17 UNL     1      78.519  32.224   2.372  1.00  0.00     0.007 C 
HETATM   27  C18 UNL     1      77.298  31.414   2.639  1.00  0.00     0.000 C 
HETATM   28  C19 UNL     1      76.042  32.264   2.588  1.00  0.00     0.000 C 
HETATM   29  C20 UNL     1      75.956  32.775   1.192  1.00  0.00     0.005 C 
HETATM   30  C21 UNL     1      77.078  33.699   0.834  1.00  0.00    -0.012 C 
HETATM   31  C22 UNL     1      76.544  35.120   1.116  1.00  0.00     0.010 C 
ENDBRANCH  19  25
ENDBRANCH   1  19
TORSDOF 8
ENDMDL
MODEL 3
REMARK VINA RESULT: -7.585799413      2.279      6.162
REMARK  8 active torsions:
REMARK  status: ('A' for Active; 'I' for Inactive)
REMARK       I    between atoms: C2_2  and  N1_4 
REMARK    1  A    between atoms: N1_4  and  C3_6 
REMARK    2  A    between atoms: C3_6  and  C4_7 
REMARK    3  A    between atoms: C3_6  and  C16_25 
REMARK       I    between atoms: C4_7  and  N2_9 
REMARK    4  A    between atoms: N2_9  and  C5_10 
REMARK    5  A    between atoms: C5_10  and  C6_11 
REMARK    6  A    between atoms: C5_10  and  C10_15 
REMARK    7  A    between atoms: C6_11  and  C7_12 
REMARK       I    between atoms: C10_15  and  N3_17 
REMARK    8  A    between atoms: C14_21  and  C15_22 
ROOT
HETATM    1  C4  UNL     1      78.602  34.426  -0.256  1.00  0.00     0.310 C 
HETATM    2  O2  UNL     1      78.590  33.598  -1.242  1.00  0.00    -0.255 OA
HETATM    3  N2  UNL     1      78.966  35.726  -0.389  1.00  0.00    -0.398 NA
ENDROOT
BRANCH   3   4
HETATM    4  C5  UNL     1      79.339  37.055  -0.527  1.00  0.00     0.259 C 
BRANCH   4   5
HETATM    5  C6  UNL     1      80.841  37.251  -0.137  1.00  0.00     0.053 C 
BRANCH   5   6
HETATM    6  C7  UNL     1      81.052  37.314   1.334  1.00  0.00    -0.019 C 
HETATM    7  C8  UNL     1      80.851  38.689   1.904  1.00  0.00     0.009 C 
HETATM    8  C9  UNL     1      82.466  36.876   1.644  1.00  0.00     0.009 C 
ENDBRANCH   5   6
ENDBRANCH   4   5
BRANCH   4   9
HETATM    9  C10 UNL     1      79.340  37.485  -1.954  1.00  0.00     0.256 C 
HETATM   10  O3  UNL     1      80.319  37.226  -2.732  1.00  0.00    -0.270 OA
HETATM   11  N3  UNL     1      78.279  38.211  -2.556  1.00  0.00    -0.335 N 
HETATM   12  C11 UNL     1      78.202  38.794  -3.884  1.00  0.00     0.127 C 
HETATM   13  C14 UNL     1      77.000  38.439  -1.883  1.00  0.00     0.188 C 
HETATM   14  C12 UNL     1      76.829  39.391  -4.044  1.00  0.00     0.022 C 
HETATM   15  C13 UNL     1      76.399  39.631  -2.607  1.00  0.00     0.038 C 
BRANCH  13  16
HETATM   16  C15 UNL     1      76.150  37.232  -2.062  1.00  0.00     0.196 C 
HETATM   17  O4  UNL     1      75.125  37.089  -1.359  1.00  0.00    -0.646 OA
HETATM   18  O5  UNL     1      76.481  36.282  -2.992  1.00  0.00    -0.646 OA
ENDBRANCH  13  16
ENDBRANCH   4   9
ENDBRANCH   3   4
BRANCH   1  19
HETATM   19  C3  UNL     1      78.171  33.825   1.063  1.00  0.00     0.195 C 
BRANCH  19  20
HETATM   20  N1  UNL     1      76.978  33.053   0.972  1.00  0.00    -0.347 N 
HETATM   21  C2  UNL     1      75.737  33.800   0.944  1.00  0.00     0.214 C 
HETATM   22  C1  UNL     1      74.461  33.047   0.840  1.00  0.00     0.117 C 
HETATM   23  O1  UNL     1      75.714  35.054   1.002  1.00  0.00    -0.274 OA
ATOM     24  H1  UNL     1      76.996  32.035   0.928  1.00  0.00     0.163 HD
ENDBRANCH  19  20
BRANCH  19  25
HETATM   25  C16 UNL     1      79.260  32.874   1.615  1.00  0.00     0.022 C 
HETATM   26  C17 UNL     1      78.676  31.958   2.602  1.00  0.00     0.007 C 
HETATM   27  C18 UNL     1      79.565  31.551   3.726  1.00  0.00     0.000 C 
HETATM   28  C19 UNL     1      81.030  31.637   3.337  1.00  0.00     0.000 C 
HETATM   29  C20 UNL     1      81.288  33.074   3.048  1.00  0.00     0.005 C 
HETATM   30  C21 UNL     1      80.529  33.580   1.861  1.00  0.00    -0.012 C 
HETATM   31  C22 UNL     1      81.495  33.430   0.664  1.00  0.00     0.010 C 
ENDBRANCH  19  25
ENDBRANCH   1  19
TORSDOF 8
ENDMDL
MODEL 4
REMARK VINA RESULT: -7.465979480      2.173      6.451
REMARK  8 active torsions:
REMARK  status: ('A' for Active; 'I' for Inactive)
REMARK       I    between atoms: C2_2  and  N1_4 
REMARK    1  A    between atoms: N1_4  and  C3_6 
REMARK    2  A    between atoms: C3_6  and  C4_7 
REMARK    3  A    between atoms: C3_6  and  C16_25 
REMARK       I    between atoms: C4_7  and  N2_9 
REMARK    4  A    between atoms: N2_9  and  C5_10 
REMARK    5  A    between atoms: C5_10  and  C6_11 
REMARK    6  A    between atoms: C5_10  and  C10_15 
REMARK    7  A    between atoms: C6_11  and  C7_12 
REMARK       I    between atoms: C10_15  and  N3_17 
REMARK    8  A    between atoms: C14_21  and  C15_22 
ROOT
HETATM    1  C4  UNL     1      80.710  33.146   0.205  1.00  0.00     0.310 C 
HETATM    2  O2  UNL     1      80.924  32.206  -0.648  1.00  0.00    -0.255 OA
HETATM    3  N2  UNL     1      79.578  33.894   0.209  1.00  0.00    -0.398 NA
ENDROOT
BRANCH   3   4
HETATM    4  C5  UNL     1      78.419  34.657   0.211  1.00  0.00     0.259 C 
BRANCH   4   5
HETATM    5  C6  UNL     1      77.479  34.229   1.386  1.00  0.00     0.053 C 
BRANCH   5   6
HETATM    6  C7  UNL     1      76.620  33.064   1.043  1.00  0.00    -0.019 C 
HETATM    7  C8  UNL     1      75.194  33.442   0.758  1.00  0.00     0.009 C 
HETATM    8  C9  UNL     1      76.630  32.092   2.200  1.00  0.00     0.009 C 
ENDBRANCH   5   6
ENDBRANCH   4   5
BRANCH   4   9
HETATM    9  C10 UNL     1      78.695  36.081   0.551  1.00  0.00     0.256 C 
HETATM   10  O3  UNL     1      78.564  36.525   1.741  1.00  0.00    -0.270 OA
HETATM   11  N3  UNL     1      79.110  37.050  -0.401  1.00  0.00    -0.335 N 
HETATM   12  C11 UNL     1      79.294  38.480  -0.238  1.00  0.00     0.127 C 
HETATM   13  C14 UNL     1      79.491  36.695  -1.769  1.00  0.00     0.188 C 
HETATM   14  C12 UNL     1      79.816  39.029  -1.539  1.00  0.00     0.022 C 
HETATM   15  C13 UNL     1      79.355  37.991  -2.548  1.00  0.00     0.038 C 
BRANCH  13  16
HETATM   16  C15 UNL     1      80.906  36.233  -1.761  1.00  0.00     0.196 C 
HETATM   17  O4  UNL     1      81.362  35.626  -2.754  1.00  0.00    -0.646 OA
HETATM   18  O5  UNL     1      81.708  36.473  -0.676  1.00  0.00    -0.646 OA
ENDBRANCH  13  16
ENDBRANCH   4   9
ENDBRANCH   3   4
BRANCH   1  19
HETATM   19  C3  UNL     1      81.826  33.342   1.206  1.00  0.00     0.195 C 
BRANCH  19  20
HETATM   20  N1  UNL     1      81.811  34.621   1.830  1.00  0.00    -0.347 N 
HETATM   21  C2  UNL     1      83.095  35.278   1.966  1.00  0.00     0.214 C 
HETATM   22  C1  UNL     1      83.139  36.620   2.603  1.00  0.00     0.117 C 
HETATM   23  O1  UNL     1      84.159  34.748   1.563  1.00  0.00    -0.274 OA
ATOM     24  H1  UNL     1      80.948  35.050   2.161  1.00  0.00     0.163 HD
ENDBRANCH  19  20
BRANCH  19  25
HETATM   25  C16 UNL     1      81.727  32.303   2.348  1.00  0.00     0.022 C 
HETATM   26  C17 UNL     1      82.711  31.233   2.143  1.00  0.00     0.007 C 
HETATM   27  C18 UNL     1      82.308  29.874   2.601  1.00  0.00     0.000 C 
HETATM   28  C19 UNL     1      81.276  29.943   3.711  1.00  0.00     0.000 C 
HETATM   29  C20 UNL     1      80.080  30.596   3.112  1.00  0.00     0.005 C 
HETATM   30  C21 UNL     1      80.327  32.016   2.707  1.00  0.00    -0.012 C 
HETATM   31  C22 UNL     1      79.872  32.870   3.912  1.00  0.00     0.010 C 
ENDBRANCH  19  25
ENDBRANCH   1  19
TORSDOF 8
ENDMDL
MODEL 5
REMARK VINA RESULT: -7.453318930      2.373      4.206
REMARK  8 active torsions:
REMARK  status: ('A' for Active; 'I' for Inactive)
REMARK       I    between atoms: C2_2  and  N1_4 
REMARK    1  A    between atoms: N1_4  and  C3_6 
REMARK    2  A    between atoms: C3_6  and  C4_7 
REMARK    3  A    between atoms: C3_6  and  C16_25 
REMARK       I    between atoms: C4_7  and  N2_9 
REMARK    4  A    between atoms: N2_9  and  C5_10 
REMARK    5  A    between atoms: C5_10  and  C6_11 
REMARK    6  A    between atoms: C5_10  and  C10_15 
REMARK    7  A    between atoms: C6_11  and  C7_12 
REMARK       I    between atoms: C10_15  and  N3_17 
REMARK    8  A    between atoms: C14_21  and  C15_22 
ROOT
HETATM    1  C4  UNL     1      76.974  36.339  -0.700  1.00  0.00     0.310 C 
HETATM    2  O2  UNL     1      75.699  36.516  -0.686  1.00  0.00    -0.255 OA
HETATM    3  N2  UNL     1      77.584  35.317  -0.050  1.00  0.00    -0.398 NA
ENDROOT
BRANCH   3   4
HETATM    4  C5  UNL     1      78.206  34.270   0.617  1.00  0.00     0.259 C 
BRANCH   4   5
HETATM    5  C6  UNL     1      77.306  32.992   0.598  1.00  0.00     0.053 C 
BRANCH   5   6
HETATM    6  C7  UNL     1      76.329  32.955   1.720  1.00  0.00    -0.019 C 
HETATM    7  C8  UNL     1      76.494  31.757   2.611  1.00  0.00     0.009 C 
HETATM    8  C9  UNL     1      74.930  32.931   1.149  1.00  0.00     0.009 C 
ENDBRANCH   5   6
ENDBRANCH   4   5
BRANCH   4   9
HETATM    9  C10 UNL     1      79.418  33.796  -0.107  1.00  0.00     0.256 C 
HETATM   10  O3  UNL     1      79.722  34.235  -1.267  1.00  0.00    -0.270 OA
HETATM   11  N3  UNL     1      80.317  32.829   0.415  1.00  0.00    -0.335 N 
HETATM   12  C11 UNL     1      81.455  32.192  -0.223  1.00  0.00     0.127 C 
HETATM   13  C14 UNL     1      80.241  32.349   1.796  1.00  0.00     0.188 C 
HETATM   14  C12 UNL     1      82.112  31.299   0.795  1.00  0.00     0.022 C 
HETATM   15  C13 UNL     1      80.986  31.026   1.778  1.00  0.00     0.038 C 
BRANCH  13  16
HETATM   16  C15 UNL     1      80.932  33.329   2.676  1.00  0.00     0.196 C 
HETATM   17  O4  UNL     1      81.005  33.111   3.905  1.00  0.00    -0.646 OA
HETATM   18  O5  UNL     1      81.490  34.464   2.147  1.00  0.00    -0.646 OA
ENDBRANCH  13  16
ENDBRANCH   4   9
ENDBRANCH   3   4
BRANCH   1  19
HETATM   19  C3  UNL     1      77.733  37.365  -1.511  1.00  0.00     0.195 C 
BRANCH  19  20
HETATM   20  N1  UNL     1      78.823  36.816  -2.244  1.00  0.00    -0.347 N 
HETATM   21  C2  UNL     1      80.086  37.515  -2.127  1.00  0.00     0.214 C 
HETATM   22  C1  UNL     1      81.260  36.983  -2.864  1.00  0.00     0.117 C 
HETATM   23  O1  UNL     1      80.211  38.548  -1.424  1.00  0.00    -0.274 OA
ATOM     24  H1  UNL     1      78.720  35.980  -2.818  1.00  0.00     0.163 HD
ENDBRANCH  19  20
BRANCH  19  25
HETATM   25  C16 UNL     1      76.806  38.036  -2.552  1.00  0.00     0.022 C 
HETATM   26  C17 UNL     1      76.721  37.207  -3.760  1.00  0.00     0.007 C 
HETATM   27  C18 UNL     1      76.567  37.938  -5.049  1.00  0.00     0.000 C 
HETATM   28  C19 UNL     1      75.921  39.296  -4.846  1.00  0.00     0.000 C 
HETATM   29  C20 UNL     1      76.864  40.069  -3.992  1.00  0.00     0.005 C 
HETATM   30  C21 UNL     1      77.021  39.492  -2.619  1.00  0.00    -0.012 C 
HETATM   31  C22 UNL     1      76.004  40.251  -1.738  1.00  0.00     0.010 C 
ENDBRANCH  19  25
ENDBRANCH   1  19
TORSDOF 8
ENDMDL
