MODEL 1
REMARK VINA RESULT: -6.824786804      0.000      0.000
REMARK  11 active torsions:
REMARK  status: ('A' for Active; 'I' for Inactive)
REMARK    1  A    between atoms: C2_2  and  C5_5 
REMARK    2  A    between atoms: C5_5  and  N1_6 
REMARK    3  A    between atoms: C5_5  and  C12_17 
REMARK       I    between atoms: N1_6  and  C6_8 
REMARK       I    between atoms: C6_8  and  N2_10 
REMARK    4  A    between atoms: N2_10  and  C7_12 
REMARK    5  A    between atoms: C17_22  and  C18_23 
REMARK    6  A    between atoms: C18_23  and  O2_24 
REMARK    7  A    between atoms: C18_23  and  C19_26 
REMARK    8  A    between atoms: C19_26  and  N3_27 
REMARK    9  A    between atoms: N3_27  and  C20_28 
REMARK   10  A    between atoms: N3_27  and  S1_34 
REMARK   11  A    between atoms: C20_28  and  C21_29 
ROOT
HETATM    1  C12 UNL     1      32.681 -31.925  -0.033  1.00  0.00     0.019 C 
HETATM    2  C13 UNL     1      33.831 -31.884   0.956  1.00  0.00     0.007 C 
HETATM    3  C14 UNL     1      33.523 -32.913   2.024  1.00  0.00     0.001 C 
HETATM    4  C15 UNL     1      32.906 -34.169   1.548  1.00  0.00     0.001 C 
HETATM    5  C16 UNL     1      32.379 -34.247   0.175  1.00  0.00     0.011 C 
HETATM    6  C17 UNL     1      32.860 -33.170  -0.809  1.00  0.00     0.050 C 
ENDROOT
BRANCH   1   7
HETATM    7  C5  UNL     1      32.347 -30.622  -0.611  1.00  0.00     0.098 C 
BRANCH   7   8
HETATM    8  C2  UNL     1      31.412 -29.697   0.038  1.00  0.00    -0.030 C 
HETATM    9  C1  UNL     1      32.294 -28.932   1.091  1.00  0.00     0.016 C 
HETATM   10  C3  UNL     1      30.390 -30.385   0.937  1.00  0.00     0.016 C 
HETATM   11  C4  UNL     1      30.764 -28.586  -0.702  1.00  0.00     0.016 C 
ENDBRANCH   7   8
BRANCH   7  12
HETATM   12  N1  UNL     1      33.655 -29.889  -0.573  1.00  0.00    -0.337 N 
HETATM   13  C6  UNL     1      34.203 -29.240  -1.683  1.00  0.00     0.316 C 
HETATM   14  O1  UNL     1      33.574 -29.270  -2.782  1.00  0.00    -0.247 OA
HETATM   15  N2  UNL     1      35.428 -28.542  -1.673  1.00  0.00    -0.339 N 
ATOM     16  H2  UNL     1      35.953 -28.503  -0.799  1.00  0.00     0.164 HD
ATOM     17  H1  UNL     1      34.170 -29.862   0.308  1.00  0.00     0.164 HD
BRANCH  15  18
HETATM   18  C7  UNL     1      35.977 -27.884  -2.819  1.00  0.00     0.086 C 
HETATM   19  C8  UNL     1      37.485 -27.860  -2.823  1.00  0.00     0.025 C 
HETATM   20  C9  UNL     1      37.863 -26.636  -3.616  1.00  0.00     0.002 C 
HETATM   21  C10 UNL     1      36.660 -25.753  -3.699  1.00  0.00     0.002 C 
HETATM   22  C11 UNL     1      35.519 -26.472  -3.014  1.00  0.00     0.025 C 
ENDBRANCH  15  18
ENDBRANCH   7  12
ENDBRANCH   1   7
BRANCH   6  23
HETATM   23  C18 UNL     1      34.012 -33.495  -1.602  1.00  0.00     0.064 C 
BRANCH  23  24
HETATM   24  O2  UNL     1      33.828 -34.711  -2.365  1.00  0.00    -0.363 OA
ATOM     25  H2  UNL     1      34.641 -35.187  -2.488  1.00  0.00     0.217 HD
ENDBRANCH  23  24
BRANCH  23  26
HETATM   26  C19 UNL     1      34.827 -32.701  -2.518  1.00  0.00     0.140 C 
BRANCH  26  27
HETATM   27  N3  UNL     1      36.213 -32.806  -2.603  1.00  0.00    -0.263 N 
BRANCH  27  28
HETATM   28  C20 UNL     1      37.032 -31.827  -2.023  1.00  0.00     0.086 C 
BRANCH  28  29
HETATM   29  C21 UNL     1      37.031 -31.591  -0.574  1.00  0.00     0.025 C 
HETATM   30  C22 UNL     1      38.138 -30.542  -0.273  1.00  0.00     0.010 C 
HETATM   31  C23 UNL     1      39.298 -31.360   0.242  1.00  0.00     0.001 C 
HETATM   32  C24 UNL     1      38.873 -32.803   0.213  1.00  0.00     0.001 C 
HETATM   33  C25 UNL     1      37.367 -32.726   0.340  1.00  0.00     0.010 C 
ENDBRANCH  28  29
ENDBRANCH  27  28
BRANCH  27  34
HETATM   34  S1  UNL     1      36.862 -33.497  -4.029  1.00  0.00     0.232 S 
HETATM   35  C26 UNL     1      38.638 -33.590  -3.975  1.00  0.00     0.186 C 
HETATM   36  O3  UNL     1      36.495 -32.764  -5.281  1.00  0.00    -0.206 OA
HETATM   37  O4  UNL     1      36.339 -34.899  -4.172  1.00  0.00    -0.206 OA
ENDBRANCH  27  34
ENDBRANCH  26  27
ENDBRANCH  23  26
ENDBRANCH   6  23
TORSDOF 11
ENDMDL
MODEL 2
REMARK VINA RESULT: -6.642549504      2.102      5.230
REMARK  11 active torsions:
REMARK  status: ('A' for Active; 'I' for Inactive)
REMARK    1  A    between atoms: C2_2  and  C5_5 
REMARK    2  A    between atoms: C5_5  and  N1_6 
REMARK    3  A    between atoms: C5_5  and  C12_17 
REMARK       I    between atoms: N1_6  and  C6_8 
REMARK       I    between atoms: C6_8  and  N2_10 
REMARK    4  A    between atoms: N2_10  and  C7_12 
REMARK    5  A    between atoms: C17_22  and  C18_23 
REMARK    6  A    between atoms: C18_23  and  O2_24 
REMARK    7  A    between atoms: C18_23  and  C19_26 
REMARK    8  A    between atoms: C19_26  and  N3_27 
REMARK    9  A    between atoms: N3_27  and  C20_28 
REMARK   10  A    between atoms: N3_27  and  S1_34 
REMARK   11  A    between atoms: C20_28  and  C21_29 
ROOT
HETATM    1  C12 UNL     1      34.352 -28.806  -2.071  1.00  0.00     0.019 C 
HETATM    2  C13 UNL     1      34.992 -28.871  -0.697  1.00  0.00     0.007 C 
HETATM    3  C14 UNL     1      33.916 -28.495   0.302  1.00  0.00     0.001 C 
HETATM    4  C15 UNL     1      32.561 -29.009   0.011  1.00  0.00     0.001 C 
HETATM    5  C16 UNL     1      32.269 -29.587  -1.311  1.00  0.00     0.011 C 
HETATM    6  C17 UNL     1      33.478 -29.994  -2.167  1.00  0.00     0.050 C 
ENDROOT
BRANCH   1   7
HETATM    7  C5  UNL     1      35.257 -28.348  -3.128  1.00  0.00     0.098 C 
BRANCH   7   8
HETATM    8  C2  UNL     1      35.228 -26.973  -3.638  1.00  0.00    -0.030 C 
HETATM    9  C1  UNL     1      34.152 -26.252  -2.746  1.00  0.00     0.016 C 
HETATM   10  C3  UNL     1      34.611 -26.844  -5.027  1.00  0.00     0.016 C 
HETATM   11  C4  UNL     1      36.398 -26.068  -3.522  1.00  0.00     0.016 C 
ENDBRANCH   7   8
BRANCH   7  12
HETATM   12  N1  UNL     1      36.609 -28.461  -2.488  1.00  0.00    -0.337 N 
HETATM   13  C6  UNL     1      37.504 -29.499  -2.765  1.00  0.00     0.316 C 
HETATM   14  O1  UNL     1      37.165 -30.395  -3.592  1.00  0.00    -0.247 OA
HETATM   15  N2  UNL     1      38.781 -29.626  -2.180  1.00  0.00    -0.339 N 
ATOM     16  H2  UNL     1      39.077 -28.915  -1.511  1.00  0.00     0.164 HD
ATOM     17  H1  UNL     1      36.889 -27.744  -1.818  1.00  0.00     0.164 HD
BRANCH  15  18
HETATM   18  C7  UNL     1      39.685 -30.695  -2.474  1.00  0.00     0.086 C 
HETATM   19  C8  UNL     1      39.657 -31.793  -1.440  1.00  0.00     0.025 C 
HETATM   20  C9  UNL     1      41.027 -32.419  -1.486  1.00  0.00     0.002 C 
HETATM   21  C10 UNL     1      41.943 -31.468  -2.186  1.00  0.00     0.002 C 
HETATM   22  C11 UNL     1      41.115 -30.284  -2.633  1.00  0.00     0.025 C 
ENDBRANCH  15  18
ENDBRANCH   7  12
ENDBRANCH   1   7
BRANCH   6  23
HETATM   23  C18 UNL     1      33.915 -31.357  -2.052  1.00  0.00     0.064 C 
BRANCH  23  24
HETATM   24  O2  UNL     1      34.656 -31.796  -3.215  1.00  0.00    -0.363 OA
ATOM     25  H2  UNL     1      34.206 -32.487  -3.689  1.00  0.00     0.217 HD
ENDBRANCH  23  24
BRANCH  23  26
HETATM   26  C19 UNL     1      34.602 -32.079  -0.984  1.00  0.00     0.140 C 
BRANCH  26  27
HETATM   27  N3  UNL     1      34.086 -33.216  -0.368  1.00  0.00    -0.263 N 
BRANCH  27  28
HETATM   28  C20 UNL     1      34.344 -33.464   0.987  1.00  0.00     0.086 C 
BRANCH  28  29
HETATM   29  C21 UNL     1      33.390 -33.065   2.031  1.00  0.00     0.025 C 
HETATM   30  C22 UNL     1      32.439 -34.270   2.275  1.00  0.00     0.010 C 
HETATM   31  C23 UNL     1      31.181 -33.912   1.518  1.00  0.00     0.001 C 
HETATM   32  C24 UNL     1      31.420 -32.580   0.862  1.00  0.00     0.001 C 
HETATM   33  C25 UNL     1      32.456 -31.931   1.756  1.00  0.00     0.010 C 
ENDBRANCH  28  29
ENDBRANCH  27  28
BRANCH  27  34
HETATM   34  S1  UNL     1      33.959 -34.634  -1.320  1.00  0.00     0.232 S 
HETATM   35  C26 UNL     1      34.583 -36.066  -0.467  1.00  0.00     0.186 C 
HETATM   36  O3  UNL     1      34.676 -34.553  -2.630  1.00  0.00    -0.206 OA
HETATM   37  O4  UNL     1      32.510 -34.886  -1.627  1.00  0.00    -0.206 OA
ENDBRANCH  27  34
ENDBRANCH  26  27
ENDBRANCH  23  26
ENDBRANCH   6  23
TORSDOF 11
ENDMDL
MODEL 3
REMARK VINA RESULT: -6.573333332      1.946      5.752
REMARK  11 active torsions:
REMARK  status: ('A' for Active; 'I' for Inactive)
REMARK    1  A    between atoms: C2_2  and  C5_5 
REMARK    2  A    between atoms: C5_5  and  N1_6 
REMARK    3  A    between atoms: C5_5  and  C12_17 
REMARK       I    between atoms: N1_6  and  C6_8 
REMARK       I    between atoms: C6_8  and  N2_10 
REMARK    4  A    between atoms: N2_10  and  C7_12 
REMARK    5  A    between atoms: C17_22  and  C18_23 
REMARK    6  A    between atoms: C18_23  and  O2_24 
REMARK    7  A    between atoms: C18_23  and  C19_26 
REMARK    8  A    between atoms: C19_26  and  N3_27 
REMARK    9  A    between atoms: N3_27  and  C20_28 
REMARK   10  A    between atoms: N3_27  and  S1_34 
REMARK   11  A    between atoms: C20_28  and  C21_29 
ROOT
HETATM    1  C12 UNL     1      38.221 -31.560  -1.669  1.00  0.00     0.019 C 
HETATM    2  C13 UNL     1      37.336 -31.852  -2.866  1.00  0.00     0.007 C 
HETATM    3  C14 UNL     1      38.212 -32.530  -3.900  1.00  0.00     0.001 C 
HETATM    4  C15 UNL     1      39.205 -33.488  -3.371  1.00  0.00     0.001 C 
HETATM    5  C16 UNL     1      39.485 -33.526  -1.926  1.00  0.00     0.011 C 
HETATM    6  C17 UNL     1      38.448 -32.862  -1.008  1.00  0.00     0.050 C 
ENDROOT
BRANCH   1   7
HETATM    7  C5  UNL     1      37.888 -30.317  -0.971  1.00  0.00     0.098 C 
BRANCH   7   8
HETATM    8  C2  UNL     1      38.741 -29.126  -1.048  1.00  0.00    -0.030 C 
HETATM    9  C1  UNL     1      40.138 -29.681  -1.509  1.00  0.00     0.016 C 
HETATM   10  C3  UNL     1      39.084 -28.525   0.311  1.00  0.00     0.016 C 
HETATM   11  C4  UNL     1      38.489 -28.041  -2.028  1.00  0.00     0.016 C 
ENDBRANCH   7   8
BRANCH   7  12
HETATM   12  N1  UNL     1      36.616 -29.884  -1.638  1.00  0.00    -0.337 N 
HETATM   13  C6  UNL     1      35.505 -29.407  -0.936  1.00  0.00     0.316 C 
HETATM   14  O1  UNL     1      35.565 -29.334   0.327  1.00  0.00    -0.247 OA
HETATM   15  N2  UNL     1      34.300 -28.992  -1.538  1.00  0.00    -0.339 N 
ATOM     16  H2  UNL     1      34.228 -29.040  -2.555  1.00  0.00     0.164 HD
ATOM     17  H1  UNL     1      36.558 -29.942  -2.656  1.00  0.00     0.164 HD
BRANCH  15  18
HETATM   18  C7  UNL     1      33.172 -28.506  -0.805  1.00  0.00     0.086 C 
HETATM   19  C8  UNL     1      32.129 -29.567  -0.552  1.00  0.00     0.025 C 
HETATM   20  C9  UNL     1      30.825 -28.823  -0.432  1.00  0.00     0.002 C 
HETATM   21  C10 UNL     1      31.017 -27.461  -1.015  1.00  0.00     0.002 C 
HETATM   22  C11 UNL     1      32.467 -27.344  -1.431  1.00  0.00     0.025 C 
ENDBRANCH  15  18
ENDBRANCH   7  12
ENDBRANCH   1   7
BRANCH   6  23
HETATM   23  C18 UNL     1      37.421 -33.715  -0.480  1.00  0.00     0.064 C 
BRANCH  23  24
HETATM   24  O2  UNL     1      37.939 -34.673   0.475  1.00  0.00    -0.363 OA
ATOM     25  H2  UNL     1      38.522 -35.305   0.071  1.00  0.00     0.217 HD
ENDBRANCH  23  24
BRANCH  23  26
HETATM   26  C19 UNL     1      36.104 -33.430   0.084  1.00  0.00     0.140 C 
BRANCH  26  27
HETATM   27  N3  UNL     1      34.922 -33.501  -0.647  1.00  0.00    -0.263 N 
BRANCH  27  28
HETATM   28  C20 UNL     1      33.728 -33.000  -0.109  1.00  0.00     0.086 C 
BRANCH  28  29
HETATM   29  C21 UNL     1      33.432 -33.108   1.325  1.00  0.00     0.025 C 
HETATM   30  C22 UNL     1      32.695 -34.459   1.547  1.00  0.00     0.010 C 
HETATM   31  C23 UNL     1      31.238 -34.075   1.661  1.00  0.00     0.001 C 
HETATM   32  C24 UNL     1      31.157 -32.583   1.491  1.00  0.00     0.001 C 
HETATM   33  C25 UNL     1      32.517 -32.103   1.949  1.00  0.00     0.010 C 
ENDBRANCH  28  29
ENDBRANCH  27  28
BRANCH  27  34
HETATM   34  S1  UNL     1      34.707 -34.863  -1.662  1.00  0.00     0.232 S 
HETATM   35  C26 UNL     1      35.144 -36.381  -0.842  1.00  0.00     0.186 C 
HETATM   36  O3  UNL     1      35.494 -34.804  -2.932  1.00  0.00    -0.206 OA
HETATM   37  O4  UNL     1      33.257 -34.958  -2.048  1.00  0.00    -0.206 OA
ENDBRANCH  27  34
ENDBRANCH  26  27
ENDBRANCH  23  26
ENDBRANCH   6  23
TORSDOF 11
ENDMDL
MODEL 4
REMARK VINA RESULT: -6.346242580      0.971      1.477
REMARK  11 active torsions:
REMARK  status: ('A' for Active; 'I' for Inactive)
REMARK    1  A    between atoms: C2_2  and  C5_5 
REMARK    2  A    between atoms: C5_5  and  N1_6 
REMARK    3  A    between atoms: C5_5  and  C12_17 
REMARK       I    between atoms: N1_6  and  C6_8 
REMARK       I    between atoms: C6_8  and  N2_10 
REMARK    4  A    between atoms: N2_10  and  C7_12 
REMARK    5  A    between atoms: C17_22  and  C18_23 
REMARK    6  A    between atoms: C18_23  and  O2_24 
REMARK    7  A    between atoms: C18_23  and  C19_26 
REMARK    8  A    between atoms: C19_26  and  N3_27 
REMARK    9  A    between atoms: N3_27  and  C20_28 
REMARK   10  A    between atoms: N3_27  and  S1_34 
REMARK   11  A    between atoms: C20_28  and  C21_29 
ROOT
HETATM    1  C12 UNL     1      33.181 -32.210  -0.518  1.00  0.00     0.019 C 
HETATM    2  C13 UNL     1      34.198 -32.398   0.592  1.00  0.00     0.007 C 
HETATM    3  C14 UNL     1      33.789 -33.643   1.352  1.00  0.00     0.001 C 
HETATM    4  C15 UNL     1      33.269 -34.755   0.530  1.00  0.00     0.001 C 
HETATM    5  C16 UNL     1      32.918 -34.518  -0.881  1.00  0.00     0.011 C 
HETATM    6  C17 UNL     1      33.488 -33.246  -1.526  1.00  0.00     0.050 C 
ENDROOT
BRANCH   1   7
HETATM    7  C5  UNL     1      32.886 -30.809  -0.823  1.00  0.00     0.098 C 
BRANCH   7   8
HETATM    8  C2  UNL     1      32.103 -29.961   0.082  1.00  0.00    -0.030 C 
HETATM    9  C1  UNL     1      31.245 -29.059  -0.879  1.00  0.00     0.016 C 
HETATM   10  C3  UNL     1      32.933 -28.917   0.821  1.00  0.00     0.016 C 
HETATM   11  C4  UNL     1      31.076 -30.524   0.993  1.00  0.00     0.016 C 
ENDBRANCH   7   8
BRANCH   7  12
HETATM   12  N1  UNL     1      34.243 -30.169  -0.822  1.00  0.00    -0.337 N 
HETATM   13  C6  UNL     1      34.751 -29.447  -1.906  1.00  0.00     0.316 C 
HETATM   14  O1  UNL     1      34.041 -29.324  -2.947  1.00  0.00    -0.247 OA
HETATM   15  N2  UNL     1      36.021 -28.834  -1.930  1.00  0.00    -0.339 N 
ATOM     16  H2  UNL     1      36.611 -28.918  -1.102  1.00  0.00     0.164 HD
ATOM     17  H1  UNL     1      34.823 -30.265   0.011  1.00  0.00     0.164 HD
BRANCH  15  18
HETATM   18  C7  UNL     1      36.527 -28.099  -3.048  1.00  0.00     0.086 C 
HETATM   19  C8  UNL     1      38.031 -27.990  -3.053  1.00  0.00     0.025 C 
HETATM   20  C9  UNL     1      38.337 -26.715  -3.795  1.00  0.00     0.002 C 
HETATM   21  C10 UNL     1      37.086 -25.899  -3.839  1.00  0.00     0.002 C 
HETATM   22  C11 UNL     1      35.989 -26.708  -3.183  1.00  0.00     0.025 C 
ENDBRANCH  15  18
ENDBRANCH   7  12
ENDBRANCH   1   7
BRANCH   6  23
HETATM   23  C18 UNL     1      34.737 -33.384  -2.220  1.00  0.00     0.064 C 
BRANCH  23  24
HETATM   24  O2  UNL     1      34.961 -34.737  -2.684  1.00  0.00    -0.363 OA
ATOM     25  H2  UNL     1      34.148 -35.200  -2.851  1.00  0.00     0.217 HD
ENDBRANCH  23  24
BRANCH  23  26
HETATM   26  C19 UNL     1      35.354 -32.607  -3.292  1.00  0.00     0.140 C 
BRANCH  26  27
HETATM   27  N3  UNL     1      36.694 -32.719  -3.651  1.00  0.00    -0.263 N 
BRANCH  27  28
HETATM   28  C20 UNL     1      37.613 -31.730  -3.272  1.00  0.00     0.086 C 
BRANCH  28  29
HETATM   29  C21 UNL     1      38.673 -32.008  -2.294  1.00  0.00     0.025 C 
HETATM   30  C22 UNL     1      38.357 -33.384  -1.645  1.00  0.00     0.010 C 
HETATM   31  C23 UNL     1      37.740 -33.035  -0.311  1.00  0.00     0.001 C 
HETATM   32  C24 UNL     1      37.691 -31.534  -0.222  1.00  0.00     0.001 C 
HETATM   33  C25 UNL     1      38.827 -31.094  -1.121  1.00  0.00     0.010 C 
ENDBRANCH  28  29
ENDBRANCH  27  28
BRANCH  27  34
HETATM   34  S1  UNL     1      37.044 -33.446  -5.162  1.00  0.00     0.232 S 
HETATM   35  C26 UNL     1      38.794 -33.529  -5.472  1.00  0.00     0.186 C 
HETATM   36  O3  UNL     1      36.420 -32.750  -6.330  1.00  0.00    -0.206 OA
HETATM   37  O4  UNL     1      36.518 -34.854  -5.157  1.00  0.00    -0.206 OA
ENDBRANCH  27  34
ENDBRANCH  26  27
ENDBRANCH  23  26
ENDBRANCH   6  23
TORSDOF 11
ENDMDL
MODEL 5
REMARK VINA RESULT: -6.342776422      2.192      2.775
REMARK  11 active torsions:
REMARK  status: ('A' for Active; 'I' for Inactive)
REMARK    1  A    between atoms: C2_2  and  C5_5 
REMARK    2  A    between atoms: C5_5  and  N1_6 
REMARK    3  A    between atoms: C5_5  and  C12_17 
REMARK       I    between atoms: N1_6  and  C6_8 
REMARK       I    between atoms: C6_8  and  N2_10 
REMARK    4  A    between atoms: N2_10  and  C7_12 
REMARK    5  A    between atoms: C17_22  and  C18_23 
REMARK    6  A    between atoms: C18_23  and  O2_24 
REMARK    7  A    between atoms: C18_23  and  C19_26 
REMARK    8  A    between atoms: C19_26  and  N3_27 
REMARK    9  A    between atoms: N3_27  and  C20_28 
REMARK   10  A    between atoms: N3_27  and  S1_34 
REMARK   11  A    between atoms: C20_28  and  C21_29 
ROOT
HETATM    1  C12 UNL     1      32.857 -31.660  -0.304  1.00  0.00     0.019 C 
HETATM    2  C13 UNL     1      33.754 -31.620   0.919  1.00  0.00     0.007 C 
HETATM    3  C14 UNL     1      33.484 -32.890   1.699  1.00  0.00     0.001 C 
HETATM    4  C15 UNL     1      33.268 -34.107   0.889  1.00  0.00     0.001 C 
HETATM    5  C16 UNL     1      33.049 -33.989  -0.562  1.00  0.00     0.011 C 
HETATM    6  C17 UNL     1      33.458 -32.659  -1.213  1.00  0.00     0.050 C 
ENDROOT
BRANCH   1   7
HETATM    7  C5  UNL     1      32.358 -30.348  -0.719  1.00  0.00     0.098 C 
BRANCH   7   8
HETATM    8  C2  UNL     1      31.367 -29.606   0.066  1.00  0.00    -0.030 C 
HETATM    9  C1  UNL     1      32.195 -28.994   1.254  1.00  0.00     0.016 C 
HETATM   10  C3  UNL     1      30.378 -30.498   0.810  1.00  0.00     0.016 C 
HETATM   11  C4  UNL     1      30.662 -28.419  -0.477  1.00  0.00     0.016 C 
ENDBRANCH   7   8
BRANCH   7  12
HETATM   12  N1  UNL     1      33.582 -29.483  -0.652  1.00  0.00    -0.337 N 
HETATM   13  C6  UNL     1      34.200 -28.940  -1.783  1.00  0.00     0.316 C 
HETATM   14  O1  UNL     1      33.713 -29.186  -2.925  1.00  0.00    -0.247 OA
HETATM   15  N2  UNL     1      35.349 -28.122  -1.747  1.00  0.00    -0.339 N 
ATOM     16  H2  UNL     1      35.759 -27.909  -0.837  1.00  0.00     0.164 HD
ATOM     17  H1  UNL     1      33.984 -29.281   0.264  1.00  0.00     0.164 HD
BRANCH  15  18
HETATM   18  C7  UNL     1      35.970 -27.575  -2.914  1.00  0.00     0.086 C 
HETATM   19  C8  UNL     1      37.475 -27.681  -2.887  1.00  0.00     0.025 C 
HETATM   20  C9  UNL     1      37.970 -26.537  -3.734  1.00  0.00     0.002 C 
HETATM   21  C10 UNL     1      36.850 -25.560  -3.886  1.00  0.00     0.002 C 
HETATM   22  C11 UNL     1      35.640 -26.141  -3.188  1.00  0.00     0.025 C 
ENDBRANCH  15  18
ENDBRANCH   7  12
ENDBRANCH   1   7
BRANCH   6  23
HETATM   23  C18 UNL     1      34.784 -32.594  -1.758  1.00  0.00     0.064 C 
BRANCH  23  24
HETATM   24  O2  UNL     1      34.787 -32.202  -3.152  1.00  0.00    -0.363 OA
ATOM     25  H2  UNL     1      34.569 -32.925  -3.729  1.00  0.00     0.217 HD
ENDBRANCH  23  24
BRANCH  23  26
HETATM   26  C19 UNL     1      36.011 -31.961  -1.279  1.00  0.00     0.140 C 
BRANCH  26  27
HETATM   27  N3  UNL     1      37.032 -32.652  -0.632  1.00  0.00    -0.263 N 
BRANCH  27  28
HETATM   28  C20 UNL     1      36.747 -33.817   0.093  1.00  0.00     0.086 C 
BRANCH  28  29
HETATM   29  C21 UNL     1      37.347 -35.108  -0.269  1.00  0.00     0.025 C 
HETATM   30  C22 UNL     1      37.869 -34.985  -1.728  1.00  0.00     0.010 C 
HETATM   31  C23 UNL     1      36.813 -35.670  -2.562  1.00  0.00     0.001 C 
HETATM   32  C24 UNL     1      35.737 -36.138  -1.621  1.00  0.00     0.001 C 
HETATM   33  C25 UNL     1      36.473 -36.321  -0.311  1.00  0.00     0.010 C 
ENDBRANCH  28  29
ENDBRANCH  27  28
BRANCH  27  34
HETATM   34  S1  UNL     1      38.316 -31.726   0.020  1.00  0.00     0.232 S 
HETATM   35  C26 UNL     1      37.878 -30.010   0.194  1.00  0.00     0.186 C 
HETATM   36  O3  UNL     1      39.576 -31.782  -0.785  1.00  0.00    -0.206 OA
HETATM   37  O4  UNL     1      38.647 -32.250   1.389  1.00  0.00    -0.206 OA
ENDBRANCH  27  34
ENDBRANCH  26  27
ENDBRANCH  23  26
ENDBRANCH   6  23
TORSDOF 11
ENDMDL
