MODEL 1
REMARK VINA RESULT: -7.611948910      0.000      0.000
REMARK  11 active torsions:
REMARK  status: ('A' for Active; 'I' for Inactive)
REMARK    1  A    between atoms: C2_2  and  C4_4 
REMARK    2  A    between atoms: C4_4  and  C5_5 
REMARK    3  A    between atoms: C5_5  and  N1_6 
REMARK    4  A    between atoms: C5_5  and  C29_36 
REMARK       I    between atoms: N1_6  and  C6_8 
REMARK    5  A    between atoms: C6_8  and  C7_10 
REMARK    6  A    between atoms: C7_10  and  N2_13 
REMARK       I    between atoms: N2_13  and  C10_15 
REMARK    7  A    between atoms: C10_15  and  C11_17 
REMARK    8  A    between atoms: C11_17  and  C12_19 
REMARK    9  A    between atoms: C12_19  and  C13_20 
REMARK   10  A    between atoms: C13_20  and  C14_21 
REMARK   11  A    between atoms: C14_21  and  C15_22 
ROOT
HETATM    1  N2  UNL     1      32.985 -27.601  -2.432  1.00  0.00    -0.339 N 
ATOM      2  H2  UNL     1      32.135 -27.541  -2.992  1.00  0.00     0.164 HD
HETATM    3  C10 UNL     1      32.844 -27.905  -1.057  1.00  0.00     0.266 C 
HETATM    4  O2  UNL     1      33.804 -27.963  -0.246  1.00  0.00    -0.266 OA
ENDROOT
BRANCH   3   5
HETATM    5  C11 UNL     1      31.489 -28.178  -0.453  1.00  0.00     0.113 C 
HETATM    6  N3  UNL     1      30.476 -27.290  -0.908  1.00  0.00    -0.097 NA
BRANCH   5   7
HETATM    7  C12 UNL     1      31.185 -29.578  -0.287  1.00  0.00     0.028 C 
BRANCH   7   8
HETATM    8  C13 UNL     1      30.829 -30.250   0.831  1.00  0.00    -0.024 C 
BRANCH   8   9
HETATM    9  C14 UNL     1      31.951 -31.102   1.382  1.00  0.00     0.032 C 
BRANCH   9  10
HETATM   10  C15 UNL     1      32.752 -31.721   0.271  1.00  0.00    -0.005 C 
HETATM   11  C16 UNL     1      34.208 -31.526   0.432  1.00  0.00     0.011 C 
HETATM   12  C17 UNL     1      35.043 -32.728   0.532  1.00  0.00     0.000 A 
HETATM   13  C18 UNL     1      35.738 -33.407  -0.580  1.00  0.00     0.000 A 
HETATM   14  C28 UNL     1      34.525 -33.961  -0.227  1.00  0.00    -0.024 A 
HETATM   15  C19 UNL     1      35.517 -32.676  -1.904  1.00  0.00     0.006 C 
HETATM   16  C20 UNL     1      33.993 -32.701  -2.113  1.00  0.00     0.011 C 
HETATM   17  C21 UNL     1      33.389 -33.580  -1.147  1.00  0.00    -0.031 C 
HETATM   18  C22 UNL     1      32.780 -34.752  -1.830  1.00  0.00     0.016 C 
HETATM   19  C23 UNL     1      32.447 -33.118  -0.065  1.00  0.00     0.007 C 
HETATM   20  C24 UNL     1      32.575 -34.170   0.957  1.00  0.00    -0.042 C 
HETATM   21  C25 UNL     1      31.465 -35.207   0.855  1.00  0.00     0.015 C 
HETATM   22  C26 UNL     1      32.630 -33.806   2.408  1.00  0.00     0.015 C 
HETATM   23  C27 UNL     1      33.913 -34.888   0.693  1.00  0.00     0.020 C 
ENDBRANCH   9  10
ENDBRANCH   8   9
ENDBRANCH   7   8
ENDBRANCH   5   7
ENDBRANCH   3   5
BRANCH   1  24
HETATM   24  C7  UNL     1      34.234 -27.371  -3.095  1.00  0.00     0.106 C 
HETATM   25  C8  UNL     1      34.836 -26.046  -2.820  1.00  0.00     0.048 C 
HETATM   26  C9  UNL     1      33.938 -27.383  -4.613  1.00  0.00     0.048 C 
BRANCH  24  27
HETATM   27  C6  UNL     1      35.213 -28.459  -2.905  1.00  0.00     0.246 C 
HETATM   28  N1  UNL     1      36.479 -28.177  -2.372  1.00  0.00    -0.346 N 
ATOM     29  H1  UNL     1      36.605 -27.193  -2.133  1.00  0.00     0.163 HD
HETATM   30  O1  UNL     1      34.916 -29.624  -3.218  1.00  0.00    -0.271 OA
BRANCH  28  31
HETATM   31  C5  UNL     1      37.609 -28.967  -2.098  1.00  0.00     0.174 C 
BRANCH  31  32
HETATM   32  C4  UNL     1      38.691 -28.551  -1.205  1.00  0.00     0.038 C 
BRANCH  32  33
HETATM   33  C2  UNL     1      38.492 -28.976   0.211  1.00  0.00    -0.020 C 
HETATM   34  C1  UNL     1      39.811 -29.075   0.992  1.00  0.00     0.009 C 
HETATM   35  C3  UNL     1      38.008 -30.454   0.174  1.00  0.00     0.009 C 
ENDBRANCH  32  33
ENDBRANCH  31  32
BRANCH  31  36
HETATM   36  C29 UNL     1      38.183 -29.532  -3.381  1.00  0.00     0.254 C 
HETATM   37  N4  UNL     1      38.388 -30.912  -3.533  1.00  0.00    -0.060 NA
HETATM   38  O3  UNL     1      38.493 -28.740  -4.292  1.00  0.00    -0.275 OA
ENDBRANCH  31  36
ENDBRANCH  28  31
ENDBRANCH  24  27
ENDBRANCH   1  24
TORSDOF 11
ENDMDL
MODEL 2
REMARK VINA RESULT: -7.319663881      2.013      2.934
REMARK  11 active torsions:
REMARK  status: ('A' for Active; 'I' for Inactive)
REMARK    1  A    between atoms: C2_2  and  C4_4 
REMARK    2  A    between atoms: C4_4  and  C5_5 
REMARK    3  A    between atoms: C5_5  and  N1_6 
REMARK    4  A    between atoms: C5_5  and  C29_36 
REMARK       I    between atoms: N1_6  and  C6_8 
REMARK    5  A    between atoms: C6_8  and  C7_10 
REMARK    6  A    between atoms: C7_10  and  N2_13 
REMARK       I    between atoms: N2_13  and  C10_15 
REMARK    7  A    between atoms: C10_15  and  C11_17 
REMARK    8  A    between atoms: C11_17  and  C12_19 
REMARK    9  A    between atoms: C12_19  and  C13_20 
REMARK   10  A    between atoms: C13_20  and  C14_21 
REMARK   11  A    between atoms: C14_21  and  C15_22 
ROOT
HETATM    1  N2  UNL     1      33.098 -27.767  -2.476  1.00  0.00    -0.339 N 
ATOM      2  H2  UNL     1      32.322 -27.839  -3.133  1.00  0.00     0.164 HD
HETATM    3  C10 UNL     1      32.795 -27.831  -1.095  1.00  0.00     0.266 C 
HETATM    4  O2  UNL     1      33.650 -27.710  -0.180  1.00  0.00    -0.266 OA
ENDROOT
BRANCH   3   5
HETATM    5  C11 UNL     1      31.382 -28.045  -0.615  1.00  0.00     0.113 C 
HETATM    6  N3  UNL     1      30.439 -27.169  -1.218  1.00  0.00    -0.097 NA
BRANCH   5   7
HETATM    7  C12 UNL     1      31.032 -29.429  -0.400  1.00  0.00     0.028 C 
BRANCH   7   8
HETATM    8  C13 UNL     1      30.850 -30.096   0.761  1.00  0.00    -0.024 C 
BRANCH   8   9
HETATM    9  C14 UNL     1      32.101 -30.811   1.225  1.00  0.00     0.032 C 
BRANCH   9  10
HETATM   10  C15 UNL     1      32.862 -31.373   0.057  1.00  0.00    -0.005 C 
HETATM   11  C16 UNL     1      34.294 -31.004   0.070  1.00  0.00     0.011 C 
HETATM   12  C17 UNL     1      35.271 -32.097   0.120  1.00  0.00     0.000 A 
HETATM   13  C18 UNL     1      35.935 -32.731  -1.037  1.00  0.00     0.000 A 
HETATM   14  C28 UNL     1      34.836 -33.409  -0.553  1.00  0.00    -0.024 A 
HETATM   15  C19 UNL     1      35.506 -32.080  -2.351  1.00  0.00     0.006 C 
HETATM   16  C20 UNL     1      33.983 -32.290  -2.411  1.00  0.00     0.011 C 
HETATM   17  C21 UNL     1      33.581 -33.197  -1.368  1.00  0.00    -0.031 C 
HETATM   18  C22 UNL     1      33.055 -34.456  -1.958  1.00  0.00     0.016 C 
HETATM   19  C23 UNL     1      32.696 -32.808  -0.212  1.00  0.00     0.007 C 
HETATM   20  C24 UNL     1      33.044 -33.799   0.820  1.00  0.00    -0.042 C 
HETATM   21  C25 UNL     1      32.061 -34.962   0.853  1.00  0.00     0.015 C 
HETATM   22  C26 UNL     1      33.190 -33.378   2.249  1.00  0.00     0.015 C 
HETATM   23  C27 UNL     1      34.427 -34.366   0.445  1.00  0.00     0.020 C 
ENDBRANCH   9  10
ENDBRANCH   8   9
ENDBRANCH   7   8
ENDBRANCH   5   7
ENDBRANCH   3   5
BRANCH   1  24
HETATM   24  C7  UNL     1      34.414 -27.610  -3.019  1.00  0.00     0.106 C 
HETATM   25  C8  UNL     1      35.456 -28.408  -2.332  1.00  0.00     0.048 C 
HETATM   26  C9  UNL     1      34.812 -26.132  -2.795  1.00  0.00     0.048 C 
BRANCH  24  27
HETATM   27  C6  UNL     1      34.475 -27.786  -4.483  1.00  0.00     0.246 C 
HETATM   28  N1  UNL     1      35.662 -28.224  -5.087  1.00  0.00    -0.346 N 
ATOM     29  H1  UNL     1      36.410 -28.408  -4.418  1.00  0.00     0.163 HD
HETATM   30  O1  UNL     1      33.474 -27.547  -5.179  1.00  0.00    -0.271 OA
BRANCH  28  31
HETATM   31  C5  UNL     1      36.036 -28.460  -6.422  1.00  0.00     0.174 C 
BRANCH  31  32
HETATM   32  C4  UNL     1      36.965 -29.515  -6.827  1.00  0.00     0.038 C 
BRANCH  32  33
HETATM   33  C2  UNL     1      37.049 -30.643  -5.856  1.00  0.00    -0.020 C 
HETATM   34  C1  UNL     1      38.359 -30.641  -5.053  1.00  0.00     0.009 C 
HETATM   35  C3  UNL     1      37.168 -31.950  -6.693  1.00  0.00     0.009 C 
ENDBRANCH  32  33
ENDBRANCH  31  32
BRANCH  31  36
HETATM   36  C29 UNL     1      36.394 -27.159  -7.109  1.00  0.00     0.254 C 
HETATM   37  N4  UNL     1      37.377 -26.309  -6.579  1.00  0.00    -0.060 NA
HETATM   38  O3  UNL     1      35.777 -26.847  -8.146  1.00  0.00    -0.275 OA
ENDBRANCH  31  36
ENDBRANCH  28  31
ENDBRANCH  24  27
ENDBRANCH   1  24
TORSDOF 11
ENDMDL
MODEL 3
REMARK VINA RESULT: -7.242591732      2.753      7.403
REMARK  11 active torsions:
REMARK  status: ('A' for Active; 'I' for Inactive)
REMARK    1  A    between atoms: C2_2  and  C4_4 
REMARK    2  A    between atoms: C4_4  and  C5_5 
REMARK    3  A    between atoms: C5_5  and  N1_6 
REMARK    4  A    between atoms: C5_5  and  C29_36 
REMARK       I    between atoms: N1_6  and  C6_8 
REMARK    5  A    between atoms: C6_8  and  C7_10 
REMARK    6  A    between atoms: C7_10  and  N2_13 
REMARK       I    between atoms: N2_13  and  C10_15 
REMARK    7  A    between atoms: C10_15  and  C11_17 
REMARK    8  A    between atoms: C11_17  and  C12_19 
REMARK    9  A    between atoms: C12_19  and  C13_20 
REMARK   10  A    between atoms: C13_20  and  C14_21 
REMARK   11  A    between atoms: C14_21  and  C15_22 
ROOT
HETATM    1  N2  UNL     1      33.973 -29.974  -1.409  1.00  0.00    -0.339 N 
ATOM      2  H2  UNL     1      33.836 -29.751  -2.394  1.00  0.00     0.164 HD
HETATM    3  C10 UNL     1      33.070 -29.410  -0.477  1.00  0.00     0.266 C 
HETATM    4  O2  UNL     1      33.153 -29.567   0.768  1.00  0.00    -0.266 OA
ENDROOT
BRANCH   3   5
HETATM    5  C11 UNL     1      31.917 -28.549  -0.930  1.00  0.00     0.113 C 
HETATM    6  N3  UNL     1      30.864 -28.466   0.021  1.00  0.00    -0.097 NA
BRANCH   5   7
HETATM    7  C12 UNL     1      32.310 -27.369  -1.661  1.00  0.00     0.028 C 
BRANCH   7   8
HETATM    8  C13 UNL     1      33.526 -26.787  -1.758  1.00  0.00    -0.024 C 
BRANCH   8   9
HETATM    9  C14 UNL     1      34.042 -26.747  -3.180  1.00  0.00     0.032 C 
BRANCH   9  10
HETATM   10  C15 UNL     1      35.500 -26.383  -3.213  1.00  0.00    -0.005 C 
HETATM   11  C16 UNL     1      36.379 -27.478  -2.750  1.00  0.00     0.011 C 
HETATM   12  C17 UNL     1      37.377 -27.988  -3.696  1.00  0.00     0.000 A 
HETATM   13  C18 UNL     1      38.781 -27.548  -3.808  1.00  0.00     0.000 A 
HETATM   14  C28 UNL     1      37.915 -26.964  -4.709  1.00  0.00    -0.024 A 
HETATM   15  C19 UNL     1      39.116 -26.481  -2.767  1.00  0.00     0.006 C 
HETATM   16  C20 UNL     1      38.153 -25.321  -3.074  1.00  0.00     0.011 C 
HETATM   17  C21 UNL     1      37.490 -25.565  -4.328  1.00  0.00    -0.031 C 
HETATM   18  C22 UNL     1      37.896 -24.544  -5.330  1.00  0.00     0.016 C 
HETATM   19  C23 UNL     1      36.008 -25.800  -4.462  1.00  0.00     0.007 C 
HETATM   20  C24 UNL     1      35.904 -26.551  -5.725  1.00  0.00    -0.042 C 
HETATM   21  C25 UNL     1      35.560 -25.649  -6.903  1.00  0.00     0.015 C 
HETATM   22  C26 UNL     1      34.960 -27.707  -5.837  1.00  0.00     0.015 C 
HETATM   23  C27 UNL     1      37.292 -27.164  -5.994  1.00  0.00     0.020 C 
ENDBRANCH   9  10
ENDBRANCH   8   9
ENDBRANCH   7   8
ENDBRANCH   5   7
ENDBRANCH   3   5
BRANCH   1  24
HETATM   24  C7  UNL     1      35.066 -30.836  -1.071  1.00  0.00     0.106 C 
HETATM   25  C8  UNL     1      36.101 -30.203  -0.219  1.00  0.00     0.048 C 
HETATM   26  C9  UNL     1      35.781 -31.187  -2.397  1.00  0.00     0.048 C 
BRANCH  24  27
HETATM   27  C6  UNL     1      34.644 -32.141  -0.527  1.00  0.00     0.246 C 
HETATM   28  N1  UNL     1      33.483 -32.760  -1.012  1.00  0.00    -0.346 N 
ATOM     29  H1  UNL     1      33.022 -32.229  -1.751  1.00  0.00     0.163 HD
HETATM   30  O1  UNL     1      35.317 -32.691   0.360  1.00  0.00    -0.271 OA
BRANCH  28  31
HETATM   31  C5  UNL     1      32.821 -33.958  -0.691  1.00  0.00     0.174 C 
BRANCH  31  32
HETATM   32  C4  UNL     1      32.823 -34.553   0.645  1.00  0.00     0.038 C 
BRANCH  32  33
HETATM   33  C2  UNL     1      31.717 -34.064   1.518  1.00  0.00    -0.020 C 
HETATM   34  C1  UNL     1      32.020 -32.698   2.152  1.00  0.00     0.009 C 
HETATM   35  C3  UNL     1      31.670 -35.007   2.755  1.00  0.00     0.009 C 
ENDBRANCH  32  33
ENDBRANCH  31  32
BRANCH  31  36
HETATM   36  C29 UNL     1      33.113 -35.019  -1.733  1.00  0.00     0.254 C 
HETATM   37  N4  UNL     1      34.418 -35.497  -1.929  1.00  0.00    -0.060 NA
HETATM   38  O3  UNL     1      32.171 -35.441  -2.431  1.00  0.00    -0.275 OA
ENDBRANCH  31  36
ENDBRANCH  28  31
ENDBRANCH  24  27
ENDBRANCH   1  24
TORSDOF 11
ENDMDL
MODEL 4
REMARK VINA RESULT: -7.127483427      3.088      6.016
REMARK  11 active torsions:
REMARK  status: ('A' for Active; 'I' for Inactive)
REMARK    1  A    between atoms: C2_2  and  C4_4 
REMARK    2  A    between atoms: C4_4  and  C5_5 
REMARK    3  A    between atoms: C5_5  and  N1_6 
REMARK    4  A    between atoms: C5_5  and  C29_36 
REMARK       I    between atoms: N1_6  and  C6_8 
REMARK    5  A    between atoms: C6_8  and  C7_10 
REMARK    6  A    between atoms: C7_10  and  N2_13 
REMARK       I    between atoms: N2_13  and  C10_15 
REMARK    7  A    between atoms: C10_15  and  C11_17 
REMARK    8  A    between atoms: C11_17  and  C12_19 
REMARK    9  A    between atoms: C12_19  and  C13_20 
REMARK   10  A    between atoms: C13_20  and  C14_21 
REMARK   11  A    between atoms: C14_21  and  C15_22 
ROOT
HETATM    1  N2  UNL     1      37.994 -33.709  -1.334  1.00  0.00    -0.339 N 
ATOM      2  H2  UNL     1      37.601 -34.596  -1.019  1.00  0.00     0.164 HD
HETATM    3  C10 UNL     1      37.395 -33.087  -2.454  1.00  0.00     0.266 C 
HETATM    4  O2  UNL     1      37.809 -32.018  -2.972  1.00  0.00    -0.266 OA
ENDROOT
BRANCH   3   5
HETATM    5  C11 UNL     1      36.187 -33.690  -3.128  1.00  0.00     0.113 C 
HETATM    6  N3  UNL     1      36.515 -34.587  -4.181  1.00  0.00    -0.097 NA
BRANCH   5   7
HETATM    7  C12 UNL     1      35.105 -34.011  -2.230  1.00  0.00     0.028 C 
BRANCH   7   8
HETATM    8  C13 UNL     1      33.952 -33.344  -2.005  1.00  0.00    -0.024 C 
BRANCH   8   9
HETATM    9  C14 UNL     1      34.010 -31.905  -2.469  1.00  0.00     0.032 C 
BRANCH   9  10
HETATM   10  C15 UNL     1      33.031 -31.055  -1.709  1.00  0.00    -0.005 C 
HETATM   11  C16 UNL     1      32.790 -31.542  -0.334  1.00  0.00     0.011 C 
HETATM   12  C17 UNL     1      33.111 -30.631   0.770  1.00  0.00     0.000 A 
HETATM   13  C18 UNL     1      32.175 -29.708   1.443  1.00  0.00     0.000 A 
HETATM   14  C28 UNL     1      32.955 -29.133   0.461  1.00  0.00    -0.024 A 
HETATM   15  C19 UNL     1      30.764 -29.828   0.868  1.00  0.00     0.006 C 
HETATM   16  C20 UNL     1      30.917 -29.465  -0.619  1.00  0.00     0.011 C 
HETATM   17  C21 UNL     1      32.234 -28.933  -0.852  1.00  0.00    -0.031 C 
HETATM   18  C22 UNL     1      32.146 -27.504  -1.252  1.00  0.00     0.016 C 
HETATM   19  C23 UNL     1      33.271 -29.606  -1.714  1.00  0.00     0.007 C 
HETATM   20  C24 UNL     1      34.537 -29.063  -1.194  1.00  0.00    -0.042 C 
HETATM   21  C25 UNL     1      35.044 -27.893  -2.025  1.00  0.00     0.015 C 
HETATM   22  C26 UNL     1      35.725 -29.958  -1.023  1.00  0.00     0.015 C 
HETATM   23  C27 UNL     1      34.247 -28.539   0.226  1.00  0.00     0.020 C 
ENDBRANCH   9  10
ENDBRANCH   8   9
ENDBRANCH   7   8
ENDBRANCH   5   7
ENDBRANCH   3   5
BRANCH   1  24
HETATM   24  C7  UNL     1      39.113 -33.186  -0.608  1.00  0.00     0.106 C 
HETATM   25  C8  UNL     1      40.371 -33.124  -1.388  1.00  0.00     0.048 C 
HETATM   26  C9  UNL     1      39.393 -34.174   0.549  1.00  0.00     0.048 C 
BRANCH  24  27
HETATM   27  C6  UNL     1      38.833 -31.904   0.067  1.00  0.00     0.246 C 
HETATM   28  N1  UNL     1      39.418 -30.721  -0.405  1.00  0.00    -0.346 N 
ATOM     29  H1  UNL     1      40.002 -30.861  -1.231  1.00  0.00     0.163 HD
HETATM   30  O1  UNL     1      38.078 -31.873   1.052  1.00  0.00    -0.271 OA
BRANCH  28  31
HETATM   31  C5  UNL     1      39.370 -29.381   0.021  1.00  0.00     0.174 C 
BRANCH  31  32
HETATM   32  C4  UNL     1      39.265 -28.244  -0.893  1.00  0.00     0.038 C 
BRANCH  32  33
HETATM   33  C2  UNL     1      39.107 -28.639  -2.322  1.00  0.00    -0.020 C 
HETATM   34  C1  UNL     1      40.452 -28.806  -3.044  1.00  0.00     0.009 C 
HETATM   35  C3  UNL     1      38.477 -27.421  -3.059  1.00  0.00     0.009 C 
ENDBRANCH  32  33
ENDBRANCH  31  32
BRANCH  31  36
HETATM   36  C29 UNL     1      40.441 -29.118   1.059  1.00  0.00     0.254 C 
HETATM   37  N4  UNL     1      41.553 -28.316   0.760  1.00  0.00    -0.060 NA
HETATM   38  O3  UNL     1      40.325 -29.650   2.180  1.00  0.00    -0.275 OA
ENDBRANCH  31  36
ENDBRANCH  28  31
ENDBRANCH  24  27
ENDBRANCH   1  24
TORSDOF 11
ENDMDL
MODEL 5
REMARK VINA RESULT: -7.123864115      2.550      6.460
REMARK  11 active torsions:
REMARK  status: ('A' for Active; 'I' for Inactive)
REMARK    1  A    between atoms: C2_2  and  C4_4 
REMARK    2  A    between atoms: C4_4  and  C5_5 
REMARK    3  A    between atoms: C5_5  and  N1_6 
REMARK    4  A    between atoms: C5_5  and  C29_36 
REMARK       I    between atoms: N1_6  and  C6_8 
REMARK    5  A    between atoms: C6_8  and  C7_10 
REMARK    6  A    between atoms: C7_10  and  N2_13 
REMARK       I    between atoms: N2_13  and  C10_15 
REMARK    7  A    between atoms: C10_15  and  C11_17 
REMARK    8  A    between atoms: C11_17  and  C12_19 
REMARK    9  A    between atoms: C12_19  and  C13_20 
REMARK   10  A    between atoms: C13_20  and  C14_21 
REMARK   11  A    between atoms: C14_21  and  C15_22 
ROOT
HETATM    1  N2  UNL     1      32.916 -32.895  -0.251  1.00  0.00    -0.339 N 
ATOM      2  H2  UNL     1      33.013 -32.469  -1.172  1.00  0.00     0.164 HD
HETATM    3  C10 UNL     1      33.069 -34.299  -0.158  1.00  0.00     0.266 C 
HETATM    4  O2  UNL     1      32.929 -34.954   0.906  1.00  0.00    -0.266 OA
ENDROOT
BRANCH   3   5
HETATM    5  C11 UNL     1      33.411 -35.129  -1.371  1.00  0.00     0.113 C 
HETATM    6  N3  UNL     1      32.374 -35.165  -2.343  1.00  0.00    -0.097 NA
BRANCH   5   7
HETATM    7  C12 UNL     1      34.784 -35.016  -1.798  1.00  0.00     0.028 C 
BRANCH   7   8
HETATM    8  C13 UNL     1      35.372 -34.055  -2.546  1.00  0.00    -0.024 C 
BRANCH   8   9
HETATM    9  C14 UNL     1      36.851 -33.916  -2.258  1.00  0.00     0.032 C 
BRANCH   9  10
HETATM   10  C15 UNL     1      37.297 -32.489  -2.413  1.00  0.00    -0.005 C 
HETATM   11  C16 UNL     1      36.168 -31.537  -2.487  1.00  0.00     0.011 C 
HETATM   12  C17 UNL     1      36.097 -30.493  -1.459  1.00  0.00     0.000 A 
HETATM   13  C18 UNL     1      36.638 -29.124  -1.563  1.00  0.00     0.000 A 
HETATM   14  C28 UNL     1      37.448 -30.020  -0.898  1.00  0.00    -0.024 A 
HETATM   15  C19 UNL     1      37.280 -28.881  -2.929  1.00  0.00     0.006 C 
HETATM   16  C20 UNL     1      38.408 -29.924  -3.020  1.00  0.00     0.011 C 
HETATM   17  C21 UNL     1      38.587 -30.552  -1.738  1.00  0.00    -0.031 C 
HETATM   18  C22 UNL     1      39.923 -30.211  -1.182  1.00  0.00     0.016 C 
HETATM   19  C23 UNL     1      38.320 -32.011  -1.473  1.00  0.00     0.007 C 
HETATM   20  C24 UNL     1      38.067 -32.044  -0.023  1.00  0.00    -0.042 C 
HETATM   21  C25 UNL     1      39.307 -32.440   0.767  1.00  0.00     0.015 C 
HETATM   22  C26 UNL     1      36.970 -32.899   0.530  1.00  0.00     0.015 C 
HETATM   23  C27 UNL     1      37.683 -30.612   0.395  1.00  0.00     0.020 C 
ENDBRANCH   9  10
ENDBRANCH   8   9
ENDBRANCH   7   8
ENDBRANCH   5   7
ENDBRANCH   3   5
BRANCH   1  24
HETATM   24  C7  UNL     1      32.636 -32.028   0.854  1.00  0.00     0.106 C 
HETATM   25  C8  UNL     1      33.370 -32.365   2.096  1.00  0.00     0.048 C 
HETATM   26  C9  UNL     1      31.139 -32.215   1.196  1.00  0.00     0.048 C 
BRANCH  24  27
HETATM   27  C6  UNL     1      32.759 -30.594   0.527  1.00  0.00     0.246 C 
HETATM   28  N1  UNL     1      32.082 -30.068  -0.583  1.00  0.00    -0.346 N 
ATOM     29  H1  UNL     1      31.520 -30.761  -1.078  1.00  0.00     0.163 HD
HETATM   30  O1  UNL     1      33.461 -29.854   1.234  1.00  0.00    -0.271 OA
BRANCH  28  31
HETATM   31  C5  UNL     1      32.017 -28.786  -1.156  1.00  0.00     0.174 C 
BRANCH  31  32
HETATM   32  C4  UNL     1      33.172 -27.898  -1.289  1.00  0.00     0.038 C 
BRANCH  32  33
HETATM   33  C2  UNL     1      33.306 -27.292  -2.645  1.00  0.00    -0.020 C 
HETATM   34  C1  UNL     1      33.772 -28.302  -3.704  1.00  0.00     0.009 C 
HETATM   35  C3  UNL     1      34.501 -26.297  -2.577  1.00  0.00     0.009 C 
ENDBRANCH  32  33
ENDBRANCH  31  32
BRANCH  31  36
HETATM   36  C29 UNL     1      30.833 -28.019  -0.603  1.00  0.00     0.254 C 
HETATM   37  N4  UNL     1      30.385 -28.232   0.709  1.00  0.00    -0.060 NA
HETATM   38  O3  UNL     1      30.249 -27.210  -1.350  1.00  0.00    -0.275 OA
ENDBRANCH  31  36
ENDBRANCH  28  31
ENDBRANCH  24  27
ENDBRANCH   1  24
TORSDOF 11
ENDMDL
