MODEL 1
REMARK VINA RESULT: -8.085553331      0.000      0.000
REMARK  11 active torsions:
REMARK  status: ('A' for Active; 'I' for Inactive)
REMARK    1  A    between atoms: C3_3  and  C4_4 
REMARK    2  A    between atoms: C8_8  and  N1_9 
REMARK       I    between atoms: N1_9  and  C9_11 
REMARK    3  A    between atoms: C9_11  and  C10_13 
REMARK       I    between atoms: N2_18  and  C15_19 
REMARK    4  A    between atoms: C15_19  and  C16_21 
REMARK    5  A    between atoms: C16_21  and  C17_22 
REMARK    6  A    between atoms: C16_21  and  N3_29 
REMARK    7  A    between atoms: C17_22  and  C18_23 
REMARK       I    between atoms: N3_29  and  C24_31 
REMARK    8  A    between atoms: C24_31  and  C25_33 
REMARK    9  A    between atoms: C25_33  and  N4_34 
REMARK   10  A    between atoms: C25_33  and  C26_38 
REMARK   11  A    between atoms: C26_38  and  C27_39 
ROOT
HETATM    1  C1  UNL     1      34.207 -26.133  -2.807  1.00  0.00     0.012 C 
HETATM    2  C2  UNL     1      35.201 -26.683  -3.152  1.00  0.00    -0.117 C 
HETATM    3  C3  UNL     1      36.403 -27.373  -3.562  1.00  0.00     0.099 C 
ENDROOT
BRANCH   3   4
HETATM    4  C4  UNL     1      36.225 -28.877  -3.566  1.00  0.00     0.019 C 
HETATM    5  C5  UNL     1      36.839 -29.526  -4.764  1.00  0.00     0.007 C 
HETATM    6  C6  UNL     1      38.288 -29.677  -4.358  1.00  0.00     0.002 C 
HETATM    7  C7  UNL     1      38.250 -29.999  -2.899  1.00  0.00     0.026 C 
HETATM    8  C8  UNL     1      36.897 -29.516  -2.371  1.00  0.00     0.089 C 
BRANCH   8   9
HETATM    9  N1  UNL     1      36.174 -30.706  -1.932  1.00  0.00    -0.354 N 
HETATM   10  C9  UNL     1      36.224 -31.220  -0.642  1.00  0.00     0.241 C 
HETATM   11  O1  UNL     1      36.977 -30.549   0.172  1.00  0.00    -0.271 OA
ATOM     12  H1  UNL     1      35.593 -31.191  -2.617  1.00  0.00     0.162 HD
BRANCH  10  13
HETATM   13  C10 UNL     1      35.570 -32.388  -0.049  1.00  0.00     0.179 C 
HETATM   14  C11 UNL     1      36.618 -33.337   0.568  1.00  0.00     0.035 C 
HETATM   15  C12 UNL     1      36.849 -34.521  -0.337  1.00  0.00     0.004 C 
HETATM   16  C13 UNL     1      36.655 -34.183  -1.785  1.00  0.00     0.020 C 
HETATM   17  C14 UNL     1      35.218 -33.783  -2.047  1.00  0.00     0.127 C 
HETATM   18  N2  UNL     1      34.660 -33.134  -0.866  1.00  0.00    -0.337 N 
HETATM   19  C15 UNL     1      33.260 -33.320  -0.564  1.00  0.00     0.243 C 
HETATM   20  O2  UNL     1      32.585 -34.021  -1.390  1.00  0.00    -0.271 OA
BRANCH  19  21
HETATM   21  C16 UNL     1      32.545 -32.812   0.576  1.00  0.00     0.177 C 
BRANCH  21  22
HETATM   22  C17 UNL     1      31.701 -31.617   0.323  1.00  0.00     0.039 C 
BRANCH  22  23
HETATM   23  C18 UNL     1      31.949 -30.355   1.003  1.00  0.00    -0.012 C 
HETATM   24  C19 UNL     1      33.180 -29.580   0.751  1.00  0.00     0.005 C 
HETATM   25  C20 UNL     1      33.192 -28.948  -0.651  1.00  0.00     0.000 C 
HETATM   26  C21 UNL     1      32.042 -27.999  -0.754  1.00  0.00     0.000 C 
HETATM   27  C22 UNL     1      30.771 -28.779  -0.479  1.00  0.00     0.000 C 
HETATM   28  C23 UNL     1      30.771 -29.378   0.889  1.00  0.00     0.005 C 
ENDBRANCH  22  23
ENDBRANCH  21  22
BRANCH  21  29
HETATM   29  N3  UNL     1      31.521 -33.867   0.870  1.00  0.00    -0.346 N 
HETATM   30  C24 UNL     1      31.651 -34.776   1.922  1.00  0.00     0.249 C 
HETATM   31  O3  UNL     1      32.646 -34.739   2.672  1.00  0.00    -0.271 OA
ATOM     32  H3  UNL     1      30.694 -33.922   0.276  1.00  0.00     0.163 HD
BRANCH  30  33
HETATM   33  C25 UNL     1      30.605 -35.790   2.155  1.00  0.00     0.275 C 
BRANCH  33  34
HETATM   34  N4  UNL     1      29.880 -36.117   0.940  1.00  0.00    -0.066 N 
ATOM     35  H43 UNL     1      28.897 -35.855   1.014  1.00  0.00     0.275 HD
ATOM     36  H42 UNL     1      30.153 -35.505   0.171  1.00  0.00     0.275 HD
ATOM     37  H41 UNL     1      29.982 -37.099   0.684  1.00  0.00     0.275 HD
ENDBRANCH  33  34
BRANCH  33  38
HETATM   38  C26 UNL     1      31.179 -37.080   2.705  1.00  0.00     0.046 C 
BRANCH  38  39
HETATM   39  C27 UNL     1      30.709 -37.248   4.133  1.00  0.00    -0.020 C 
HETATM   40  C28 UNL     1      29.646 -36.270   4.514  1.00  0.00     0.009 C 
HETATM   41  C29 UNL     1      31.896 -37.037   5.069  1.00  0.00     0.009 C 
ENDBRANCH  38  39
ENDBRANCH  33  38
ENDBRANCH  30  33
ENDBRANCH  21  29
ENDBRANCH  19  21
ENDBRANCH  10  13
ENDBRANCH   8   9
ENDBRANCH   3   4
TORSDOF 11
ENDMDL
MODEL 2
REMARK VINA RESULT: -8.033814103      1.543      2.300
REMARK  11 active torsions:
REMARK  status: ('A' for Active; 'I' for Inactive)
REMARK    1  A    between atoms: C3_3  and  C4_4 
REMARK    2  A    between atoms: C8_8  and  N1_9 
REMARK       I    between atoms: N1_9  and  C9_11 
REMARK    3  A    between atoms: C9_11  and  C10_13 
REMARK       I    between atoms: N2_18  and  C15_19 
REMARK    4  A    between atoms: C15_19  and  C16_21 
REMARK    5  A    between atoms: C16_21  and  C17_22 
REMARK    6  A    between atoms: C16_21  and  N3_29 
REMARK    7  A    between atoms: C17_22  and  C18_23 
REMARK       I    between atoms: N3_29  and  C24_31 
REMARK    8  A    between atoms: C24_31  and  C25_33 
REMARK    9  A    between atoms: C25_33  and  N4_34 
REMARK   10  A    between atoms: C25_33  and  C26_38 
REMARK   11  A    between atoms: C26_38  and  C27_39 
ROOT
HETATM    1  C1  UNL     1      39.249 -26.175  -2.542  1.00  0.00     0.012 C 
HETATM    2  C2  UNL     1      38.189 -25.928  -3.017  1.00  0.00    -0.117 C 
HETATM    3  C3  UNL     1      36.893 -25.650  -3.593  1.00  0.00     0.099 C 
ENDROOT
BRANCH   3   4
HETATM    4  C4  UNL     1      35.888 -26.741  -3.291  1.00  0.00     0.019 C 
HETATM    5  C5  UNL     1      34.519 -26.420  -3.796  1.00  0.00     0.007 C 
HETATM    6  C6  UNL     1      34.585 -26.853  -5.244  1.00  0.00     0.002 C 
HETATM    7  C7  UNL     1      35.437 -28.081  -5.242  1.00  0.00     0.026 C 
HETATM    8  C8  UNL     1      36.270 -28.044  -3.958  1.00  0.00     0.089 C 
BRANCH   8   9
HETATM    9  N1  UNL     1      35.849 -29.190  -3.158  1.00  0.00    -0.354 N 
HETATM   10  C9  UNL     1      36.677 -29.876  -2.277  1.00  0.00     0.241 C 
HETATM   11  O1  UNL     1      37.886 -29.412  -2.210  1.00  0.00    -0.271 OA
ATOM     12  H1  UNL     1      34.884 -29.509  -3.250  1.00  0.00     0.162 HD
BRANCH  10  13
HETATM   13  C10 UNL     1      36.416 -31.029  -1.415  1.00  0.00     0.179 C 
HETATM   14  C11 UNL     1      37.732 -31.561  -0.812  1.00  0.00     0.035 C 
HETATM   15  C12 UNL     1      38.174 -32.808  -1.538  1.00  0.00     0.004 C 
HETATM   16  C13 UNL     1      37.755 -32.811  -2.977  1.00  0.00     0.020 C 
HETATM   17  C14 UNL     1      36.245 -32.826  -3.089  1.00  0.00     0.127 C 
HETATM   18  N2  UNL     1      35.657 -32.115  -1.960  1.00  0.00    -0.337 N 
HETATM   19  C15 UNL     1      34.392 -32.570  -1.431  1.00  0.00     0.243 C 
HETATM   20  O2  UNL     1      33.846 -33.558  -2.025  1.00  0.00    -0.271 OA
BRANCH  19  21
HETATM   21  C16 UNL     1      33.687 -32.039  -0.295  1.00  0.00     0.177 C 
BRANCH  21  22
HETATM   22  C17 UNL     1      32.782 -30.896  -0.581  1.00  0.00     0.039 C 
BRANCH  22  23
HETATM   23  C18 UNL     1      32.807 -29.687   0.229  1.00  0.00    -0.012 C 
HETATM   24  C19 UNL     1      33.225 -28.392  -0.344  1.00  0.00     0.005 C 
HETATM   25  C20 UNL     1      32.191 -27.834  -1.335  1.00  0.00     0.000 C 
HETATM   26  C21 UNL     1      30.908 -27.601  -0.602  1.00  0.00     0.000 C 
HETATM   27  C22 UNL     1      30.477 -28.921   0.007  1.00  0.00     0.000 C 
HETATM   28  C23 UNL     1      31.488 -29.445   0.973  1.00  0.00     0.005 C 
ENDBRANCH  22  23
ENDBRANCH  21  22
BRANCH  21  29
HETATM   29  N3  UNL     1      32.720 -33.122   0.079  1.00  0.00    -0.346 N 
HETATM   30  C24 UNL     1      32.397 -33.423   1.404  1.00  0.00     0.249 C 
HETATM   31  O3  UNL     1      32.913 -32.785   2.343  1.00  0.00    -0.271 OA
ATOM     32  H3  UNL     1      32.279 -33.661  -0.666  1.00  0.00     0.163 HD
BRANCH  30  33
HETATM   33  C25 UNL     1      31.438 -34.503   1.703  1.00  0.00     0.275 C 
BRANCH  33  34
HETATM   34  N4  UNL     1      31.312 -35.443   0.603  1.00  0.00    -0.066 N 
ATOM     35  H43 UNL     1      32.078 -35.337  -0.064  1.00  0.00     0.275 HD
ATOM     36  H42 UNL     1      31.496 -36.398   0.909  1.00  0.00     0.275 HD
ATOM     37  H41 UNL     1      30.407 -35.372   0.139  1.00  0.00     0.275 HD
ENDBRANCH  33  34
BRANCH  33  38
HETATM   38  C26 UNL     1      31.838 -35.293   2.933  1.00  0.00     0.046 C 
BRANCH  38  39
HETATM   39  C27 UNL     1      30.835 -36.405   3.141  1.00  0.00    -0.020 C 
HETATM   40  C28 UNL     1      29.943 -36.171   4.317  1.00  0.00     0.009 C 
HETATM   41  C29 UNL     1      31.590 -37.709   3.380  1.00  0.00     0.009 C 
ENDBRANCH  38  39
ENDBRANCH  33  38
ENDBRANCH  30  33
ENDBRANCH  21  29
ENDBRANCH  19  21
ENDBRANCH  10  13
ENDBRANCH   8   9
ENDBRANCH   3   4
TORSDOF 11
ENDMDL
MODEL 3
REMARK VINA RESULT: -7.661774247      1.279      1.802
REMARK  11 active torsions:
REMARK  status: ('A' for Active; 'I' for Inactive)
REMARK    1  A    between atoms: C3_3  and  C4_4 
REMARK    2  A    between atoms: C8_8  and  N1_9 
REMARK       I    between atoms: N1_9  and  C9_11 
REMARK    3  A    between atoms: C9_11  and  C10_13 
REMARK       I    between atoms: N2_18  and  C15_19 
REMARK    4  A    between atoms: C15_19  and  C16_21 
REMARK    5  A    between atoms: C16_21  and  C17_22 
REMARK    6  A    between atoms: C16_21  and  N3_29 
REMARK    7  A    between atoms: C17_22  and  C18_23 
REMARK       I    between atoms: N3_29  and  C24_31 
REMARK    8  A    between atoms: C24_31  and  C25_33 
REMARK    9  A    between atoms: C25_33  and  N4_34 
REMARK   10  A    between atoms: C25_33  and  C26_38 
REMARK   11  A    between atoms: C26_38  and  C27_39 
ROOT
HETATM    1  C1  UNL     1      36.603 -27.646  -3.130  1.00  0.00     0.012 C 
HETATM    2  C2  UNL     1      37.694 -28.085  -2.968  1.00  0.00    -0.117 C 
HETATM    3  C3  UNL     1      39.015 -28.628  -2.750  1.00  0.00     0.099 C 
ENDROOT
BRANCH   3   4
HETATM    4  C4  UNL     1      39.017 -29.722  -1.703  1.00  0.00     0.019 C 
HETATM    5  C5  UNL     1      40.375 -29.968  -1.130  1.00  0.00     0.007 C 
HETATM    6  C6  UNL     1      40.483 -28.910  -0.054  1.00  0.00     0.002 C 
HETATM    7  C7  UNL     1      39.108 -28.803   0.522  1.00  0.00     0.026 C 
HETATM    8  C8  UNL     1      38.140 -29.360  -0.525  1.00  0.00     0.089 C 
BRANCH   8   9
HETATM    9  N1  UNL     1      37.531 -30.549   0.064  1.00  0.00    -0.354 N 
HETATM   10  C9  UNL     1      36.333 -31.107  -0.364  1.00  0.00     0.241 C 
HETATM   11  O1  UNL     1      35.777 -30.484  -1.356  1.00  0.00    -0.271 OA
ATOM     12  H1  UNL     1      38.017 -30.999   0.841  1.00  0.00     0.162 HD
BRANCH  10  13
HETATM   13  C10 UNL     1      35.595 -32.278   0.113  1.00  0.00     0.179 C 
HETATM   14  C11 UNL     1      36.563 -33.322   0.705  1.00  0.00     0.035 C 
HETATM   15  C12 UNL     1      36.779 -34.450  -0.273  1.00  0.00     0.004 C 
HETATM   16  C13 UNL     1      36.672 -34.001  -1.699  1.00  0.00     0.020 C 
HETATM   17  C14 UNL     1      35.271 -33.508  -1.996  1.00  0.00     0.127 C 
HETATM   18  N2  UNL     1      34.690 -32.915  -0.797  1.00  0.00    -0.337 N 
HETATM   19  C15 UNL     1      33.269 -33.049  -0.572  1.00  0.00     0.243 C 
HETATM   20  O2  UNL     1      32.601 -33.653  -1.476  1.00  0.00    -0.271 OA
BRANCH  19  21
HETATM   21  C16 UNL     1      32.526 -32.586   0.569  1.00  0.00     0.177 C 
BRANCH  21  22
HETATM   22  C17 UNL     1      31.632 -31.425   0.324  1.00  0.00     0.039 C 
BRANCH  22  23
HETATM   23  C18 UNL     1      31.840 -30.152   0.996  1.00  0.00    -0.012 C 
HETATM   24  C19 UNL     1      33.069 -29.364   0.777  1.00  0.00     0.005 C 
HETATM   25  C20 UNL     1      33.121 -28.748  -0.631  1.00  0.00     0.000 C 
HETATM   26  C21 UNL     1      31.963 -27.816  -0.786  1.00  0.00     0.000 C 
HETATM   27  C22 UNL     1      30.693 -28.609  -0.544  1.00  0.00     0.000 C 
HETATM   28  C23 UNL     1      30.654 -29.193   0.830  1.00  0.00     0.005 C 
ENDBRANCH  22  23
ENDBRANCH  21  22
BRANCH  21  29
HETATM   29  N3  UNL     1      31.547 -33.687   0.844  1.00  0.00    -0.346 N 
HETATM   30  C24 UNL     1      31.704 -34.597   1.892  1.00  0.00     0.249 C 
HETATM   31  O3  UNL     1      32.688 -34.520   2.654  1.00  0.00    -0.271 OA
ATOM     32  H3  UNL     1      30.730 -33.776   0.239  1.00  0.00     0.163 HD
BRANCH  30  33
HETATM   33  C25 UNL     1      30.703 -35.658   2.105  1.00  0.00     0.275 C 
BRANCH  33  34
HETATM   34  N4  UNL     1      30.017 -36.018   0.877  1.00  0.00    -0.066 N 
ATOM     35  H43 UNL     1      29.524 -35.218   0.480  1.00  0.00     0.275 HD
ATOM     36  H42 UNL     1      30.679 -36.190   0.121  1.00  0.00     0.275 HD
ATOM     37  H41 UNL     1      29.389 -36.812   1.005  1.00  0.00     0.275 HD
ENDBRANCH  33  34
BRANCH  33  38
HETATM   38  C26 UNL     1      31.325 -36.920   2.667  1.00  0.00     0.046 C 
BRANCH  38  39
HETATM   39  C27 UNL     1      30.788 -37.145   4.063  1.00  0.00    -0.020 C 
HETATM   40  C28 UNL     1      29.714 -36.175   4.436  1.00  0.00     0.009 C 
HETATM   41  C29 UNL     1      31.931 -36.984   5.061  1.00  0.00     0.009 C 
ENDBRANCH  38  39
ENDBRANCH  33  38
ENDBRANCH  30  33
ENDBRANCH  21  29
ENDBRANCH  19  21
ENDBRANCH  10  13
ENDBRANCH   8   9
ENDBRANCH   3   4
TORSDOF 11
ENDMDL
MODEL 4
REMARK VINA RESULT: -7.301281205      2.455      7.824
REMARK  11 active torsions:
REMARK  status: ('A' for Active; 'I' for Inactive)
REMARK    1  A    between atoms: C3_3  and  C4_4 
REMARK    2  A    between atoms: C8_8  and  N1_9 
REMARK       I    between atoms: N1_9  and  C9_11 
REMARK    3  A    between atoms: C9_11  and  C10_13 
REMARK       I    between atoms: N2_18  and  C15_19 
REMARK    4  A    between atoms: C15_19  and  C16_21 
REMARK    5  A    between atoms: C16_21  and  C17_22 
REMARK    6  A    between atoms: C16_21  and  N3_29 
REMARK    7  A    between atoms: C17_22  and  C18_23 
REMARK       I    between atoms: N3_29  and  C24_31 
REMARK    8  A    between atoms: C24_31  and  C25_33 
REMARK    9  A    between atoms: C25_33  and  N4_34 
REMARK   10  A    between atoms: C25_33  and  C26_38 
REMARK   11  A    between atoms: C26_38  and  C27_39 
ROOT
HETATM    1  C1  UNL     1      30.499 -29.174   0.970  1.00  0.00     0.012 C 
HETATM    2  C2  UNL     1      30.689 -30.347   0.961  1.00  0.00    -0.117 C 
HETATM    3  C3  UNL     1      30.942 -31.769   0.941  1.00  0.00     0.099 C 
ENDROOT
BRANCH   3   4
HETATM    4  C4  UNL     1      32.420 -32.085   0.859  1.00  0.00     0.019 C 
HETATM    5  C5  UNL     1      32.983 -32.549   2.164  1.00  0.00     0.007 C 
HETATM    6  C6  UNL     1      32.647 -34.023   2.170  1.00  0.00     0.002 C 
HETATM    7  C7  UNL     1      32.802 -34.461   0.750  1.00  0.00     0.026 C 
HETATM    8  C8  UNL     1      32.692 -33.206  -0.119  1.00  0.00     0.089 C 
BRANCH   8   9
HETATM    9  N1  UNL     1      33.988 -33.037  -0.769  1.00  0.00    -0.354 N 
HETATM   10  C9  UNL     1      34.466 -33.855  -1.786  1.00  0.00     0.241 C 
HETATM   11  O1  UNL     1      33.656 -34.806  -2.132  1.00  0.00    -0.271 OA
ATOM     12  H1  UNL     1      34.582 -32.268  -0.457  1.00  0.00     0.162 HD
BRANCH  10  13
HETATM   13  C10 UNL     1      35.725 -33.823  -2.531  1.00  0.00     0.179 C 
HETATM   14  C11 UNL     1      36.187 -35.255  -2.873  1.00  0.00     0.035 C 
HETATM   15  C12 UNL     1      37.298 -35.681  -1.946  1.00  0.00     0.004 C 
HETATM   16  C13 UNL     1      37.189 -35.050  -0.590  1.00  0.00     0.020 C 
HETATM   17  C14 UNL     1      37.341 -33.546  -0.693  1.00  0.00     0.127 C 
HETATM   18  N2  UNL     1      36.816 -33.081  -1.972  1.00  0.00    -0.337 N 
HETATM   19  C15 UNL     1      37.448 -31.953  -2.616  1.00  0.00     0.243 C 
HETATM   20  O2  UNL     1      38.415 -31.405  -1.990  1.00  0.00    -0.271 OA
BRANCH  19  21
HETATM   21  C16 UNL     1      37.114 -31.388  -3.896  1.00  0.00     0.177 C 
BRANCH  21  22
HETATM   22  C17 UNL     1      36.674 -32.360  -4.930  1.00  0.00     0.039 C 
BRANCH  22  23
HETATM   23  C18 UNL     1      37.512 -32.682  -6.074  1.00  0.00    -0.012 C 
HETATM   24  C19 UNL     1      38.886 -33.192  -5.895  1.00  0.00     0.005 C 
HETATM   25  C20 UNL     1      38.907 -34.626  -5.343  1.00  0.00     0.000 C 
HETATM   26  C21 UNL     1      38.225 -35.524  -6.325  1.00  0.00     0.000 C 
HETATM   27  C22 UNL     1      36.817 -35.000  -6.533  1.00  0.00     0.000 C 
HETATM   28  C23 UNL     1      36.815 -33.610  -7.078  1.00  0.00     0.005 C 
ENDBRANCH  22  23
ENDBRANCH  21  22
BRANCH  21  29
HETATM   29  N3  UNL     1      35.859 -30.609  -3.640  1.00  0.00    -0.346 N 
HETATM   30  C24 UNL     1      35.847 -29.220  -3.493  1.00  0.00     0.249 C 
HETATM   31  O3  UNL     1      36.904 -28.565  -3.575  1.00  0.00    -0.271 OA
ATOM     32  H3  UNL     1      34.976 -31.115  -3.569  1.00  0.00     0.163 HD
BRANCH  30  33
HETATM   33  C25 UNL     1      34.576 -28.515  -3.240  1.00  0.00     0.275 C 
BRANCH  33  34
HETATM   34  N4  UNL     1      33.944 -28.068  -4.469  1.00  0.00    -0.066 N 
ATOM     35  H43 UNL     1      34.267 -27.136  -4.733  1.00  0.00     0.275 HD
ATOM     36  H42 UNL     1      34.289 -28.591  -5.274  1.00  0.00     0.275 HD
ATOM     37  H41 UNL     1      32.927 -28.104  -4.414  1.00  0.00     0.275 HD
ENDBRANCH  33  34
BRANCH  33  38
HETATM   38  C26 UNL     1      33.578 -29.390  -2.508  1.00  0.00     0.046 C 
BRANCH  38  39
HETATM   39  C27 UNL     1      33.201 -28.711  -1.210  1.00  0.00    -0.020 C 
HETATM   40  C28 UNL     1      33.009 -27.237  -1.359  1.00  0.00     0.009 C 
HETATM   41  C29 UNL     1      34.317 -28.937  -0.195  1.00  0.00     0.009 C 
ENDBRANCH  38  39
ENDBRANCH  33  38
ENDBRANCH  30  33
ENDBRANCH  21  29
ENDBRANCH  19  21
ENDBRANCH  10  13
ENDBRANCH   8   9
ENDBRANCH   3   4
TORSDOF 11
ENDMDL
MODEL 5
REMARK VINA RESULT: -7.247055653      1.963      2.535
REMARK  11 active torsions:
REMARK  status: ('A' for Active; 'I' for Inactive)
REMARK    1  A    between atoms: C3_3  and  C4_4 
REMARK    2  A    between atoms: C8_8  and  N1_9 
REMARK       I    between atoms: N1_9  and  C9_11 
REMARK    3  A    between atoms: C9_11  and  C10_13 
REMARK       I    between atoms: N2_18  and  C15_19 
REMARK    4  A    between atoms: C15_19  and  C16_21 
REMARK    5  A    between atoms: C16_21  and  C17_22 
REMARK    6  A    between atoms: C16_21  and  N3_29 
REMARK    7  A    between atoms: C17_22  and  C18_23 
REMARK       I    between atoms: N3_29  and  C24_31 
REMARK    8  A    between atoms: C24_31  and  C25_33 
REMARK    9  A    between atoms: C25_33  and  N4_34 
REMARK   10  A    between atoms: C25_33  and  C26_38 
REMARK   11  A    between atoms: C26_38  and  C27_39 
ROOT
HETATM    1  C1  UNL     1      40.534 -26.338   0.195  1.00  0.00     0.012 C 
HETATM    2  C2  UNL     1      40.234 -27.455   0.465  1.00  0.00    -0.117 C 
HETATM    3  C3  UNL     1      39.849 -28.811   0.783  1.00  0.00     0.099 C 
ENDROOT
BRANCH   3   4
HETATM    4  C4  UNL     1      38.776 -29.333  -0.150  1.00  0.00     0.019 C 
HETATM    5  C5  UNL     1      39.041 -28.991  -1.580  1.00  0.00     0.007 C 
HETATM    6  C6  UNL     1      39.986 -30.087  -2.019  1.00  0.00     0.002 C 
HETATM    7  C7  UNL     1      39.512 -31.313  -1.308  1.00  0.00     0.026 C 
HETATM    8  C8  UNL     1      38.692 -30.843  -0.104  1.00  0.00     0.089 C 
BRANCH   8   9
HETATM    9  N1  UNL     1      37.325 -31.302  -0.329  1.00  0.00    -0.354 N 
HETATM   10  C9  UNL     1      36.836 -32.535   0.085  1.00  0.00     0.241 C 
HETATM   11  O1  UNL     1      37.702 -33.272   0.707  1.00  0.00    -0.271 OA
ATOM     12  H1  UNL     1      36.686 -30.677  -0.822  1.00  0.00     0.162 HD
BRANCH  10  13
HETATM   13  C10 UNL     1      35.511 -33.141  -0.061  1.00  0.00     0.179 C 
HETATM   14  C11 UNL     1      35.618 -34.680  -0.054  1.00  0.00     0.035 C 
HETATM   15  C12 UNL     1      35.494 -35.220  -1.457  1.00  0.00     0.004 C 
HETATM   16  C13 UNL     1      36.024 -34.267  -2.486  1.00  0.00     0.020 C 
HETATM   17  C14 UNL     1      35.205 -32.993  -2.500  1.00  0.00     0.127 C 
HETATM   18  N2  UNL     1      34.698 -32.715  -1.162  1.00  0.00    -0.337 N 
HETATM   19  C15 UNL     1      33.405 -32.086  -1.022  1.00  0.00     0.243 C 
HETATM   20  O2  UNL     1      32.801 -31.775  -2.102  1.00  0.00    -0.271 OA
BRANCH  19  21
HETATM   21  C16 UNL     1      32.716 -31.785   0.204  1.00  0.00     0.177 C 
BRANCH  21  22
HETATM   22  C17 UNL     1      31.687 -30.718   0.115  1.00  0.00     0.039 C 
BRANCH  22  23
HETATM   23  C18 UNL     1      31.919 -29.391   0.665  1.00  0.00    -0.012 C 
HETATM   24  C19 UNL     1      33.254 -28.764   0.609  1.00  0.00     0.005 C 
HETATM   25  C20 UNL     1      33.644 -28.355  -0.821  1.00  0.00     0.000 C 
HETATM   26  C21 UNL     1      32.657 -27.344  -1.311  1.00  0.00     0.000 C 
HETATM   27  C22 UNL     1      31.278 -27.969  -1.240  1.00  0.00     0.000 C 
HETATM   28  C23 UNL     1      30.911 -28.353   0.155  1.00  0.00     0.005 C 
ENDBRANCH  22  23
ENDBRANCH  21  22
BRANCH  21  29
HETATM   29  N3  UNL     1      31.886 -33.005   0.471  1.00  0.00    -0.346 N 
HETATM   30  C24 UNL     1      32.082 -33.825   1.584  1.00  0.00     0.249 C 
HETATM   31  O3  UNL     1      32.973 -33.563   2.415  1.00  0.00    -0.271 OA
ATOM     32  H3  UNL     1      31.147 -33.246  -0.190  1.00  0.00     0.163 HD
BRANCH  30  33
HETATM   33  C25 UNL     1      31.229 -35.012   1.785  1.00  0.00     0.275 C 
BRANCH  33  34
HETATM   34  N4  UNL     1      31.082 -35.792   0.569  1.00  0.00    -0.066 N 
ATOM     35  H43 UNL     1      30.833 -36.759   0.778  1.00  0.00     0.275 HD
ATOM     36  H42 UNL     1      30.246 -35.518   0.053  1.00  0.00     0.275 HD
ATOM     37  H41 UNL     1      31.912 -35.744  -0.021  1.00  0.00     0.275 HD
ENDBRANCH  33  34
BRANCH  33  38
HETATM   38  C26 UNL     1      31.783 -35.933   2.854  1.00  0.00     0.046 C 
BRANCH  38  39
HETATM   39  C27 UNL     1      30.635 -36.696   3.476  1.00  0.00    -0.020 C 
HETATM   40  C28 UNL     1      30.001 -35.966   4.615  1.00  0.00     0.009 C 
HETATM   41  C29 UNL     1      31.161 -38.026   4.009  1.00  0.00     0.009 C 
ENDBRANCH  38  39
ENDBRANCH  33  38
ENDBRANCH  30  33
ENDBRANCH  21  29
ENDBRANCH  19  21
ENDBRANCH  10  13
ENDBRANCH   8   9
ENDBRANCH   3   4
TORSDOF 11
ENDMDL
