MODEL 1
REMARK VINA RESULT: -8.495827853      0.000      0.000
REMARK  10 active torsions:
REMARK  status: ('A' for Active; 'I' for Inactive)
REMARK    1  A    between atoms: C3_3  and  C6_6 
REMARK    2  A    between atoms: C6_6  and  C7_7 
REMARK    3  A    between atoms: C7_7  and  C8_8 
REMARK    4  A    between atoms: C7_7  and  C19_25 
REMARK       I    between atoms: C8_8  and  N1_10 
REMARK    5  A    between atoms: N1_10  and  C9_12 
REMARK    6  A    between atoms: C9_12  and  C10_13 
REMARK    7  A    between atoms: C9_12  and  C17_20 
REMARK    8  A    between atoms: C10_13  and  C11_14 
REMARK    9  A    between atoms: C17_20  and  C18_22 
REMARK       I    between atoms: C19_25  and  N3_27 
REMARK   10  A    between atoms: N3_27  and  C20_29 
ROOT
HETATM    1  C1  UNL     1      35.966 -36.180  -1.306  1.00  0.00     0.013 C 
HETATM    2  C2  UNL     1      36.214 -35.274  -2.063  1.00  0.00    -0.108 C 
HETATM    3  C3  UNL     1      36.506 -34.161  -3.025  1.00  0.00     0.017 C 
HETATM    4  C4  UNL     1      37.678 -33.442  -2.399  1.00  0.00     0.029 C 
HETATM    5  C5  UNL     1      36.898 -34.853  -4.306  1.00  0.00     0.029 C 
ENDROOT
BRANCH   3   6
HETATM    6  C6  UNL     1      35.310 -33.341  -3.081  1.00  0.00     0.045 C 
BRANCH   6   7
HETATM    7  C7  UNL     1      34.797 -32.558  -1.960  1.00  0.00     0.171 C 
BRANCH   7   8
HETATM    8  C8  UNL     1      33.549 -32.938  -1.307  1.00  0.00     0.231 C 
HETATM    9  O1  UNL     1      32.750 -33.830  -1.690  1.00  0.00    -0.273 OA
HETATM   10  N1  UNL     1      33.151 -32.260  -0.118  1.00  0.00    -0.348 N 
ATOM     11  H1  UNL     1      33.755 -31.524   0.246  1.00  0.00     0.163 HD
BRANCH  10  12
HETATM   12  C9  UNL     1      31.908 -32.573   0.608  1.00  0.00     0.164 C 
BRANCH  12  13
HETATM   13  C10 UNL     1      31.608 -31.326   1.418  1.00  0.00     0.038 C 
BRANCH  13  14
HETATM   14  C11 UNL     1      31.742 -30.098   0.622  1.00  0.00    -0.012 C 
HETATM   15  C12 UNL     1      32.985 -29.278   0.920  1.00  0.00     0.005 C 
HETATM   16  C13 UNL     1      33.160 -28.332  -0.215  1.00  0.00     0.000 C 
HETATM   17  C14 UNL     1      31.946 -27.896  -0.917  1.00  0.00     0.000 C 
HETATM   18  C15 UNL     1      30.644 -28.059  -0.232  1.00  0.00     0.000 C 
HETATM   19  C16 UNL     1      30.594 -29.130   0.818  1.00  0.00     0.005 C 
ENDBRANCH  13  14
ENDBRANCH  12  13
BRANCH  12  20
HETATM   20  C17 UNL     1      32.176 -33.670   1.566  1.00  0.00     0.236 C 
HETATM   21  O2  UNL     1      33.353 -33.675   2.058  1.00  0.00    -0.285 OA
BRANCH  20  22
HETATM   22  C18 UNL     1      31.256 -34.699   1.974  1.00  0.00     0.302 C 
HETATM   23  N2  UNL     1      31.473 -35.402   3.205  1.00  0.00    -0.054 NA
HETATM   24  O3  UNL     1      30.248 -35.055   1.337  1.00  0.00    -0.268 OA
ENDBRANCH  20  22
ENDBRANCH  12  20
ENDBRANCH  10  12
ENDBRANCH   7   8
BRANCH   7  25
HETATM   25  C19 UNL     1      34.562 -31.159  -2.494  1.00  0.00     0.231 C 
HETATM   26  O4  UNL     1      33.385 -30.732  -2.477  1.00  0.00    -0.273 OA
HETATM   27  N3  UNL     1      35.629 -30.361  -2.992  1.00  0.00    -0.351 N 
ATOM     28  H3  UNL     1      36.574 -30.743  -2.988  1.00  0.00     0.163 HD
BRANCH  27  29
HETATM   29  C20 UNL     1      35.419 -29.032  -3.499  1.00  0.00     0.034 C 
HETATM   30  C21 UNL     1      33.975 -28.668  -3.687  1.00  0.00     0.035 C 
HETATM   31  C22 UNL     1      33.918 -27.238  -4.196  1.00  0.00    -0.012 C 
HETATM   32  C23 UNL     1      34.659 -27.078  -5.484  1.00  0.00     0.009 C 
HETATM   33  C27 UNL     1      34.483 -26.269  -3.196  1.00  0.00     0.009 C 
HETATM   34  C24 UNL     1      36.117 -27.389  -5.225  1.00  0.00    -0.012 C 
HETATM   35  C25 UNL     1      36.704 -26.473  -4.193  1.00  0.00     0.009 C 
HETATM   36  C29 UNL     1      36.196 -28.835  -4.785  1.00  0.00     0.035 C 
HETATM   37  C26 UNL     1      35.915 -26.634  -2.912  1.00  0.00    -0.012 C 
HETATM   38  C28 UNL     1      35.977 -28.057  -2.465  1.00  0.00     0.035 C 
ENDBRANCH  27  29
ENDBRANCH   7  25
ENDBRANCH   6   7
ENDBRANCH   3   6
TORSDOF 10
ENDMDL
MODEL 2
REMARK VINA RESULT: -8.396398297      0.114      1.209
REMARK  10 active torsions:
REMARK  status: ('A' for Active; 'I' for Inactive)
REMARK    1  A    between atoms: C3_3  and  C6_6 
REMARK    2  A    between atoms: C6_6  and  C7_7 
REMARK    3  A    between atoms: C7_7  and  C8_8 
REMARK    4  A    between atoms: C7_7  and  C19_25 
REMARK       I    between atoms: C8_8  and  N1_10 
REMARK    5  A    between atoms: N1_10  and  C9_12 
REMARK    6  A    between atoms: C9_12  and  C10_13 
REMARK    7  A    between atoms: C9_12  and  C17_20 
REMARK    8  A    between atoms: C10_13  and  C11_14 
REMARK    9  A    between atoms: C17_20  and  C18_22 
REMARK       I    between atoms: C19_25  and  N3_27 
REMARK   10  A    between atoms: N3_27  and  C20_29 
ROOT
HETATM    1  C1  UNL     1      36.024 -36.161  -1.306  1.00  0.00     0.013 C 
HETATM    2  C2  UNL     1      36.242 -35.271  -2.092  1.00  0.00    -0.108 C 
HETATM    3  C3  UNL     1      36.496 -34.178  -3.086  1.00  0.00     0.017 C 
HETATM    4  C4  UNL     1      37.702 -33.458  -2.531  1.00  0.00     0.029 C 
HETATM    5  C5  UNL     1      36.820 -34.897  -4.372  1.00  0.00     0.029 C 
ENDROOT
BRANCH   3   6
HETATM    6  C6  UNL     1      35.305 -33.350  -3.101  1.00  0.00     0.045 C 
BRANCH   6   7
HETATM    7  C7  UNL     1      34.822 -32.584  -1.954  1.00  0.00     0.171 C 
BRANCH   7   8
HETATM    8  C8  UNL     1      33.569 -32.948  -1.301  1.00  0.00     0.231 C 
HETATM    9  O1  UNL     1      32.755 -33.824  -1.688  1.00  0.00    -0.273 OA
HETATM   10  N1  UNL     1      33.183 -32.269  -0.109  1.00  0.00    -0.348 N 
ATOM     11  H1  UNL     1      33.799 -31.544   0.259  1.00  0.00     0.163 HD
BRANCH  10  12
HETATM   12  C9  UNL     1      31.936 -32.565   0.617  1.00  0.00     0.164 C 
BRANCH  12  13
HETATM   13  C10 UNL     1      31.654 -31.316   1.429  1.00  0.00     0.038 C 
BRANCH  13  14
HETATM   14  C11 UNL     1      31.766 -30.091   0.625  1.00  0.00    -0.012 C 
HETATM   15  C12 UNL     1      33.002 -29.255   0.906  1.00  0.00     0.005 C 
HETATM   16  C13 UNL     1      33.155 -28.313  -0.236  1.00  0.00     0.000 C 
HETATM   17  C14 UNL     1      31.930 -27.895  -0.928  1.00  0.00     0.000 C 
HETATM   18  C15 UNL     1      30.637 -28.069  -0.229  1.00  0.00     0.000 C 
HETATM   19  C16 UNL     1      30.609 -29.135   0.826  1.00  0.00     0.005 C 
ENDBRANCH  13  14
ENDBRANCH  12  13
BRANCH  12  20
HETATM   20  C17 UNL     1      32.188 -33.668   1.573  1.00  0.00     0.236 C 
HETATM   21  O2  UNL     1      33.367 -33.695   2.058  1.00  0.00    -0.285 OA
BRANCH  20  22
HETATM   22  C18 UNL     1      31.250 -34.679   1.986  1.00  0.00     0.302 C 
HETATM   23  N2  UNL     1      31.454 -35.379   3.221  1.00  0.00    -0.054 NA
HETATM   24  O3  UNL     1      30.237 -35.021   1.349  1.00  0.00    -0.268 OA
ENDBRANCH  20  22
ENDBRANCH  12  20
ENDBRANCH  10  12
ENDBRANCH   7   8
BRANCH   7  25
HETATM   25  C19 UNL     1      34.624 -31.165  -2.445  1.00  0.00     0.231 C 
HETATM   26  O4  UNL     1      33.449 -30.734  -2.487  1.00  0.00    -0.273 OA
HETATM   27  N3  UNL     1      35.722 -30.351  -2.842  1.00  0.00    -0.351 N 
ATOM     28  H3  UNL     1      36.664 -30.737  -2.794  1.00  0.00     0.163 HD
BRANCH  27  29
HETATM   29  C20 UNL     1      35.546 -29.003  -3.309  1.00  0.00     0.034 C 
HETATM   30  C21 UNL     1      36.051 -27.954  -2.362  1.00  0.00     0.035 C 
HETATM   31  C22 UNL     1      35.822 -26.597  -3.005  1.00  0.00    -0.012 C 
HETATM   32  C23 UNL     1      34.377 -26.363  -3.306  1.00  0.00     0.009 C 
HETATM   33  C27 UNL     1      36.607 -26.446  -4.278  1.00  0.00     0.009 C 
HETATM   34  C24 UNL     1      33.937 -27.401  -4.315  1.00  0.00    -0.012 C 
HETATM   35  C25 UNL     1      34.733 -27.314  -5.582  1.00  0.00     0.009 C 
HETATM   36  C29 UNL     1      34.093 -28.756  -3.660  1.00  0.00     0.035 C 
HETATM   37  C26 UNL     1      36.192 -27.524  -5.242  1.00  0.00    -0.012 C 
HETATM   38  C28 UNL     1      36.365 -28.855  -4.590  1.00  0.00     0.035 C 
ENDBRANCH  27  29
ENDBRANCH   7  25
ENDBRANCH   6   7
ENDBRANCH   3   6
TORSDOF 10
ENDMDL
MODEL 3
REMARK VINA RESULT: -8.232191606      0.607      1.774
REMARK  10 active torsions:
REMARK  status: ('A' for Active; 'I' for Inactive)
REMARK    1  A    between atoms: C3_3  and  C6_6 
REMARK    2  A    between atoms: C6_6  and  C7_7 
REMARK    3  A    between atoms: C7_7  and  C8_8 
REMARK    4  A    between atoms: C7_7  and  C19_25 
REMARK       I    between atoms: C8_8  and  N1_10 
REMARK    5  A    between atoms: N1_10  and  C9_12 
REMARK    6  A    between atoms: C9_12  and  C10_13 
REMARK    7  A    between atoms: C9_12  and  C17_20 
REMARK    8  A    between atoms: C10_13  and  C11_14 
REMARK    9  A    between atoms: C17_20  and  C18_22 
REMARK       I    between atoms: C19_25  and  N3_27 
REMARK   10  A    between atoms: N3_27  and  C20_29 
ROOT
HETATM    1  C1  UNL     1      37.418 -32.320  -5.559  1.00  0.00     0.013 C 
HETATM    2  C2  UNL     1      37.062 -32.939  -4.587  1.00  0.00    -0.108 C 
HETATM    3  C3  UNL     1      36.622 -33.687  -3.363  1.00  0.00     0.017 C 
HETATM    4  C4  UNL     1      36.780 -35.138  -3.750  1.00  0.00     0.029 C 
HETATM    5  C5  UNL     1      37.607 -33.286  -2.294  1.00  0.00     0.029 C 
ENDROOT
BRANCH   3   6
HETATM    6  C6  UNL     1      35.239 -33.316  -3.129  1.00  0.00     0.045 C 
BRANCH   6   7
HETATM    7  C7  UNL     1      34.775 -32.565  -1.965  1.00  0.00     0.171 C 
BRANCH   7   8
HETATM    8  C8  UNL     1      33.536 -32.940  -1.294  1.00  0.00     0.231 C 
HETATM    9  O1  UNL     1      32.730 -33.833  -1.662  1.00  0.00    -0.273 OA
HETATM   10  N1  UNL     1      33.153 -32.255  -0.104  1.00  0.00    -0.348 N 
ATOM     11  H1  UNL     1      33.763 -31.518   0.249  1.00  0.00     0.163 HD
BRANCH  10  12
HETATM   12  C9  UNL     1      31.919 -32.562   0.640  1.00  0.00     0.164 C 
BRANCH  12  13
HETATM   13  C10 UNL     1      31.638 -31.315   1.455  1.00  0.00     0.038 C 
BRANCH  13  14
HETATM   14  C11 UNL     1      31.737 -30.088   0.652  1.00  0.00    -0.012 C 
HETATM   15  C12 UNL     1      32.956 -29.233   0.944  1.00  0.00     0.005 C 
HETATM   16  C13 UNL     1      33.104 -28.289  -0.196  1.00  0.00     0.000 C 
HETATM   17  C14 UNL     1      31.879 -27.891  -0.900  1.00  0.00     0.000 C 
HETATM   18  C15 UNL     1      30.582 -28.086  -0.213  1.00  0.00     0.000 C 
HETATM   19  C16 UNL     1      30.563 -29.152   0.842  1.00  0.00     0.005 C 
ENDBRANCH  13  14
ENDBRANCH  12  13
BRANCH  12  20
HETATM   20  C17 UNL     1      32.194 -33.662   1.592  1.00  0.00     0.236 C 
HETATM   21  O2  UNL     1      33.372 -33.665   2.079  1.00  0.00    -0.285 OA
BRANCH  20  22
HETATM   22  C18 UNL     1      31.279 -34.697   1.999  1.00  0.00     0.302 C 
HETATM   23  N2  UNL     1      31.510 -35.414   3.219  1.00  0.00    -0.054 NA
HETATM   24  O3  UNL     1      30.263 -35.044   1.370  1.00  0.00    -0.268 OA
ENDBRANCH  20  22
ENDBRANCH  12  20
ENDBRANCH  10  12
ENDBRANCH   7   8
BRANCH   7  25
HETATM   25  C19 UNL     1      34.564 -31.141  -2.435  1.00  0.00     0.231 C 
HETATM   26  O4  UNL     1      33.385 -30.722  -2.477  1.00  0.00    -0.273 OA
HETATM   27  N3  UNL     1      35.655 -30.309  -2.814  1.00  0.00    -0.351 N 
ATOM     28  H3  UNL     1      36.601 -30.686  -2.767  1.00  0.00     0.163 HD
BRANCH  27  29
HETATM   29  C20 UNL     1      35.467 -28.956  -3.261  1.00  0.00     0.034 C 
HETATM   30  C21 UNL     1      35.975 -27.917  -2.305  1.00  0.00     0.035 C 
HETATM   31  C22 UNL     1      35.733 -26.553  -2.928  1.00  0.00    -0.012 C 
HETATM   32  C23 UNL     1      34.283 -26.323  -3.212  1.00  0.00     0.009 C 
HETATM   33  C27 UNL     1      36.504 -26.380  -4.206  1.00  0.00     0.009 C 
HETATM   34  C24 UNL     1      33.839 -27.351  -4.230  1.00  0.00    -0.012 C 
HETATM   35  C25 UNL     1      34.622 -27.242  -5.504  1.00  0.00     0.009 C 
HETATM   36  C29 UNL     1      34.009 -28.713  -3.595  1.00  0.00     0.035 C 
HETATM   37  C26 UNL     1      36.086 -27.448  -5.181  1.00  0.00    -0.012 C 
HETATM   38  C28 UNL     1      36.273 -28.787  -4.548  1.00  0.00     0.035 C 
ENDBRANCH  27  29
ENDBRANCH   7  25
ENDBRANCH   6   7
ENDBRANCH   3   6
TORSDOF 10
ENDMDL
MODEL 4
REMARK VINA RESULT: -8.187468269      1.210      1.805
REMARK  10 active torsions:
REMARK  status: ('A' for Active; 'I' for Inactive)
REMARK    1  A    between atoms: C3_3  and  C6_6 
REMARK    2  A    between atoms: C6_6  and  C7_7 
REMARK    3  A    between atoms: C7_7  and  C8_8 
REMARK    4  A    between atoms: C7_7  and  C19_25 
REMARK       I    between atoms: C8_8  and  N1_10 
REMARK    5  A    between atoms: N1_10  and  C9_12 
REMARK    6  A    between atoms: C9_12  and  C10_13 
REMARK    7  A    between atoms: C9_12  and  C17_20 
REMARK    8  A    between atoms: C10_13  and  C11_14 
REMARK    9  A    between atoms: C17_20  and  C18_22 
REMARK       I    between atoms: C19_25  and  N3_27 
REMARK   10  A    between atoms: N3_27  and  C20_29 
ROOT
HETATM    1  C1  UNL     1      35.657 -36.104  -1.290  1.00  0.00     0.013 C 
HETATM    2  C2  UNL     1      36.228 -35.367  -2.056  1.00  0.00    -0.108 C 
HETATM    3  C3  UNL     1      36.921 -34.459  -3.028  1.00  0.00     0.017 C 
HETATM    4  C4  UNL     1      38.218 -34.111  -2.337  1.00  0.00     0.029 C 
HETATM    5  C5  UNL     1      37.152 -35.311  -4.250  1.00  0.00     0.029 C 
ENDROOT
BRANCH   3   6
HETATM    6  C6  UNL     1      36.054 -33.309  -3.206  1.00  0.00     0.045 C 
BRANCH   6   7
HETATM    7  C7  UNL     1      35.700 -32.374  -2.140  1.00  0.00     0.171 C 
BRANCH   7   8
HETATM    8  C8  UNL     1      34.308 -32.213  -1.735  1.00  0.00     0.231 C 
HETATM    9  O1  UNL     1      33.332 -31.990  -2.496  1.00  0.00    -0.273 OA
HETATM   10  N1  UNL     1      33.969 -32.303  -0.354  1.00  0.00    -0.348 N 
ATOM     11  H1  UNL     1      34.715 -32.482   0.318  1.00  0.00     0.163 HD
BRANCH  10  12
HETATM   12  C9  UNL     1      32.593 -32.151   0.149  1.00  0.00     0.164 C 
BRANCH  12  13
HETATM   13  C10 UNL     1      32.621 -30.881   0.978  1.00  0.00     0.038 C 
BRANCH  13  14
HETATM   14  C11 UNL     1      32.321 -29.685   0.178  1.00  0.00    -0.012 C 
HETATM   15  C12 UNL     1      33.417 -28.634   0.170  1.00  0.00     0.005 C 
HETATM   16  C13 UNL     1      33.130 -27.721  -0.970  1.00  0.00     0.000 C 
HETATM   17  C14 UNL     1      31.723 -27.553  -1.356  1.00  0.00     0.000 C 
HETATM   18  C15 UNL     1      30.679 -27.929  -0.377  1.00  0.00     0.000 C 
HETATM   19  C16 UNL     1      31.088 -28.945   0.649  1.00  0.00     0.005 C 
ENDBRANCH  13  14
ENDBRANCH  12  13
BRANCH  12  20
HETATM   20  C17 UNL     1      32.292 -33.273   1.067  1.00  0.00     0.236 C 
HETATM   21  O2  UNL     1      32.040 -32.928   2.269  1.00  0.00    -0.285 OA
BRANCH  20  22
HETATM   22  C18 UNL     1      32.262 -34.673   0.732  1.00  0.00     0.302 C 
HETATM   23  N2  UNL     1      32.259 -35.078  -0.643  1.00  0.00    -0.054 NA
HETATM   24  O3  UNL     1      32.238 -35.608   1.555  1.00  0.00    -0.268 OA
ENDBRANCH  20  22
ENDBRANCH  12  20
ENDBRANCH  10  12
ENDBRANCH   7   8
BRANCH   7  25
HETATM   25  C19 UNL     1      36.143 -31.005  -2.614  1.00  0.00     0.231 C 
HETATM   26  O4  UNL     1      37.334 -30.684  -2.398  1.00  0.00    -0.273 OA
HETATM   27  N3  UNL     1      35.249 -30.118  -3.277  1.00  0.00    -0.351 N 
ATOM     28  H3  UNL     1      34.287 -30.416  -3.435  1.00  0.00     0.163 HD
BRANCH  27  29
HETATM   29  C20 UNL     1      35.658 -28.817  -3.732  1.00  0.00     0.034 C 
HETATM   30  C21 UNL     1      36.509 -28.838  -4.968  1.00  0.00     0.035 C 
HETATM   31  C22 UNL     1      36.832 -27.400  -5.336  1.00  0.00    -0.012 C 
HETATM   32  C23 UNL     1      37.550 -26.694  -4.231  1.00  0.00     0.009 C 
HETATM   33  C27 UNL     1      35.592 -26.621  -5.675  1.00  0.00     0.009 C 
HETATM   34  C24 UNL     1      36.626 -26.639  -3.035  1.00  0.00    -0.012 C 
HETATM   35  C25 UNL     1      35.353 -25.912  -3.350  1.00  0.00     0.009 C 
HETATM   36  C29 UNL     1      36.352 -28.067  -2.614  1.00  0.00     0.035 C 
HETATM   37  C26 UNL     1      34.666 -26.631  -4.490  1.00  0.00    -0.012 C 
HETATM   38  C28 UNL     1      34.392 -28.044  -4.095  1.00  0.00     0.035 C 
ENDBRANCH  27  29
ENDBRANCH   7  25
ENDBRANCH   6   7
ENDBRANCH   3   6
TORSDOF 10
ENDMDL
MODEL 5
REMARK VINA RESULT: -8.164238847      0.240      1.585
REMARK  10 active torsions:
REMARK  status: ('A' for Active; 'I' for Inactive)
REMARK    1  A    between atoms: C3_3  and  C6_6 
REMARK    2  A    between atoms: C6_6  and  C7_7 
REMARK    3  A    between atoms: C7_7  and  C8_8 
REMARK    4  A    between atoms: C7_7  and  C19_25 
REMARK       I    between atoms: C8_8  and  N1_10 
REMARK    5  A    between atoms: N1_10  and  C9_12 
REMARK    6  A    between atoms: C9_12  and  C10_13 
REMARK    7  A    between atoms: C9_12  and  C17_20 
REMARK    8  A    between atoms: C10_13  and  C11_14 
REMARK    9  A    between atoms: C17_20  and  C18_22 
REMARK       I    between atoms: C19_25  and  N3_27 
REMARK   10  A    between atoms: N3_27  and  C20_29 
ROOT
HETATM    1  C1  UNL     1      37.069 -35.162  -5.379  1.00  0.00     0.013 C 
HETATM    2  C2  UNL     1      36.840 -34.754  -4.267  1.00  0.00    -0.108 C 
HETATM    3  C3  UNL     1      36.566 -34.223  -2.891  1.00  0.00     0.017 C 
HETATM    4  C4  UNL     1      36.264 -35.460  -2.079  1.00  0.00     0.029 C 
HETATM    5  C5  UNL     1      37.861 -33.579  -2.464  1.00  0.00     0.029 C 
ENDROOT
BRANCH   3   6
HETATM    6  C6  UNL     1      35.422 -33.338  -3.012  1.00  0.00     0.045 C 
BRANCH   6   7
HETATM    7  C7  UNL     1      34.878 -32.543  -1.913  1.00  0.00     0.171 C 
BRANCH   7   8
HETATM    8  C8  UNL     1      33.593 -32.893  -1.318  1.00  0.00     0.231 C 
HETATM    9  O1  UNL     1      32.723 -33.651  -1.817  1.00  0.00    -0.273 OA
HETATM   10  N1  UNL     1      33.241 -32.345  -0.051  1.00  0.00    -0.348 N 
ATOM     11  H1  UNL     1      33.903 -31.720   0.409  1.00  0.00     0.163 HD
BRANCH  10  12
HETATM   12  C9  UNL     1      31.966 -32.637   0.626  1.00  0.00     0.164 C 
BRANCH  12  13
HETATM   13  C10 UNL     1      31.666 -31.395   1.443  1.00  0.00     0.038 C 
BRANCH  13  14
HETATM   14  C11 UNL     1      31.790 -30.163   0.652  1.00  0.00    -0.012 C 
HETATM   15  C12 UNL     1      33.010 -29.319   0.974  1.00  0.00     0.005 C 
HETATM   16  C13 UNL     1      33.187 -28.367  -0.156  1.00  0.00     0.000 C 
HETATM   17  C14 UNL     1      31.977 -27.955  -0.880  1.00  0.00     0.000 C 
HETATM   18  C15 UNL     1      30.667 -28.145  -0.219  1.00  0.00     0.000 C 
HETATM   19  C16 UNL     1      30.619 -29.219   0.827  1.00  0.00     0.005 C 
ENDBRANCH  13  14
ENDBRANCH  12  13
BRANCH  12  20
HETATM   20  C17 UNL     1      32.173 -33.754   1.576  1.00  0.00     0.236 C 
HETATM   21  O2  UNL     1      33.347 -33.825   2.070  1.00  0.00    -0.285 OA
BRANCH  20  22
HETATM   22  C18 UNL     1      31.199 -34.737   1.975  1.00  0.00     0.302 C 
HETATM   23  N2  UNL     1      31.399 -35.493   3.176  1.00  0.00    -0.054 NA
HETATM   24  O3  UNL     1      30.154 -35.005   1.353  1.00  0.00    -0.268 OA
ENDBRANCH  20  22
ENDBRANCH  12  20
ENDBRANCH  10  12
ENDBRANCH   7   8
BRANCH   7  25
HETATM   25  C19 UNL     1      34.703 -31.139  -2.454  1.00  0.00     0.231 C 
HETATM   26  O4  UNL     1      33.554 -30.644  -2.396  1.00  0.00    -0.273 OA
HETATM   27  N3  UNL     1      35.794 -30.408  -3.002  1.00  0.00    -0.351 N 
ATOM     28  H3  UNL     1      36.715 -30.844  -3.030  1.00  0.00     0.163 HD
BRANCH  27  29
HETATM   29  C20 UNL     1      35.640 -29.074  -3.516  1.00  0.00     0.034 C 
HETATM   30  C21 UNL     1      36.271 -28.859  -4.861  1.00  0.00     0.035 C 
HETATM   31  C22 UNL     1      35.999 -27.423  -5.278  1.00  0.00    -0.012 C 
HETATM   32  C23 UNL     1      36.551 -26.445  -4.290  1.00  0.00     0.009 C 
HETATM   33  C27 UNL     1      34.529 -27.160  -5.440  1.00  0.00     0.009 C 
HETATM   34  C24 UNL     1      35.836 -26.659  -2.974  1.00  0.00    -0.012 C 
HETATM   35  C25 UNL     1      34.357 -26.454  -3.108  1.00  0.00     0.009 C 
HETATM   36  C29 UNL     1      36.156 -28.063  -2.512  1.00  0.00     0.035 C 
HETATM   37  C26 UNL     1      33.833 -27.434  -4.135  1.00  0.00    -0.012 C 
HETATM   38  C28 UNL     1      34.144 -28.827  -3.698  1.00  0.00     0.035 C 
ENDBRANCH  27  29
ENDBRANCH   7  25
ENDBRANCH   6   7
ENDBRANCH   3   6
TORSDOF 10
ENDMDL
