MODEL 1
REMARK VINA RESULT: -6.662157759      0.000      0.000
REMARK  6 active torsions:
REMARK  status: ('A' for Active; 'I' for Inactive)
REMARK    1  A    between atoms: C2_2  and  C3_3 
REMARK    2  A    between atoms: C2_2  and  O2_17 
REMARK    3  A    between atoms: N1_4  and  N2_6 
REMARK       I    between atoms: N2_6  and  C4_8 
REMARK       I    between atoms: C4_8  and  N3_10 
REMARK    4  A    between atoms: N3_10  and  N4_12 
REMARK    5  A    between atoms: N4_12  and  C5_14 
REMARK    6  A    between atoms: O2_17  and  N6_18 
ROOT
HETATM    1  N2  UNL     1       3.320  16.190  25.411  1.00  0.00    -0.251 N 
ATOM      2  H2  UNL     1       3.656  15.566  26.143  1.00  0.00     0.191 HD
HETATM    3  C4  UNL     1       3.229  15.679  24.113  1.00  0.00     0.353 C 
HETATM    4  O1  UNL     1       2.813  16.434  23.191  1.00  0.00    -0.244 OA
HETATM    5  N3  UNL     1       3.587  14.353  23.811  1.00  0.00    -0.248 N 
ATOM      6  H3  UNL     1       3.921  13.759  24.570  1.00  0.00     0.192 HD
ENDROOT
BRANCH   1   7
HETATM    7  N1  UNL     1       2.985  17.487  25.775  1.00  0.00    -0.309 N 
HETATM    8  C3  UNL     1       2.164  17.690  26.754  1.00  0.00     0.114 C 
ATOM      9  H1  UNL     1       3.385  18.279  25.271  1.00  0.00     0.185 HD
BRANCH   8  10
HETATM   10  C2  UNL     1       1.828  19.086  27.118  1.00  0.00     0.187 C 
HETATM   11  C1  UNL     1       1.580  19.900  25.853  1.00  0.00     0.048 C 
BRANCH  10  12
HETATM   12  O2  UNL     1       0.724  19.088  27.955  1.00  0.00    -0.277 OA
BRANCH  12  13
HETATM   13  N6  UNL     1      -0.072  20.167  27.813  1.00  0.00    -0.310 N 
ATOM     14  H62 UNL     1      -0.097  20.712  26.951  1.00  0.00     0.184 HD
ATOM     15  H61 UNL     1      -0.634  20.380  28.636  1.00  0.00     0.184 HD
ENDBRANCH  12  13
ENDBRANCH  10  12
ENDBRANCH   8  10
ENDBRANCH   1   7
BRANCH   5  16
HETATM   16  N4  UNL     1       3.511  13.804  22.529  1.00  0.00    -0.275 N 
ATOM     17  H4  UNL     1       4.130  14.141  21.792  1.00  0.00     0.189 HD
BRANCH  16  18
HETATM   18  C5  UNL     1       2.571  12.778  22.250  1.00  0.00     0.199 C 
HETATM   19  N5  UNL     1       1.256  13.048  21.777  1.00  0.00    -0.068 NA
HETATM   20  S1  UNL     1       3.012  11.225  22.473  1.00  0.00    -0.043 SA
ENDBRANCH  16  18
ENDBRANCH   5  16
TORSDOF 6
ENDMDL
MODEL 2
REMARK VINA RESULT: -6.596638534      1.307      1.409
REMARK  6 active torsions:
REMARK  status: ('A' for Active; 'I' for Inactive)
REMARK    1  A    between atoms: C2_2  and  C3_3 
REMARK    2  A    between atoms: C2_2  and  O2_17 
REMARK    3  A    between atoms: N1_4  and  N2_6 
REMARK       I    between atoms: N2_6  and  C4_8 
REMARK       I    between atoms: C4_8  and  N3_10 
REMARK    4  A    between atoms: N3_10  and  N4_12 
REMARK    5  A    between atoms: N4_12  and  C5_14 
REMARK    6  A    between atoms: O2_17  and  N6_18 
ROOT
HETATM    1  N2  UNL     1       2.770  17.538  24.017  1.00  0.00    -0.251 N 
ATOM      2  H2  UNL     1       2.661  17.978  23.103  1.00  0.00     0.191 HD
HETATM    3  C4  UNL     1       3.127  16.188  24.049  1.00  0.00     0.353 C 
HETATM    4  O1  UNL     1       3.270  15.624  25.169  1.00  0.00    -0.244 OA
HETATM    5  N3  UNL     1       3.330  15.446  22.871  1.00  0.00    -0.248 N 
ATOM      6  H3  UNL     1       3.209  15.919  21.976  1.00  0.00     0.192 HD
ENDROOT
BRANCH   1   7
HETATM    7  N1  UNL     1       2.553  18.325  25.140  1.00  0.00    -0.309 N 
HETATM    8  C3  UNL     1       1.765  19.349  25.067  1.00  0.00     0.114 C 
ATOM      9  H1  UNL     1       3.015  18.097  26.021  1.00  0.00     0.185 HD
BRANCH   8  10
HETATM   10  C2  UNL     1       1.555  20.167  26.283  1.00  0.00     0.187 C 
HETATM   11  C1  UNL     1       0.624  21.331  25.963  1.00  0.00     0.048 C 
BRANCH  10  12
HETATM   12  O2  UNL     1       1.047  19.365  27.292  1.00  0.00    -0.277 OA
BRANCH  12  13
HETATM   13  N6  UNL     1      -0.033  19.881  27.914  1.00  0.00    -0.310 N 
ATOM     14  H62 UNL     1       0.032  20.690  28.532  1.00  0.00     0.184 HD
ATOM     15  H61 UNL     1      -0.904  19.392  27.708  1.00  0.00     0.184 HD
ENDBRANCH  12  13
ENDBRANCH  10  12
ENDBRANCH   8  10
ENDBRANCH   1   7
BRANCH   5  16
HETATM   16  N4  UNL     1       3.688  14.095  22.860  1.00  0.00    -0.275 N 
ATOM     17  H4  UNL     1       4.671  13.830  22.815  1.00  0.00     0.189 HD
BRANCH  16  18
HETATM   18  C5  UNL     1       2.684  13.093  22.910  1.00  0.00     0.199 C 
HETATM   19  N5  UNL     1       1.575  13.071  22.019  1.00  0.00    -0.068 NA
HETATM   20  S1  UNL     1       2.805  11.914  24.027  1.00  0.00    -0.043 SA
ENDBRANCH  16  18
ENDBRANCH   5  16
TORSDOF 6
ENDMDL
MODEL 3
REMARK VINA RESULT: -6.588512955      1.201      1.394
REMARK  6 active torsions:
REMARK  status: ('A' for Active; 'I' for Inactive)
REMARK    1  A    between atoms: C2_2  and  C3_3 
REMARK    2  A    between atoms: C2_2  and  O2_17 
REMARK    3  A    between atoms: N1_4  and  N2_6 
REMARK       I    between atoms: N2_6  and  C4_8 
REMARK       I    between atoms: C4_8  and  N3_10 
REMARK    4  A    between atoms: N3_10  and  N4_12 
REMARK    5  A    between atoms: N4_12  and  C5_14 
REMARK    6  A    between atoms: O2_17  and  N6_18 
ROOT
HETATM    1  N2  UNL     1       2.978  17.436  25.567  1.00  0.00    -0.251 N 
ATOM      2  H2  UNL     1       3.282  17.070  26.469  1.00  0.00     0.191 HD
HETATM    3  C4  UNL     1       3.100  16.601  24.453  1.00  0.00     0.353 C 
HETATM    4  O1  UNL     1       2.728  17.032  23.327  1.00  0.00    -0.244 OA
HETATM    5  N3  UNL     1       3.623  15.299  24.555  1.00  0.00    -0.248 N 
ATOM      6  H3  UNL     1       3.919  14.969  25.474  1.00  0.00     0.192 HD
ENDROOT
BRANCH   1   7
HETATM    7  N1  UNL     1       2.473  18.729  25.534  1.00  0.00    -0.309 N 
HETATM    8  C3  UNL     1       1.596  19.100  26.410  1.00  0.00     0.114 C 
ATOM      9  H1  UNL     1       2.792  19.385  24.820  1.00  0.00     0.185 HD
BRANCH   8  10
HETATM   10  C2  UNL     1       1.078  20.486  26.348  1.00  0.00     0.187 C 
HETATM   11  C1  UNL     1       0.995  20.938  24.895  1.00  0.00     0.048 C 
BRANCH  10  12
HETATM   12  O2  UNL     1      -0.157  20.542  26.974  1.00  0.00    -0.277 OA
BRANCH  12  13
HETATM   13  N6  UNL     1      -0.224  19.832  28.119  1.00  0.00    -0.310 N 
ATOM     14  H62 UNL     1       0.268  18.946  28.237  1.00  0.00     0.184 HD
ATOM     15  H61 UNL     1      -0.805  20.260  28.839  1.00  0.00     0.184 HD
ENDBRANCH  12  13
ENDBRANCH  10  12
ENDBRANCH   8  10
ENDBRANCH   1   7
BRANCH   5  16
HETATM   16  N4  UNL     1       3.761  14.433  23.468  1.00  0.00    -0.275 N 
ATOM     17  H4  UNL     1       4.472  14.614  22.760  1.00  0.00     0.189 HD
BRANCH  16  18
HETATM   18  C5  UNL     1       2.912  13.302  23.348  1.00  0.00     0.199 C 
HETATM   19  N5  UNL     1       2.038  13.111  22.242  1.00  0.00    -0.068 NA
HETATM   20  S1  UNL     1       2.940  12.170  24.519  1.00  0.00    -0.043 SA
ENDBRANCH  16  18
ENDBRANCH   5  16
TORSDOF 6
ENDMDL
MODEL 4
REMARK VINA RESULT: -6.544595092      2.334      2.612
REMARK  6 active torsions:
REMARK  status: ('A' for Active; 'I' for Inactive)
REMARK    1  A    between atoms: C2_2  and  C3_3 
REMARK    2  A    between atoms: C2_2  and  O2_17 
REMARK    3  A    between atoms: N1_4  and  N2_6 
REMARK       I    between atoms: N2_6  and  C4_8 
REMARK       I    between atoms: C4_8  and  N3_10 
REMARK    4  A    between atoms: N3_10  and  N4_12 
REMARK    5  A    between atoms: N4_12  and  C5_14 
REMARK    6  A    between atoms: O2_17  and  N6_18 
ROOT
HETATM    1  N2  UNL     1       3.069  16.769  23.134  1.00  0.00    -0.251 N 
ATOM      2  H2  UNL     1       3.210  16.957  22.142  1.00  0.00     0.191 HD
HETATM    3  C4  UNL     1       3.069  15.435  23.549  1.00  0.00     0.353 C 
HETATM    4  O1  UNL     1       2.898  15.180  24.773  1.00  0.00    -0.244 OA
HETATM    5  N3  UNL     1       3.254  14.376  22.642  1.00  0.00    -0.248 N 
ATOM      6  H3  UNL     1       3.390  14.603  21.657  1.00  0.00     0.192 HD
ENDROOT
BRANCH   1   7
HETATM    7  N1  UNL     1       2.890  17.859  23.976  1.00  0.00    -0.309 N 
HETATM    8  C3  UNL     1       2.135  18.842  23.605  1.00  0.00     0.114 C 
ATOM      9  H1  UNL     1       3.352  17.884  24.886  1.00  0.00     0.185 HD
BRANCH   8  10
HETATM   10  C2  UNL     1       1.964  19.989  24.527  1.00  0.00     0.187 C 
HETATM   11  C1  UNL     1       1.800  19.479  25.954  1.00  0.00     0.048 C 
BRANCH  10  12
HETATM   12  O2  UNL     1       3.052  20.839  24.407  1.00  0.00    -0.277 OA
BRANCH  12  13
HETATM   13  N6  UNL     1       3.209  21.359  23.173  1.00  0.00    -0.310 N 
ATOM     14  H62 UNL     1       2.459  21.861  22.697  1.00  0.00     0.184 HD
ATOM     15  H61 UNL     1       4.133  21.203  22.771  1.00  0.00     0.184 HD
ENDBRANCH  12  13
ENDBRANCH  10  12
ENDBRANCH   8  10
ENDBRANCH   1   7
BRANCH   5  16
HETATM   16  N4  UNL     1       3.262  13.030  23.016  1.00  0.00    -0.275 N 
ATOM     17  H4  UNL     1       4.128  12.595  23.334  1.00  0.00     0.189 HD
BRANCH  16  18
HETATM   18  C5  UNL     1       2.066  12.267  22.953  1.00  0.00     0.199 C 
HETATM   19  N5  UNL     1       1.133  12.388  21.886  1.00  0.00    -0.068 NA
HETATM   20  S1  UNL     1       1.747  11.204  24.146  1.00  0.00    -0.043 SA
ENDBRANCH  16  18
ENDBRANCH   5  16
TORSDOF 6
ENDMDL
MODEL 5
REMARK VINA RESULT: -6.543887778      3.792      7.026
REMARK  6 active torsions:
REMARK  status: ('A' for Active; 'I' for Inactive)
REMARK    1  A    between atoms: C2_2  and  C3_3 
REMARK    2  A    between atoms: C2_2  and  O2_17 
REMARK    3  A    between atoms: N1_4  and  N2_6 
REMARK       I    between atoms: N2_6  and  C4_8 
REMARK       I    between atoms: C4_8  and  N3_10 
REMARK    4  A    between atoms: N3_10  and  N4_12 
REMARK    5  A    between atoms: N4_12  and  C5_14 
REMARK    6  A    between atoms: O2_17  and  N6_18 
ROOT
HETATM    1  N2  UNL     1       3.324  15.356  24.785  1.00  0.00    -0.251 N 
ATOM      2  H2  UNL     1       3.696  15.591  23.865  1.00  0.00     0.191 HD
HETATM    3  C4  UNL     1       2.859  16.404  25.584  1.00  0.00     0.353 C 
HETATM    4  O1  UNL     1       2.392  16.136  26.725  1.00  0.00    -0.244 OA
HETATM    5  N3  UNL     1       2.897  17.741  25.150  1.00  0.00    -0.248 N 
ATOM      6  H3  UNL     1       3.278  17.937  24.224  1.00  0.00     0.192 HD
ENDROOT
BRANCH   1   7
HETATM    7  N1  UNL     1       3.316  14.018  25.154  1.00  0.00    -0.309 N 
HETATM    8  C3  UNL     1       2.988  13.113  24.289  1.00  0.00     0.114 C 
ATOM      9  H1  UNL     1       3.568  13.748  26.106  1.00  0.00     0.185 HD
BRANCH   8  10
HETATM   10  C2  UNL     1       2.991  11.694  24.714  1.00  0.00     0.187 C 
HETATM   11  C1  UNL     1       1.558  11.216  24.913  1.00  0.00     0.048 C 
BRANCH  10  12
HETATM   12  O2  UNL     1       3.660  10.934  23.768  1.00  0.00    -0.277 OA
BRANCH  12  13
HETATM   13  N6  UNL     1       3.328  11.226  22.494  1.00  0.00    -0.310 N 
ATOM     14  H62 UNL     1       3.980  11.094  21.721  1.00  0.00     0.184 HD
ATOM     15  H61 UNL     1       2.380  11.584  22.383  1.00  0.00     0.184 HD
ENDBRANCH  12  13
ENDBRANCH  10  12
ENDBRANCH   8  10
ENDBRANCH   1   7
BRANCH   5  16
HETATM   16  N4  UNL     1       2.442  18.817  25.916  1.00  0.00    -0.275 N 
ATOM     17  H4  UNL     1       2.468  18.764  26.934  1.00  0.00     0.189 HD
BRANCH  16  18
HETATM   18  C5  UNL     1       1.943  19.983  25.279  1.00  0.00     0.199 C 
HETATM   19  N5  UNL     1       2.566  20.562  24.139  1.00  0.00    -0.068 NA
HETATM   20  S1  UNL     1       0.598  20.688  25.870  1.00  0.00    -0.043 SA
ENDBRANCH  16  18
ENDBRANCH   5  16
TORSDOF 6
ENDMDL
