MODEL 1
REMARK VINA RESULT: -6.890427628      0.000      0.000
REMARK  9 active torsions:
REMARK  status: ('A' for Active; 'I' for Inactive)
REMARK    1  A    between atoms: C5_7  and  C6_8 
REMARK    2  A    between atoms: N2_9  and  C7_11 
REMARK    3  A    between atoms: C7_11  and  C8_12 
REMARK    4  A    between atoms: C8_12  and  C9_13 
REMARK    5  A    between atoms: C9_13  and  N3_14 
REMARK    6  A    between atoms: N4_23  and  C18_25 
REMARK    7  A    between atoms: C18_25  and  C19_26 
REMARK    8  A    between atoms: C19_26  and  C20_27 
REMARK    9  A    between atoms: C20_27  and  O1_28 
ROOT
HETATM    1  C1  UNL     1     -15.625  44.584  -3.265  1.00  0.00     0.056 C 
HETATM    2  C2  UNL     1     -14.338  44.755  -2.489  1.00  0.00    -0.018 A 
HETATM    3  C3  UNL     1     -13.130  44.181  -2.777  1.00  0.00     0.045 A 
HETATM    4  C4  UNL     1     -12.098  44.463  -1.949  1.00  0.00     0.053 A 
HETATM    5  N1  UNL     1     -10.802  44.013  -2.027  1.00  0.00    -0.354 N 
ATOM      6  H1  UNL     1     -10.563  43.389  -2.798  1.00  0.00     0.166 HD
HETATM    7  C5  UNL     1      -9.839  44.333  -1.172  1.00  0.00     0.050 A 
HETATM    8  C16 UNL     1     -10.092  45.188  -0.088  1.00  0.00     0.061 A 
HETATM    9  C17 UNL     1     -11.370  45.660   0.027  1.00  0.00     0.049 A 
HETATM   10  N4  UNL     1     -11.749  46.450   0.969  1.00  0.00    -0.389 N 
ATOM     11  H4  UNL     1     -12.719  46.762   0.989  1.00  0.00     0.159 HD
HETATM   12  C21 UNL     1     -12.360  45.297  -0.899  1.00  0.00     0.058 A 
HETATM   13  S1  UNL     1     -14.019  45.662  -1.090  1.00  0.00    -0.091 SA
ENDROOT
BRANCH   7  14
HETATM   14  C6  UNL     1      -8.478  43.806  -1.300  1.00  0.00     0.116 C 
HETATM   15  N2  UNL     1      -7.879  43.035  -0.577  1.00  0.00    -0.377 N 
ATOM     16  H2  UNL     1      -6.958  42.908  -0.997  1.00  0.00     0.164 HD
BRANCH  15  17
HETATM   17  C7  UNL     1      -7.895  42.259   0.556  1.00  0.00     0.062 C 
BRANCH  17  18
HETATM   18  C8  UNL     1      -6.889  42.677   1.625  1.00  0.00     0.074 C 
BRANCH  18  19
HETATM   19  C9  UNL     1      -7.266  44.034   2.104  1.00  0.00     0.277 C 
BRANCH  19  20
HETATM   20  N3  UNL     1      -6.157  44.902   2.407  1.00  0.00     0.089 N 
HETATM   21  C10 UNL     1      -4.929  44.163   2.450  1.00  0.00     0.272 C 
HETATM   22  C11 UNL     1      -3.804  44.893   3.141  1.00  0.00     0.031 C 
HETATM   23  C12 UNL     1      -4.185  45.368   4.524  1.00  0.00     0.007 C 
HETATM   24  C13 UNL     1      -5.615  45.013   4.794  1.00  0.00     0.010 C 
HETATM   25  C14 UNL     1      -6.068  45.680   6.071  1.00  0.00     0.011 C 
HETATM   26  C15 UNL     1      -6.452  45.568   3.662  1.00  0.00     0.276 C 
ENDBRANCH  19  20
ENDBRANCH  18  19
ENDBRANCH  17  18
ENDBRANCH  15  17
ENDBRANCH   7  14
BRANCH  10  27
HETATM   27  C18 UNL     1     -10.844  46.914   2.002  1.00  0.00     0.122 C 
BRANCH  27  28
HETATM   28  C19 UNL     1     -11.152  48.372   2.258  1.00  0.00     0.045 C 
BRANCH  28  29
HETATM   29  C20 UNL     1     -11.198  49.168   0.972  1.00  0.00     0.165 C 
BRANCH  29  30
HETATM   30  O1  UNL     1     -12.492  49.132   0.493  1.00  0.00    -0.401 OA
ATOM     31  H1  UNL     1     -12.734  50.013   0.230  1.00  0.00     0.209 HD
ENDBRANCH  29  30
ENDBRANCH  28  29
ENDBRANCH  27  28
ENDBRANCH  10  27
TORSDOF 9
ENDMDL
MODEL 2
REMARK VINA RESULT: -6.831469800      0.792      1.329
REMARK  9 active torsions:
REMARK  status: ('A' for Active; 'I' for Inactive)
REMARK    1  A    between atoms: C5_7  and  C6_8 
REMARK    2  A    between atoms: N2_9  and  C7_11 
REMARK    3  A    between atoms: C7_11  and  C8_12 
REMARK    4  A    between atoms: C8_12  and  C9_13 
REMARK    5  A    between atoms: C9_13  and  N3_14 
REMARK    6  A    between atoms: N4_23  and  C18_25 
REMARK    7  A    between atoms: C18_25  and  C19_26 
REMARK    8  A    between atoms: C19_26  and  C20_27 
REMARK    9  A    between atoms: C20_27  and  O1_28 
ROOT
HETATM    1  C1  UNL     1     -15.281  44.553  -3.203  1.00  0.00     0.056 C 
HETATM    2  C2  UNL     1     -14.019  44.746  -2.391  1.00  0.00    -0.018 A 
HETATM    3  C3  UNL     1     -12.790  44.205  -2.654  1.00  0.00     0.045 A 
HETATM    4  C4  UNL     1     -11.787  44.503  -1.796  1.00  0.00     0.053 A 
HETATM    5  N1  UNL     1     -10.480  44.084  -1.844  1.00  0.00    -0.354 N 
ATOM      6  H1  UNL     1     -10.205  43.474  -2.614  1.00  0.00     0.166 HD
HETATM    7  C5  UNL     1      -9.547  44.419  -0.961  1.00  0.00     0.050 A 
HETATM    8  C16 UNL     1      -9.849  45.256   0.125  1.00  0.00     0.061 A 
HETATM    9  C17 UNL     1     -11.140  45.696   0.210  1.00  0.00     0.049 A 
HETATM   10  N4  UNL     1     -11.562  46.467   1.149  1.00  0.00    -0.389 N 
ATOM     11  H4  UNL     1     -12.540  46.756   1.147  1.00  0.00     0.159 HD
HETATM   12  C21 UNL     1     -12.097  45.319  -0.745  1.00  0.00     0.058 A 
HETATM   13  S1  UNL     1     -13.759  45.646  -0.976  1.00  0.00    -0.091 SA
ENDROOT
BRANCH   7  14
HETATM   14  C6  UNL     1      -8.171  43.925  -1.058  1.00  0.00     0.116 C 
HETATM   15  N2  UNL     1      -7.604  43.087  -0.387  1.00  0.00    -0.377 N 
ATOM     16  H2  UNL     1      -6.655  43.018  -0.758  1.00  0.00     0.164 HD
BRANCH  15  17
HETATM   17  C7  UNL     1      -7.674  42.191   0.652  1.00  0.00     0.062 C 
BRANCH  17  18
HETATM   18  C8  UNL     1      -7.270  42.760   2.009  1.00  0.00     0.074 C 
BRANCH  18  19
HETATM   19  C9  UNL     1      -5.822  43.096   1.953  1.00  0.00     0.277 C 
BRANCH  19  20
HETATM   20  N3  UNL     1      -5.357  43.959   3.007  1.00  0.00     0.089 N 
HETATM   21  C10 UNL     1      -6.062  43.697   4.228  1.00  0.00     0.272 C 
HETATM   22  C11 UNL     1      -5.932  44.797   5.253  1.00  0.00     0.031 C 
HETATM   23  C12 UNL     1      -6.314  46.151   4.701  1.00  0.00     0.007 C 
HETATM   24  C13 UNL     1      -6.669  46.015   3.252  1.00  0.00     0.010 C 
HETATM   25  C14 UNL     1      -6.828  47.386   2.640  1.00  0.00     0.011 C 
HETATM   26  C15 UNL     1      -5.513  45.329   2.555  1.00  0.00     0.276 C 
ENDBRANCH  19  20
ENDBRANCH  18  19
ENDBRANCH  17  18
ENDBRANCH  15  17
ENDBRANCH   7  14
BRANCH  10  27
HETATM   27  C18 UNL     1     -10.696  46.942   2.210  1.00  0.00     0.122 C 
BRANCH  27  28
HETATM   28  C19 UNL     1     -11.026  48.397   2.453  1.00  0.00     0.045 C 
BRANCH  28  29
HETATM   29  C20 UNL     1     -11.177  49.160   1.155  1.00  0.00     0.165 C 
BRANCH  29  30
HETATM   30  O1  UNL     1     -12.508  49.121   0.788  1.00  0.00    -0.401 OA
ATOM     31  H1  UNL     1     -12.722  49.947   0.369  1.00  0.00     0.209 HD
ENDBRANCH  29  30
ENDBRANCH  28  29
ENDBRANCH  27  28
ENDBRANCH  10  27
TORSDOF 9
ENDMDL
MODEL 3
REMARK VINA RESULT: -6.798473105      1.568      3.725
REMARK  9 active torsions:
REMARK  status: ('A' for Active; 'I' for Inactive)
REMARK    1  A    between atoms: C5_7  and  C6_8 
REMARK    2  A    between atoms: N2_9  and  C7_11 
REMARK    3  A    between atoms: C7_11  and  C8_12 
REMARK    4  A    between atoms: C8_12  and  C9_13 
REMARK    5  A    between atoms: C9_13  and  N3_14 
REMARK    6  A    between atoms: N4_23  and  C18_25 
REMARK    7  A    between atoms: C18_25  and  C19_26 
REMARK    8  A    between atoms: C19_26  and  C20_27 
REMARK    9  A    between atoms: C20_27  and  O1_28 
ROOT
HETATM    1  C1  UNL     1     -11.350  49.129   2.819  1.00  0.00     0.056 C 
HETATM    2  C2  UNL     1     -11.250  47.947   1.881  1.00  0.00    -0.018 A 
HETATM    3  C3  UNL     1     -10.139  47.183   1.647  1.00  0.00     0.045 A 
HETATM    4  C4  UNL     1     -10.261  46.167   0.764  1.00  0.00     0.053 A 
HETATM    5  N1  UNL     1      -9.299  45.270   0.365  1.00  0.00    -0.354 N 
ATOM      6  H1  UNL     1      -8.369  45.361   0.774  1.00  0.00     0.166 HD
HETATM    7  C5  UNL     1      -9.494  44.294  -0.513  1.00  0.00     0.050 A 
HETATM    8  C16 UNL     1     -10.747  44.107  -1.116  1.00  0.00     0.061 A 
HETATM    9  C17 UNL     1     -11.735  44.978  -0.747  1.00  0.00     0.049 A 
HETATM   10  N4  UNL     1     -12.931  44.928  -1.216  1.00  0.00    -0.389 N 
ATOM     11  H4  UNL     1     -13.615  45.611  -0.893  1.00  0.00     0.159 HD
HETATM   12  C21 UNL     1     -11.487  45.997   0.186  1.00  0.00     0.058 A 
HETATM   13  S1  UNL     1     -12.427  47.245   0.880  1.00  0.00    -0.091 SA
ENDROOT
BRANCH   7  14
HETATM   14  C6  UNL     1      -8.421  43.379  -0.910  1.00  0.00     0.116 C 
HETATM   15  N2  UNL     1      -7.725  42.662  -0.219  1.00  0.00    -0.377 N 
ATOM     16  H2  UNL     1      -7.094  42.177  -0.858  1.00  0.00     0.164 HD
BRANCH  15  17
HETATM   17  C7  UNL     1      -7.413  42.215   1.041  1.00  0.00     0.062 C 
BRANCH  17  18
HETATM   18  C8  UNL     1      -6.263  42.959   1.712  1.00  0.00     0.074 C 
BRANCH  18  19
HETATM   19  C9  UNL     1      -6.842  43.889   2.719  1.00  0.00     0.277 C 
BRANCH  19  20
HETATM   20  N3  UNL     1      -5.936  44.893   3.212  1.00  0.00     0.089 N 
HETATM   21  C10 UNL     1      -4.649  44.765   2.594  1.00  0.00     0.272 C 
HETATM   22  C11 UNL     1      -3.549  45.495   3.324  1.00  0.00     0.031 C 
HETATM   23  C12 UNL     1      -3.474  45.118   4.786  1.00  0.00     0.007 C 
HETATM   24  C13 UNL     1      -4.569  44.146   5.104  1.00  0.00     0.010 C 
HETATM   25  C14 UNL     1      -4.645  43.942   6.598  1.00  0.00     0.011 C 
HETATM   26  C15 UNL     1      -5.878  44.761   4.656  1.00  0.00     0.276 C 
ENDBRANCH  19  20
ENDBRANCH  18  19
ENDBRANCH  17  18
ENDBRANCH  15  17
ENDBRANCH   7  14
BRANCH  10  27
HETATM   27  C18 UNL     1     -13.342  43.934  -2.188  1.00  0.00     0.122 C 
BRANCH  27  28
HETATM   28  C19 UNL     1     -14.149  44.642  -3.253  1.00  0.00     0.045 C 
BRANCH  28  29
HETATM   29  C20 UNL     1     -15.548  44.962  -2.773  1.00  0.00     0.165 C 
BRANCH  29  30
HETATM   30  O1  UNL     1     -15.507  46.174  -2.112  1.00  0.00    -0.401 OA
ATOM     31  H1  UNL     1     -16.180  46.734  -2.481  1.00  0.00     0.209 HD
ENDBRANCH  29  30
ENDBRANCH  28  29
ENDBRANCH  27  28
ENDBRANCH  10  27
TORSDOF 9
ENDMDL
MODEL 4
REMARK VINA RESULT: -6.760375493      0.815      1.353
REMARK  9 active torsions:
REMARK  status: ('A' for Active; 'I' for Inactive)
REMARK    1  A    between atoms: C5_7  and  C6_8 
REMARK    2  A    between atoms: N2_9  and  C7_11 
REMARK    3  A    between atoms: C7_11  and  C8_12 
REMARK    4  A    between atoms: C8_12  and  C9_13 
REMARK    5  A    between atoms: C9_13  and  N3_14 
REMARK    6  A    between atoms: N4_23  and  C18_25 
REMARK    7  A    between atoms: C18_25  and  C19_26 
REMARK    8  A    between atoms: C19_26  and  C20_27 
REMARK    9  A    between atoms: C20_27  and  O1_28 
ROOT
HETATM    1  C1  UNL     1     -15.427  44.563  -3.353  1.00  0.00     0.056 C 
HETATM    2  C2  UNL     1     -14.172  44.716  -2.522  1.00  0.00    -0.018 A 
HETATM    3  C3  UNL     1     -12.978  44.080  -2.725  1.00  0.00     0.045 A 
HETATM    4  C4  UNL     1     -11.975  44.356  -1.861  1.00  0.00     0.053 A 
HETATM    5  N1  UNL     1     -10.698  43.849  -1.855  1.00  0.00    -0.354 N 
ATOM      6  H1  UNL     1     -10.451  43.180  -2.584  1.00  0.00     0.166 HD
HETATM    7  C5  UNL     1      -9.764  44.169  -0.969  1.00  0.00     0.050 A 
HETATM    8  C16 UNL     1     -10.030  45.082   0.063  1.00  0.00     0.061 A 
HETATM    9  C17 UNL     1     -11.290  45.612   0.094  1.00  0.00     0.049 A 
HETATM   10  N4  UNL     1     -11.677  46.461   0.979  1.00  0.00    -0.389 N 
ATOM     11  H4  UNL     1     -12.633  46.813   0.938  1.00  0.00     0.159 HD
HETATM   12  C21 UNL     1     -12.250  45.248  -0.863  1.00  0.00     0.058 A 
HETATM   13  S1  UNL     1     -13.880  45.673  -1.151  1.00  0.00    -0.091 SA
ENDROOT
BRANCH   7  14
HETATM   14  C6  UNL     1      -8.423  43.579  -1.006  1.00  0.00     0.116 C 
HETATM   15  N2  UNL     1      -7.693  43.265  -0.087  1.00  0.00    -0.377 N 
ATOM     16  H2  UNL     1      -6.844  42.889  -0.512  1.00  0.00     0.164 HD
BRANCH  15  17
HETATM   17  C7  UNL     1      -7.505  43.193   1.272  1.00  0.00     0.062 C 
BRANCH  17  18
HETATM   18  C8  UNL     1      -6.090  42.814   1.697  1.00  0.00     0.074 C 
BRANCH  18  19
HETATM   19  C9  UNL     1      -5.512  43.963   2.446  1.00  0.00     0.277 C 
BRANCH  19  20
HETATM   20  N3  UNL     1      -6.227  44.332   3.640  1.00  0.00     0.089 N 
HETATM   21  C10 UNL     1      -6.128  45.743   3.876  1.00  0.00     0.272 C 
HETATM   22  C11 UNL     1      -6.492  46.151   5.282  1.00  0.00     0.031 C 
HETATM   23  C12 UNL     1      -5.715  45.384   6.328  1.00  0.00     0.007 C 
HETATM   24  C13 UNL     1      -4.827  44.385   5.651  1.00  0.00     0.010 C 
HETATM   25  C14 UNL     1      -4.223  43.465   6.685  1.00  0.00     0.011 C 
HETATM   26  C15 UNL     1      -5.690  43.545   4.734  1.00  0.00     0.276 C 
ENDBRANCH  19  20
ENDBRANCH  18  19
ENDBRANCH  17  18
ENDBRANCH  15  17
ENDBRANCH   7  14
BRANCH  10  27
HETATM   27  C18 UNL     1     -10.802  46.934   2.034  1.00  0.00     0.122 C 
BRANCH  27  28
HETATM   28  C19 UNL     1     -11.225  48.343   2.381  1.00  0.00     0.045 C 
BRANCH  28  29
HETATM   29  C20 UNL     1     -11.288  49.226   1.153  1.00  0.00     0.165 C 
BRANCH  29  30
HETATM   30  O1  UNL     1     -12.589  49.220   0.688  1.00  0.00    -0.401 OA
ATOM     31  H1  UNL     1     -12.707  49.983   0.134  1.00  0.00     0.209 HD
ENDBRANCH  29  30
ENDBRANCH  28  29
ENDBRANCH  27  28
ENDBRANCH  10  27
TORSDOF 9
ENDMDL
MODEL 5
REMARK VINA RESULT: -6.720236677      0.892      1.441
REMARK  9 active torsions:
REMARK  status: ('A' for Active; 'I' for Inactive)
REMARK    1  A    between atoms: C5_7  and  C6_8 
REMARK    2  A    between atoms: N2_9  and  C7_11 
REMARK    3  A    between atoms: C7_11  and  C8_12 
REMARK    4  A    between atoms: C8_12  and  C9_13 
REMARK    5  A    between atoms: C9_13  and  N3_14 
REMARK    6  A    between atoms: N4_23  and  C18_25 
REMARK    7  A    between atoms: C18_25  and  C19_26 
REMARK    8  A    between atoms: C19_26  and  C20_27 
REMARK    9  A    between atoms: C20_27  and  O1_28 
ROOT
HETATM    1  C1  UNL     1     -15.480  44.719  -3.158  1.00  0.00     0.056 C 
HETATM    2  C2  UNL     1     -14.182  44.815  -2.388  1.00  0.00    -0.018 A 
HETATM    3  C3  UNL     1     -13.005  44.187  -2.692  1.00  0.00     0.045 A 
HETATM    4  C4  UNL     1     -11.956  44.406  -1.867  1.00  0.00     0.053 A 
HETATM    5  N1  UNL     1     -10.684  43.894  -1.960  1.00  0.00    -0.354 N 
ATOM      6  H1  UNL     1     -10.481  43.269  -2.741  1.00  0.00     0.166 HD
HETATM    7  C5  UNL     1      -9.702  44.154  -1.106  1.00  0.00     0.050 A 
HETATM    8  C16 UNL     1      -9.906  45.004  -0.009  1.00  0.00     0.061 A 
HETATM    9  C17 UNL     1     -11.159  45.537   0.121  1.00  0.00     0.049 A 
HETATM   10  N4  UNL     1     -11.492  46.331   1.076  1.00  0.00    -0.389 N 
ATOM     11  H4  UNL     1     -12.446  46.690   1.107  1.00  0.00     0.159 HD
HETATM   12  C21 UNL     1     -12.171  45.236  -0.804  1.00  0.00     0.058 A 
HETATM   13  S1  UNL     1     -13.811  45.685  -0.978  1.00  0.00    -0.091 SA
ENDROOT
BRANCH   7  14
HETATM   14  C6  UNL     1      -8.369  43.562  -1.251  1.00  0.00     0.116 C 
HETATM   15  N2  UNL     1      -7.710  42.941  -0.441  1.00  0.00    -0.377 N 
ATOM     16  H2  UNL     1      -6.839  42.694  -0.912  1.00  0.00     0.164 HD
BRANCH  15  17
HETATM   17  C7  UNL     1      -7.619  42.425   0.828  1.00  0.00     0.062 C 
BRANCH  17  18
HETATM   18  C8  UNL     1      -6.398  42.890   1.616  1.00  0.00     0.074 C 
BRANCH  18  19
HETATM   19  C9  UNL     1      -6.866  43.381   2.941  1.00  0.00     0.277 C 
BRANCH  19  20
HETATM   20  N3  UNL     1      -6.512  44.742   3.245  1.00  0.00     0.089 N 
HETATM   21  C10 UNL     1      -6.731  45.592   2.111  1.00  0.00     0.272 C 
HETATM   22  C11 UNL     1      -6.026  46.922   2.202  1.00  0.00     0.031 C 
HETATM   23  C12 UNL     1      -4.546  46.777   2.475  1.00  0.00     0.007 C 
HETATM   24  C13 UNL     1      -4.212  45.325   2.631  1.00  0.00     0.010 C 
HETATM   25  C14 UNL     1      -2.793  45.184   3.127  1.00  0.00     0.011 C 
HETATM   26  C15 UNL     1      -5.130  44.748   3.687  1.00  0.00     0.276 C 
ENDBRANCH  19  20
ENDBRANCH  18  19
ENDBRANCH  17  18
ENDBRANCH  15  17
ENDBRANCH   7  14
BRANCH  10  27
HETATM   27  C18 UNL     1     -10.559  46.735   2.110  1.00  0.00     0.122 C 
BRANCH  27  28
HETATM   28  C19 UNL     1     -10.322  48.220   1.956  1.00  0.00     0.045 C 
BRANCH  28  29
HETATM   29  C20 UNL     1     -11.594  48.954   1.591  1.00  0.00     0.165 C 
BRANCH  29  30
HETATM   30  O1  UNL     1     -11.642  49.070   0.216  1.00  0.00    -0.401 OA
ATOM     31  H1  UNL     1     -10.970  49.687  -0.052  1.00  0.00     0.209 HD
ENDBRANCH  29  30
ENDBRANCH  28  29
ENDBRANCH  27  28
ENDBRANCH  10  27
TORSDOF 9
ENDMDL
