MODEL 1
REMARK VINA RESULT: -6.602736749      0.000      0.000
REMARK  10 active torsions:
REMARK  status: ('A' for Active; 'I' for Inactive)
REMARK    1  A    between atoms: C2_2  and  C3_3 
REMARK    2  A    between atoms: C3_3  and  C4_4 
REMARK    3  A    between atoms: C4_4  and  C5_5 
REMARK    4  A    between atoms: C5_5  and  O1_6 
REMARK    5  A    between atoms: O1_6  and  C6_7 
REMARK    6  A    between atoms: C6_7  and  O3_9 
REMARK    7  A    between atoms: O3_9  and  C7_10 
REMARK    8  A    between atoms: C7_10  and  C8_11 
REMARK    9  A    between atoms: C12_15  and  C13_16 
REMARK   10  A    between atoms: C19_24  and  O6_25 
ROOT
HETATM    1  C8  UNL     1      -9.677  45.236   1.258  1.00  0.00    -0.010 C 
HETATM    2  C9  UNL     1     -10.118  44.054   2.059  1.00  0.00     0.018 C 
HETATM    3  C10 UNL     1      -9.478  44.954  -0.197  1.00  0.00     0.003 C 
HETATM    4  C11 UNL     1      -9.596  46.329  -0.893  1.00  0.00     0.021 C 
HETATM    5  C12 UNL     1      -8.563  47.279  -0.390  1.00  0.00     0.088 C 
HETATM    6  C14 UNL     1      -8.463  47.366   1.110  1.00  0.00     0.026 C 
HETATM    7  C15 UNL     1      -8.489  45.972   1.755  1.00  0.00    -0.026 A 
HETATM    8  C16 UNL     1      -7.865  45.825   3.054  1.00  0.00     0.016 A 
HETATM    9  C17 UNL     1      -7.200  45.321   1.799  1.00  0.00    -0.002 A 
HETATM   10  C18 UNL     1      -7.088  43.875   1.503  1.00  0.00     0.037 C 
HETATM   11  C19 UNL     1      -7.368  43.491   0.099  1.00  0.00     0.122 C 
HETATM   12  C20 UNL     1      -8.296  44.297  -0.697  1.00  0.00     0.015 C 
HETATM   13  C21 UNL     1      -8.755  43.328  -1.824  1.00  0.00     0.013 C 
ENDROOT
BRANCH   1  14
HETATM   14  C7  UNL     1     -10.879  46.170   1.406  1.00  0.00     0.191 C 
BRANCH  14  15
HETATM   15  O3  UNL     1     -12.015  45.282   1.360  1.00  0.00    -0.297 OA
BRANCH  15  16
HETATM   16  C6  UNL     1     -13.217  45.646   0.811  1.00  0.00     0.406 C 
HETATM   17  O2  UNL     1     -14.255  45.643   1.509  1.00  0.00    -0.230 OA
BRANCH  16  18
HETATM   18  O1  UNL     1     -13.257  46.013  -0.513  1.00  0.00    -0.298 OA
BRANCH  18  19
HETATM   19  C5  UNL     1     -14.355  45.901  -1.367  1.00  0.00     0.181 C 
BRANCH  19  20
HETATM   20  C4  UNL     1     -14.135  44.833  -2.401  1.00  0.00     0.031 C 
BRANCH  20  21
HETATM   21  C3  UNL     1     -12.748  44.932  -3.004  1.00  0.00     0.028 C 
BRANCH  21  22
HETATM   22  C2  UNL     1     -11.979  43.689  -2.808  1.00  0.00    -0.037 C 
HETATM   23  C1  UNL     1     -12.379  42.785  -1.944  1.00  0.00     0.007 C 
ENDBRANCH  21  22
ENDBRANCH  20  21
ENDBRANCH  19  20
ENDBRANCH  18  19
ENDBRANCH  16  18
ENDBRANCH  15  16
ENDBRANCH  14  15
ENDBRANCH   1  14
BRANCH   5  24
HETATM   24  C13 UNL     1      -8.842  48.617  -0.945  1.00  0.00     0.177 C 
HETATM   25  O4  UNL     1      -8.011  49.198  -1.675  1.00  0.00    -0.648 OA
HETATM   26  O5  UNL     1     -10.034  49.284  -0.684  1.00  0.00    -0.648 OA
ENDBRANCH   5  24
BRANCH  11  27
HETATM   27  O6  UNL     1      -7.679  42.107   0.053  1.00  0.00    -0.395 OA
ATOM     28  H6  UNL     1      -7.111  41.644   0.658  1.00  0.00     0.210 HD
ENDBRANCH  11  27
TORSDOF 10
ENDMDL
MODEL 2
REMARK VINA RESULT: -6.420990634      1.519      3.655
REMARK  10 active torsions:
REMARK  status: ('A' for Active; 'I' for Inactive)
REMARK    1  A    between atoms: C2_2  and  C3_3 
REMARK    2  A    between atoms: C3_3  and  C4_4 
REMARK    3  A    between atoms: C4_4  and  C5_5 
REMARK    4  A    between atoms: C5_5  and  O1_6 
REMARK    5  A    between atoms: O1_6  and  C6_7 
REMARK    6  A    between atoms: C6_7  and  O3_9 
REMARK    7  A    between atoms: O3_9  and  C7_10 
REMARK    8  A    between atoms: C7_10  and  C8_11 
REMARK    9  A    between atoms: C12_15  and  C13_16 
REMARK   10  A    between atoms: C19_24  and  O6_25 
ROOT
HETATM    1  C8  UNL     1      -9.491  46.200   1.577  1.00  0.00    -0.010 C 
HETATM    2  C9  UNL     1     -10.025  47.324   2.404  1.00  0.00     0.018 C 
HETATM    3  C10 UNL     1      -8.311  45.503   2.175  1.00  0.00     0.003 C 
HETATM    4  C11 UNL     1      -8.288  44.108   1.511  1.00  0.00     0.021 C 
HETATM    5  C12 UNL     1      -8.148  44.217   0.030  1.00  0.00     0.088 C 
HETATM    6  C14 UNL     1      -9.098  45.184  -0.624  1.00  0.00     0.026 C 
HETATM    7  C15 UNL     1      -9.182  46.503   0.159  1.00  0.00    -0.026 A 
HETATM    8  C16 UNL     1      -9.571  47.691  -0.573  1.00  0.00     0.016 A 
HETATM    9  C17 UNL     1      -8.140  47.449  -0.168  1.00  0.00    -0.002 A 
HETATM   10  C18 UNL     1      -7.489  48.236   0.902  1.00  0.00     0.037 C 
HETATM   11  C19 UNL     1      -6.650  47.456   1.843  1.00  0.00     0.122 C 
HETATM   12  C20 UNL     1      -6.980  46.054   2.109  1.00  0.00     0.015 C 
HETATM   13  C21 UNL     1      -6.299  45.767   3.478  1.00  0.00     0.013 C 
ENDROOT
BRANCH   1  14
HETATM   14  C7  UNL     1     -10.674  45.230   1.583  1.00  0.00     0.191 C 
BRANCH  14  15
HETATM   15  O3  UNL     1     -11.829  46.094   1.623  1.00  0.00    -0.297 OA
BRANCH  15  16
HETATM   16  C6  UNL     1     -12.993  45.804   0.959  1.00  0.00     0.406 C 
HETATM   17  O2  UNL     1     -14.024  45.497   1.597  1.00  0.00    -0.230 OA
BRANCH  16  18
HETATM   18  O1  UNL     1     -13.003  45.861  -0.416  1.00  0.00    -0.298 OA
BRANCH  18  19
HETATM   19  C5  UNL     1     -14.132  45.799  -1.234  1.00  0.00     0.181 C 
BRANCH  19  20
HETATM   20  C4  UNL     1     -13.941  44.813  -2.352  1.00  0.00     0.031 C 
BRANCH  20  21
HETATM   21  C3  UNL     1     -12.545  44.910  -2.935  1.00  0.00     0.028 C 
BRANCH  21  22
HETATM   22  C2  UNL     1     -11.806  43.641  -2.795  1.00  0.00    -0.037 C 
HETATM   23  C1  UNL     1     -12.252  42.692  -2.004  1.00  0.00     0.007 C 
ENDBRANCH  21  22
ENDBRANCH  20  21
ENDBRANCH  19  20
ENDBRANCH  18  19
ENDBRANCH  16  18
ENDBRANCH  15  16
ENDBRANCH  14  15
ENDBRANCH   1  14
BRANCH   5  24
HETATM   24  C13 UNL     1      -8.322  42.876  -0.560  1.00  0.00     0.177 C 
HETATM   25  O4  UNL     1      -8.742  42.736  -1.728  1.00  0.00    -0.648 OA
HETATM   26  O5  UNL     1      -8.028  41.719   0.153  1.00  0.00    -0.648 OA
ENDBRANCH   5  24
BRANCH  11  27
HETATM   27  O6  UNL     1      -6.477  48.205   3.036  1.00  0.00    -0.395 OA
ATOM     28  H6  UNL     1      -5.554  48.403   3.144  1.00  0.00     0.210 HD
ENDBRANCH  11  27
TORSDOF 10
ENDMDL
MODEL 3
REMARK VINA RESULT: -6.009739793      1.810      6.270
REMARK  10 active torsions:
REMARK  status: ('A' for Active; 'I' for Inactive)
REMARK    1  A    between atoms: C2_2  and  C3_3 
REMARK    2  A    between atoms: C3_3  and  C4_4 
REMARK    3  A    between atoms: C4_4  and  C5_5 
REMARK    4  A    between atoms: C5_5  and  O1_6 
REMARK    5  A    between atoms: O1_6  and  C6_7 
REMARK    6  A    between atoms: C6_7  and  O3_9 
REMARK    7  A    between atoms: O3_9  and  C7_10 
REMARK    8  A    between atoms: C7_10  and  C8_11 
REMARK    9  A    between atoms: C12_15  and  C13_16 
REMARK   10  A    between atoms: C19_24  and  O6_25 
ROOT
HETATM    1  C8  UNL     1      -9.338  45.902  -0.290  1.00  0.00    -0.010 C 
HETATM    2  C9  UNL     1      -9.815  47.257  -0.699  1.00  0.00     0.018 C 
HETATM    3  C10 UNL     1      -9.767  44.797  -1.202  1.00  0.00     0.003 C 
HETATM    4  C11 UNL     1      -8.754  43.656  -0.957  1.00  0.00     0.021 C 
HETATM    5  C12 UNL     1      -8.776  43.210   0.466  1.00  0.00     0.088 C 
HETATM    6  C14 UNL     1      -8.694  44.322   1.478  1.00  0.00     0.026 C 
HETATM    7  C15 UNL     1      -9.623  45.489   1.106  1.00  0.00    -0.026 A 
HETATM    8  C16 UNL     1     -10.086  46.342   2.180  1.00  0.00     0.016 A 
HETATM    9  C17 UNL     1     -10.988  45.315   1.545  1.00  0.00    -0.002 A 
HETATM   10  C18 UNL     1     -12.108  45.703   0.659  1.00  0.00     0.037 C 
HETATM   11  C19 UNL     1     -12.270  44.874  -0.560  1.00  0.00     0.122 C 
HETATM   12  C20 UNL     1     -11.094  44.236  -1.157  1.00  0.00     0.015 C 
HETATM   13  C21 UNL     1     -11.526  43.968  -2.628  1.00  0.00     0.013 C 
ENDROOT
BRANCH   1  14
HETATM   14  C7  UNL     1      -7.822  46.063  -0.411  1.00  0.00     0.191 C 
BRANCH  14  15
HETATM   15  O3  UNL     1      -7.630  47.491  -0.473  1.00  0.00    -0.297 OA
BRANCH  15  16
HETATM   16  C6  UNL     1      -6.397  48.078  -0.356  1.00  0.00     0.406 C 
HETATM   17  O2  UNL     1      -5.708  48.307  -1.374  1.00  0.00    -0.230 OA
BRANCH  16  18
HETATM   18  O1  UNL     1      -5.936  48.410   0.897  1.00  0.00    -0.298 OA
BRANCH  18  19
HETATM   19  C5  UNL     1      -5.185  47.591   1.741  1.00  0.00     0.181 C 
BRANCH  19  20
HETATM   20  C4  UNL     1      -6.063  46.866   2.721  1.00  0.00     0.031 C 
BRANCH  20  21
HETATM   21  C3  UNL     1      -5.519  45.484   3.026  1.00  0.00     0.028 C 
BRANCH  21  22
HETATM   22  C2  UNL     1      -6.122  44.918   4.247  1.00  0.00    -0.037 C 
HETATM   23  C1  UNL     1      -6.111  43.622   4.459  1.00  0.00     0.007 C 
ENDBRANCH  21  22
ENDBRANCH  20  21
ENDBRANCH  19  20
ENDBRANCH  18  19
ENDBRANCH  16  18
ENDBRANCH  15  16
ENDBRANCH  14  15
ENDBRANCH   1  14
BRANCH   5  24
HETATM   24  C13 UNL     1      -7.667  42.262   0.681  1.00  0.00     0.177 C 
HETATM   25  O4  UNL     1      -7.812  41.041   0.460  1.00  0.00    -0.648 OA
HETATM   26  O5  UNL     1      -6.422  42.683   1.136  1.00  0.00    -0.648 OA
ENDBRANCH   5  24
BRANCH  11  27
HETATM   27  O6  UNL     1     -13.033  45.599  -1.511  1.00  0.00    -0.395 OA
ATOM     28  H6  UNL     1     -13.319  45.004  -2.194  1.00  0.00     0.210 HD
ENDBRANCH  11  27
TORSDOF 10
ENDMDL
MODEL 4
REMARK VINA RESULT: -5.901699112      2.193      6.420
REMARK  10 active torsions:
REMARK  status: ('A' for Active; 'I' for Inactive)
REMARK    1  A    between atoms: C2_2  and  C3_3 
REMARK    2  A    between atoms: C3_3  and  C4_4 
REMARK    3  A    between atoms: C4_4  and  C5_5 
REMARK    4  A    between atoms: C5_5  and  O1_6 
REMARK    5  A    between atoms: O1_6  and  C6_7 
REMARK    6  A    between atoms: C6_7  and  O3_9 
REMARK    7  A    between atoms: O3_9  and  C7_10 
REMARK    8  A    between atoms: C7_10  and  C8_11 
REMARK    9  A    between atoms: C12_15  and  C13_16 
REMARK   10  A    between atoms: C19_24  and  O6_25 
ROOT
HETATM    1  C8  UNL     1      -9.316  45.844  -0.240  1.00  0.00    -0.010 C 
HETATM    2  C9  UNL     1      -9.785  47.202  -0.652  1.00  0.00     0.018 C 
HETATM    3  C10 UNL     1      -9.711  44.746  -1.175  1.00  0.00     0.003 C 
HETATM    4  C11 UNL     1      -8.702  43.608  -0.908  1.00  0.00     0.021 C 
HETATM    5  C12 UNL     1      -8.768  43.149   0.510  1.00  0.00     0.088 C 
HETATM    6  C14 UNL     1      -8.722  44.252   1.533  1.00  0.00     0.026 C 
HETATM    7  C15 UNL     1      -9.643  45.418   1.143  1.00  0.00    -0.026 A 
HETATM    8  C16 UNL     1     -10.144  46.259   2.209  1.00  0.00     0.016 A 
HETATM    9  C17 UNL     1     -11.021  45.235   1.537  1.00  0.00    -0.002 A 
HETATM   10  C18 UNL     1     -12.114  45.626   0.619  1.00  0.00     0.037 C 
HETATM   11  C19 UNL     1     -12.233  44.808  -0.612  1.00  0.00     0.122 C 
HETATM   12  C20 UNL     1     -11.037  44.180  -1.177  1.00  0.00     0.015 C 
HETATM   13  C21 UNL     1     -11.421  43.924  -2.663  1.00  0.00     0.013 C 
ENDROOT
BRANCH   1  14
HETATM   14  C7  UNL     1      -7.797  46.013  -0.311  1.00  0.00     0.191 C 
BRANCH  14  15
HETATM   15  O3  UNL     1      -7.560  47.284   0.328  1.00  0.00    -0.297 OA
BRANCH  15  16
HETATM   16  C6  UNL     1      -6.554  47.478   1.240  1.00  0.00     0.406 C 
HETATM   17  O2  UNL     1      -5.391  47.723   0.853  1.00  0.00    -0.230 OA
BRANCH  16  18
HETATM   18  O1  UNL     1      -6.851  47.399   2.580  1.00  0.00    -0.298 OA
BRANCH  18  19
HETATM   19  C5  UNL     1      -6.013  46.907   3.582  1.00  0.00     0.181 C 
BRANCH  19  20
HETATM   20  C4  UNL     1      -6.046  45.405   3.632  1.00  0.00     0.031 C 
BRANCH  20  21
HETATM   21  C3  UNL     1      -4.648  44.830   3.752  1.00  0.00     0.028 C 
BRANCH  21  22
HETATM   22  C2  UNL     1      -3.949  44.823   2.454  1.00  0.00    -0.037 C 
HETATM   23  C1  UNL     1      -2.725  45.289   2.351  1.00  0.00     0.007 C 
ENDBRANCH  21  22
ENDBRANCH  20  21
ENDBRANCH  19  20
ENDBRANCH  18  19
ENDBRANCH  16  18
ENDBRANCH  15  16
ENDBRANCH  14  15
ENDBRANCH   1  14
BRANCH   5  24
HETATM   24  C13 UNL     1      -7.662  42.203   0.751  1.00  0.00     0.177 C 
HETATM   25  O4  UNL     1      -7.741  41.011   0.382  1.00  0.00    -0.648 OA
HETATM   26  O5  UNL     1      -6.492  42.592   1.395  1.00  0.00    -0.648 OA
ENDBRANCH   5  24
BRANCH  11  27
HETATM   27  O6  UNL     1     -12.969  45.539  -1.581  1.00  0.00    -0.395 OA
ATOM     28  H6  UNL     1     -13.354  44.929  -2.199  1.00  0.00     0.210 HD
ENDBRANCH  11  27
TORSDOF 10
ENDMDL
MODEL 5
REMARK VINA RESULT: -5.861629881      2.312      4.158
REMARK  10 active torsions:
REMARK  status: ('A' for Active; 'I' for Inactive)
REMARK    1  A    between atoms: C2_2  and  C3_3 
REMARK    2  A    between atoms: C3_3  and  C4_4 
REMARK    3  A    between atoms: C4_4  and  C5_5 
REMARK    4  A    between atoms: C5_5  and  O1_6 
REMARK    5  A    between atoms: O1_6  and  C6_7 
REMARK    6  A    between atoms: C6_7  and  O3_9 
REMARK    7  A    between atoms: O3_9  and  C7_10 
REMARK    8  A    between atoms: C7_10  and  C8_11 
REMARK    9  A    between atoms: C12_15  and  C13_16 
REMARK   10  A    between atoms: C19_24  and  O6_25 
ROOT
HETATM    1  C8  UNL     1     -10.461  47.479   0.816  1.00  0.00    -0.010 C 
HETATM    2  C9  UNL     1     -10.256  46.691  -0.437  1.00  0.00     0.018 C 
HETATM    3  C10 UNL     1     -10.710  48.936   0.593  1.00  0.00     0.003 C 
HETATM    4  C11 UNL     1     -11.433  49.422   1.869  1.00  0.00     0.021 C 
HETATM    5  C12 UNL     1     -10.592  49.205   3.081  1.00  0.00     0.088 C 
HETATM    6  C14 UNL     1     -10.007  47.824   3.205  1.00  0.00     0.026 C 
HETATM    7  C15 UNL     1      -9.425  47.340   1.868  1.00  0.00    -0.026 A 
HETATM    8  C16 UNL     1      -8.375  46.344   1.918  1.00  0.00     0.016 A 
HETATM    9  C17 UNL     1      -8.075  47.790   1.617  1.00  0.00    -0.002 A 
HETATM   10  C18 UNL     1      -7.681  48.239   0.264  1.00  0.00     0.037 C 
HETATM   11  C19 UNL     1      -8.313  49.500  -0.196  1.00  0.00     0.122 C 
HETATM   12  C20 UNL     1      -9.642  49.861   0.302  1.00  0.00     0.015 C 
HETATM   13  C21 UNL     1     -10.179  50.856  -0.767  1.00  0.00     0.013 C 
ENDROOT
BRANCH   1  14
HETATM   14  C7  UNL     1     -11.745  46.851   1.363  1.00  0.00     0.191 C 
BRANCH  14  15
HETATM   15  O3  UNL     1     -12.571  46.678   0.194  1.00  0.00    -0.297 OA
BRANCH  15  16
HETATM   16  C6  UNL     1     -13.712  45.919   0.200  1.00  0.00     0.406 C 
HETATM   17  O2  UNL     1     -14.458  45.908   1.203  1.00  0.00    -0.230 OA
BRANCH  16  18
HETATM   18  O1  UNL     1     -14.019  45.174  -0.916  1.00  0.00    -0.298 OA
BRANCH  18  19
HETATM   19  C5  UNL     1     -13.194  44.973  -2.023  1.00  0.00     0.181 C 
BRANCH  19  20
HETATM   20  C4  UNL     1     -12.739  43.543  -2.111  1.00  0.00     0.031 C 
BRANCH  20  21
HETATM   21  C3  UNL     1     -11.297  43.455  -2.570  1.00  0.00     0.028 C 
BRANCH  21  22
HETATM   22  C2  UNL     1     -10.365  43.388  -1.429  1.00  0.00    -0.037 C 
HETATM   23  C1  UNL     1      -9.070  43.297  -1.628  1.00  0.00     0.007 C 
ENDBRANCH  21  22
ENDBRANCH  20  21
ENDBRANCH  19  20
ENDBRANCH  18  19
ENDBRANCH  16  18
ENDBRANCH  15  16
ENDBRANCH  14  15
ENDBRANCH   1  14
BRANCH   5  24
HETATM   24  C13 UNL     1     -11.402  49.508   4.277  1.00  0.00     0.177 C 
HETATM   25  O4  UNL     1     -11.467  48.705   5.231  1.00  0.00    -0.648 OA
HETATM   26  O5  UNL     1     -12.121  50.693   4.392  1.00  0.00    -0.648 OA
ENDBRANCH   5  24
BRANCH  11  27
HETATM   27  O6  UNL     1      -8.229  49.567  -1.610  1.00  0.00    -0.395 OA
ATOM     28  H6  UNL     1      -7.314  49.627  -1.862  1.00  0.00     0.210 HD
ENDBRANCH  11  27
TORSDOF 10
ENDMDL
