MODEL 1
REMARK VINA RESULT: -6.908468571      0.000      0.000
REMARK  9 active torsions:
REMARK  status: ('A' for Active; 'I' for Inactive)
REMARK    1  A    between atoms: C2_2  and  C3_3 
REMARK    2  A    between atoms: C3_3  and  C4_4 
REMARK    3  A    between atoms: C4_4  and  C5_5 
REMARK    4  A    between atoms: C5_5  and  C6_6 
REMARK    5  A    between atoms: C6_6  and  C7_7 
REMARK    6  A    between atoms: N3_14  and  C11_15 
REMARK    7  A    between atoms: C15_19  and  O1_20 
REMARK    8  A    between atoms: C17_22  and  O2_23 
REMARK    9  A    between atoms: C19_25  and  O3_26 
ROOT
HETATM    1  C7  UNL     1     -13.382  44.625  -1.814  1.00  0.00     0.055 A 
HETATM    2  N1  UNL     1     -12.310  43.863  -1.888  1.00  0.00    -0.353 N 
ATOM      3  H1  UNL     1     -12.214  43.056  -2.504  1.00  0.00     0.166 HD
HETATM    4  C8  UNL     1     -11.348  44.302  -1.027  1.00  0.00     0.062 A 
HETATM    5  C9  UNL     1     -11.878  45.410  -0.385  1.00  0.00     0.088 A 
HETATM    6  C10 UNL     1     -13.151  45.624  -0.869  1.00  0.00     0.102 A 
HETATM    7  N2  UNL     1     -14.054  46.642  -0.515  1.00  0.00    -0.098 NA
HETATM    8  N3  UNL     1     -11.101  46.123   0.606  1.00  0.00    -0.343 N 
HETATM    9  C13 UNL     1      -9.805  45.648   0.881  1.00  0.00     0.051 A 
HETATM   10  C14 UNL     1      -8.995  46.255   1.805  1.00  0.00     0.070 A 
HETATM   11  C15 UNL     1      -7.736  45.754   2.043  1.00  0.00     0.106 A 
HETATM   12  C17 UNL     1      -7.248  44.647   1.377  1.00  0.00     0.136 A 
HETATM   13  C19 UNL     1      -8.040  44.018   0.445  1.00  0.00     0.117 A 
HETATM   14  C21 UNL     1      -9.319  44.534   0.208  1.00  0.00     0.029 A 
HETATM   15  C22 UNL     1     -10.133  43.845  -0.781  1.00  0.00     0.048 A 
ENDROOT
BRANCH   1  16
HETATM   16  C6  UNL     1     -14.540  44.548  -2.476  1.00  0.00     0.005 C 
BRANCH  16  17
HETATM   17  C5  UNL     1     -14.509  44.948  -3.908  1.00  0.00     0.029 C 
BRANCH  17  18
HETATM   18  C4  UNL     1     -15.896  44.927  -4.513  1.00  0.00     0.004 C 
BRANCH  18  19
HETATM   19  C3  UNL     1     -15.927  45.644  -5.830  1.00  0.00    -0.000 C 
BRANCH  19  20
HETATM   20  C2  UNL     1     -16.700  46.941  -5.783  1.00  0.00    -0.005 C 
HETATM   21  C1  UNL     1     -16.347  47.859  -6.913  1.00  0.00     0.005 C 
ENDBRANCH  19  20
ENDBRANCH  18  19
ENDBRANCH  17  18
ENDBRANCH  16  17
ENDBRANCH   1  16
BRANCH   8  22
HETATM   22  C11 UNL     1     -11.648  47.247   1.301  1.00  0.00     0.125 C 
HETATM   23  C12 UNL     1     -11.190  48.531   0.597  1.00  0.00     0.027 C 
ENDBRANCH   8  22
BRANCH  13  24
HETATM   24  O3  UNL     1      -7.600  42.904  -0.252  1.00  0.00    -0.352 OA
HETATM   25  C20 UNL     1      -7.677  41.633   0.398  1.00  0.00     0.210 C 
ENDBRANCH  13  24
BRANCH  12  26
HETATM   26  O2  UNL     1      -5.959  44.191   1.667  1.00  0.00    -0.351 OA
HETATM   27  C18 UNL     1      -5.800  43.366   2.804  1.00  0.00     0.210 C 
ENDBRANCH  12  26
BRANCH  11  28
HETATM   28  O1  UNL     1      -6.905  46.362   2.980  1.00  0.00    -0.353 OA
HETATM   29  C16 UNL     1      -6.296  47.621   2.656  1.00  0.00     0.210 C 
ENDBRANCH  11  28
TORSDOF 9
ENDMDL
MODEL 2
REMARK VINA RESULT: -6.839286180      1.914      3.844
REMARK  9 active torsions:
REMARK  status: ('A' for Active; 'I' for Inactive)
REMARK    1  A    between atoms: C2_2  and  C3_3 
REMARK    2  A    between atoms: C3_3  and  C4_4 
REMARK    3  A    between atoms: C4_4  and  C5_5 
REMARK    4  A    between atoms: C5_5  and  C6_6 
REMARK    5  A    between atoms: C6_6  and  C7_7 
REMARK    6  A    between atoms: N3_14  and  C11_15 
REMARK    7  A    between atoms: C15_19  and  O1_20 
REMARK    8  A    between atoms: C17_22  and  O2_23 
REMARK    9  A    between atoms: C19_25  and  O3_26 
ROOT
HETATM    1  C7  UNL     1     -12.401  44.344  -1.399  1.00  0.00     0.055 A 
HETATM    2  N1  UNL     1     -12.728  45.196  -0.450  1.00  0.00    -0.353 N 
ATOM      3  H1  UNL     1     -13.676  45.523  -0.265  1.00  0.00     0.166 HD
HETATM    4  C8  UNL     1     -11.622  45.581   0.250  1.00  0.00     0.062 A 
HETATM    5  C9  UNL     1     -10.550  44.914  -0.319  1.00  0.00     0.088 A 
HETATM    6  C10 UNL     1     -11.024  44.134  -1.352  1.00  0.00     0.102 A 
HETATM    7  N2  UNL     1     -10.296  43.278  -2.198  1.00  0.00    -0.098 NA
HETATM    8  N3  UNL     1      -9.212  45.103   0.198  1.00  0.00    -0.343 N 
HETATM    9  C13 UNL     1      -9.054  45.981   1.287  1.00  0.00     0.051 A 
HETATM   10  C14 UNL     1      -7.825  46.227   1.842  1.00  0.00     0.070 A 
HETATM   11  C15 UNL     1      -7.718  47.095   2.904  1.00  0.00     0.106 A 
HETATM   12  C17 UNL     1      -8.816  47.738   3.442  1.00  0.00     0.136 A 
HETATM   13  C19 UNL     1     -10.061  47.510   2.902  1.00  0.00     0.117 A 
HETATM   14  C21 UNL     1     -10.162  46.625   1.822  1.00  0.00     0.029 A 
HETATM   15  C22 UNL     1     -11.491  46.408   1.274  1.00  0.00     0.048 A 
ENDROOT
BRANCH   1  16
HETATM   16  C6  UNL     1     -13.169  43.727  -2.303  1.00  0.00     0.005 C 
BRANCH  16  17
HETATM   17  C5  UNL     1     -13.980  44.604  -3.188  1.00  0.00     0.029 C 
BRANCH  17  18
HETATM   18  C4  UNL     1     -15.450  44.528  -2.837  1.00  0.00     0.004 C 
BRANCH  18  19
HETATM   19  C3  UNL     1     -16.285  45.297  -3.817  1.00  0.00    -0.000 C 
BRANCH  19  20
HETATM   20  C2  UNL     1     -15.769  45.212  -5.234  1.00  0.00    -0.005 C 
HETATM   21  C1  UNL     1     -16.116  46.424  -6.044  1.00  0.00     0.005 C 
ENDBRANCH  19  20
ENDBRANCH  18  19
ENDBRANCH  17  18
ENDBRANCH  16  17
ENDBRANCH   1  16
BRANCH   8  22
HETATM   22  C11 UNL     1      -8.091  44.447  -0.402  1.00  0.00     0.125 C 
HETATM   23  C12 UNL     1      -7.880  43.098   0.298  1.00  0.00     0.027 C 
ENDBRANCH   8  22
BRANCH  13  24
HETATM   24  O3  UNL     1     -11.196  48.129   3.402  1.00  0.00    -0.352 OA
HETATM   25  C20 UNL     1     -11.435  49.489   3.033  1.00  0.00     0.210 C 
ENDBRANCH  13  24
BRANCH  12  26
HETATM   26  O2  UNL     1      -8.636  48.607   4.521  1.00  0.00    -0.351 OA
HETATM   27  C18 UNL     1      -8.831  48.082   5.819  1.00  0.00     0.210 C 
ENDBRANCH  12  26
BRANCH  11  28
HETATM   28  O1  UNL     1      -6.476  47.352   3.478  1.00  0.00    -0.353 OA
HETATM   29  C16 UNL     1      -5.813  46.305   4.201  1.00  0.00     0.210 C 
ENDBRANCH  11  28
TORSDOF 9
ENDMDL
MODEL 3
REMARK VINA RESULT: -6.379056251      1.629      3.591
REMARK  9 active torsions:
REMARK  status: ('A' for Active; 'I' for Inactive)
REMARK    1  A    between atoms: C2_2  and  C3_3 
REMARK    2  A    between atoms: C3_3  and  C4_4 
REMARK    3  A    between atoms: C4_4  and  C5_5 
REMARK    4  A    between atoms: C5_5  and  C6_6 
REMARK    5  A    between atoms: C6_6  and  C7_7 
REMARK    6  A    between atoms: N3_14  and  C11_15 
REMARK    7  A    between atoms: C15_19  and  O1_20 
REMARK    8  A    between atoms: C17_22  and  O2_23 
REMARK    9  A    between atoms: C19_25  and  O3_26 
ROOT
HETATM    1  C7  UNL     1     -13.290  44.684  -1.925  1.00  0.00     0.055 A 
HETATM    2  N1  UNL     1     -13.315  45.752  -1.155  1.00  0.00    -0.353 N 
ATOM      3  H1  UNL     1     -14.078  46.429  -1.127  1.00  0.00     0.166 HD
HETATM    4  C8  UNL     1     -12.182  45.827  -0.400  1.00  0.00     0.062 A 
HETATM    5  C9  UNL     1     -11.415  44.724  -0.741  1.00  0.00     0.088 A 
HETATM    6  C10 UNL     1     -12.097  43.999  -1.695  1.00  0.00     0.102 A 
HETATM    7  N2  UNL     1     -11.707  42.801  -2.318  1.00  0.00    -0.098 NA
HETATM    8  N3  UNL     1     -10.131  44.502  -0.112  1.00  0.00    -0.343 N 
HETATM    9  C13 UNL     1      -9.706  45.442   0.847  1.00  0.00     0.051 A 
HETATM   10  C14 UNL     1      -8.505  45.318   1.494  1.00  0.00     0.070 A 
HETATM   11  C15 UNL     1      -8.129  46.262   2.421  1.00  0.00     0.106 A 
HETATM   12  C17 UNL     1      -8.927  47.346   2.732  1.00  0.00     0.136 A 
HETATM   13  C19 UNL     1     -10.138  47.494   2.097  1.00  0.00     0.117 A 
HETATM   14  C21 UNL     1     -10.514  46.529   1.154  1.00  0.00     0.029 A 
HETATM   15  C22 UNL     1     -11.798  46.717   0.499  1.00  0.00     0.048 A 
ENDROOT
BRANCH   1  16
HETATM   16  C6  UNL     1     -14.188  44.239  -2.809  1.00  0.00     0.005 C 
BRANCH  16  17
HETATM   17  C5  UNL     1     -15.616  44.502  -2.488  1.00  0.00     0.029 C 
BRANCH  17  18
HETATM   18  C4  UNL     1     -16.261  45.381  -3.537  1.00  0.00     0.004 C 
BRANCH  18  19
HETATM   19  C3  UNL     1     -15.919  44.917  -4.922  1.00  0.00    -0.000 C 
BRANCH  19  20
HETATM   20  C2  UNL     1     -15.983  46.021  -5.951  1.00  0.00    -0.005 C 
HETATM   21  C1  UNL     1     -17.038  47.037  -5.637  1.00  0.00     0.005 C 
ENDBRANCH  19  20
ENDBRANCH  18  19
ENDBRANCH  17  18
ENDBRANCH  16  17
ENDBRANCH   1  16
BRANCH   8  22
HETATM   22  C11 UNL     1      -9.314  43.387  -0.479  1.00  0.00     0.125 C 
HETATM   23  C12 UNL     1      -8.363  43.825  -1.601  1.00  0.00     0.027 C 
ENDBRANCH   8  22
BRANCH  13  24
HETATM   24  O3  UNL     1     -10.978  48.562   2.370  1.00  0.00    -0.352 OA
HETATM   25  C20 UNL     1     -10.728  49.799   1.699  1.00  0.00     0.210 C 
ENDBRANCH  13  24
BRANCH  12  26
HETATM   26  O2  UNL     1      -8.484  48.267   3.685  1.00  0.00    -0.351 OA
HETATM   27  C18 UNL     1      -8.998  48.146   4.996  1.00  0.00     0.210 C 
ENDBRANCH  12  26
BRANCH  11  28
HETATM   28  O1  UNL     1      -6.910  46.147   3.086  1.00  0.00    -0.353 OA
HETATM   29  C16 UNL     1      -5.907  45.271   2.552  1.00  0.00     0.210 C 
ENDBRANCH  11  28
TORSDOF 9
ENDMDL
MODEL 4
REMARK VINA RESULT: -6.244522266      1.447      1.919
REMARK  9 active torsions:
REMARK  status: ('A' for Active; 'I' for Inactive)
REMARK    1  A    between atoms: C2_2  and  C3_3 
REMARK    2  A    between atoms: C3_3  and  C4_4 
REMARK    3  A    between atoms: C4_4  and  C5_5 
REMARK    4  A    between atoms: C5_5  and  C6_6 
REMARK    5  A    between atoms: C6_6  and  C7_7 
REMARK    6  A    between atoms: N3_14  and  C11_15 
REMARK    7  A    between atoms: C15_19  and  O1_20 
REMARK    8  A    between atoms: C17_22  and  O2_23 
REMARK    9  A    between atoms: C19_25  and  O3_26 
ROOT
HETATM    1  C7  UNL     1     -14.271  44.498  -3.223  1.00  0.00     0.055 A 
HETATM    2  N1  UNL     1     -13.007  44.131  -3.276  1.00  0.00    -0.353 N 
ATOM      3  H1  UNL     1     -12.601  43.554  -4.012  1.00  0.00     0.166 HD
HETATM    4  C8  UNL     1     -12.318  44.627  -2.208  1.00  0.00     0.062 A 
HETATM    5  C9  UNL     1     -13.233  45.345  -1.455  1.00  0.00     0.088 A 
HETATM    6  C10 UNL     1     -14.461  45.274  -2.080  1.00  0.00     0.102 A 
HETATM    7  N2  UNL     1     -15.673  45.863  -1.682  1.00  0.00    -0.098 NA
HETATM    8  N3  UNL     1     -12.820  46.010  -0.239  1.00  0.00    -0.343 N 
HETATM    9  C13 UNL     1     -11.468  45.896   0.137  1.00  0.00     0.051 A 
HETATM   10  C14 UNL     1     -10.983  46.487   1.274  1.00  0.00     0.070 A 
HETATM   11  C15 UNL     1      -9.655  46.346   1.603  1.00  0.00     0.106 A 
HETATM   12  C17 UNL     1      -8.777  45.621   0.821  1.00  0.00     0.136 A 
HETATM   13  C19 UNL     1      -9.238  45.017  -0.325  1.00  0.00     0.117 A 
HETATM   14  C21 UNL     1     -10.590  45.165  -0.654  1.00  0.00     0.029 A 
HETATM   15  C22 UNL     1     -11.046  44.512  -1.870  1.00  0.00     0.048 A 
ENDROOT
BRANCH   1  16
HETATM   16  C6  UNL     1     -15.280  44.232  -4.059  1.00  0.00     0.005 C 
BRANCH  16  17
HETATM   17  C5  UNL     1     -15.523  45.226  -5.137  1.00  0.00     0.029 C 
BRANCH  17  18
HETATM   18  C4  UNL     1     -17.004  45.446  -5.357  1.00  0.00     0.004 C 
BRANCH  18  19
HETATM   19  C3  UNL     1     -17.308  46.893  -5.611  1.00  0.00    -0.000 C 
BRANCH  19  20
HETATM   20  C2  UNL     1     -16.380  47.527  -6.620  1.00  0.00    -0.005 C 
HETATM   21  C1  UNL     1     -16.217  49.000  -6.401  1.00  0.00     0.005 C 
ENDBRANCH  19  20
ENDBRANCH  18  19
ENDBRANCH  17  18
ENDBRANCH  16  17
ENDBRANCH   1  16
BRANCH   8  22
HETATM   22  C11 UNL     1     -13.761  46.726   0.566  1.00  0.00     0.125 C 
HETATM   23  C12 UNL     1     -13.797  48.187   0.097  1.00  0.00     0.027 C 
ENDBRANCH   8  22
BRANCH  13  24
HETATM   24  O3  UNL     1      -8.400  44.278  -1.146  1.00  0.00    -0.352 OA
HETATM   25  C20 UNL     1      -8.269  42.879  -0.884  1.00  0.00     0.210 C 
ENDBRANCH  13  24
BRANCH  12  26
HETATM   26  O2  UNL     1      -7.440  45.519   1.214  1.00  0.00    -0.351 OA
HETATM   27  C18 UNL     1      -7.099  44.471   2.099  1.00  0.00     0.210 C 
ENDBRANCH  12  26
BRANCH  11  28
HETATM   28  O1  UNL     1      -9.151  46.943   2.756  1.00  0.00    -0.353 OA
HETATM   29  C16 UNL     1      -9.440  48.326   3.007  1.00  0.00     0.210 C 
ENDBRANCH  11  28
TORSDOF 9
ENDMDL
MODEL 5
REMARK VINA RESULT: -6.174333822      2.391      3.201
REMARK  9 active torsions:
REMARK  status: ('A' for Active; 'I' for Inactive)
REMARK    1  A    between atoms: C2_2  and  C3_3 
REMARK    2  A    between atoms: C3_3  and  C4_4 
REMARK    3  A    between atoms: C4_4  and  C5_5 
REMARK    4  A    between atoms: C5_5  and  C6_6 
REMARK    5  A    between atoms: C6_6  and  C7_7 
REMARK    6  A    between atoms: N3_14  and  C11_15 
REMARK    7  A    between atoms: C15_19  and  O1_20 
REMARK    8  A    between atoms: C17_22  and  O2_23 
REMARK    9  A    between atoms: C19_25  and  O3_26 
ROOT
HETATM    1  C7  UNL     1     -12.682  45.939   0.511  1.00  0.00     0.055 A 
HETATM    2  N1  UNL     1     -11.902  44.936   0.860  1.00  0.00    -0.353 N 
ATOM      3  H1  UNL     1     -12.206  43.965   0.936  1.00  0.00     0.166 HD
HETATM    4  C8  UNL     1     -10.635  45.375   1.104  1.00  0.00     0.062 A 
HETATM    5  C9  UNL     1     -10.649  46.744   0.890  1.00  0.00     0.088 A 
HETATM    6  C10 UNL     1     -11.925  47.111   0.516  1.00  0.00     0.102 A 
HETATM    7  N2  UNL     1     -12.399  48.393   0.186  1.00  0.00    -0.098 NA
HETATM    8  N3  UNL     1      -9.445  47.526   1.065  1.00  0.00    -0.343 N 
HETATM    9  C13 UNL     1      -8.278  46.843   1.456  1.00  0.00     0.051 A 
HETATM   10  C14 UNL     1      -7.090  47.498   1.650  1.00  0.00     0.070 A 
HETATM   11  C15 UNL     1      -5.975  46.790   2.036  1.00  0.00     0.106 A 
HETATM   12  C17 UNL     1      -6.006  45.424   2.237  1.00  0.00     0.136 A 
HETATM   13  C19 UNL     1      -7.186  44.742   2.050  1.00  0.00     0.117 A 
HETATM   14  C21 UNL     1      -8.316  45.469   1.657  1.00  0.00     0.029 A 
HETATM   15  C22 UNL     1      -9.547  44.719   1.471  1.00  0.00     0.048 A 
ENDROOT
BRANCH   1  16
HETATM   16  C6  UNL     1     -13.979  45.950   0.190  1.00  0.00     0.005 C 
BRANCH  16  17
HETATM   17  C5  UNL     1     -14.299  46.011  -1.261  1.00  0.00     0.029 C 
BRANCH  17  18
HETATM   18  C4  UNL     1     -14.184  44.647  -1.906  1.00  0.00     0.004 C 
BRANCH  18  19
HETATM   19  C3  UNL     1     -12.891  44.506  -2.654  1.00  0.00    -0.000 C 
BRANCH  19  20
HETATM   20  C2  UNL     1     -12.141  43.241  -2.312  1.00  0.00    -0.005 C 
HETATM   21  C1  UNL     1     -10.674  43.478  -2.119  1.00  0.00     0.005 C 
ENDBRANCH  19  20
ENDBRANCH  18  19
ENDBRANCH  17  18
ENDBRANCH  16  17
ENDBRANCH   1  16
BRANCH   8  22
HETATM   22  C11 UNL     1      -9.455  48.945   0.880  1.00  0.00     0.125 C 
HETATM   23  C12 UNL     1      -9.116  49.251  -0.585  1.00  0.00     0.027 C 
ENDBRANCH   8  22
BRANCH  13  24
HETATM   24  O3  UNL     1      -7.273  43.372   2.238  1.00  0.00    -0.352 OA
HETATM   25  C20 UNL     1      -6.885  42.520   1.158  1.00  0.00     0.210 C 
ENDBRANCH  13  24
BRANCH  12  26
HETATM   26  O2  UNL     1      -4.836  44.767   2.627  1.00  0.00    -0.351 OA
HETATM   27  C18 UNL     1      -4.641  44.550   4.011  1.00  0.00     0.210 C 
ENDBRANCH  12  26
BRANCH  11  28
HETATM   28  O1  UNL     1      -4.763  47.444   2.236  1.00  0.00    -0.353 OA
HETATM   29  C16 UNL     1      -4.064  47.976   1.101  1.00  0.00     0.210 C 
ENDBRANCH  11  28
TORSDOF 9
ENDMDL
