MODEL 1
REMARK VINA RESULT: -6.482911190      0.000      0.000
REMARK  11 active torsions:
REMARK  status: ('A' for Active; 'I' for Inactive)
REMARK    1  A    between atoms: C2_2  and  C3_3 
REMARK    2  A    between atoms: C3_3  and  C4_4 
REMARK    3  A    between atoms: C4_4  and  C5_5 
REMARK    4  A    between atoms: C5_5  and  C6_6 
REMARK    5  A    between atoms: C6_6  and  C7_7 
REMARK       I    between atoms: C7_7  and  N1_9 
REMARK    6  A    between atoms: N1_9  and  C8_11 
REMARK    7  A    between atoms: C8_11  and  C9_12 
REMARK    8  A    between atoms: C10_13  and  C11_14 
REMARK    9  A    between atoms: C11_14  and  O2_15 
REMARK   10  A    between atoms: O2_15  and  N2_16 
REMARK   11  A    between atoms: C19_25  and  O3_26 
ROOT
HETATM    1  N2  UNL     1      -7.225  45.823   2.939  1.00  0.00    -0.247 N 
ATOM      2  H2  UNL     1      -7.645  45.632   3.848  1.00  0.00     0.196 HD
HETATM    3  C12 UNL     1      -7.982  46.272   2.000  1.00  0.00     0.138 C 
HETATM    4  C13 UNL     1      -7.518  46.597   0.625  1.00  0.00     0.086 C 
HETATM    5  C14 UNL     1      -8.096  47.958   0.286  1.00  0.00     0.016 C 
HETATM    6  C15 UNL     1      -9.594  48.011   0.379  1.00  0.00     0.026 C 
HETATM    7  C16 UNL     1     -10.107  46.795   1.085  1.00  0.00     0.135 C 
HETATM    8  C17 UNL     1     -11.572  46.811   1.360  1.00  0.00     0.035 C 
HETATM    9  C18 UNL     1     -12.220  48.115   0.907  1.00  0.00     0.035 C 
HETATM   10  C19 UNL     1     -11.432  49.226   1.590  1.00  0.00     0.126 C 
HETATM   11  C20 UNL     1     -10.073  49.304   0.941  1.00  0.00    -0.016 C 
HETATM   12  C21 UNL     1      -9.133  49.940   1.928  1.00  0.00     0.018 C 
HETATM   13  C22 UNL     1     -10.212  50.295  -0.221  1.00  0.00     0.018 C 
HETATM   14  O4  UNL     1      -9.333  46.479   2.254  1.00  0.00    -0.332 OA
ENDROOT
BRANCH   1  15
HETATM   15  O2  UNL     1      -5.891  45.591   2.781  1.00  0.00    -0.267 OA
BRANCH  15  16
HETATM   16  C11 UNL     1      -5.402  44.289   3.048  1.00  0.00     0.294 C 
BRANCH  16  17
HETATM   17  C10 UNL     1      -6.156  43.379   2.167  1.00  0.00    -0.076 C 
HETATM   18  C9  UNL     1      -6.785  42.651   1.443  1.00  0.00    -0.085 C 
BRANCH  18  19
HETATM   19  C8  UNL     1      -7.547  41.785   0.547  1.00  0.00     0.217 C 
BRANCH  19  20
HETATM   20  N1  UNL     1      -8.202  42.582  -0.483  1.00  0.00    -0.351 N 
HETATM   21  C7  UNL     1      -9.368  43.318  -0.263  1.00  0.00     0.218 C 
HETATM   22  O1  UNL     1      -9.912  43.321   0.864  1.00  0.00    -0.274 OA
ATOM     23  H1  UNL     1      -7.785  42.604  -1.414  1.00  0.00     0.163 HD
BRANCH  21  24
HETATM   24  C6  UNL     1      -9.975  44.103  -1.356  1.00  0.00     0.103 C 
BRANCH  24  25
HETATM   25  C5  UNL     1     -11.479  44.086  -1.250  1.00  0.00     0.009 C 
BRANCH  25  26
HETATM   26  C4  UNL     1     -12.113  43.453  -2.450  1.00  0.00     0.000 C 
BRANCH  26  27
HETATM   27  C3  UNL     1     -12.977  44.520  -3.130  1.00  0.00    -0.000 C 
BRANCH  27  28
HETATM   28  C2  UNL     1     -14.106  44.938  -2.183  1.00  0.00    -0.005 C 
HETATM   29  C1  UNL     1     -15.423  44.579  -2.813  1.00  0.00     0.005 C 
ENDBRANCH  27  28
ENDBRANCH  26  27
ENDBRANCH  25  26
ENDBRANCH  24  25
ENDBRANCH  21  24
ENDBRANCH  19  20
ENDBRANCH  18  19
ENDBRANCH  16  17
ENDBRANCH  15  16
ENDBRANCH   1  15
BRANCH  10  30
HETATM   30  O3  UNL     1     -12.107  50.423   1.608  1.00  0.00    -0.395 OA
ATOM     31  H3  UNL     1     -11.526  51.172   1.666  1.00  0.00     0.210 HD
ENDBRANCH  10  30
TORSDOF 11
ENDMDL
MODEL 2
REMARK VINA RESULT: -6.309073105      1.875      5.142
REMARK  11 active torsions:
REMARK  status: ('A' for Active; 'I' for Inactive)
REMARK    1  A    between atoms: C2_2  and  C3_3 
REMARK    2  A    between atoms: C3_3  and  C4_4 
REMARK    3  A    between atoms: C4_4  and  C5_5 
REMARK    4  A    between atoms: C5_5  and  C6_6 
REMARK    5  A    between atoms: C6_6  and  C7_7 
REMARK       I    between atoms: C7_7  and  N1_9 
REMARK    6  A    between atoms: N1_9  and  C8_11 
REMARK    7  A    between atoms: C8_11  and  C9_12 
REMARK    8  A    between atoms: C10_13  and  C11_14 
REMARK    9  A    between atoms: C11_14  and  O2_15 
REMARK   10  A    between atoms: O2_15  and  N2_16 
REMARK   11  A    between atoms: C19_25  and  O3_26 
ROOT
HETATM    1  N2  UNL     1      -8.596  42.698  -0.172  1.00  0.00    -0.247 N 
ATOM      2  H2  UNL     1      -9.100  41.827  -0.007  1.00  0.00     0.196 HD
HETATM    3  C12 UNL     1      -9.267  43.729  -0.545  1.00  0.00     0.138 C 
HETATM    4  C13 UNL     1      -8.677  45.065  -0.825  1.00  0.00     0.086 C 
HETATM    5  C14 UNL     1      -9.549  46.080  -0.111  1.00  0.00     0.016 C 
HETATM    6  C15 UNL     1     -10.991  46.026  -0.528  1.00  0.00     0.026 C 
HETATM    7  C16 UNL     1     -11.253  44.778  -1.310  1.00  0.00     0.135 C 
HETATM    8  C17 UNL     1     -12.685  44.552  -1.654  1.00  0.00     0.035 C 
HETATM    9  C18 UNL     1     -13.587  45.632  -1.066  1.00  0.00     0.035 C 
HETATM   10  C19 UNL     1     -13.286  45.652   0.428  1.00  0.00     0.126 C 
HETATM   11  C20 UNL     1     -11.913  46.245   0.621  1.00  0.00    -0.016 C 
HETATM   12  C21 UNL     1     -11.387  45.754   1.942  1.00  0.00     0.018 C 
HETATM   13  C22 UNL     1     -12.119  47.757   0.774  1.00  0.00     0.018 C 
HETATM   14  O4  UNL     1     -10.644  43.623  -0.709  1.00  0.00    -0.332 OA
ENDROOT
BRANCH   1  15
HETATM   15  O2  UNL     1      -7.245  42.708   0.015  1.00  0.00    -0.267 OA
BRANCH  15  16
HETATM   16  C11 UNL     1      -6.743  42.363   1.293  1.00  0.00     0.294 C 
BRANCH  16  17
HETATM   17  C10 UNL     1      -6.675  43.620   2.061  1.00  0.00    -0.076 C 
HETATM   18  C9  UNL     1      -6.636  44.652   2.678  1.00  0.00    -0.085 C 
BRANCH  18  19
HETATM   19  C8  UNL     1      -6.613  45.903   3.433  1.00  0.00     0.217 C 
BRANCH  19  20
HETATM   20  N1  UNL     1      -7.765  46.723   3.078  1.00  0.00    -0.351 N 
HETATM   21  C7  UNL     1      -7.662  48.025   2.586  1.00  0.00     0.218 C 
HETATM   22  O1  UNL     1      -6.540  48.555   2.424  1.00  0.00    -0.274 OA
ATOM     23  H1  UNL     1      -8.696  46.323   3.196  1.00  0.00     0.163 HD
BRANCH  21  24
HETATM   24  C6  UNL     1      -8.876  48.796   2.248  1.00  0.00     0.103 C 
BRANCH  24  25
HETATM   25  C5  UNL     1      -8.546  49.911   1.289  1.00  0.00     0.009 C 
BRANCH  25  26
HETATM   26  C4  UNL     1      -9.001  49.597  -0.103  1.00  0.00     0.000 C 
BRANCH  26  27
HETATM   27  C3  UNL     1      -7.800  49.793  -1.034  1.00  0.00    -0.000 C 
BRANCH  27  28
HETATM   28  C2  UNL     1      -6.969  48.508  -1.068  1.00  0.00    -0.005 C 
HETATM   29  C1  UNL     1      -5.546  48.860  -1.401  1.00  0.00     0.005 C 
ENDBRANCH  27  28
ENDBRANCH  26  27
ENDBRANCH  25  26
ENDBRANCH  24  25
ENDBRANCH  21  24
ENDBRANCH  19  20
ENDBRANCH  18  19
ENDBRANCH  16  17
ENDBRANCH  15  16
ENDBRANCH   1  15
BRANCH  10  30
HETATM   30  O3  UNL     1     -14.268  46.278   1.159  1.00  0.00    -0.395 OA
ATOM     31  H3  UNL     1     -13.925  46.954   1.732  1.00  0.00     0.210 HD
ENDBRANCH  10  30
TORSDOF 11
ENDMDL
MODEL 3
REMARK VINA RESULT: -6.269042819      3.019      6.029
REMARK  11 active torsions:
REMARK  status: ('A' for Active; 'I' for Inactive)
REMARK    1  A    between atoms: C2_2  and  C3_3 
REMARK    2  A    between atoms: C3_3  and  C4_4 
REMARK    3  A    between atoms: C4_4  and  C5_5 
REMARK    4  A    between atoms: C5_5  and  C6_6 
REMARK    5  A    between atoms: C6_6  and  C7_7 
REMARK       I    between atoms: C7_7  and  N1_9 
REMARK    6  A    between atoms: N1_9  and  C8_11 
REMARK    7  A    between atoms: C8_11  and  C9_12 
REMARK    8  A    between atoms: C10_13  and  C11_14 
REMARK    9  A    between atoms: C11_14  and  O2_15 
REMARK   10  A    between atoms: O2_15  and  N2_16 
REMARK   11  A    between atoms: C19_25  and  O3_26 
ROOT
HETATM    1  N2  UNL     1      -6.430  42.673   1.283  1.00  0.00    -0.247 N 
ATOM      2  H2  UNL     1      -6.044  41.739   1.420  1.00  0.00     0.196 HD
HETATM    3  C12 UNL     1      -6.258  43.546   2.212  1.00  0.00     0.138 C 
HETATM    4  C13 UNL     1      -6.762  44.944   2.159  1.00  0.00     0.086 C 
HETATM    5  C14 UNL     1      -5.608  45.834   2.579  1.00  0.00     0.016 C 
HETATM    6  C15 UNL     1      -5.064  45.504   3.940  1.00  0.00     0.026 C 
HETATM    7  C16 UNL     1      -5.596  44.183   4.399  1.00  0.00     0.135 C 
HETATM    8  C17 UNL     1      -5.010  43.690   5.677  1.00  0.00     0.035 C 
HETATM    9  C18 UNL     1      -3.934  44.631   6.208  1.00  0.00     0.035 C 
HETATM   10  C19 UNL     1      -2.933  44.796   5.071  1.00  0.00     0.126 C 
HETATM   11  C20 UNL     1      -3.581  45.630   3.994  1.00  0.00    -0.016 C 
HETATM   12  C21 UNL     1      -2.883  45.321   2.698  1.00  0.00     0.018 C 
HETATM   13  C22 UNL     1      -3.247  47.090   4.326  1.00  0.00     0.018 C 
HETATM   14  O4  UNL     1      -5.557  43.192   3.359  1.00  0.00    -0.332 OA
ENDROOT
BRANCH   1  15
HETATM   15  O2  UNL     1      -7.103  42.930   0.125  1.00  0.00    -0.267 OA
BRANCH  15  16
HETATM   16  C11 UNL     1      -8.361  42.309  -0.070  1.00  0.00     0.294 C 
BRANCH  16  17
HETATM   17  C10 UNL     1      -9.374  43.293   0.352  1.00  0.00    -0.076 C 
HETATM   18  C9  UNL     1     -10.210  44.082   0.709  1.00  0.00    -0.085 C 
BRANCH  18  19
HETATM   19  C8  UNL     1     -11.219  45.035   1.166  1.00  0.00     0.217 C 
BRANCH  19  20
HETATM   20  N1  UNL     1     -12.100  45.398   0.063  1.00  0.00    -0.351 N 
HETATM   21  C7  UNL     1     -13.462  45.663   0.219  1.00  0.00     0.218 C 
HETATM   22  O1  UNL     1     -13.996  45.596   1.349  1.00  0.00    -0.274 OA
ATOM     23  H1  UNL     1     -11.699  45.464  -0.873  1.00  0.00     0.163 HD
BRANCH  21  24
HETATM   24  C6  UNL     1     -14.293  46.025  -0.946  1.00  0.00     0.103 C 
BRANCH  24  25
HETATM   25  C5  UNL     1     -14.020  45.098  -2.103  1.00  0.00     0.009 C 
BRANCH  25  26
HETATM   26  C4  UNL     1     -15.265  44.402  -2.561  1.00  0.00     0.000 C 
BRANCH  26  27
HETATM   27  C3  UNL     1     -15.368  44.598  -4.078  1.00  0.00    -0.000 C 
BRANCH  27  28
HETATM   28  C2  UNL     1     -16.413  45.675  -4.380  1.00  0.00    -0.005 C 
HETATM   29  C1  UNL     1     -16.183  46.195  -5.772  1.00  0.00     0.005 C 
ENDBRANCH  27  28
ENDBRANCH  26  27
ENDBRANCH  25  26
ENDBRANCH  24  25
ENDBRANCH  21  24
ENDBRANCH  19  20
ENDBRANCH  18  19
ENDBRANCH  16  17
ENDBRANCH  15  16
ENDBRANCH   1  15
BRANCH  10  30
HETATM   30  O3  UNL     1      -1.721  45.285   5.497  1.00  0.00    -0.395 OA
ATOM     31  H3  UNL     1      -1.070  44.603   5.615  1.00  0.00     0.210 HD
ENDBRANCH  10  30
TORSDOF 11
ENDMDL
MODEL 4
REMARK VINA RESULT: -6.198268000      2.289      6.071
REMARK  11 active torsions:
REMARK  status: ('A' for Active; 'I' for Inactive)
REMARK    1  A    between atoms: C2_2  and  C3_3 
REMARK    2  A    between atoms: C3_3  and  C4_4 
REMARK    3  A    between atoms: C4_4  and  C5_5 
REMARK    4  A    between atoms: C5_5  and  C6_6 
REMARK    5  A    between atoms: C6_6  and  C7_7 
REMARK       I    between atoms: C7_7  and  N1_9 
REMARK    6  A    between atoms: N1_9  and  C8_11 
REMARK    7  A    between atoms: C8_11  and  C9_12 
REMARK    8  A    between atoms: C10_13  and  C11_14 
REMARK    9  A    between atoms: C11_14  and  O2_15 
REMARK   10  A    between atoms: O2_15  and  N2_16 
REMARK   11  A    between atoms: C19_25  and  O3_26 
ROOT
HETATM    1  N2  UNL     1     -11.166  48.657   1.387  1.00  0.00    -0.247 N 
ATOM      2  H2  UNL     1     -11.456  49.414   0.769  1.00  0.00     0.196 HD
HETATM    3  C12 UNL     1     -11.582  47.467   1.131  1.00  0.00     0.138 C 
HETATM    4  C13 UNL     1     -11.247  46.264   1.938  1.00  0.00     0.086 C 
HETATM    5  C14 UNL     1     -10.838  45.185   0.954  1.00  0.00     0.016 C 
HETATM    6  C15 UNL     1     -11.895  44.876  -0.067  1.00  0.00     0.026 C 
HETATM    7  C16 UNL     1     -12.956  45.930  -0.041  1.00  0.00     0.135 C 
HETATM    8  C17 UNL     1     -13.984  45.799  -1.112  1.00  0.00     0.035 C 
HETATM    9  C18 UNL     1     -13.682  44.635  -2.050  1.00  0.00     0.035 C 
HETATM   10  C19 UNL     1     -12.263  44.869  -2.554  1.00  0.00     0.126 C 
HETATM   11  C20 UNL     1     -11.312  44.613  -1.412  1.00  0.00    -0.016 C 
HETATM   12  C21 UNL     1     -10.043  45.368  -1.699  1.00  0.00     0.018 C 
HETATM   13  C22 UNL     1     -10.953  43.123  -1.483  1.00  0.00     0.018 C 
HETATM   14  O4  UNL     1     -12.404  47.255   0.030  1.00  0.00    -0.332 OA
ENDROOT
BRANCH   1  15
HETATM   15  O2  UNL     1     -10.357  48.959   2.443  1.00  0.00    -0.267 OA
BRANCH  15  16
HETATM   16  C11 UNL     1      -8.984  49.191   2.190  1.00  0.00     0.294 C 
BRANCH  16  17
HETATM   17  C10 UNL     1      -8.244  48.426   3.210  1.00  0.00    -0.076 C 
HETATM   18  C9  UNL     1      -7.626  47.817   4.045  1.00  0.00    -0.085 C 
BRANCH  18  19
HETATM   19  C8  UNL     1      -6.878  47.098   5.073  1.00  0.00     0.217 C 
BRANCH  19  20
HETATM   20  N1  UNL     1      -6.786  45.685   4.729  1.00  0.00    -0.351 N 
HETATM   21  C7  UNL     1      -5.658  44.901   4.980  1.00  0.00     0.218 C 
HETATM   22  O1  UNL     1      -4.650  45.400   5.528  1.00  0.00    -0.274 OA
ATOM     23  H1  UNL     1      -7.591  45.244   4.282  1.00  0.00     0.163 HD
BRANCH  21  24
HETATM   24  C6  UNL     1      -5.638  43.474   4.602  1.00  0.00     0.103 C 
BRANCH  24  25
HETATM   25  C5  UNL     1      -6.753  43.165   3.635  1.00  0.00     0.009 C 
BRANCH  25  26
HETATM   26  C4  UNL     1      -6.261  43.111   2.221  1.00  0.00     0.000 C 
BRANCH  26  27
HETATM   27  C3  UNL     1      -7.231  43.933   1.366  1.00  0.00    -0.000 C 
BRANCH  27  28
HETATM   28  C2  UNL     1      -7.608  43.134   0.116  1.00  0.00    -0.005 C 
HETATM   29  C1  UNL     1      -7.664  41.675   0.474  1.00  0.00     0.005 C 
ENDBRANCH  27  28
ENDBRANCH  26  27
ENDBRANCH  25  26
ENDBRANCH  24  25
ENDBRANCH  21  24
ENDBRANCH  19  20
ENDBRANCH  18  19
ENDBRANCH  16  17
ENDBRANCH  15  16
ENDBRANCH   1  15
BRANCH  10  30
HETATM   30  O3  UNL     1     -11.977  44.146  -3.687  1.00  0.00    -0.395 OA
ATOM     31  H3  UNL     1     -11.051  43.952  -3.775  1.00  0.00     0.210 HD
ENDBRANCH  10  30
TORSDOF 11
ENDMDL
MODEL 5
REMARK VINA RESULT: -6.192471750      2.439      6.430
REMARK  11 active torsions:
REMARK  status: ('A' for Active; 'I' for Inactive)
REMARK    1  A    between atoms: C2_2  and  C3_3 
REMARK    2  A    between atoms: C3_3  and  C4_4 
REMARK    3  A    between atoms: C4_4  and  C5_5 
REMARK    4  A    between atoms: C5_5  and  C6_6 
REMARK    5  A    between atoms: C6_6  and  C7_7 
REMARK       I    between atoms: C7_7  and  N1_9 
REMARK    6  A    between atoms: N1_9  and  C8_11 
REMARK    7  A    between atoms: C8_11  and  C9_12 
REMARK    8  A    between atoms: C10_13  and  C11_14 
REMARK    9  A    between atoms: C11_14  and  O2_15 
REMARK   10  A    between atoms: O2_15  and  N2_16 
REMARK   11  A    between atoms: C19_25  and  O3_26 
ROOT
HETATM    1  N2  UNL     1      -7.126  46.834   1.518  1.00  0.00    -0.247 N 
ATOM      2  H2  UNL     1      -6.768  47.787   1.462  1.00  0.00     0.196 HD
HETATM    3  C12 UNL     1      -6.365  45.925   2.019  1.00  0.00     0.138 C 
HETATM    4  C13 UNL     1      -6.744  44.495   2.167  1.00  0.00     0.086 C 
HETATM    5  C14 UNL     1      -6.360  44.091   3.578  1.00  0.00     0.016 C 
HETATM    6  C15 UNL     1      -4.905  44.302   3.885  1.00  0.00     0.026 C 
HETATM    7  C16 UNL     1      -4.274  45.146   2.824  1.00  0.00     0.135 C 
HETATM    8  C17 UNL     1      -2.863  45.537   3.101  1.00  0.00     0.035 C 
HETATM    9  C18 UNL     1      -2.391  45.031   4.460  1.00  0.00     0.035 C 
HETATM   10  C19 UNL     1      -3.406  45.553   5.470  1.00  0.00     0.126 C 
HETATM   11  C20 UNL     1      -4.693  44.791   5.276  1.00  0.00    -0.016 C 
HETATM   12  C21 UNL     1      -5.811  45.641   5.814  1.00  0.00     0.018 C 
HETATM   13  C22 UNL     1      -4.605  43.565   6.194  1.00  0.00     0.018 C 
HETATM   14  O4  UNL     1      -5.095  46.271   2.465  1.00  0.00    -0.332 OA
ENDROOT
BRANCH   1  15
HETATM   15  O2  UNL     1      -8.385  46.588   1.056  1.00  0.00    -0.267 OA
BRANCH  15  16
HETATM   16  C11 UNL     1      -9.376  47.580   1.254  1.00  0.00     0.294 C 
BRANCH  16  17
HETATM   17  C10 UNL     1     -10.670  46.874   1.254  1.00  0.00    -0.076 C 
HETATM   18  C9  UNL     1     -11.735  46.313   1.248  1.00  0.00    -0.085 C 
BRANCH  18  19
HETATM   19  C8  UNL     1     -13.032  45.640   1.215  1.00  0.00     0.217 C 
BRANCH  19  20
HETATM   20  N1  UNL     1     -13.233  45.004  -0.081  1.00  0.00    -0.351 N 
HETATM   21  C7  UNL     1     -13.902  45.614  -1.143  1.00  0.00     0.218 C 
HETATM   22  O1  UNL     1     -14.369  46.768  -1.020  1.00  0.00    -0.274 OA
ATOM     23  H1  UNL     1     -12.864  44.063  -0.219  1.00  0.00     0.163 HD
BRANCH  21  24
HETATM   24  C6  UNL     1     -14.068  44.907  -2.429  1.00  0.00     0.103 C 
BRANCH  24  25
HETATM   25  C5  UNL     1     -13.098  43.758  -2.533  1.00  0.00     0.009 C 
BRANCH  25  26
HETATM   26  C4  UNL     1     -11.728  44.223  -2.921  1.00  0.00     0.000 C 
BRANCH  26  27
HETATM   27  C3  UNL     1     -10.717  43.305  -2.225  1.00  0.00    -0.000 C 
BRANCH  27  28
HETATM   28  C2  UNL     1      -9.892  44.123  -1.227  1.00  0.00    -0.005 C 
HETATM   29  C1  UNL     1      -8.461  43.668  -1.296  1.00  0.00     0.005 C 
ENDBRANCH  27  28
ENDBRANCH  26  27
ENDBRANCH  25  26
ENDBRANCH  24  25
ENDBRANCH  21  24
ENDBRANCH  19  20
ENDBRANCH  18  19
ENDBRANCH  16  17
ENDBRANCH  15  16
ENDBRANCH   1  15
BRANCH  10  30
HETATM   30  O3  UNL     1      -2.935  45.525   6.760  1.00  0.00    -0.395 OA
ATOM     31  H3  UNL     1      -2.849  46.392   7.139  1.00  0.00     0.210 HD
ENDBRANCH  10  30
TORSDOF 11
ENDMDL
