MODEL 1
REMARK VINA RESULT: -6.603540723      0.000      0.000
REMARK  9 active torsions:
REMARK  status: ('A' for Active; 'I' for Inactive)
REMARK    1  A    between atoms: C2_2  and  O1_3 
REMARK    2  A    between atoms: O1_3  and  C3_4 
REMARK    3  A    between atoms: N2_10  and  C7_12 
REMARK    4  A    between atoms: C7_12  and  C8_13 
REMARK    5  A    between atoms: C11_16  and  C13_18 
REMARK    6  A    between atoms: C13_18  and  O2_19 
REMARK    7  A    between atoms: O2_19  and  C14_20 
REMARK    8  A    between atoms: C14_20  and  C15_21 
REMARK    9  A    between atoms: C15_21  and  O3_24 
ROOT
HETATM    1  C3  UNL     1     -12.168  44.202  -1.470  1.00  0.00     0.094 A 
HETATM    2  C4  UNL     1     -11.677  43.420  -2.475  1.00  0.00     0.055 A 
HETATM    3  C5  UNL     1     -10.353  43.053  -2.419  1.00  0.00     0.092 A 
HETATM    4  N1  UNL     1      -9.542  43.441  -1.414  1.00  0.00    -0.351 N 
ATOM      5  H1  UNL     1      -8.567  43.143  -1.419  1.00  0.00     0.166 HD
HETATM    6  C6  UNL     1      -9.984  44.207  -0.409  1.00  0.00     0.124 A 
HETATM    7  N2  UNL     1      -9.256  44.600   0.566  1.00  0.00    -0.375 N 
ATOM      8  H2  UNL     1      -9.649  45.184   1.304  1.00  0.00     0.161 HD
HETATM    9  C20 UNL     1     -11.329  44.590  -0.448  1.00  0.00     0.121 A 
HETATM   10  C21 UNL     1     -11.819  45.407   0.614  1.00  0.00     0.106 C 
HETATM   11  N3  UNL     1     -12.222  46.092   1.471  1.00  0.00    -0.191 NA
ENDROOT
BRANCH   1  12
HETATM   12  O1  UNL     1     -13.494  44.597  -1.481  1.00  0.00    -0.350 OA
BRANCH  12  13
HETATM   13  C2  UNL     1     -14.248  44.569  -2.675  1.00  0.00     0.171 C 
HETATM   14  C1  UNL     1     -15.685  44.958  -2.348  1.00  0.00     0.034 C 
ENDBRANCH  12  13
ENDBRANCH   1  12
BRANCH   7  15
HETATM   15  C7  UNL     1      -7.876  44.204   0.603  1.00  0.00     0.126 C 
BRANCH  15  16
HETATM   16  C8  UNL     1      -7.363  44.078   2.023  1.00  0.00     0.003 C 
HETATM   17  C9  UNL     1      -6.087  43.273   1.987  1.00  0.00     0.007 C 
HETATM   18  C10 UNL     1      -5.392  43.538   3.296  1.00  0.00     0.012 C 
HETATM   19  C11 UNL     1      -4.768  44.913   3.201  1.00  0.00    -0.022 C 
HETATM   20  C12 UNL     1      -3.572  44.855   2.319  1.00  0.00     0.017 C 
HETATM   21  C18 UNL     1      -5.764  45.920   2.635  1.00  0.00     0.012 C 
HETATM   22  C19 UNL     1      -7.171  45.438   2.628  1.00  0.00     0.007 C 
BRANCH  19  23
HETATM   23  C13 UNL     1      -4.490  45.339   4.610  1.00  0.00     0.176 C 
BRANCH  23  24
HETATM   24  O2  UNL     1      -5.012  44.684   5.653  1.00  0.00    -0.387 OA
BRANCH  24  25
HETATM   25  C14 UNL     1      -4.600  45.030   6.890  1.00  0.00     0.204 C 
BRANCH  25  26
HETATM   26  C15 UNL     1      -3.846  43.838   7.546  1.00  0.00     0.072 C 
HETATM   27  C16 UNL     1      -2.368  43.993   7.338  1.00  0.00     0.047 C 
HETATM   28  C17 UNL     1      -4.212  43.835   8.994  1.00  0.00     0.047 C 
BRANCH  26  29
HETATM   29  O3  UNL     1      -4.260  42.705   6.859  1.00  0.00    -0.388 OA
ATOM     30  H3  UNL     1      -3.550  42.488   6.266  1.00  0.00     0.210 HD
ENDBRANCH  26  29
ENDBRANCH  25  26
ENDBRANCH  24  25
ENDBRANCH  23  24
ENDBRANCH  19  23
ENDBRANCH  15  16
ENDBRANCH   7  15
TORSDOF 9
ENDMDL
MODEL 2
REMARK VINA RESULT: -6.602643090      1.462      2.030
REMARK  9 active torsions:
REMARK  status: ('A' for Active; 'I' for Inactive)
REMARK    1  A    between atoms: C2_2  and  O1_3 
REMARK    2  A    between atoms: O1_3  and  C3_4 
REMARK    3  A    between atoms: N2_10  and  C7_12 
REMARK    4  A    between atoms: C7_12  and  C8_13 
REMARK    5  A    between atoms: C11_16  and  C13_18 
REMARK    6  A    between atoms: C13_18  and  O2_19 
REMARK    7  A    between atoms: O2_19  and  C14_20 
REMARK    8  A    between atoms: C14_20  and  C15_21 
REMARK    9  A    between atoms: C15_21  and  O3_24 
ROOT
HETATM    1  C3  UNL     1     -12.435  44.239  -1.487  1.00  0.00     0.094 A 
HETATM    2  C4  UNL     1     -11.911  43.477  -2.493  1.00  0.00     0.055 A 
HETATM    3  C5  UNL     1     -10.564  43.208  -2.463  1.00  0.00     0.092 A 
HETATM    4  N1  UNL     1      -9.759  43.670  -1.484  1.00  0.00    -0.351 N 
ATOM      5  H1  UNL     1      -8.765  43.442  -1.509  1.00  0.00     0.166 HD
HETATM    6  C6  UNL     1     -10.232  44.419  -0.480  1.00  0.00     0.124 A 
HETATM    7  N2  UNL     1      -9.512  44.879   0.470  1.00  0.00    -0.375 N 
ATOM      8  H2  UNL     1      -9.929  45.446   1.209  1.00  0.00     0.161 HD
HETATM    9  C20 UNL     1     -11.602  44.703  -0.492  1.00  0.00     0.121 A 
HETATM   10  C21 UNL     1     -12.125  45.501   0.569  1.00  0.00     0.106 C 
HETATM   11  N3  UNL     1     -12.557  46.170   1.424  1.00  0.00    -0.191 NA
ENDROOT
BRANCH   1  12
HETATM   12  O1  UNL     1     -13.786  44.537  -1.473  1.00  0.00    -0.350 OA
BRANCH  12  13
HETATM   13  C2  UNL     1     -14.544  44.519  -2.664  1.00  0.00     0.171 C 
HETATM   14  C1  UNL     1     -15.886  45.188  -2.391  1.00  0.00     0.034 C 
ENDBRANCH  12  13
ENDBRANCH   1  12
BRANCH   7  15
HETATM   15  C7  UNL     1      -8.107  44.585   0.480  1.00  0.00     0.126 C 
BRANCH  15  16
HETATM   16  C8  UNL     1      -7.615  44.224   1.867  1.00  0.00     0.003 C 
HETATM   17  C9  UNL     1      -6.394  43.350   1.715  1.00  0.00     0.007 C 
HETATM   18  C10 UNL     1      -5.695  43.379   3.048  1.00  0.00     0.012 C 
HETATM   19  C11 UNL     1      -4.982  44.710   3.151  1.00  0.00    -0.022 C 
HETATM   20  C12 UNL     1      -3.785  44.702   2.269  1.00  0.00     0.017 C 
HETATM   21  C18 UNL     1      -5.906  45.850   2.736  1.00  0.00     0.012 C 
HETATM   22  C19 UNL     1      -7.341  45.467   2.661  1.00  0.00     0.007 C 
BRANCH  19  23
HETATM   23  C13 UNL     1      -4.690  44.911   4.606  1.00  0.00     0.176 C 
BRANCH  23  24
HETATM   24  O2  UNL     1      -5.205  45.941   5.286  1.00  0.00    -0.387 OA
BRANCH  24  25
HETATM   25  C14 UNL     1      -6.025  45.672   6.323  1.00  0.00     0.204 C 
BRANCH  25  26
HETATM   26  C15 UNL     1      -6.621  46.996   6.880  1.00  0.00     0.072 C 
HETATM   27  C16 UNL     1      -5.535  48.021   7.029  1.00  0.00     0.047 C 
HETATM   28  C17 UNL     1      -7.679  47.435   5.923  1.00  0.00     0.047 C 
BRANCH  26  29
HETATM   29  O3  UNL     1      -7.099  46.691   8.147  1.00  0.00    -0.388 OA
ATOM     30  H3  UNL     1      -7.773  46.034   8.018  1.00  0.00     0.210 HD
ENDBRANCH  26  29
ENDBRANCH  25  26
ENDBRANCH  24  25
ENDBRANCH  23  24
ENDBRANCH  19  23
ENDBRANCH  15  16
ENDBRANCH   7  15
TORSDOF 9
ENDMDL
MODEL 3
REMARK VINA RESULT: -6.582164277      1.974      3.104
REMARK  9 active torsions:
REMARK  status: ('A' for Active; 'I' for Inactive)
REMARK    1  A    between atoms: C2_2  and  O1_3 
REMARK    2  A    between atoms: O1_3  and  C3_4 
REMARK    3  A    between atoms: N2_10  and  C7_12 
REMARK    4  A    between atoms: C7_12  and  C8_13 
REMARK    5  A    between atoms: C11_16  and  C13_18 
REMARK    6  A    between atoms: C13_18  and  O2_19 
REMARK    7  A    between atoms: O2_19  and  C14_20 
REMARK    8  A    between atoms: C14_20  and  C15_21 
REMARK    9  A    between atoms: C15_21  and  O3_24 
ROOT
HETATM    1  C3  UNL     1     -13.785  44.807  -1.988  1.00  0.00     0.094 A 
HETATM    2  C4  UNL     1     -13.060  44.482  -3.098  1.00  0.00     0.055 A 
HETATM    3  C5  UNL     1     -11.704  44.706  -3.071  1.00  0.00     0.092 A 
HETATM    4  N1  UNL     1     -11.083  45.231  -1.995  1.00  0.00    -0.351 N 
ATOM      5  H1  UNL     1     -10.074  45.379  -2.026  1.00  0.00     0.166 HD
HETATM    6  C6  UNL     1     -11.757  45.563  -0.887  1.00  0.00     0.124 A 
HETATM    7  N2  UNL     1     -11.216  46.062   0.158  1.00  0.00    -0.375 N 
ATOM      8  H2  UNL     1     -11.781  46.297   0.974  1.00  0.00     0.161 HD
HETATM    9  C20 UNL     1     -13.138  45.342  -0.895  1.00  0.00     0.121 A 
HETATM   10  C21 UNL     1     -13.875  45.690   0.277  1.00  0.00     0.106 C 
HETATM   11  N3  UNL     1     -14.486  45.990   1.226  1.00  0.00    -0.191 NA
ENDROOT
BRANCH   1  12
HETATM   12  O1  UNL     1     -15.153  44.600  -1.966  1.00  0.00    -0.350 OA
BRANCH  12  13
HETATM   13  C2  UNL     1     -15.913  44.654  -3.155  1.00  0.00     0.171 C 
HETATM   14  C1  UNL     1     -16.690  45.965  -3.172  1.00  0.00     0.034 C 
ENDBRANCH  12  13
ENDBRANCH   1  12
BRANCH   7  15
HETATM   15  C7  UNL     1      -9.797  46.288   0.163  1.00  0.00     0.126 C 
BRANCH  15  16
HETATM   16  C8  UNL     1      -9.113  45.552   1.296  1.00  0.00     0.003 C 
HETATM   17  C9  UNL     1      -9.634  44.136   1.313  1.00  0.00     0.007 C 
HETATM   18  C10 UNL     1      -8.647  43.340   2.126  1.00  0.00     0.012 C 
HETATM   19  C11 UNL     1      -7.436  43.101   1.250  1.00  0.00    -0.022 C 
HETATM   20  C12 UNL     1      -7.761  42.076   0.223  1.00  0.00     0.017 C 
HETATM   21  C18 UNL     1      -7.008  44.391   0.558  1.00  0.00     0.012 C 
HETATM   22  C19 UNL     1      -7.623  45.617   1.133  1.00  0.00     0.007 C 
BRANCH  19  23
HETATM   23  C13 UNL     1      -6.322  42.730   2.179  1.00  0.00     0.176 C 
BRANCH  23  24
HETATM   24  O2  UNL     1      -5.575  43.662   2.782  1.00  0.00    -0.387 OA
BRANCH  24  25
HETATM   25  C14 UNL     1      -5.590  43.712   4.130  1.00  0.00     0.204 C 
BRANCH  25  26
HETATM   26  C15 UNL     1      -5.615  45.194   4.601  1.00  0.00     0.072 C 
HETATM   27  C16 UNL     1      -5.102  45.291   6.008  1.00  0.00     0.047 C 
HETATM   28  C17 UNL     1      -4.774  45.971   3.642  1.00  0.00     0.047 C 
BRANCH  26  29
HETATM   29  O3  UNL     1      -6.952  45.566   4.606  1.00  0.00    -0.388 OA
ATOM     30  H3  UNL     1      -7.377  45.015   3.959  1.00  0.00     0.210 HD
ENDBRANCH  26  29
ENDBRANCH  25  26
ENDBRANCH  24  25
ENDBRANCH  23  24
ENDBRANCH  19  23
ENDBRANCH  15  16
ENDBRANCH   7  15
TORSDOF 9
ENDMDL
MODEL 4
REMARK VINA RESULT: -6.547693410      5.396     13.395
REMARK  9 active torsions:
REMARK  status: ('A' for Active; 'I' for Inactive)
REMARK    1  A    between atoms: C2_2  and  O1_3 
REMARK    2  A    between atoms: O1_3  and  C3_4 
REMARK    3  A    between atoms: N2_10  and  C7_12 
REMARK    4  A    between atoms: C7_12  and  C8_13 
REMARK    5  A    between atoms: C11_16  and  C13_18 
REMARK    6  A    between atoms: C13_18  and  O2_19 
REMARK    7  A    between atoms: O2_19  and  C14_20 
REMARK    8  A    between atoms: C14_20  and  C15_21 
REMARK    9  A    between atoms: C15_21  and  O3_24 
ROOT
HETATM    1  C3  UNL     1     -11.527  44.634  -0.372  1.00  0.00     0.094 A 
HETATM    2  C4  UNL     1     -10.640  44.052  -1.232  1.00  0.00     0.055 A 
HETATM    3  C5  UNL     1     -11.038  43.855  -2.533  1.00  0.00     0.092 A 
HETATM    4  N1  UNL     1     -12.261  44.214  -2.973  1.00  0.00    -0.351 N 
ATOM      5  H1  UNL     1     -12.508  44.044  -3.948  1.00  0.00     0.166 HD
HETATM    6  C6  UNL     1     -13.160  44.786  -2.163  1.00  0.00     0.124 A 
HETATM    7  N2  UNL     1     -14.330  45.145  -2.531  1.00  0.00    -0.375 N 
ATOM      8  H2  UNL     1     -14.973  45.577  -1.868  1.00  0.00     0.161 HD
HETATM    9  C20 UNL     1     -12.774  44.997  -0.835  1.00  0.00     0.121 A 
HETATM   10  C21 UNL     1     -13.718  45.606   0.044  1.00  0.00     0.106 C 
HETATM   11  N3  UNL     1     -14.493  46.087   0.775  1.00  0.00    -0.191 NA
ENDROOT
BRANCH   1  12
HETATM   12  O1  UNL     1     -11.173  44.854   0.947  1.00  0.00    -0.350 OA
BRANCH  12  13
HETATM   13  C2  UNL     1     -10.191  45.811   1.283  1.00  0.00     0.171 C 
HETATM   14  C1  UNL     1     -10.859  46.933   2.068  1.00  0.00     0.034 C 
ENDBRANCH  12  13
ENDBRANCH   1  12
BRANCH   7  15
HETATM   15  C7  UNL     1     -14.724  44.928  -3.896  1.00  0.00     0.126 C 
BRANCH  15  16
HETATM   16  C8  UNL     1     -16.217  45.100  -4.086  1.00  0.00     0.003 C 
HETATM   17  C9  UNL     1     -16.686  46.176  -3.138  1.00  0.00     0.007 C 
HETATM   18  C10 UNL     1     -18.031  46.621  -3.648  1.00  0.00     0.012 C 
HETATM   19  C11 UNL     1     -17.784  47.503  -4.852  1.00  0.00    -0.022 C 
HETATM   20  C12 UNL     1     -17.266  48.823  -4.402  1.00  0.00     0.017 C 
HETATM   21  C18 UNL     1     -16.773  46.859  -5.795  1.00  0.00     0.012 C 
HETATM   22  C19 UNL     1     -16.524  45.419  -5.520  1.00  0.00     0.007 C 
BRANCH  19  23
HETATM   23  C13 UNL     1     -19.082  47.558  -5.597  1.00  0.00     0.176 C 
BRANCH  23  24
HETATM   24  O2  UNL     1     -19.118  47.706  -6.926  1.00  0.00    -0.387 OA
BRANCH  24  25
HETATM   25  C14 UNL     1     -19.271  48.951  -7.422  1.00  0.00     0.204 C 
BRANCH  25  26
HETATM   26  C15 UNL     1     -18.757  48.999  -8.890  1.00  0.00     0.072 C 
HETATM   27  C16 UNL     1     -19.231  50.258  -9.554  1.00  0.00     0.047 C 
HETATM   28  C17 UNL     1     -17.267  48.922  -8.833  1.00  0.00     0.047 C 
BRANCH  26  29
HETATM   29  O3  UNL     1     -19.352  47.924  -9.534  1.00  0.00    -0.388 OA
ATOM     30  H3  UNL     1     -19.039  47.953 -10.430  1.00  0.00     0.210 HD
ENDBRANCH  26  29
ENDBRANCH  25  26
ENDBRANCH  24  25
ENDBRANCH  23  24
ENDBRANCH  19  23
ENDBRANCH  15  16
ENDBRANCH   7  15
TORSDOF 9
ENDMDL
MODEL 5
REMARK VINA RESULT: -6.424991637      2.246      3.704
REMARK  9 active torsions:
REMARK  status: ('A' for Active; 'I' for Inactive)
REMARK    1  A    between atoms: C2_2  and  O1_3 
REMARK    2  A    between atoms: O1_3  and  C3_4 
REMARK    3  A    between atoms: N2_10  and  C7_12 
REMARK    4  A    between atoms: C7_12  and  C8_13 
REMARK    5  A    between atoms: C11_16  and  C13_18 
REMARK    6  A    between atoms: C13_18  and  O2_19 
REMARK    7  A    between atoms: O2_19  and  C14_20 
REMARK    8  A    between atoms: C14_20  and  C15_21 
REMARK    9  A    between atoms: C15_21  and  O3_24 
ROOT
HETATM    1  C3  UNL     1     -12.445  44.904  -1.617  1.00  0.00     0.094 A 
HETATM    2  C4  UNL     1     -12.054  44.075  -2.629  1.00  0.00     0.055 A 
HETATM    3  C5  UNL     1     -10.968  43.260  -2.412  1.00  0.00     0.092 A 
HETATM    4  N1  UNL     1     -10.291  43.261  -1.246  1.00  0.00    -0.351 N 
ATOM      5  H1  UNL     1      -9.490  42.638  -1.136  1.00  0.00     0.166 HD
HETATM    6  C6  UNL     1     -10.641  44.058  -0.230  1.00  0.00     0.124 A 
HETATM    7  N2  UNL     1     -10.032  44.096   0.894  1.00  0.00    -0.375 N 
ATOM      8  H2  UNL     1     -10.344  44.726   1.633  1.00  0.00     0.161 HD
HETATM    9  C20 UNL     1     -11.744  44.895  -0.430  1.00  0.00     0.121 A 
HETATM   10  C21 UNL     1     -12.132  45.753   0.641  1.00  0.00     0.106 C 
HETATM   11  N3  UNL     1     -12.444  46.472   1.508  1.00  0.00    -0.191 NA
ENDROOT
BRANCH   1  12
HETATM   12  O1  UNL     1     -13.532  45.743  -1.787  1.00  0.00    -0.350 OA
BRANCH  12  13
HETATM   13  C2  UNL     1     -14.850  45.240  -1.733  1.00  0.00     0.171 C 
HETATM   14  C1  UNL     1     -15.294  44.898  -3.150  1.00  0.00     0.034 C 
ENDBRANCH  12  13
ENDBRANCH   1  12
BRANCH   7  15
HETATM   15  C7  UNL     1      -8.900  43.236   1.097  1.00  0.00     0.126 C 
BRANCH  15  16
HETATM   16  C8  UNL     1      -7.591  43.992   0.991  1.00  0.00     0.003 C 
HETATM   17  C9  UNL     1      -7.666  45.184   1.913  1.00  0.00     0.007 C 
HETATM   18  C10 UNL     1      -6.246  45.641   2.117  1.00  0.00     0.012 C 
HETATM   19  C11 UNL     1      -5.600  44.675   3.085  1.00  0.00    -0.022 C 
HETATM   20  C12 UNL     1      -6.117  44.927   4.457  1.00  0.00     0.017 C 
HETATM   21  C18 UNL     1      -5.900  43.233   2.691  1.00  0.00     0.012 C 
HETATM   22  C19 UNL     1      -6.440  43.084   1.312  1.00  0.00     0.007 C 
BRANCH  19  23
HETATM   23  C13 UNL     1      -4.122  44.857   2.927  1.00  0.00     0.176 C 
BRANCH  23  24
HETATM   24  O2  UNL     1      -3.616  45.846   2.181  1.00  0.00    -0.387 OA
BRANCH  24  25
HETATM   25  C14 UNL     1      -2.352  45.717   1.729  1.00  0.00     0.204 C 
BRANCH  25  26
HETATM   26  C15 UNL     1      -1.923  47.015   0.988  1.00  0.00     0.072 C 
HETATM   27  C16 UNL     1      -1.280  46.666  -0.322  1.00  0.00     0.047 C 
HETATM   28  C17 UNL     1      -3.155  47.840   0.805  1.00  0.00     0.047 C 
BRANCH  26  29
HETATM   29  O3  UNL     1      -0.962  47.610   1.793  1.00  0.00    -0.388 OA
ATOM     30  H3  UNL     1      -1.429  48.236   2.334  1.00  0.00     0.210 HD
ENDBRANCH  26  29
ENDBRANCH  25  26
ENDBRANCH  24  25
ENDBRANCH  23  24
ENDBRANCH  19  23
ENDBRANCH  15  16
ENDBRANCH   7  15
TORSDOF 9
ENDMDL
