MODEL 1
REMARK VINA RESULT: -6.815337868      0.000      0.000
REMARK  11 active torsions:
REMARK  status: ('A' for Active; 'I' for Inactive)
REMARK    1  A    between atoms: O1_2  and  C2_3 
REMARK    2  A    between atoms: C2_3  and  C3_4 
REMARK    3  A    between atoms: C5_6  and  N1_7 
REMARK    4  A    between atoms: C7_9  and  C8_10 
REMARK    5  A    between atoms: C8_10  and  C9_11 
REMARK    6  A    between atoms: C9_11  and  C10_12 
REMARK    7  A    between atoms: C10_12  and  C11_13 
REMARK    8  A    between atoms: C11_13  and  C12_14 
REMARK    9  A    between atoms: C12_14  and  C13_15 
REMARK   10  A    between atoms: C13_15  and  C14_16 
REMARK   11  A    between atoms: C21_27  and  O4_28 
ROOT
HETATM    1  N1  UNL     1     -11.824  46.287   0.172  1.00  0.00    -0.304 N 
HETATM    2  C6  UNL     1     -10.893  45.430  -0.273  1.00  0.00     0.109 A 
HETATM    3  C7  UNL     1     -11.298  44.351  -1.100  1.00  0.00     0.029 A 
HETATM    4  C18 UNL     1     -12.629  44.265  -1.381  1.00  0.00     0.257 A 
HETATM    5  O2  UNL     1     -13.068  43.324  -2.098  1.00  0.00    -0.267 OA
HETATM    6  N2  UNL     1     -13.537  45.153  -0.912  1.00  0.00    -0.275 N 
ATOM      7  H2  UNL     1     -14.524  45.052  -1.149  1.00  0.00     0.173 HD
HETATM    8  C19 UNL     1     -13.130  46.166  -0.135  1.00  0.00     0.329 A 
HETATM    9  O3  UNL     1     -13.970  47.017   0.319  1.00  0.00    -0.246 OA
ENDROOT
BRANCH   1  10
HETATM   10  C5  UNL     1     -11.423  47.393   1.014  1.00  0.00     0.097 C 
HETATM   11  C4  UNL     1     -10.878  46.984   2.350  1.00  0.00     0.035 C 
HETATM   12  C3  UNL     1     -10.010  48.148   2.789  1.00  0.00     0.040 C 
HETATM   13  C21 UNL     1      -9.524  48.795   1.507  1.00  0.00     0.126 C 
HETATM   14  C20 UNL     1     -10.461  48.346   0.403  1.00  0.00     0.058 C 
BRANCH  12  15
HETATM   15  C2  UNL     1     -10.785  49.137   3.619  1.00  0.00     0.174 C 
BRANCH  15  16
HETATM   16  O1  UNL     1     -11.411  48.625   4.717  1.00  0.00    -0.395 OA
HETATM   17  C1  UNL     1     -10.577  48.333   5.786  1.00  0.00     0.201 C 
ENDBRANCH  15  16
ENDBRANCH  12  15
BRANCH  13  18
HETATM   18  O4  UNL     1      -8.210  48.443   1.308  1.00  0.00    -0.395 OA
ATOM     19  H4  UNL     1      -8.176  47.531   1.046  1.00  0.00     0.210 HD
ENDBRANCH  13  18
ENDBRANCH   1  10
BRANCH   3  20
HETATM   20  C8  UNL     1     -10.195  43.545  -1.602  1.00  0.00     0.073 C 
BRANCH  20  21
HETATM   21  C9  UNL     1      -8.853  44.024  -1.302  1.00  0.00    -0.022 C 
BRANCH  21  22
HETATM   22  C10 UNL     1      -7.883  43.362  -0.511  1.00  0.00    -0.008 C 
BRANCH  22  23
HETATM   23  C11 UNL     1      -7.834  42.276   0.214  1.00  0.00    -0.027 C 
BRANCH  23  24
HETATM   24  C12 UNL     1      -7.264  42.296   1.610  1.00  0.00     0.028 C 
BRANCH  24  25
HETATM   25  C13 UNL     1      -5.998  43.037   1.756  1.00  0.00     0.012 C 
BRANCH  25  26
HETATM   26  C14 UNL     1      -5.909  44.117   2.761  1.00  0.00    -0.051 C 
HETATM   27  C15 UNL     1      -6.829  45.284   2.568  1.00  0.00     0.014 C 
HETATM   28  C16 UNL     1      -6.246  43.474   4.119  1.00  0.00     0.014 C 
HETATM   29  C17 UNL     1      -4.509  44.673   2.924  1.00  0.00     0.014 C 
ENDBRANCH  25  26
ENDBRANCH  24  25
ENDBRANCH  23  24
ENDBRANCH  22  23
ENDBRANCH  21  22
ENDBRANCH  20  21
ENDBRANCH   3  20
TORSDOF 11
ENDMDL
MODEL 2
REMARK VINA RESULT: -6.640214685      1.819      4.896
REMARK  11 active torsions:
REMARK  status: ('A' for Active; 'I' for Inactive)
REMARK    1  A    between atoms: O1_2  and  C2_3 
REMARK    2  A    between atoms: C2_3  and  C3_4 
REMARK    3  A    between atoms: C5_6  and  N1_7 
REMARK    4  A    between atoms: C7_9  and  C8_10 
REMARK    5  A    between atoms: C8_10  and  C9_11 
REMARK    6  A    between atoms: C9_11  and  C10_12 
REMARK    7  A    between atoms: C10_12  and  C11_13 
REMARK    8  A    between atoms: C11_13  and  C12_14 
REMARK    9  A    between atoms: C12_14  and  C13_15 
REMARK   10  A    between atoms: C13_15  and  C14_16 
REMARK   11  A    between atoms: C21_27  and  O4_28 
ROOT
HETATM    1  N1  UNL     1     -11.602  45.479   0.232  1.00  0.00    -0.304 N 
HETATM    2  C6  UNL     1     -10.310  45.410  -0.121  1.00  0.00     0.109 A 
HETATM    3  C7  UNL     1      -9.345  46.062   0.691  1.00  0.00     0.029 A 
HETATM    4  C18 UNL     1      -9.818  46.724   1.786  1.00  0.00     0.257 A 
HETATM    5  O2  UNL     1      -9.023  47.340   2.547  1.00  0.00    -0.267 OA
HETATM    6  N2  UNL     1     -11.132  46.767   2.106  1.00  0.00    -0.275 N 
ATOM      7  H2  UNL     1     -11.442  47.273   2.936  1.00  0.00     0.173 HD
HETATM    8  C19 UNL     1     -12.024  46.142   1.326  1.00  0.00     0.329 A 
HETATM    9  O3  UNL     1     -13.270  46.169   1.610  1.00  0.00    -0.246 OA
ENDROOT
BRANCH   1  10
HETATM   10  C5  UNL     1     -12.594  44.815  -0.587  1.00  0.00     0.097 C 
HETATM   11  C4  UNL     1     -13.352  45.732  -1.500  1.00  0.00     0.035 C 
HETATM   12  C3  UNL     1     -13.854  44.838  -2.619  1.00  0.00     0.040 C 
HETATM   13  C21 UNL     1     -12.848  43.706  -2.713  1.00  0.00     0.126 C 
HETATM   14  C20 UNL     1     -12.096  43.675  -1.397  1.00  0.00     0.058 C 
BRANCH  12  15
HETATM   15  C2  UNL     1     -15.229  44.300  -2.327  1.00  0.00     0.174 C 
BRANCH  15  16
HETATM   16  O1  UNL     1     -16.178  45.234  -2.031  1.00  0.00    -0.395 OA
HETATM   17  C1  UNL     1     -16.698  45.910  -3.126  1.00  0.00     0.201 C 
ENDBRANCH  15  16
ENDBRANCH  12  15
BRANCH  13  18
HETATM   18  O4  UNL     1     -12.051  43.916  -3.812  1.00  0.00    -0.395 OA
ATOM     19  H4  UNL     1     -12.478  43.540  -4.574  1.00  0.00     0.210 HD
ENDBRANCH  13  18
ENDBRANCH   1  10
BRANCH   3  20
HETATM   20  C8  UNL     1      -7.970  45.839   0.269  1.00  0.00     0.073 C 
BRANCH  20  21
HETATM   21  C9  UNL     1      -7.763  44.828  -0.757  1.00  0.00    -0.022 C 
BRANCH  21  22
HETATM   22  C10 UNL     1      -7.810  43.424  -0.574  1.00  0.00    -0.008 C 
BRANCH  22  23
HETATM   23  C11 UNL     1      -7.818  42.602   0.441  1.00  0.00    -0.027 C 
BRANCH  23  24
HETATM   24  C12 UNL     1      -6.678  42.570   1.427  1.00  0.00     0.028 C 
BRANCH  24  25
HETATM   25  C13 UNL     1      -6.960  43.201   2.729  1.00  0.00     0.012 C 
BRANCH  25  26
HETATM   26  C14 UNL     1      -5.950  44.099   3.327  1.00  0.00    -0.051 C 
HETATM   27  C15 UNL     1      -6.395  45.499   3.619  1.00  0.00     0.014 C 
HETATM   28  C16 UNL     1      -5.533  43.453   4.661  1.00  0.00     0.014 C 
HETATM   29  C17 UNL     1      -4.674  44.193   2.518  1.00  0.00     0.014 C 
ENDBRANCH  25  26
ENDBRANCH  24  25
ENDBRANCH  23  24
ENDBRANCH  22  23
ENDBRANCH  21  22
ENDBRANCH  20  21
ENDBRANCH   3  20
TORSDOF 11
ENDMDL
MODEL 3
REMARK VINA RESULT: -6.629266357      4.258      8.398
REMARK  11 active torsions:
REMARK  status: ('A' for Active; 'I' for Inactive)
REMARK    1  A    between atoms: O1_2  and  C2_3 
REMARK    2  A    between atoms: C2_3  and  C3_4 
REMARK    3  A    between atoms: C5_6  and  N1_7 
REMARK    4  A    between atoms: C7_9  and  C8_10 
REMARK    5  A    between atoms: C8_10  and  C9_11 
REMARK    6  A    between atoms: C9_11  and  C10_12 
REMARK    7  A    between atoms: C10_12  and  C11_13 
REMARK    8  A    between atoms: C11_13  and  C12_14 
REMARK    9  A    between atoms: C12_14  and  C13_15 
REMARK   10  A    between atoms: C13_15  and  C14_16 
REMARK   11  A    between atoms: C21_27  and  O4_28 
ROOT
HETATM    1  N1  UNL     1     -11.261  45.145   0.041  1.00  0.00    -0.304 N 
HETATM    2  C6  UNL     1     -11.762  44.740  -1.135  1.00  0.00     0.109 A 
HETATM    3  C7  UNL     1     -13.064  45.167  -1.506  1.00  0.00     0.029 A 
HETATM    4  C18 UNL     1     -13.717  45.969  -0.618  1.00  0.00     0.257 A 
HETATM    5  O2  UNL     1     -14.884  46.376  -0.870  1.00  0.00    -0.267 OA
HETATM    6  N2  UNL     1     -13.173  46.355   0.560  1.00  0.00    -0.275 N 
ATOM      7  H2  UNL     1     -13.698  46.957   1.195  1.00  0.00     0.173 HD
HETATM    8  C19 UNL     1     -11.942  45.941   0.887  1.00  0.00     0.329 A 
HETATM    9  O3  UNL     1     -11.408  46.294   1.994  1.00  0.00    -0.246 OA
ENDROOT
BRANCH   1  10
HETATM   10  C5  UNL     1      -9.933  44.718   0.429  1.00  0.00     0.097 C 
HETATM   11  C4  UNL     1      -9.759  43.230   0.494  1.00  0.00     0.035 C 
HETATM   12  C3  UNL     1      -8.269  43.005   0.319  1.00  0.00     0.040 C 
HETATM   13  C21 UNL     1      -7.778  44.177  -0.509  1.00  0.00     0.126 C 
HETATM   14  C20 UNL     1      -8.820  45.271  -0.385  1.00  0.00     0.058 C 
BRANCH  12  15
HETATM   15  C2  UNL     1      -7.555  42.957   1.643  1.00  0.00     0.174 C 
BRANCH  15  16
HETATM   16  O1  UNL     1      -6.223  42.670   1.585  1.00  0.00    -0.395 OA
HETATM   17  C1  UNL     1      -5.403  43.540   2.287  1.00  0.00     0.201 C 
ENDBRANCH  15  16
ENDBRANCH  12  15
BRANCH  13  18
HETATM   18  O4  UNL     1      -7.563  43.747  -1.796  1.00  0.00    -0.395 OA
ATOM     19  H4  UNL     1      -6.645  43.870  -2.008  1.00  0.00     0.210 HD
ENDBRANCH  13  18
ENDBRANCH   1  10
BRANCH   3  20
HETATM   20  C8  UNL     1     -13.465  44.749  -2.842  1.00  0.00     0.073 C 
BRANCH  20  21
HETATM   21  C9  UNL     1     -14.819  44.234  -2.980  1.00  0.00    -0.022 C 
BRANCH  21  22
HETATM   22  C10 UNL     1     -15.800  44.688  -3.896  1.00  0.00    -0.008 C 
BRANCH  22  23
HETATM   23  C11 UNL     1     -15.952  44.692  -5.193  1.00  0.00    -0.027 C 
BRANCH  23  24
HETATM   24  C12 UNL     1     -15.966  45.983  -5.972  1.00  0.00     0.028 C 
BRANCH  24  25
HETATM   25  C13 UNL     1     -17.088  46.887  -5.662  1.00  0.00     0.012 C 
BRANCH  25  26
HETATM   26  C14 UNL     1     -17.150  48.209  -6.320  1.00  0.00    -0.051 C 
HETATM   27  C15 UNL     1     -16.796  49.391  -5.471  1.00  0.00     0.014 C 
HETATM   28  C16 UNL     1     -16.151  48.157  -7.490  1.00  0.00     0.014 C 
HETATM   29  C17 UNL     1     -18.491  48.502  -6.959  1.00  0.00     0.014 C 
ENDBRANCH  25  26
ENDBRANCH  24  25
ENDBRANCH  23  24
ENDBRANCH  22  23
ENDBRANCH  21  22
ENDBRANCH  20  21
ENDBRANCH   3  20
TORSDOF 11
ENDMDL
MODEL 4
REMARK VINA RESULT: -6.353777290      1.852      5.171
REMARK  11 active torsions:
REMARK  status: ('A' for Active; 'I' for Inactive)
REMARK    1  A    between atoms: O1_2  and  C2_3 
REMARK    2  A    between atoms: C2_3  and  C3_4 
REMARK    3  A    between atoms: C5_6  and  N1_7 
REMARK    4  A    between atoms: C7_9  and  C8_10 
REMARK    5  A    between atoms: C8_10  and  C9_11 
REMARK    6  A    between atoms: C9_11  and  C10_12 
REMARK    7  A    between atoms: C10_12  and  C11_13 
REMARK    8  A    between atoms: C11_13  and  C12_14 
REMARK    9  A    between atoms: C12_14  and  C13_15 
REMARK   10  A    between atoms: C13_15  and  C14_16 
REMARK   11  A    between atoms: C21_27  and  O4_28 
ROOT
HETATM    1  N1  UNL     1     -11.611  45.415   0.222  1.00  0.00    -0.304 N 
HETATM    2  C6  UNL     1     -10.308  45.386  -0.097  1.00  0.00     0.109 A 
HETATM    3  C7  UNL     1      -9.380  46.022   0.767  1.00  0.00     0.029 A 
HETATM    4  C18 UNL     1      -9.895  46.630   1.873  1.00  0.00     0.257 A 
HETATM    5  O2  UNL     1      -9.133  47.229   2.680  1.00  0.00    -0.267 OA
HETATM    6  N2  UNL     1     -11.218  46.635   2.158  1.00  0.00    -0.275 N 
ATOM      7  H2  UNL     1     -11.560  47.101   2.999  1.00  0.00     0.173 HD
HETATM    8  C19 UNL     1     -12.076  46.026   1.329  1.00  0.00     0.329 A 
HETATM    9  O3  UNL     1     -13.329  46.018   1.579  1.00  0.00    -0.246 OA
ENDROOT
BRANCH   1  10
HETATM   10  C5  UNL     1     -12.567  44.768  -0.650  1.00  0.00     0.097 C 
HETATM   11  C4  UNL     1     -13.254  45.695  -1.609  1.00  0.00     0.035 C 
HETATM   12  C3  UNL     1     -13.708  44.806  -2.751  1.00  0.00     0.040 C 
HETATM   13  C21 UNL     1     -12.721  43.655  -2.784  1.00  0.00     0.126 C 
HETATM   14  C20 UNL     1     -12.045  43.615  -1.428  1.00  0.00     0.058 C 
BRANCH  12  15
HETATM   15  C2  UNL     1     -15.108  44.295  -2.536  1.00  0.00     0.174 C 
BRANCH  15  16
HETATM   16  O1  UNL     1     -15.886  44.218  -3.654  1.00  0.00    -0.395 OA
HETATM   17  C1  UNL     1     -15.528  45.081  -4.680  1.00  0.00     0.201 C 
ENDBRANCH  15  16
ENDBRANCH  12  15
BRANCH  13  18
HETATM   18  O4  UNL     1     -11.859  43.845  -3.837  1.00  0.00    -0.395 OA
ATOM     19  H4  UNL     1     -11.381  43.038  -3.989  1.00  0.00     0.210 HD
ENDBRANCH  13  18
ENDBRANCH   1  10
BRANCH   3  20
HETATM   20  C8  UNL     1      -7.989  45.842   0.375  1.00  0.00     0.073 C 
BRANCH  20  21
HETATM   21  C9  UNL     1      -7.683  44.647  -0.399  1.00  0.00    -0.022 C 
BRANCH  21  22
HETATM   22  C10 UNL     1      -7.844  43.307   0.028  1.00  0.00    -0.008 C 
BRANCH  22  23
HETATM   23  C11 UNL     1      -7.149  42.446   0.722  1.00  0.00    -0.027 C 
BRANCH  23  24
HETATM   24  C12 UNL     1      -6.744  42.738   2.145  1.00  0.00     0.028 C 
BRANCH  24  25
HETATM   25  C13 UNL     1      -5.483  43.487   2.293  1.00  0.00     0.012 C 
BRANCH  25  26
HETATM   26  C14 UNL     1      -5.288  44.337   3.486  1.00  0.00    -0.051 C 
HETATM   27  C15 UNL     1      -5.363  43.647   4.814  1.00  0.00     0.014 C 
HETATM   28  C16 UNL     1      -3.881  44.949   3.356  1.00  0.00     0.014 C 
HETATM   29  C17 UNL     1      -6.230  45.521   3.543  1.00  0.00     0.014 C 
ENDBRANCH  25  26
ENDBRANCH  24  25
ENDBRANCH  23  24
ENDBRANCH  22  23
ENDBRANCH  21  22
ENDBRANCH  20  21
ENDBRANCH   3  20
TORSDOF 11
ENDMDL
MODEL 5
REMARK VINA RESULT: -6.339214443      4.008      8.293
REMARK  11 active torsions:
REMARK  status: ('A' for Active; 'I' for Inactive)
REMARK    1  A    between atoms: O1_2  and  C2_3 
REMARK    2  A    between atoms: C2_3  and  C3_4 
REMARK    3  A    between atoms: C5_6  and  N1_7 
REMARK    4  A    between atoms: C7_9  and  C8_10 
REMARK    5  A    between atoms: C8_10  and  C9_11 
REMARK    6  A    between atoms: C9_11  and  C10_12 
REMARK    7  A    between atoms: C10_12  and  C11_13 
REMARK    8  A    between atoms: C11_13  and  C12_14 
REMARK    9  A    between atoms: C12_14  and  C13_15 
REMARK   10  A    between atoms: C13_15  and  C14_16 
REMARK   11  A    between atoms: C21_27  and  O4_28 
ROOT
HETATM    1  N1  UNL     1     -11.438  44.863  -0.023  1.00  0.00    -0.304 N 
HETATM    2  C6  UNL     1     -11.885  44.384  -1.194  1.00  0.00     0.109 A 
HETATM    3  C7  UNL     1     -13.228  44.645  -1.569  1.00  0.00     0.029 A 
HETATM    4  C18 UNL     1     -13.976  45.373  -0.692  1.00  0.00     0.257 A 
HETATM    5  O2  UNL     1     -15.183  45.632  -0.949  1.00  0.00    -0.267 OA
HETATM    6  N2  UNL     1     -13.484  45.838   0.480  1.00  0.00    -0.275 N 
ATOM      7  H2  UNL     1     -14.079  46.381   1.107  1.00  0.00     0.173 HD
HETATM    8  C19 UNL     1     -12.212  45.582   0.812  1.00  0.00     0.329 A 
HETATM    9  O3  UNL     1     -11.727  46.012   1.914  1.00  0.00    -0.246 OA
ENDROOT
BRANCH   1  10
HETATM   10  C5  UNL     1     -10.069  44.605   0.370  1.00  0.00     0.097 C 
HETATM   11  C4  UNL     1      -9.726  43.150   0.491  1.00  0.00     0.035 C 
HETATM   12  C3  UNL     1      -8.220  43.090   0.312  1.00  0.00     0.040 C 
HETATM   13  C21 UNL     1      -7.870  44.278  -0.563  1.00  0.00     0.126 C 
HETATM   14  C20 UNL     1      -9.030  45.249  -0.474  1.00  0.00     0.058 C 
BRANCH  12  15
HETATM   15  C2  UNL     1      -7.500  43.176   1.631  1.00  0.00     0.174 C 
BRANCH  15  16
HETATM   16  O1  UNL     1      -6.429  44.019   1.666  1.00  0.00    -0.395 OA
HETATM   17  C1  UNL     1      -5.291  43.500   2.266  1.00  0.00     0.201 C 
ENDBRANCH  15  16
ENDBRANCH  12  15
BRANCH  13  18
HETATM   18  O4  UNL     1      -7.612  43.825  -1.835  1.00  0.00    -0.395 OA
ATOM     19  H4  UNL     1      -6.686  43.941  -2.017  1.00  0.00     0.210 HD
ENDBRANCH  13  18
ENDBRANCH   1  10
BRANCH   3  20
HETATM   20  C8  UNL     1     -13.574  44.163  -2.899  1.00  0.00     0.073 C 
BRANCH  20  21
HETATM   21  C9  UNL     1     -14.396  45.045  -3.715  1.00  0.00    -0.022 C 
BRANCH  21  22
HETATM   22  C10 UNL     1     -15.563  44.682  -4.431  1.00  0.00    -0.008 C 
BRANCH  22  23
HETATM   23  C11 UNL     1     -16.140  45.045  -5.545  1.00  0.00    -0.027 C 
BRANCH  23  24
HETATM   24  C12 UNL     1     -16.537  46.480  -5.785  1.00  0.00     0.028 C 
BRANCH  24  25
HETATM   25  C13 UNL     1     -17.973  46.766  -5.618  1.00  0.00     0.012 C 
BRANCH  25  26
HETATM   26  C14 UNL     1     -18.436  47.423  -4.377  1.00  0.00    -0.051 C 
HETATM   27  C15 UNL     1     -18.547  46.550  -3.164  1.00  0.00     0.014 C 
HETATM   28  C16 UNL     1     -17.412  48.530  -4.066  1.00  0.00     0.014 C 
HETATM   29  C17 UNL     1     -19.760  48.142  -4.534  1.00  0.00     0.014 C 
ENDBRANCH  25  26
ENDBRANCH  24  25
ENDBRANCH  23  24
ENDBRANCH  22  23
ENDBRANCH  21  22
ENDBRANCH  20  21
ENDBRANCH   3  20
TORSDOF 11
ENDMDL
