MODEL 1
REMARK VINA RESULT: -6.811627404      0.000      0.000
REMARK  10 active torsions:
REMARK  status: ('A' for Active; 'I' for Inactive)
REMARK    1  A    between atoms: C2_2  and  C3_3 
REMARK    2  A    between atoms: C3_3  and  C4_4 
REMARK    3  A    between atoms: C4_4  and  C5_5 
REMARK    4  A    between atoms: C6_6  and  C7_7 
REMARK    5  A    between atoms: C8_8  and  C9_9 
REMARK    6  A    between atoms: C9_9  and  C10_10 
REMARK    7  A    between atoms: C13_13  and  O1_14 
REMARK    8  A    between atoms: C14_16  and  O2_17 
REMARK    9  A    between atoms: C16_20  and  O3_21 
REMARK   10  A    between atoms: O3_21  and  C17_22 
REMARK       I    between atoms: C17_22  and  N1_24 
ROOT
HETATM    1  C10 UNL     1      -7.714  47.613   1.737  1.00  0.00     0.125 C 
HETATM    2  C11 UNL     1      -7.603  48.545   0.597  1.00  0.00     0.035 C 
HETATM    3  C12 UNL     1      -8.812  49.306   0.206  1.00  0.00     0.037 C 
HETATM    4  C13 UNL     1      -9.984  49.231   1.100  1.00  0.00     0.147 C 
HETATM    5  C14 UNL     1     -10.902  48.084   0.927  1.00  0.00     0.155 C 
HETATM    6  C15 UNL     1     -10.383  46.959   0.086  1.00  0.00     0.075 C 
HETATM    7  C16 UNL     1     -11.463  45.934  -0.156  1.00  0.00     0.142 C 
HETATM    8  C20 UNL     1     -11.634  45.311   1.188  1.00  0.00     0.036 C 
HETATM    9  C21 UNL     1     -10.200  45.082   1.616  1.00  0.00     0.035 C 
HETATM   10  C22 UNL     1      -9.377  46.181   0.945  1.00  0.00     0.131 C 
HETATM   11  O5  UNL     1      -8.910  46.999   1.941  1.00  0.00    -0.380 OA
ENDROOT
BRANCH   1  12
HETATM   12  C9  UNL     1      -6.565  46.594   1.609  1.00  0.00     0.059 C 
BRANCH  12  13
HETATM   13  C8  UNL     1      -6.221  46.073   2.935  1.00  0.00    -0.024 C 
HETATM   14  C7  UNL     1      -5.971  44.840   3.211  1.00  0.00    -0.004 C 
BRANCH  14  15
HETATM   15  C6  UNL     1      -5.994  43.776   2.239  1.00  0.00    -0.004 C 
HETATM   16  C5  UNL     1      -7.128  43.103   1.958  1.00  0.00    -0.027 C 
BRANCH  16  17
HETATM   17  C4  UNL     1      -7.071  42.031   0.954  1.00  0.00     0.027 C 
BRANCH  17  18
HETATM   18  C3  UNL     1      -8.249  42.122   0.033  1.00  0.00     0.003 C 
BRANCH  18  19
HETATM   19  C2  UNL     1      -8.114  43.323  -0.846  1.00  0.00    -0.004 C 
HETATM   20  C1  UNL     1      -9.332  43.422  -1.764  1.00  0.00     0.005 C 
ENDBRANCH  18  19
ENDBRANCH  17  18
ENDBRANCH  16  17
ENDBRANCH  14  15
ENDBRANCH  12  13
ENDBRANCH   1  12
BRANCH   4  21
HETATM   21  O1  UNL     1     -10.741  50.410   0.888  1.00  0.00    -0.393 OA
ATOM     22  H1  UNL     1     -11.506  50.351   1.447  1.00  0.00     0.210 HD
ENDBRANCH   4  21
BRANCH   5  23
HETATM   23  O2  UNL     1     -12.191  48.490   0.509  1.00  0.00    -0.392 OA
ATOM     24  H2  UNL     1     -12.485  48.015  -0.259  1.00  0.00     0.210 HD
ENDBRANCH   5  23
BRANCH   7  25
HETATM   25  O3  UNL     1     -12.620  46.465  -0.717  1.00  0.00    -0.298 OA
BRANCH  25  26
HETATM   26  C17 UNL     1     -13.706  45.697  -1.095  1.00  0.00     0.362 C 
HETATM   27  O4  UNL     1     -14.714  45.736  -0.350  1.00  0.00    -0.238 OA
HETATM   28  N1  UNL     1     -13.679  44.900  -2.276  1.00  0.00    -0.337 N 
HETATM   29  C18 UNL     1     -14.861  44.128  -2.595  1.00  0.00     0.154 C 
HETATM   30  C19 UNL     1     -12.549  44.830  -3.151  1.00  0.00     0.154 C 
ENDBRANCH  25  26
ENDBRANCH   7  25
TORSDOF 10
ENDMDL
MODEL 2
REMARK VINA RESULT: -6.612875622      3.329      7.388
REMARK  10 active torsions:
REMARK  status: ('A' for Active; 'I' for Inactive)
REMARK    1  A    between atoms: C2_2  and  C3_3 
REMARK    2  A    between atoms: C3_3  and  C4_4 
REMARK    3  A    between atoms: C4_4  and  C5_5 
REMARK    4  A    between atoms: C6_6  and  C7_7 
REMARK    5  A    between atoms: C8_8  and  C9_9 
REMARK    6  A    between atoms: C9_9  and  C10_10 
REMARK    7  A    between atoms: C13_13  and  O1_14 
REMARK    8  A    between atoms: C14_16  and  O2_17 
REMARK    9  A    between atoms: C16_20  and  O3_21 
REMARK   10  A    between atoms: O3_21  and  C17_22 
REMARK       I    between atoms: C17_22  and  N1_24 
ROOT
HETATM    1  C10 UNL     1      -9.141  44.955  -0.359  1.00  0.00     0.125 C 
HETATM    2  C11 UNL     1      -9.706  46.096   0.388  1.00  0.00     0.035 C 
HETATM    3  C12 UNL     1      -8.759  47.049   1.013  1.00  0.00     0.037 C 
HETATM    4  C13 UNL     1      -7.328  46.905   0.681  1.00  0.00     0.147 C 
HETATM    5  C14 UNL     1      -6.540  45.929   1.465  1.00  0.00     0.155 C 
HETATM    6  C15 UNL     1      -7.337  44.967   2.291  1.00  0.00     0.075 C 
HETATM    7  C16 UNL     1      -6.429  44.141   3.167  1.00  0.00     0.142 C 
HETATM    8  C20 UNL     1      -5.732  43.260   2.185  1.00  0.00     0.036 C 
HETATM    9  C21 UNL     1      -6.878  42.792   1.312  1.00  0.00     0.035 C 
HETATM   10  C22 UNL     1      -7.911  43.916   1.329  1.00  0.00     0.131 C 
HETATM   11  O5  UNL     1      -7.955  44.442   0.065  1.00  0.00    -0.380 OA
ENDROOT
BRANCH   1  12
HETATM   12  C9  UNL     1     -10.235  43.872  -0.436  1.00  0.00     0.059 C 
BRANCH  12  13
HETATM   13  C8  UNL     1     -10.264  43.298  -1.784  1.00  0.00    -0.024 C 
HETATM   14  C7  UNL     1     -11.313  43.171  -2.519  1.00  0.00    -0.004 C 
BRANCH  14  15
HETATM   15  C6  UNL     1     -12.635  43.581  -2.116  1.00  0.00    -0.004 C 
HETATM   16  C5  UNL     1     -13.171  44.743  -2.539  1.00  0.00    -0.027 C 
BRANCH  16  17
HETATM   17  C4  UNL     1     -14.525  45.091  -2.084  1.00  0.00     0.027 C 
BRANCH  17  18
HETATM   18  C3  UNL     1     -15.547  44.526  -3.023  1.00  0.00     0.003 C 
BRANCH  18  19
HETATM   19  C2  UNL     1     -15.227  44.933  -4.426  1.00  0.00    -0.004 C 
HETATM   20  C1  UNL     1     -16.346  44.470  -5.359  1.00  0.00     0.005 C 
ENDBRANCH  18  19
ENDBRANCH  17  18
ENDBRANCH  16  17
ENDBRANCH  14  15
ENDBRANCH  12  13
ENDBRANCH   1  12
BRANCH   4  21
HETATM   21  O1  UNL     1      -6.731  48.176   0.872  1.00  0.00    -0.393 OA
ATOM     22  H1  UNL     1      -6.499  48.504   0.011  1.00  0.00     0.210 HD
ENDBRANCH   4  21
BRANCH   5  23
HETATM   23  O2  UNL     1      -5.527  46.552   2.231  1.00  0.00    -0.392 OA
ATOM     24  H2  UNL     1      -5.258  46.019   2.969  1.00  0.00     0.210 HD
ENDBRANCH   5  23
BRANCH   7  25
HETATM   25  O3  UNL     1      -5.595  44.902   3.979  1.00  0.00    -0.298 OA
BRANCH  25  26
HETATM   26  C17 UNL     1      -5.694  44.932   5.358  1.00  0.00     0.362 C 
HETATM   27  O4  UNL     1      -5.247  43.940   5.980  1.00  0.00    -0.238 OA
HETATM   28  N1  UNL     1      -6.276  46.042   6.039  1.00  0.00    -0.337 N 
HETATM   29  C18 UNL     1      -6.338  45.989   7.483  1.00  0.00     0.154 C 
HETATM   30  C19 UNL     1      -6.795  47.192   5.364  1.00  0.00     0.154 C 
ENDBRANCH  25  26
ENDBRANCH   7  25
TORSDOF 10
ENDMDL
MODEL 3
REMARK VINA RESULT: -6.602136906      2.205      4.275
REMARK  10 active torsions:
REMARK  status: ('A' for Active; 'I' for Inactive)
REMARK    1  A    between atoms: C2_2  and  C3_3 
REMARK    2  A    between atoms: C3_3  and  C4_4 
REMARK    3  A    between atoms: C4_4  and  C5_5 
REMARK    4  A    between atoms: C6_6  and  C7_7 
REMARK    5  A    between atoms: C8_8  and  C9_9 
REMARK    6  A    between atoms: C9_9  and  C10_10 
REMARK    7  A    between atoms: C13_13  and  O1_14 
REMARK    8  A    between atoms: C14_16  and  O2_17 
REMARK    9  A    between atoms: C16_20  and  O3_21 
REMARK   10  A    between atoms: O3_21  and  C17_22 
REMARK       I    between atoms: C17_22  and  N1_24 
ROOT
HETATM    1  C10 UNL     1      -9.788  44.846   0.068  1.00  0.00     0.125 C 
HETATM    2  C11 UNL     1      -9.940  46.314   0.081  1.00  0.00     0.035 C 
HETATM    3  C12 UNL     1     -11.296  46.866   0.309  1.00  0.00     0.037 C 
HETATM    4  C13 UNL     1     -12.359  45.921   0.704  1.00  0.00     0.147 C 
HETATM    5  C14 UNL     1     -13.062  45.195  -0.376  1.00  0.00     0.155 C 
HETATM    6  C15 UNL     1     -12.414  45.253  -1.724  1.00  0.00     0.075 C 
HETATM    7  C16 UNL     1     -13.304  44.624  -2.768  1.00  0.00     0.142 C 
HETATM    8  C20 UNL     1     -13.250  43.175  -2.420  1.00  0.00     0.036 C 
HETATM    9  C21 UNL     1     -11.768  42.958  -2.193  1.00  0.00     0.035 C 
HETATM   10  C22 UNL     1     -11.217  44.291  -1.690  1.00  0.00     0.131 C 
HETATM   11  O5  UNL     1     -10.831  44.102  -0.390  1.00  0.00    -0.380 OA
ENDROOT
BRANCH   1  12
HETATM   12  C9  UNL     1      -8.485  44.527  -0.691  1.00  0.00     0.059 C 
BRANCH  12  13
HETATM   13  C8  UNL     1      -8.185  43.097  -0.573  1.00  0.00    -0.024 C 
HETATM   14  C7  UNL     1      -7.545  42.547   0.400  1.00  0.00    -0.004 C 
BRANCH  14  15
HETATM   15  C6  UNL     1      -7.022  43.270   1.532  1.00  0.00    -0.004 C 
HETATM   16  C5  UNL     1      -5.756  43.090   1.959  1.00  0.00    -0.027 C 
BRANCH  16  17
HETATM   17  C4  UNL     1      -5.296  43.865   3.120  1.00  0.00     0.027 C 
BRANCH  17  18
HETATM   18  C3  UNL     1      -5.978  43.384   4.365  1.00  0.00     0.003 C 
BRANCH  18  19
HETATM   19  C2  UNL     1      -5.382  44.054   5.561  1.00  0.00    -0.004 C 
HETATM   20  C1  UNL     1      -6.057  45.408   5.776  1.00  0.00     0.005 C 
ENDBRANCH  18  19
ENDBRANCH  17  18
ENDBRANCH  16  17
ENDBRANCH  14  15
ENDBRANCH  12  13
ENDBRANCH   1  12
BRANCH   4  21
HETATM   21  O1  UNL     1     -13.334  46.670   1.410  1.00  0.00    -0.393 OA
ATOM     22  H1  UNL     1     -14.101  46.719   0.853  1.00  0.00     0.210 HD
ENDBRANCH   4  21
BRANCH   5  23
HETATM   23  O2  UNL     1     -14.433  45.538  -0.446  1.00  0.00    -0.392 OA
ATOM     24  H2  UNL     1     -14.581  46.320  -0.964  1.00  0.00     0.210 HD
ENDBRANCH   5  23
BRANCH   7  25
HETATM   25  O3  UNL     1     -14.579  45.176  -2.819  1.00  0.00    -0.298 OA
BRANCH  25  26
HETATM   26  C17 UNL     1     -15.364  45.180  -3.958  1.00  0.00     0.362 C 
HETATM   27  O4  UNL     1     -14.867  44.668  -4.989  1.00  0.00    -0.238 OA
HETATM   28  N1  UNL     1     -16.675  45.739  -3.957  1.00  0.00    -0.337 N 
HETATM   29  C18 UNL     1     -17.425  45.700  -5.194  1.00  0.00     0.154 C 
HETATM   30  C19 UNL     1     -17.276  46.331  -2.802  1.00  0.00     0.154 C 
ENDBRANCH  25  26
ENDBRANCH   7  25
TORSDOF 10
ENDMDL
MODEL 4
REMARK VINA RESULT: -6.575694698      2.955      5.447
REMARK  10 active torsions:
REMARK  status: ('A' for Active; 'I' for Inactive)
REMARK    1  A    between atoms: C2_2  and  C3_3 
REMARK    2  A    between atoms: C3_3  and  C4_4 
REMARK    3  A    between atoms: C4_4  and  C5_5 
REMARK    4  A    between atoms: C6_6  and  C7_7 
REMARK    5  A    between atoms: C8_8  and  C9_9 
REMARK    6  A    between atoms: C9_9  and  C10_10 
REMARK    7  A    between atoms: C13_13  and  O1_14 
REMARK    8  A    between atoms: C14_16  and  O2_17 
REMARK    9  A    between atoms: C16_20  and  O3_21 
REMARK   10  A    between atoms: O3_21  and  C17_22 
REMARK       I    between atoms: C17_22  and  N1_24 
ROOT
HETATM    1  C10 UNL     1     -11.452  45.370  -0.632  1.00  0.00     0.125 C 
HETATM    2  C11 UNL     1     -12.841  45.324  -0.135  1.00  0.00     0.035 C 
HETATM    3  C12 UNL     1     -13.449  46.591   0.334  1.00  0.00     0.037 C 
HETATM    4  C13 UNL     1     -12.700  47.839   0.088  1.00  0.00     0.147 C 
HETATM    5  C14 UNL     1     -11.660  48.216   1.070  1.00  0.00     0.155 C 
HETATM    6  C15 UNL     1     -11.258  47.143   2.032  1.00  0.00     0.075 C 
HETATM    7  C16 UNL     1     -10.324  47.693   3.082  1.00  0.00     0.142 C 
HETATM    8  C20 UNL     1      -9.075  47.952   2.309  1.00  0.00     0.036 C 
HETATM    9  C21 UNL     1      -8.934  46.681   1.499  1.00  0.00     0.035 C 
HETATM   10  C22 UNL     1     -10.353  46.167   1.266  1.00  0.00     0.131 C 
HETATM   11  O5  UNL     1     -10.607  46.280  -0.076  1.00  0.00    -0.380 OA
ENDROOT
BRANCH   1  12
HETATM   12  C9  UNL     1     -10.886  43.939  -0.543  1.00  0.00     0.059 C 
BRANCH  12  13
HETATM   13  C8  UNL     1     -10.014  43.684  -1.693  1.00  0.00    -0.024 C 
HETATM   14  C7  UNL     1      -8.745  43.473  -1.635  1.00  0.00    -0.004 C 
BRANCH  14  15
HETATM   15  C6  UNL     1      -7.985  43.458  -0.411  1.00  0.00    -0.004 C 
HETATM   16  C5  UNL     1      -7.709  42.307   0.233  1.00  0.00    -0.027 C 
BRANCH  16  17
HETATM   17  C4  UNL     1      -6.927  42.374   1.476  1.00  0.00     0.027 C 
BRANCH  17  18
HETATM   18  C3  UNL     1      -6.556  43.794   1.777  1.00  0.00     0.003 C 
BRANCH  18  19
HETATM   19  C2  UNL     1      -5.565  43.833   2.895  1.00  0.00    -0.004 C 
HETATM   20  C1  UNL     1      -6.256  43.449   4.203  1.00  0.00     0.005 C 
ENDBRANCH  18  19
ENDBRANCH  17  18
ENDBRANCH  16  17
ENDBRANCH  14  15
ENDBRANCH  12  13
ENDBRANCH   1  12
BRANCH   4  21
HETATM   21  O1  UNL     1     -13.650  48.890   0.057  1.00  0.00    -0.393 OA
ATOM     22  H1  UNL     1     -13.166  49.696  -0.084  1.00  0.00     0.210 HD
ENDBRANCH   4  21
BRANCH   5  23
HETATM   23  O2  UNL     1     -11.972  49.422   1.741  1.00  0.00    -0.392 OA
ATOM     24  H2  UNL     1     -11.316  50.093   1.596  1.00  0.00     0.210 HD
ENDBRANCH   5  23
BRANCH   7  25
HETATM   25  O3  UNL     1     -10.839  48.789   3.765  1.00  0.00    -0.298 OA
BRANCH  25  26
HETATM   26  C17 UNL     1     -11.084  48.792   5.127  1.00  0.00     0.362 C 
HETATM   27  O4  UNL     1     -10.573  47.864   5.796  1.00  0.00    -0.238 OA
HETATM   28  N1  UNL     1     -11.881  49.805   5.737  1.00  0.00    -0.337 N 
HETATM   29  C18 UNL     1     -12.086  49.729   7.168  1.00  0.00     0.154 C 
HETATM   30  C19 UNL     1     -12.480  50.879   5.007  1.00  0.00     0.154 C 
ENDBRANCH  25  26
ENDBRANCH   7  25
TORSDOF 10
ENDMDL
MODEL 5
REMARK VINA RESULT: -6.496413776      3.406      7.429
REMARK  10 active torsions:
REMARK  status: ('A' for Active; 'I' for Inactive)
REMARK    1  A    between atoms: C2_2  and  C3_3 
REMARK    2  A    between atoms: C3_3  and  C4_4 
REMARK    3  A    between atoms: C4_4  and  C5_5 
REMARK    4  A    between atoms: C6_6  and  C7_7 
REMARK    5  A    between atoms: C8_8  and  C9_9 
REMARK    6  A    between atoms: C9_9  and  C10_10 
REMARK    7  A    between atoms: C13_13  and  O1_14 
REMARK    8  A    between atoms: C14_16  and  O2_17 
REMARK    9  A    between atoms: C16_20  and  O3_21 
REMARK   10  A    between atoms: O3_21  and  C17_22 
REMARK       I    between atoms: C17_22  and  N1_24 
ROOT
HETATM    1  C10 UNL     1      -9.166  44.947  -0.442  1.00  0.00     0.125 C 
HETATM    2  C11 UNL     1      -9.731  46.107   0.275  1.00  0.00     0.035 C 
HETATM    3  C12 UNL     1      -8.784  47.081   0.868  1.00  0.00     0.037 C 
HETATM    4  C13 UNL     1      -7.355  46.933   0.532  1.00  0.00     0.147 C 
HETATM    5  C14 UNL     1      -6.558  45.982   1.338  1.00  0.00     0.155 C 
HETATM    6  C15 UNL     1      -7.346  45.041   2.195  1.00  0.00     0.075 C 
HETATM    7  C16 UNL     1      -6.430  44.244   3.090  1.00  0.00     0.142 C 
HETATM    8  C20 UNL     1      -5.735  43.338   2.129  1.00  0.00     0.036 C 
HETATM    9  C21 UNL     1      -6.884  42.841   1.276  1.00  0.00     0.035 C 
HETATM   10  C22 UNL     1      -7.922  43.961   1.267  1.00  0.00     0.131 C 
HETATM   11  O5  UNL     1      -7.975  44.451  -0.011  1.00  0.00    -0.380 OA
ENDROOT
BRANCH   1  12
HETATM   12  C9  UNL     1     -10.256  43.858  -0.482  1.00  0.00     0.059 C 
BRANCH  12  13
HETATM   13  C8  UNL     1     -10.302  43.258  -1.818  1.00  0.00    -0.024 C 
HETATM   14  C7  UNL     1     -11.359  43.125  -2.541  1.00  0.00    -0.004 C 
BRANCH  14  15
HETATM   15  C6  UNL     1     -12.674  43.554  -2.133  1.00  0.00    -0.004 C 
HETATM   16  C5  UNL     1     -13.196  44.722  -2.557  1.00  0.00    -0.027 C 
BRANCH  16  17
HETATM   17  C4  UNL     1     -14.543  45.090  -2.097  1.00  0.00     0.027 C 
BRANCH  17  18
HETATM   18  C3  UNL     1     -15.576  44.547  -3.038  1.00  0.00     0.003 C 
BRANCH  18  19
HETATM   19  C2  UNL     1     -15.325  45.062  -4.418  1.00  0.00    -0.004 C 
HETATM   20  C1  UNL     1     -16.232  44.332  -5.408  1.00  0.00     0.005 C 
ENDBRANCH  18  19
ENDBRANCH  17  18
ENDBRANCH  16  17
ENDBRANCH  14  15
ENDBRANCH  12  13
ENDBRANCH   1  12
BRANCH   4  21
HETATM   21  O1  UNL     1      -6.762  48.211   0.682  1.00  0.00    -0.393 OA
ATOM     22  H1  UNL     1      -6.496  48.496  -0.184  1.00  0.00     0.210 HD
ENDBRANCH   4  21
BRANCH   5  23
HETATM   23  O2  UNL     1      -5.543  46.630   2.080  1.00  0.00    -0.392 OA
ATOM     24  H2  UNL     1      -5.109  47.309   1.577  1.00  0.00     0.210 HD
ENDBRANCH   5  23
BRANCH   7  25
HETATM   25  O3  UNL     1      -5.594  45.031   3.875  1.00  0.00    -0.298 OA
BRANCH  25  26
HETATM   26  C17 UNL     1      -5.976  45.572   5.089  1.00  0.00     0.362 C 
HETATM   27  O4  UNL     1      -6.758  46.550   5.052  1.00  0.00    -0.238 OA
HETATM   28  N1  UNL     1      -5.501  45.039   6.324  1.00  0.00    -0.337 N 
HETATM   29  C18 UNL     1      -5.952  45.669   7.546  1.00  0.00     0.154 C 
HETATM   30  C19 UNL     1      -4.609  43.925   6.407  1.00  0.00     0.154 C 
ENDBRANCH  25  26
ENDBRANCH   7  25
TORSDOF 10
ENDMDL
