MODEL 1
REMARK VINA RESULT: -6.586836887      0.000      0.000
REMARK  8 active torsions:
REMARK  status: ('A' for Active; 'I' for Inactive)
REMARK    1  A    between atoms: C2_2  and  C3_3 
REMARK    2  A    between atoms: C3_3  and  C4_4 
REMARK    3  A    between atoms: C4_4  and  C5_5 
REMARK    4  A    between atoms: C5_5  and  C6_6 
REMARK    5  A    between atoms: N1_10  and  C10_11 
REMARK    6  A    between atoms: C10_11  and  C11_12 
REMARK    7  A    between atoms: C16_17  and  C17_18 
REMARK    8  A    between atoms: C18_19  and  C19_20 
ROOT
HETATM    1  C11 UNL     1     -11.043  45.756   0.555  1.00  0.00    -0.029 A 
HETATM    2  C12 UNL     1     -12.164  45.982  -0.210  1.00  0.00     0.015 A 
HETATM    3  C13 UNL     1     -12.583  47.287  -0.358  1.00  0.00    -0.061 A 
HETATM    4  C14 UNL     1     -13.803  47.565  -1.184  1.00  0.00     0.048 C 
HETATM    5  C15 UNL     1     -11.898  48.318   0.242  1.00  0.00     0.018 A 
HETATM    6  C16 UNL     1     -10.763  48.124   1.021  1.00  0.00    -0.028 A 
HETATM    7  C23 UNL     1     -10.362  46.789   1.153  1.00  0.00     0.021 A 
ENDROOT
BRANCH   6   8
HETATM    8  C17 UNL     1     -10.054  49.211   1.657  1.00  0.00    -0.035 C 
HETATM    9  C18 UNL     1      -9.079  49.894   1.122  1.00  0.00     0.012 C 
HETATM   10  C20 UNL     1      -8.371  51.010   1.845  1.00  0.00     0.157 C 
HETATM   11  N6  UNL     1      -9.148  51.644   2.847  1.00  0.00    -0.417 N 
HETATM   12  C21 UNL     1     -10.453  51.118   3.079  1.00  0.00     0.118 C 
ATOM     13  H6  UNL     1      -8.790  52.440   3.377  1.00  0.00     0.153 HD
HETATM   14  C22 UNL     1     -10.455  49.604   3.053  1.00  0.00     0.059 C 
BRANCH   9  15
HETATM   15  C19 UNL     1      -8.603  49.606  -0.238  1.00  0.00     0.139 A 
HETATM   16  N2  UNL     1      -9.055  50.177  -1.385  1.00  0.00    -0.270 N 
HETATM   17  N3  UNL     1      -8.378  49.655  -2.396  1.00  0.00    -0.007 NA
ATOM     18  H2  UNL     1      -9.787  50.884  -1.455  1.00  0.00     0.185 HD
HETATM   19  N4  UNL     1      -7.493  48.756  -1.945  1.00  0.00    -0.007 NA
HETATM   20  N5  UNL     1      -7.652  48.746  -0.616  1.00  0.00    -0.270 N 
ATOM     21  H5  UNL     1      -7.118  48.159   0.024  1.00  0.00     0.185 HD
ENDBRANCH   9  15
ENDBRANCH   6   8
BRANCH   1  22
HETATM   22  C10 UNL     1     -10.558  44.367   0.744  1.00  0.00     0.311 C 
BRANCH  22  23
HETATM   23  N1  UNL     1      -9.246  44.175   0.130  1.00  0.00     0.097 N 
HETATM   24  C6  UNL     1      -9.417  43.152  -0.916  1.00  0.00     0.223 C 
HETATM   25  C7  UNL     1      -8.112  42.486  -1.015  1.00  0.00     0.037 C 
HETATM   26  C8  UNL     1      -7.385  42.757   0.268  1.00  0.00     0.032 C 
HETATM   27  C9  UNL     1      -8.364  43.514   1.086  1.00  0.00     0.273 C 
BRANCH  24  28
HETATM   28  C5  UNL     1      -9.969  43.744  -2.153  1.00  0.00     0.036 C 
BRANCH  28  29
HETATM   29  C4  UNL     1     -10.987  42.990  -2.896  1.00  0.00     0.006 C 
BRANCH  29  30
HETATM   30  C3  UNL     1     -12.411  43.083  -2.489  1.00  0.00     0.026 C 
BRANCH  30  31
HETATM   31  C2  UNL     1     -13.074  44.129  -3.358  1.00  0.00    -0.037 C 
HETATM   32  C1  UNL     1     -14.306  44.497  -3.199  1.00  0.00     0.007 C 
ENDBRANCH  30  31
ENDBRANCH  29  30
ENDBRANCH  28  29
ENDBRANCH  24  28
ENDBRANCH  22  23
ENDBRANCH   1  22
TORSDOF 8
ENDMDL
MODEL 2
REMARK VINA RESULT: -6.540260870      3.723      6.825
REMARK  8 active torsions:
REMARK  status: ('A' for Active; 'I' for Inactive)
REMARK    1  A    between atoms: C2_2  and  C3_3 
REMARK    2  A    between atoms: C3_3  and  C4_4 
REMARK    3  A    between atoms: C4_4  and  C5_5 
REMARK    4  A    between atoms: C5_5  and  C6_6 
REMARK    5  A    between atoms: N1_10  and  C10_11 
REMARK    6  A    between atoms: C10_11  and  C11_12 
REMARK    7  A    between atoms: C16_17  and  C17_18 
REMARK    8  A    between atoms: C18_19  and  C19_20 
ROOT
HETATM    1  C11 UNL     1      -5.931  47.136   1.218  1.00  0.00    -0.029 A 
HETATM    2  C12 UNL     1      -5.608  48.085   0.275  1.00  0.00     0.015 A 
HETATM    3  C13 UNL     1      -6.257  48.024  -0.939  1.00  0.00    -0.061 A 
HETATM    4  C14 UNL     1      -5.924  49.043  -1.988  1.00  0.00     0.048 C 
HETATM    5  C15 UNL     1      -7.191  47.046  -1.190  1.00  0.00     0.018 A 
HETATM    6  C16 UNL     1      -7.541  46.074  -0.260  1.00  0.00    -0.028 A 
HETATM    7  C23 UNL     1      -6.865  46.161   0.964  1.00  0.00     0.021 A 
ENDROOT
BRANCH   6   8
HETATM    8  C17 UNL     1      -8.516  45.043  -0.533  1.00  0.00    -0.035 C 
HETATM    9  C18 UNL     1      -9.769  45.071  -0.168  1.00  0.00     0.012 C 
HETATM   10  C20 UNL     1     -10.733  43.955  -0.475  1.00  0.00     0.157 C 
HETATM   11  N6  UNL     1     -10.397  43.186  -1.616  1.00  0.00    -0.417 N 
HETATM   12  C21 UNL     1      -9.181  43.522  -2.282  1.00  0.00     0.118 C 
ATOM     13  H6  UNL     1     -10.995  42.428  -1.946  1.00  0.00     0.153 HD
HETATM   14  C22 UNL     1      -8.072  43.825  -1.297  1.00  0.00     0.059 C 
BRANCH   9  15
HETATM   15  C19 UNL     1     -10.320  46.210   0.579  1.00  0.00     0.139 A 
HETATM   16  N2  UNL     1     -10.409  46.317   1.930  1.00  0.00    -0.270 N 
HETATM   17  N3  UNL     1     -10.960  47.487   2.213  1.00  0.00    -0.007 NA
ATOM     18  H2  UNL     1     -10.105  45.618   2.608  1.00  0.00     0.185 HD
HETATM   19  N4  UNL     1     -11.236  48.153   1.084  1.00  0.00    -0.007 NA
HETATM   20  N5  UNL     1     -10.832  47.346   0.095  1.00  0.00    -0.270 N 
ATOM     21  H5  UNL     1     -10.905  47.569  -0.897  1.00  0.00     0.185 HD
ENDBRANCH   9  15
ENDBRANCH   6   8
BRANCH   1  22
HETATM   22  C10 UNL     1      -5.254  47.161   2.538  1.00  0.00     0.311 C 
BRANCH  22  23
HETATM   23  N1  UNL     1      -4.388  45.996   2.712  1.00  0.00     0.097 N 
HETATM   24  C6  UNL     1      -4.419  45.660   4.145  1.00  0.00     0.223 C 
HETATM   25  C7  UNL     1      -3.118  45.035   4.419  1.00  0.00     0.037 C 
HETATM   26  C8  UNL     1      -2.189  45.466   3.323  1.00  0.00     0.032 C 
HETATM   27  C9  UNL     1      -3.001  46.399   2.505  1.00  0.00     0.273 C 
BRANCH  24  28
HETATM   28  C5  UNL     1      -5.628  44.878   4.481  1.00  0.00     0.036 C 
BRANCH  28  29
HETATM   29  C4  UNL     1      -5.734  43.502   3.978  1.00  0.00     0.006 C 
BRANCH  29  30
HETATM   30  C3  UNL     1      -6.919  43.103   3.180  1.00  0.00     0.026 C 
BRANCH  30  31
HETATM   31  C2  UNL     1      -6.433  42.652   1.820  1.00  0.00    -0.037 C 
HETATM   32  C1  UNL     1      -5.263  42.958   1.355  1.00  0.00     0.007 C 
ENDBRANCH  30  31
ENDBRANCH  29  30
ENDBRANCH  28  29
ENDBRANCH  24  28
ENDBRANCH  22  23
ENDBRANCH   1  22
TORSDOF 8
ENDMDL
MODEL 3
REMARK VINA RESULT: -6.537266686      2.323      5.093
REMARK  8 active torsions:
REMARK  status: ('A' for Active; 'I' for Inactive)
REMARK    1  A    between atoms: C2_2  and  C3_3 
REMARK    2  A    between atoms: C3_3  and  C4_4 
REMARK    3  A    between atoms: C4_4  and  C5_5 
REMARK    4  A    between atoms: C5_5  and  C6_6 
REMARK    5  A    between atoms: N1_10  and  C10_11 
REMARK    6  A    between atoms: C10_11  and  C11_12 
REMARK    7  A    between atoms: C16_17  and  C17_18 
REMARK    8  A    between atoms: C18_19  and  C19_20 
ROOT
HETATM    1  C11 UNL     1     -10.446  44.358  -0.442  1.00  0.00    -0.029 A 
HETATM    2  C12 UNL     1      -9.645  43.245  -0.324  1.00  0.00     0.015 A 
HETATM    3  C13 UNL     1      -8.284  43.446  -0.233  1.00  0.00    -0.061 A 
HETATM    4  C14 UNL     1      -7.385  42.252  -0.106  1.00  0.00     0.048 C 
HETATM    5  C15 UNL     1      -7.757  44.716  -0.261  1.00  0.00     0.018 A 
HETATM    6  C16 UNL     1      -8.537  45.860  -0.379  1.00  0.00    -0.028 A 
HETATM    7  C23 UNL     1      -9.915  45.625  -0.469  1.00  0.00     0.021 A 
ENDROOT
BRANCH   6   8
HETATM    8  C17 UNL     1      -7.976  47.191  -0.417  1.00  0.00    -0.035 C 
HETATM    9  C18 UNL     1      -8.325  48.182   0.357  1.00  0.00     0.012 C 
HETATM   10  C20 UNL     1      -7.707  49.552   0.257  1.00  0.00     0.157 C 
HETATM   11  N6  UNL     1      -6.397  49.567  -0.281  1.00  0.00    -0.417 N 
HETATM   12  C21 UNL     1      -5.862  48.315  -0.706  1.00  0.00     0.118 C 
ATOM     13  H6  UNL     1      -5.861  50.432  -0.361  1.00  0.00     0.153 HD
HETATM   14  C22 UNL     1      -6.900  47.482  -1.428  1.00  0.00     0.059 C 
BRANCH   9  15
HETATM   15  C19 UNL     1      -9.361  48.017   1.386  1.00  0.00     0.139 A 
HETATM   16  N2  UNL     1      -9.210  47.398   2.586  1.00  0.00    -0.270 N 
HETATM   17  N3  UNL     1     -10.368  47.457   3.225  1.00  0.00    -0.007 NA
ATOM     18  H2  UNL     1      -8.355  46.964   2.934  1.00  0.00     0.185 HD
HETATM   19  N4  UNL     1     -11.276  48.099   2.478  1.00  0.00    -0.007 NA
HETATM   20  N5  UNL     1     -10.631  48.432   1.354  1.00  0.00    -0.270 N 
ATOM     21  H5  UNL     1     -11.053  48.937   0.575  1.00  0.00     0.185 HD
ENDBRANCH   9  15
ENDBRANCH   6   8
BRANCH   1  22
HETATM   22  C10 UNL     1     -11.916  44.189  -0.546  1.00  0.00     0.311 C 
BRANCH  22  23
HETATM   23  N1  UNL     1     -12.444  44.865  -1.730  1.00  0.00     0.097 N 
HETATM   24  C6  UNL     1     -13.690  45.529  -1.313  1.00  0.00     0.223 C 
HETATM   25  C7  UNL     1     -14.522  45.575  -2.523  1.00  0.00     0.037 C 
HETATM   26  C8  UNL     1     -13.995  44.523  -3.454  1.00  0.00     0.032 C 
HETATM   27  C9  UNL     1     -12.916  43.863  -2.680  1.00  0.00     0.273 C 
BRANCH  24  28
HETATM   28  C5  UNL     1     -13.407  46.815  -0.640  1.00  0.00     0.036 C 
BRANCH  28  29
HETATM   29  C4  UNL     1     -13.671  48.061  -1.371  1.00  0.00     0.006 C 
BRANCH  29  30
HETATM   30  C3  UNL     1     -12.584  49.058  -1.537  1.00  0.00     0.026 C 
BRANCH  30  31
HETATM   31  C2  UNL     1     -11.432  48.375  -2.240  1.00  0.00    -0.037 C 
HETATM   32  C1  UNL     1     -10.379  49.012  -2.646  1.00  0.00     0.007 C 
ENDBRANCH  30  31
ENDBRANCH  29  30
ENDBRANCH  28  29
ENDBRANCH  24  28
ENDBRANCH  22  23
ENDBRANCH   1  22
TORSDOF 8
ENDMDL
MODEL 4
REMARK VINA RESULT: -6.503084628      1.723      2.953
REMARK  8 active torsions:
REMARK  status: ('A' for Active; 'I' for Inactive)
REMARK    1  A    between atoms: C2_2  and  C3_3 
REMARK    2  A    between atoms: C3_3  and  C4_4 
REMARK    3  A    between atoms: C4_4  and  C5_5 
REMARK    4  A    between atoms: C5_5  and  C6_6 
REMARK    5  A    between atoms: N1_10  and  C10_11 
REMARK    6  A    between atoms: C10_11  and  C11_12 
REMARK    7  A    between atoms: C16_17  and  C17_18 
REMARK    8  A    between atoms: C18_19  and  C19_20 
ROOT
HETATM    1  C11 UNL     1     -10.720  45.600   0.546  1.00  0.00    -0.029 A 
HETATM    2  C12 UNL     1     -11.957  45.889   0.017  1.00  0.00     0.015 A 
HETATM    3  C13 UNL     1     -12.294  47.218  -0.128  1.00  0.00    -0.061 A 
HETATM    4  C14 UNL     1     -13.637  47.563  -0.698  1.00  0.00     0.048 C 
HETATM    5  C15 UNL     1     -11.420  48.211   0.247  1.00  0.00     0.018 A 
HETATM    6  C16 UNL     1     -10.163  47.954   0.783  1.00  0.00    -0.028 A 
HETATM    7  C23 UNL     1      -9.849  46.595   0.918  1.00  0.00     0.021 A 
ENDROOT
BRANCH   6   8
HETATM    8  C17 UNL     1      -9.253  49.002   1.183  1.00  0.00    -0.035 C 
HETATM    9  C18 UNL     1      -9.158  49.505   2.383  1.00  0.00     0.012 C 
HETATM   10  C20 UNL     1      -8.194  50.608   2.733  1.00  0.00     0.157 C 
HETATM   11  N6  UNL     1      -7.049  50.672   1.901  1.00  0.00    -0.417 N 
HETATM   12  C21 UNL     1      -6.985  49.739   0.823  1.00  0.00     0.118 C 
ATOM     13  H6  UNL     1      -6.306  51.352   2.064  1.00  0.00     0.153 HD
HETATM   14  C22 UNL     1      -8.329  49.579   0.145  1.00  0.00     0.059 C 
BRANCH   9  15
HETATM   15  C19 UNL     1     -10.005  49.019   3.482  1.00  0.00     0.139 A 
HETATM   16  N2  UNL     1     -11.152  49.595   3.927  1.00  0.00    -0.270 N 
HETATM   17  N3  UNL     1     -11.618  48.862   4.926  1.00  0.00    -0.007 NA
ATOM     18  H2  UNL     1     -11.580  50.444   3.556  1.00  0.00     0.185 HD
HETATM   19  N4  UNL     1     -10.808  47.818   5.149  1.00  0.00    -0.007 NA
HETATM   20  N5  UNL     1      -9.826  47.939   4.249  1.00  0.00    -0.270 N 
ATOM     21  H5  UNL     1      -9.043  47.292   4.159  1.00  0.00     0.185 HD
ENDBRANCH   9  15
ENDBRANCH   6   8
BRANCH   1  22
HETATM   22  C10 UNL     1     -10.316  44.184   0.723  1.00  0.00     0.311 C 
BRANCH  22  23
HETATM   23  N1  UNL     1      -8.953  43.957   0.244  1.00  0.00     0.097 N 
HETATM   24  C6  UNL     1      -9.039  42.908  -0.785  1.00  0.00     0.223 C 
HETATM   25  C7  UNL     1      -7.741  42.222  -0.740  1.00  0.00     0.037 C 
HETATM   26  C8  UNL     1      -7.138  42.519   0.600  1.00  0.00     0.032 C 
HETATM   27  C9  UNL     1      -8.179  43.311   1.298  1.00  0.00     0.273 C 
BRANCH  24  28
HETATM   28  C5  UNL     1      -9.460  43.473  -2.086  1.00  0.00     0.036 C 
BRANCH  28  29
HETATM   29  C4  UNL     1     -10.756  43.062  -2.641  1.00  0.00     0.006 C 
BRANCH  29  30
HETATM   30  C3  UNL     1     -11.658  44.082  -3.230  1.00  0.00     0.026 C 
BRANCH  30  31
HETATM   31  C2  UNL     1     -13.073  43.747  -2.812  1.00  0.00    -0.037 C 
HETATM   32  C1  UNL     1     -14.074  44.543  -3.019  1.00  0.00     0.007 C 
ENDBRANCH  30  31
ENDBRANCH  29  30
ENDBRANCH  28  29
ENDBRANCH  24  28
ENDBRANCH  22  23
ENDBRANCH   1  22
TORSDOF 8
ENDMDL
MODEL 5
REMARK VINA RESULT: -6.474003818      2.914      5.582
REMARK  8 active torsions:
REMARK  status: ('A' for Active; 'I' for Inactive)
REMARK    1  A    between atoms: C2_2  and  C3_3 
REMARK    2  A    between atoms: C3_3  and  C4_4 
REMARK    3  A    between atoms: C4_4  and  C5_5 
REMARK    4  A    between atoms: C5_5  and  C6_6 
REMARK    5  A    between atoms: N1_10  and  C10_11 
REMARK    6  A    between atoms: C10_11  and  C11_12 
REMARK    7  A    between atoms: C16_17  and  C17_18 
REMARK    8  A    between atoms: C18_19  and  C19_20 
ROOT
HETATM    1  C11 UNL     1      -8.485  47.172  -0.612  1.00  0.00    -0.029 A 
HETATM    2  C12 UNL     1      -7.592  47.910  -1.354  1.00  0.00     0.015 A 
HETATM    3  C13 UNL     1      -6.273  47.907  -0.953  1.00  0.00    -0.061 A 
HETATM    4  C14 UNL     1      -5.277  48.705  -1.741  1.00  0.00     0.048 C 
HETATM    5  C15 UNL     1      -5.875  47.190   0.151  1.00  0.00     0.018 A 
HETATM    6  C16 UNL     1      -6.751  46.434   0.922  1.00  0.00    -0.028 A 
HETATM    7  C23 UNL     1      -8.083  46.457   0.490  1.00  0.00     0.021 A 
ENDROOT
BRANCH   6   8
HETATM    8  C17 UNL     1      -6.327  45.691   2.086  1.00  0.00    -0.035 C 
HETATM    9  C18 UNL     1      -6.505  46.059   3.326  1.00  0.00     0.012 C 
HETATM   10  C20 UNL     1      -6.027  45.242   4.497  1.00  0.00     0.157 C 
HETATM   11  N6  UNL     1      -5.906  43.855   4.234  1.00  0.00    -0.417 N 
HETATM   12  C21 UNL     1      -6.189  43.426   2.904  1.00  0.00     0.118 C 
ATOM     13  H6  UNL     1      -5.629  43.195   4.961  1.00  0.00     0.153 HD
HETATM   14  C22 UNL     1      -5.617  44.381   1.877  1.00  0.00     0.059 C 
BRANCH   9  15
HETATM   15  C19 UNL     1      -7.190  47.317   3.656  1.00  0.00     0.139 A 
HETATM   16  N2  UNL     1      -8.502  47.456   3.980  1.00  0.00    -0.270 N 
HETATM   17  N3  UNL     1      -8.734  48.739   4.208  1.00  0.00    -0.007 NA
ATOM     18  H2  UNL     1      -9.189  46.703   4.037  1.00  0.00     0.185 HD
HETATM   19  N4  UNL     1      -7.609  49.448   4.043  1.00  0.00    -0.007 NA
HETATM   20  N5  UNL     1      -6.677  48.550   3.705  1.00  0.00    -0.270 N 
ATOM     21  H5  UNL     1      -5.702  48.777   3.510  1.00  0.00     0.185 HD
ENDBRANCH   9  15
ENDBRANCH   6   8
BRANCH   1  22
HETATM   22  C10 UNL     1      -9.915  47.149  -1.005  1.00  0.00     0.311 C 
BRANCH  22  23
HETATM   23  N1  UNL     1     -10.625  46.048  -0.357  1.00  0.00     0.097 N 
HETATM   24  C6  UNL     1     -11.438  45.401  -1.400  1.00  0.00     0.223 C 
HETATM   25  C7  UNL     1     -12.593  44.837  -0.689  1.00  0.00     0.037 C 
HETATM   26  C8  UNL     1     -12.705  45.573   0.613  1.00  0.00     0.032 C 
HETATM   27  C9  UNL     1     -11.634  46.596   0.543  1.00  0.00     0.273 C 
BRANCH  24  28
HETATM   28  C5  UNL     1     -10.622  44.470  -2.208  1.00  0.00     0.036 C 
BRANCH  28  29
HETATM   29  C4  UNL     1      -9.789  43.482  -1.509  1.00  0.00     0.006 C 
BRANCH  29  30
HETATM   30  C3  UNL     1      -8.348  43.369  -1.846  1.00  0.00     0.026 C 
BRANCH  30  31
HETATM   31  C2  UNL     1      -7.613  42.930  -0.599  1.00  0.00    -0.037 C 
HETATM   32  C1  UNL     1      -7.670  41.720  -0.138  1.00  0.00     0.007 C 
ENDBRANCH  30  31
ENDBRANCH  29  30
ENDBRANCH  28  29
ENDBRANCH  24  28
ENDBRANCH  22  23
ENDBRANCH   1  22
TORSDOF 8
ENDMDL
