MODEL 1
REMARK VINA RESULT: -5.173481933      0.000      0.000
REMARK  9 active torsions:
REMARK  status: ('A' for Active; 'I' for Inactive)
REMARK    1  A    between atoms: C2_2  and  N1_3 
REMARK    2  A    between atoms: N1_3  and  C3_4 
REMARK       I    between atoms: N1_3  and  C9_12 
REMARK    3  A    between atoms: C3_4  and  C4_5 
REMARK    4  A    between atoms: C4_5  and  N2_6 
REMARK    5  A    between atoms: C9_12  and  C10_14 
REMARK    6  A    between atoms: C11_17  and  N4_18 
REMARK    7  A    between atoms: C12_22  and  C13_23 
REMARK    8  A    between atoms: C13_23  and  C15_25 
REMARK    9  A    between atoms: C13_23  and  C17_27 
ROOT
HETATM    1  C10 UNL     1     -11.326  45.344  -1.014  1.00  0.00     0.117 A 
HETATM    2  N3  UNL     1     -12.313  45.266  -1.897  1.00  0.00    -0.332 N 
ATOM      3  H3  UNL     1     -13.096  45.918  -1.841  1.00  0.00     0.168 HD
HETATM    4  C11 UNL     1     -12.290  44.347  -2.853  1.00  0.00     0.143 A 
HETATM    5  S2  UNL     1     -10.847  43.538  -2.541  1.00  0.00    -0.056 SA
HETATM    6  C12 UNL     1     -10.297  44.428  -1.154  1.00  0.00     0.027 A 
ENDROOT
BRANCH   1   7
HETATM    7  C9  UNL     1     -11.302  46.314   0.076  1.00  0.00     0.271 C 
HETATM    8  N1  UNL     1     -10.972  47.686   0.099  1.00  0.00    -0.345 N 
HETATM    9  O1  UNL     1     -11.634  45.927   1.265  1.00  0.00    -0.266 OA
BRANCH   8  10
HETATM   10  C2  UNL     1     -11.088  48.338   1.465  1.00  0.00     0.121 C 
HETATM   11  C1  UNL     1     -11.229  49.826   1.312  1.00  0.00     0.026 C 
ENDBRANCH   8  10
BRANCH   8  12
HETATM   12  C3  UNL     1     -10.537  48.579  -0.906  1.00  0.00     0.156 C 
BRANCH  12  13
HETATM   13  C4  UNL     1      -9.228  48.268  -1.550  1.00  0.00     0.292 C 
BRANCH  13  14
HETATM   14  N2  UNL     1      -8.055  48.601  -0.768  1.00  0.00     0.091 N 
HETATM   15  C5  UNL     1      -8.012  50.050  -0.541  1.00  0.00     0.282 C 
HETATM   16  C6  UNL     1      -7.331  50.268   0.786  1.00  0.00     0.104 C 
HETATM   17  S1  UNL     1      -6.210  48.856   1.077  1.00  0.00    -0.166 SA
HETATM   18  C7  UNL     1      -5.697  48.256  -0.562  1.00  0.00     0.104 C 
HETATM   19  C8  UNL     1      -6.836  48.326  -1.554  1.00  0.00     0.282 C 
ENDBRANCH  13  14
ENDBRANCH  12  13
ENDBRANCH   8  12
ENDBRANCH   1   7
BRANCH   6  20
HETATM   20  C13 UNL     1      -9.079  44.044  -0.482  1.00  0.00    -0.009 C 
HETATM   21  C14 UNL     1      -9.388  43.443   0.880  1.00  0.00     0.021 C 
BRANCH  20  22
HETATM   22  C15 UNL     1      -7.933  44.969  -0.369  1.00  0.00     0.010 C 
HETATM   23  C16 UNL     1      -7.858  45.402   1.106  1.00  0.00     0.006 C 
ENDBRANCH  20  22
BRANCH  20  24
HETATM   24  C17 UNL     1      -8.463  42.836  -1.262  1.00  0.00     0.010 C 
HETATM   25  C18 UNL     1      -7.713  41.882  -0.429  1.00  0.00     0.006 C 
ENDBRANCH  20  24
ENDBRANCH   6  20
BRANCH   4  26
HETATM   26  N4  UNL     1     -13.179  44.134  -3.804  1.00  0.00    -0.380 N 
ATOM     27  H42 UNL     1     -13.057  44.147  -4.816  1.00  0.00     0.158 HD
ATOM     28  H41 UNL     1     -14.170  43.918  -3.704  1.00  0.00     0.158 HD
ENDBRANCH   4  26
TORSDOF 9
ENDMDL
MODEL 2
REMARK VINA RESULT: -5.151948655      2.664      4.356
REMARK  9 active torsions:
REMARK  status: ('A' for Active; 'I' for Inactive)
REMARK    1  A    between atoms: C2_2  and  N1_3 
REMARK    2  A    between atoms: N1_3  and  C3_4 
REMARK       I    between atoms: N1_3  and  C9_12 
REMARK    3  A    between atoms: C3_4  and  C4_5 
REMARK    4  A    between atoms: C4_5  and  N2_6 
REMARK    5  A    between atoms: C9_12  and  C10_14 
REMARK    6  A    between atoms: C11_17  and  N4_18 
REMARK    7  A    between atoms: C12_22  and  C13_23 
REMARK    8  A    between atoms: C13_23  and  C15_25 
REMARK    9  A    between atoms: C13_23  and  C17_27 
ROOT
HETATM    1  C10 UNL     1     -10.229  44.856   0.103  1.00  0.00     0.117 A 
HETATM    2  N3  UNL     1      -9.269  43.967   0.327  1.00  0.00    -0.332 N 
ATOM      3  H3  UNL     1      -8.754  43.988   1.207  1.00  0.00     0.168 HD
HETATM    4  C11 UNL     1      -8.976  43.050  -0.585  1.00  0.00     0.143 A 
HETATM    5  S2  UNL     1     -10.060  43.409  -1.821  1.00  0.00    -0.056 SA
HETATM    6  C12 UNL     1     -10.885  44.764  -1.113  1.00  0.00     0.027 A 
ENDROOT
BRANCH   1   7
HETATM    7  C9  UNL     1     -10.584  45.906   1.052  1.00  0.00     0.271 C 
HETATM    8  N1  UNL     1      -9.834  46.972   1.589  1.00  0.00    -0.345 N 
HETATM    9  O1  UNL     1     -11.786  45.936   1.530  1.00  0.00    -0.266 OA
BRANCH   8  10
HETATM   10  C2  UNL     1     -10.600  47.856   2.558  1.00  0.00     0.121 C 
HETATM   11  C1  UNL     1     -10.843  49.204   1.940  1.00  0.00     0.026 C 
ENDBRANCH   8  10
BRANCH   8  12
HETATM   12  C3  UNL     1      -8.491  47.377   1.414  1.00  0.00     0.156 C 
BRANCH  12  13
HETATM   13  C4  UNL     1      -7.599  47.253   2.604  1.00  0.00     0.292 C 
BRANCH  13  14
HETATM   14  N2  UNL     1      -6.938  45.973   2.755  1.00  0.00     0.091 N 
HETATM   15  C5  UNL     1      -5.930  46.065   3.818  1.00  0.00     0.282 C 
HETATM   16  C6  UNL     1      -5.831  44.699   4.449  1.00  0.00     0.104 C 
HETATM   17  S1  UNL     1      -6.308  43.465   3.190  1.00  0.00    -0.166 SA
HETATM   18  C7  UNL     1      -5.880  44.182   1.574  1.00  0.00     0.104 C 
HETATM   19  C8  UNL     1      -6.152  45.669   1.543  1.00  0.00     0.282 C 
ENDBRANCH  13  14
ENDBRANCH  12  13
ENDBRANCH   8  12
ENDBRANCH   1   7
BRANCH   6  20
HETATM   20  C13 UNL     1     -11.904  45.463  -1.859  1.00  0.00    -0.009 C 
HETATM   21  C14 UNL     1     -11.406  46.836  -2.283  1.00  0.00     0.021 C 
BRANCH  20  22
HETATM   22  C15 UNL     1     -13.291  45.568  -1.362  1.00  0.00     0.010 C 
HETATM   23  C16 UNL     1     -13.613  47.071  -1.266  1.00  0.00     0.006 C 
ENDBRANCH  20  22
BRANCH  20  24
HETATM   24  C17 UNL     1     -12.089  44.723  -3.224  1.00  0.00     0.010 C 
HETATM   25  C18 UNL     1     -13.436  44.171  -3.448  1.00  0.00     0.006 C 
ENDBRANCH  20  24
ENDBRANCH   6  20
BRANCH   4  26
HETATM   26  N4  UNL     1      -8.063  42.099  -0.523  1.00  0.00    -0.380 N 
ATOM     27  H42 UNL     1      -7.086  42.121  -0.816  1.00  0.00     0.158 HD
ATOM     28  H41 UNL     1      -8.166  41.148  -0.169  1.00  0.00     0.158 HD
ENDBRANCH   4  26
TORSDOF 9
ENDMDL
MODEL 3
REMARK VINA RESULT: -5.083487056      3.141      6.156
REMARK  9 active torsions:
REMARK  status: ('A' for Active; 'I' for Inactive)
REMARK    1  A    between atoms: C2_2  and  N1_3 
REMARK    2  A    between atoms: N1_3  and  C3_4 
REMARK       I    between atoms: N1_3  and  C9_12 
REMARK    3  A    between atoms: C3_4  and  C4_5 
REMARK    4  A    between atoms: C4_5  and  N2_6 
REMARK    5  A    between atoms: C9_12  and  C10_14 
REMARK    6  A    between atoms: C11_17  and  N4_18 
REMARK    7  A    between atoms: C12_22  and  C13_23 
REMARK    8  A    between atoms: C13_23  and  C15_25 
REMARK    9  A    between atoms: C13_23  and  C17_27 
ROOT
HETATM    1  C10 UNL     1      -7.328  46.270   2.284  1.00  0.00     0.117 A 
HETATM    2  N3  UNL     1      -8.080  47.217   2.832  1.00  0.00    -0.332 N 
ATOM      3  H3  UNL     1      -8.776  47.701   2.265  1.00  0.00     0.168 HD
HETATM    4  C11 UNL     1      -7.932  47.537   4.110  1.00  0.00     0.143 A 
HETATM    5  S2  UNL     1      -6.703  46.498   4.603  1.00  0.00    -0.056 SA
HETATM    6  C12 UNL     1      -6.404  45.656   3.113  1.00  0.00     0.027 A 
ENDROOT
BRANCH   1   7
HETATM    7  C9  UNL     1      -7.421  45.887   0.879  1.00  0.00     0.271 C 
HETATM    8  N1  UNL     1      -8.242  44.949   0.219  1.00  0.00    -0.345 N 
HETATM    9  O1  UNL     1      -6.649  46.469   0.019  1.00  0.00    -0.266 OA
BRANCH   8  10
HETATM   10  C2  UNL     1      -8.021  44.863  -1.281  1.00  0.00     0.121 C 
HETATM   11  C1  UNL     1      -8.032  43.426  -1.719  1.00  0.00     0.026 C 
ENDBRANCH   8  10
BRANCH   8  12
HETATM   12  C3  UNL     1      -9.231  44.053   0.685  1.00  0.00     0.156 C 
BRANCH  12  13
HETATM   13  C4  UNL     1     -10.540  44.652   1.076  1.00  0.00     0.292 C 
BRANCH  13  14
HETATM   14  N2  UNL     1     -11.261  45.321   0.012  1.00  0.00     0.091 N 
HETATM   15  C5  UNL     1     -12.580  45.740   0.503  1.00  0.00     0.282 C 
HETATM   16  C6  UNL     1     -12.954  46.989  -0.253  1.00  0.00     0.104 C 
HETATM   17  S1  UNL     1     -12.104  46.941  -1.869  1.00  0.00    -0.166 SA
HETATM   18  C7  UNL     1     -11.893  45.183  -2.290  1.00  0.00     0.104 C 
HETATM   19  C8  UNL     1     -11.569  44.360  -1.065  1.00  0.00     0.282 C 
ENDBRANCH  13  14
ENDBRANCH  12  13
ENDBRANCH   8  12
ENDBRANCH   1   7
BRANCH   6  20
HETATM   20  C13 UNL     1      -5.356  44.667   3.037  1.00  0.00    -0.009 C 
HETATM   21  C14 UNL     1      -4.685  44.497   4.390  1.00  0.00     0.021 C 
BRANCH  20  22
HETATM   22  C15 UNL     1      -4.332  44.707   1.974  1.00  0.00     0.010 C 
HETATM   23  C16 UNL     1      -3.017  45.148   2.643  1.00  0.00     0.006 C 
ENDBRANCH  20  22
BRANCH  20  24
HETATM   24  C17 UNL     1      -6.030  43.274   2.806  1.00  0.00     0.010 C 
HETATM   25  C18 UNL     1      -5.781  42.681   1.482  1.00  0.00     0.006 C 
ENDBRANCH  20  24
ENDBRANCH   6  20
BRANCH   4  26
HETATM   26  N4  UNL     1      -8.592  48.442   4.807  1.00  0.00    -0.380 N 
ATOM     27  H42 UNL     1      -9.524  48.825   4.650  1.00  0.00     0.158 HD
ATOM     28  H41 UNL     1      -8.288  48.938   5.644  1.00  0.00     0.158 HD
ENDBRANCH   4  26
TORSDOF 9
ENDMDL
MODEL 4
REMARK VINA RESULT: -5.072547270      0.653      1.477
REMARK  9 active torsions:
REMARK  status: ('A' for Active; 'I' for Inactive)
REMARK    1  A    between atoms: C2_2  and  N1_3 
REMARK    2  A    between atoms: N1_3  and  C3_4 
REMARK       I    between atoms: N1_3  and  C9_12 
REMARK    3  A    between atoms: C3_4  and  C4_5 
REMARK    4  A    between atoms: C4_5  and  N2_6 
REMARK    5  A    between atoms: C9_12  and  C10_14 
REMARK    6  A    between atoms: C11_17  and  N4_18 
REMARK    7  A    between atoms: C12_22  and  C13_23 
REMARK    8  A    between atoms: C13_23  and  C15_25 
REMARK    9  A    between atoms: C13_23  and  C17_27 
ROOT
HETATM    1  C10 UNL     1     -11.470  44.994  -0.910  1.00  0.00     0.117 A 
HETATM    2  N3  UNL     1     -12.635  45.012  -1.546  1.00  0.00    -0.332 N 
ATOM      3  H3  UNL     1     -13.381  45.626  -1.219  1.00  0.00     0.168 HD
HETATM    4  C11 UNL     1     -12.836  44.237  -2.602  1.00  0.00     0.143 A 
HETATM    5  S2  UNL     1     -11.364  43.434  -2.748  1.00  0.00    -0.056 SA
HETATM    6  C12 UNL     1     -10.505  44.136  -1.411  1.00  0.00     0.027 A 
ENDROOT
BRANCH   1   7
HETATM    7  C9  UNL     1     -11.191  45.802   0.273  1.00  0.00     0.271 C 
HETATM    8  N1  UNL     1     -10.943  47.182   0.424  1.00  0.00    -0.345 N 
HETATM    9  O1  UNL     1     -11.152  45.224   1.430  1.00  0.00    -0.266 OA
BRANCH   8  10
HETATM   10  C2  UNL     1     -10.703  47.626   1.856  1.00  0.00     0.121 C 
HETATM   11  C1  UNL     1     -11.113  49.061   2.024  1.00  0.00     0.026 C 
ENDBRANCH   8  10
BRANCH   8  12
HETATM   12  C3  UNL     1     -10.859  48.244  -0.506  1.00  0.00     0.156 C 
BRANCH  12  13
HETATM   13  C4  UNL     1      -9.637  48.282  -1.361  1.00  0.00     0.292 C 
BRANCH  13  14
HETATM   14  N2  UNL     1      -8.408  48.626  -0.676  1.00  0.00     0.091 N 
HETATM   15  C5  UNL     1      -8.418  50.055  -0.341  1.00  0.00     0.282 C 
HETATM   16  C6  UNL     1      -7.615  50.215   0.925  1.00  0.00     0.104 C 
HETATM   17  S1  UNL     1      -6.397  48.856   0.990  1.00  0.00    -0.166 SA
HETATM   18  C7  UNL     1      -6.027  48.409  -0.735  1.00  0.00     0.104 C 
HETATM   19  C8  UNL     1      -7.264  48.484  -1.599  1.00  0.00     0.282 C 
ENDBRANCH  13  14
ENDBRANCH  12  13
ENDBRANCH   8  12
ENDBRANCH   1   7
BRANCH   6  20
HETATM   20  C13 UNL     1      -9.167  43.697  -1.098  1.00  0.00    -0.009 C 
HETATM   21  C14 UNL     1      -8.557  42.962  -2.281  1.00  0.00     0.021 C 
BRANCH  20  22
HETATM   22  C15 UNL     1      -8.863  42.969   0.151  1.00  0.00     0.010 C 
HETATM   23  C16 UNL     1      -7.938  41.800  -0.233  1.00  0.00     0.006 C 
ENDBRANCH  20  22
BRANCH  20  24
HETATM   24  C17 UNL     1      -8.263  44.968  -0.977  1.00  0.00     0.010 C 
HETATM   25  C18 UNL     1      -7.702  45.200   0.365  1.00  0.00     0.006 C 
ENDBRANCH  20  24
ENDBRANCH   6  20
BRANCH   4  26
HETATM   26  N4  UNL     1     -13.921  44.134  -3.345  1.00  0.00    -0.380 N 
ATOM     27  H42 UNL     1     -14.516  44.870  -3.727  1.00  0.00     0.158 HD
ATOM     28  H41 UNL     1     -14.379  43.286  -3.681  1.00  0.00     0.158 HD
ENDBRANCH   4  26
TORSDOF 9
ENDMDL
MODEL 5
REMARK VINA RESULT: -5.044524106      1.905      2.413
REMARK  9 active torsions:
REMARK  status: ('A' for Active; 'I' for Inactive)
REMARK    1  A    between atoms: C2_2  and  N1_3 
REMARK    2  A    between atoms: N1_3  and  C3_4 
REMARK       I    between atoms: N1_3  and  C9_12 
REMARK    3  A    between atoms: C3_4  and  C4_5 
REMARK    4  A    between atoms: C4_5  and  N2_6 
REMARK    5  A    between atoms: C9_12  and  C10_14 
REMARK    6  A    between atoms: C11_17  and  N4_18 
REMARK    7  A    between atoms: C12_22  and  C13_23 
REMARK    8  A    between atoms: C13_23  and  C15_25 
REMARK    9  A    between atoms: C13_23  and  C17_27 
ROOT
HETATM    1  C10 UNL     1     -11.444  45.357  -1.070  1.00  0.00     0.117 A 
HETATM    2  N3  UNL     1     -12.426  45.247  -1.956  1.00  0.00    -0.332 N 
ATOM      3  H3  UNL     1     -13.233  45.868  -1.896  1.00  0.00     0.168 HD
HETATM    4  C11 UNL     1     -12.365  44.337  -2.917  1.00  0.00     0.143 A 
HETATM    5  S2  UNL     1     -10.893  43.581  -2.608  1.00  0.00    -0.056 SA
HETATM    6  C12 UNL     1     -10.381  44.481  -1.213  1.00  0.00     0.027 A 
ENDROOT
BRANCH   1   7
HETATM    7  C9  UNL     1     -11.459  46.319   0.027  1.00  0.00     0.271 C 
HETATM    8  N1  UNL     1     -10.819  47.566   0.185  1.00  0.00    -0.345 N 
HETATM    9  O1  UNL     1     -12.167  46.058   1.078  1.00  0.00    -0.266 OA
BRANCH   8  10
HETATM   10  C2  UNL     1     -11.113  48.262   1.502  1.00  0.00     0.121 C 
HETATM   11  C1  UNL     1     -11.261  49.741   1.278  1.00  0.00     0.026 C 
ENDBRANCH   8  10
BRANCH   8  12
HETATM   12  C3  UNL     1      -9.936  48.297  -0.643  1.00  0.00     0.156 C 
BRANCH  12  13
HETATM   13  C4  UNL     1     -10.395  48.554  -2.039  1.00  0.00     0.292 C 
BRANCH  13  14
HETATM   14  N2  UNL     1     -10.012  49.836  -2.594  1.00  0.00     0.091 N 
HETATM   15  C5  UNL     1      -8.870  50.373  -1.844  1.00  0.00     0.282 C 
HETATM   16  C6  UNL     1      -8.062  51.203  -2.809  1.00  0.00     0.104 C 
HETATM   17  S1  UNL     1      -9.196  51.819  -4.101  1.00  0.00    -0.166 SA
HETATM   18  C7  UNL     1     -10.837  51.958  -3.328  1.00  0.00     0.104 C 
HETATM   19  C8  UNL     1     -11.086  50.822  -2.362  1.00  0.00     0.282 C 
ENDBRANCH  13  14
ENDBRANCH  12  13
ENDBRANCH   8  12
ENDBRANCH   1   7
BRANCH   6  20
HETATM   20  C13 UNL     1      -9.150  44.139  -0.542  1.00  0.00    -0.009 C 
HETATM   21  C14 UNL     1      -9.437  43.581   0.843  1.00  0.00     0.021 C 
BRANCH  20  22
HETATM   22  C15 UNL     1      -8.018  45.084  -0.473  1.00  0.00     0.010 C 
HETATM   23  C16 UNL     1      -7.884  45.508   1.001  1.00  0.00     0.006 C 
ENDBRANCH  20  22
BRANCH  20  24
HETATM   24  C17 UNL     1      -8.524  42.914  -1.287  1.00  0.00     0.010 C 
HETATM   25  C18 UNL     1      -7.806  41.966  -0.418  1.00  0.00     0.006 C 
ENDBRANCH  20  24
ENDBRANCH   6  20
BRANCH   4  26
HETATM   26  N4  UNL     1     -13.244  44.097  -3.872  1.00  0.00    -0.380 N 
ATOM     27  H42 UNL     1     -13.336  44.533  -4.790  1.00  0.00     0.158 HD
ATOM     28  H41 UNL     1     -14.010  43.424  -3.871  1.00  0.00     0.158 HD
ENDBRANCH   4  26
TORSDOF 9
ENDMDL
