MODEL 1
REMARK VINA RESULT: -6.954222594      0.000      0.000
REMARK  11 active torsions:
REMARK  status: ('A' for Active; 'I' for Inactive)
REMARK    1  A    between atoms: C2_2  and  C3_3 
REMARK    2  A    between atoms: C3_3  and  O1_4 
REMARK    3  A    between atoms: O1_4  and  C4_5 
REMARK    4  A    between atoms: C12_13  and  C13_14 
REMARK    5  A    between atoms: C13_14  and  C14_15 
REMARK    6  A    between atoms: C19_20  and  C20_21 
REMARK    7  A    between atoms: C20_21  and  O2_22 
REMARK    8  A    between atoms: C20_21  and  C21_24 
REMARK    9  A    between atoms: C21_24  and  N1_25 
REMARK   10  A    between atoms: N1_25  and  C22_27 
REMARK   11  A    between atoms: C25_30  and  O3_31 
ROOT
HETATM    1  C14 UNL     1      -6.973  46.636   0.912  1.00  0.00    -0.057 A 
HETATM    2  C15 UNL     1      -6.847  47.456  -0.217  1.00  0.00     0.007 A 
HETATM    3  C16 UNL     1      -7.909  48.094  -0.807  1.00  0.00     0.008 A 
HETATM    4  C17 UNL     1      -9.179  47.929  -0.271  1.00  0.00    -0.053 A 
HETATM    5  C18 UNL     1     -10.357  48.624  -0.910  1.00  0.00     0.049 C 
HETATM    6  C19 UNL     1      -9.341  47.131   0.835  1.00  0.00    -0.018 A 
HETATM    7  C28 UNL     1      -8.250  46.508   1.398  1.00  0.00     0.017 A 
ENDROOT
BRANCH   1   8
HETATM    8  C13 UNL     1      -5.776  45.956   1.466  1.00  0.00     0.044 C 
BRANCH   8   9
HETATM    9  C12 UNL     1      -6.150  45.039   2.542  1.00  0.00     0.004 C 
HETATM   10  C7  UNL     1      -5.169  44.833   3.637  1.00  0.00    -0.010 C 
HETATM   11  C4  UNL     1      -5.153  45.927   4.709  1.00  0.00     0.130 C 
HETATM   12  C6  UNL     1      -3.735  45.096   3.445  1.00  0.00     0.015 C 
HETATM   13  C8  UNL     1      -5.450  43.496   4.255  1.00  0.00     0.013 C 
HETATM   14  C5  UNL     1      -3.699  45.569   4.911  1.00  0.00     0.034 C 
HETATM   15  C9  UNL     1      -6.650  42.979   3.503  1.00  0.00     0.005 C 
HETATM   16  C10 UNL     1      -6.444  43.628   2.115  1.00  0.00    -0.013 C 
HETATM   17  C11 UNL     1      -5.319  42.904   1.465  1.00  0.00     0.010 C 
BRANCH  11  18
HETATM   18  O1  UNL     1      -5.999  45.728   5.782  1.00  0.00    -0.381 OA
BRANCH  18  19
HETATM   19  C3  UNL     1      -6.639  46.952   6.088  1.00  0.00     0.194 C 
BRANCH  19  20
HETATM   20  C2  UNL     1      -7.573  47.364   5.016  1.00  0.00    -0.011 C 
HETATM   21  C1  UNL     1      -7.597  48.586   4.538  1.00  0.00     0.009 C 
ENDBRANCH  19  20
ENDBRANCH  18  19
ENDBRANCH  11  18
ENDBRANCH   8   9
ENDBRANCH   1   8
BRANCH   6  22
HETATM   22  C20 UNL     1     -10.729  46.973   1.373  1.00  0.00     0.189 C 
BRANCH  22  23
HETATM   23  O2  UNL     1     -10.737  47.282   2.745  1.00  0.00    -0.386 OA
ATOM     24  H2  UNL     1     -11.630  47.269   3.067  1.00  0.00     0.210 HD
ENDBRANCH  22  23
BRANCH  22  25
HETATM   25  C21 UNL     1     -11.261  45.604   1.161  1.00  0.00     0.092 C 
BRANCH  25  26
HETATM   26  N1  UNL     1     -11.219  45.174  -0.157  1.00  0.00    -0.395 N 
ATOM     27  H1  UNL     1     -11.895  45.598  -0.792  1.00  0.00     0.159 HD
BRANCH  26  28
HETATM   28  C22 UNL     1     -10.371  44.243  -0.704  1.00  0.00     0.081 C 
HETATM   29  C23 UNL     1      -9.782  43.170   0.139  1.00  0.00     0.027 C 
HETATM   30  C24 UNL     1      -8.497  42.663  -0.492  1.00  0.00     0.034 C 
HETATM   31  C25 UNL     1      -8.403  42.884  -1.958  1.00  0.00     0.118 C 
HETATM   32  C26 UNL     1      -9.677  42.993  -2.709  1.00  0.00     0.034 C 
HETATM   33  C27 UNL     1     -10.850  43.568  -1.991  1.00  0.00     0.027 C 
BRANCH  31  34
HETATM   34  O3  UNL     1      -7.511  43.945  -2.278  1.00  0.00    -0.396 OA
ATOM     35  H3  UNL     1      -7.724  44.347  -3.111  1.00  0.00     0.210 HD
ENDBRANCH  31  34
ENDBRANCH  26  28
ENDBRANCH  25  26
ENDBRANCH  22  25
ENDBRANCH   6  22
TORSDOF 11
ENDMDL
MODEL 2
REMARK VINA RESULT: -6.736556262      2.295      7.091
REMARK  11 active torsions:
REMARK  status: ('A' for Active; 'I' for Inactive)
REMARK    1  A    between atoms: C2_2  and  C3_3 
REMARK    2  A    between atoms: C3_3  and  O1_4 
REMARK    3  A    between atoms: O1_4  and  C4_5 
REMARK    4  A    between atoms: C12_13  and  C13_14 
REMARK    5  A    between atoms: C13_14  and  C14_15 
REMARK    6  A    between atoms: C19_20  and  C20_21 
REMARK    7  A    between atoms: C20_21  and  O2_22 
REMARK    8  A    between atoms: C20_21  and  C21_24 
REMARK    9  A    between atoms: C21_24  and  N1_25 
REMARK   10  A    between atoms: N1_25  and  C22_27 
REMARK   11  A    between atoms: C25_30  and  O3_31 
ROOT
HETATM    1  C14 UNL     1      -9.019  43.489   0.399  1.00  0.00    -0.057 A 
HETATM    2  C15 UNL     1      -8.081  42.580  -0.105  1.00  0.00     0.007 A 
HETATM    3  C16 UNL     1      -6.753  42.596   0.243  1.00  0.00     0.008 A 
HETATM    4  C17 UNL     1      -6.301  43.556   1.139  1.00  0.00    -0.053 A 
HETATM    5  C18 UNL     1      -4.843  43.586   1.530  1.00  0.00     0.049 C 
HETATM    6  C19 UNL     1      -7.193  44.465   1.653  1.00  0.00    -0.018 A 
HETATM    7  C28 UNL     1      -8.517  44.415   1.278  1.00  0.00     0.017 A 
ENDROOT
BRANCH   1   8
HETATM    8  C13 UNL     1     -10.430  43.423  -0.057  1.00  0.00     0.044 C 
BRANCH   8   9
HETATM    9  C12 UNL     1     -10.590  44.084  -1.351  1.00  0.00     0.004 C 
HETATM   10  C7  UNL     1     -11.594  45.174  -1.443  1.00  0.00    -0.010 C 
HETATM   11  C4  UNL     1     -11.127  46.534  -0.915  1.00  0.00     0.130 C 
HETATM   12  C6  UNL     1     -12.715  45.269  -0.495  1.00  0.00     0.015 C 
HETATM   13  C8  UNL     1     -12.018  45.283  -2.877  1.00  0.00     0.013 C 
HETATM   14  C5  UNL     1     -12.581  46.800  -0.601  1.00  0.00     0.034 C 
HETATM   15  C9  UNL     1     -11.185  44.252  -3.595  1.00  0.00     0.005 C 
HETATM   16  C10 UNL     1     -10.994  43.189  -2.489  1.00  0.00    -0.013 C 
HETATM   17  C11 UNL     1     -12.299  42.495  -2.330  1.00  0.00     0.010 C 
BRANCH  11  18
HETATM   18  O1  UNL     1     -10.529  47.364  -1.844  1.00  0.00    -0.381 OA
BRANCH  18  19
HETATM   19  C3  UNL     1      -9.376  47.940  -1.260  1.00  0.00     0.194 C 
BRANCH  19  20
HETATM   20  C2  UNL     1      -8.298  46.942  -1.076  1.00  0.00    -0.011 C 
HETATM   21  C1  UNL     1      -7.034  47.230  -1.279  1.00  0.00     0.009 C 
ENDBRANCH  19  20
ENDBRANCH  18  19
ENDBRANCH  11  18
ENDBRANCH   8   9
ENDBRANCH   1   8
BRANCH   6  22
HETATM   22  C20 UNL     1      -6.659  45.489   2.606  1.00  0.00     0.189 C 
BRANCH  22  23
HETATM   23  O2  UNL     1      -6.881  45.058   3.927  1.00  0.00    -0.386 OA
ATOM     24  H2  UNL     1      -6.052  45.018   4.389  1.00  0.00     0.210 HD
ENDBRANCH  22  23
BRANCH  22  25
HETATM   25  C21 UNL     1      -7.276  46.823   2.400  1.00  0.00     0.092 C 
BRANCH  25  26
HETATM   26  N1  UNL     1      -8.081  47.246   3.447  1.00  0.00    -0.395 N 
ATOM     27  H1  UNL     1      -7.786  46.969   4.383  1.00  0.00     0.159 HD
BRANCH  26  28
HETATM   28  C22 UNL     1      -9.228  47.996   3.368  1.00  0.00     0.081 C 
HETATM   29  C23 UNL     1     -10.256  47.695   2.338  1.00  0.00     0.027 C 
HETATM   30  C24 UNL     1     -11.089  48.935   2.061  1.00  0.00     0.034 C 
HETATM   31  C25 UNL     1     -11.111  49.921   3.172  1.00  0.00     0.118 C 
HETATM   32  C26 UNL     1     -10.872  49.404   4.541  1.00  0.00     0.034 C 
HETATM   33  C27 UNL     1      -9.982  48.217   4.681  1.00  0.00     0.027 C 
BRANCH  31  34
HETATM   34  O3  UNL     1     -10.302  51.056   2.889  1.00  0.00    -0.396 OA
ATOM     35  H3  UNL     1     -10.805  51.761   2.500  1.00  0.00     0.210 HD
ENDBRANCH  31  34
ENDBRANCH  26  28
ENDBRANCH  25  26
ENDBRANCH  22  25
ENDBRANCH   6  22
TORSDOF 11
ENDMDL
MODEL 3
REMARK VINA RESULT: -6.621026710      2.013      4.978
REMARK  11 active torsions:
REMARK  status: ('A' for Active; 'I' for Inactive)
REMARK    1  A    between atoms: C2_2  and  C3_3 
REMARK    2  A    between atoms: C3_3  and  O1_4 
REMARK    3  A    between atoms: O1_4  and  C4_5 
REMARK    4  A    between atoms: C12_13  and  C13_14 
REMARK    5  A    between atoms: C13_14  and  C14_15 
REMARK    6  A    between atoms: C19_20  and  C20_21 
REMARK    7  A    between atoms: C20_21  and  O2_22 
REMARK    8  A    between atoms: C20_21  and  C21_24 
REMARK    9  A    between atoms: C21_24  and  N1_25 
REMARK   10  A    between atoms: N1_25  and  C22_27 
REMARK   11  A    between atoms: C25_30  and  O3_31 
ROOT
HETATM    1  C14 UNL     1      -7.195  43.624   0.650  1.00  0.00    -0.057 A 
HETATM    2  C15 UNL     1      -7.336  42.632  -0.328  1.00  0.00     0.007 A 
HETATM    3  C16 UNL     1      -8.371  42.604  -1.229  1.00  0.00     0.008 A 
HETATM    4  C17 UNL     1      -9.335  43.602  -1.182  1.00  0.00    -0.053 A 
HETATM    5  C18 UNL     1     -10.480  43.584  -2.167  1.00  0.00     0.049 C 
HETATM    6  C19 UNL     1      -9.230  44.591  -0.236  1.00  0.00    -0.018 A 
HETATM    7  C28 UNL     1      -8.176  44.584   0.651  1.00  0.00     0.017 A 
ENDROOT
BRANCH   1   8
HETATM    8  C13 UNL     1      -6.064  43.559   1.608  1.00  0.00     0.044 C 
BRANCH   8   9
HETATM    9  C12 UNL     1      -6.095  44.696   2.528  1.00  0.00     0.004 C 
HETATM   10  C7  UNL     1      -4.917  45.601   2.538  1.00  0.00    -0.010 C 
HETATM   11  C4  UNL     1      -4.885  46.638   1.412  1.00  0.00     0.130 C 
HETATM   12  C6  UNL     1      -3.598  45.151   2.068  1.00  0.00     0.015 C 
HETATM   13  C8  UNL     1      -4.872  46.275   3.876  1.00  0.00     0.013 C 
HETATM   14  C5  UNL     1      -3.381  46.581   1.536  1.00  0.00     0.034 C 
HETATM   15  C9  UNL     1      -6.088  45.756   4.600  1.00  0.00     0.005 C 
HETATM   16  C10 UNL     1      -6.233  44.345   3.983  1.00  0.00    -0.013 C 
HETATM   17  C11 UNL     1      -5.140  43.514   4.552  1.00  0.00     0.010 C 
BRANCH  11  18
HETATM   18  O1  UNL     1      -5.488  47.848   1.695  1.00  0.00    -0.381 OA
BRANCH  18  19
HETATM   19  C3  UNL     1      -6.590  48.021   0.825  1.00  0.00     0.194 C 
BRANCH  19  20
HETATM   20  C2  UNL     1      -6.344  47.404  -0.498  1.00  0.00    -0.011 C 
HETATM   21  C1  UNL     1      -6.564  48.044  -1.623  1.00  0.00     0.009 C 
ENDBRANCH  19  20
ENDBRANCH  18  19
ENDBRANCH  11  18
ENDBRANCH   8   9
ENDBRANCH   1   8
BRANCH   6  22
HETATM   22  C20 UNL     1     -10.297  45.641  -0.214  1.00  0.00     0.189 C 
BRANCH  22  23
HETATM   23  O2  UNL     1      -9.856  46.771  -0.926  1.00  0.00    -0.386 OA
ATOM     24  H2  UNL     1     -10.050  47.555  -0.427  1.00  0.00     0.210 HD
ENDBRANCH  22  23
BRANCH  22  25
HETATM   25  C21 UNL     1     -10.675  46.030   1.167  1.00  0.00     0.092 C 
BRANCH  25  26
HETATM   26  N1  UNL     1     -10.486  47.375   1.451  1.00  0.00    -0.395 N 
ATOM     27  H1  UNL     1     -10.420  48.000   0.649  1.00  0.00     0.159 HD
BRANCH  26  28
HETATM   28  C22 UNL     1     -10.380  47.959   2.689  1.00  0.00     0.081 C 
HETATM   29  C23 UNL     1      -9.061  48.057   3.366  1.00  0.00     0.027 C 
HETATM   30  C24 UNL     1      -9.257  48.177   4.868  1.00  0.00     0.034 C 
HETATM   31  C25 UNL     1     -10.580  48.718   5.272  1.00  0.00     0.118 C 
HETATM   32  C26 UNL     1     -11.283  49.588   4.299  1.00  0.00     0.034 C 
HETATM   33  C27 UNL     1     -11.052  49.324   2.851  1.00  0.00     0.027 C 
BRANCH  31  34
HETATM   34  O3  UNL     1     -11.435  47.701   5.781  1.00  0.00    -0.396 OA
ATOM     35  H3  UNL     1     -11.460  46.942   5.211  1.00  0.00     0.210 HD
ENDBRANCH  31  34
ENDBRANCH  26  28
ENDBRANCH  25  26
ENDBRANCH  22  25
ENDBRANCH   6  22
TORSDOF 11
ENDMDL
MODEL 4
REMARK VINA RESULT: -6.564391102      2.029      3.795
REMARK  11 active torsions:
REMARK  status: ('A' for Active; 'I' for Inactive)
REMARK    1  A    between atoms: C2_2  and  C3_3 
REMARK    2  A    between atoms: C3_3  and  O1_4 
REMARK    3  A    between atoms: O1_4  and  C4_5 
REMARK    4  A    between atoms: C12_13  and  C13_14 
REMARK    5  A    between atoms: C13_14  and  C14_15 
REMARK    6  A    between atoms: C19_20  and  C20_21 
REMARK    7  A    between atoms: C20_21  and  O2_22 
REMARK    8  A    between atoms: C20_21  and  C21_24 
REMARK    9  A    between atoms: C21_24  and  N1_25 
REMARK   10  A    between atoms: N1_25  and  C22_27 
REMARK   11  A    between atoms: C25_30  and  O3_31 
ROOT
HETATM    1  C14 UNL     1      -6.677  43.996   2.018  1.00  0.00    -0.057 A 
HETATM    2  C15 UNL     1      -6.508  42.751   1.400  1.00  0.00     0.007 A 
HETATM    3  C16 UNL     1      -6.950  42.474   0.130  1.00  0.00     0.008 A 
HETATM    4  C17 UNL     1      -7.597  43.468  -0.592  1.00  0.00    -0.053 A 
HETATM    5  C18 UNL     1      -8.088  43.178  -1.990  1.00  0.00     0.049 C 
HETATM    6  C19 UNL     1      -7.781  44.701  -0.017  1.00  0.00    -0.018 A 
HETATM    7  C28 UNL     1      -7.325  44.939   1.260  1.00  0.00     0.017 A 
ENDROOT
BRANCH   1   8
HETATM    8  C13 UNL     1      -6.201  44.199   3.409  1.00  0.00     0.044 C 
BRANCH   8   9
HETATM    9  C12 UNL     1      -5.821  45.594   3.630  1.00  0.00     0.004 C 
HETATM   10  C7  UNL     1      -4.372  45.917   3.633  1.00  0.00    -0.010 C 
HETATM   11  C4  UNL     1      -3.738  46.067   2.247  1.00  0.00     0.130 C 
HETATM   12  C6  UNL     1      -3.356  44.891   3.910  1.00  0.00     0.015 C 
HETATM   13  C8  UNL     1      -4.185  47.169   4.435  1.00  0.00     0.013 C 
HETATM   14  C5  UNL     1      -2.451  45.615   2.896  1.00  0.00     0.034 C 
HETATM   15  C9  UNL     1      -5.581  47.566   4.844  1.00  0.00     0.005 C 
HETATM   16  C10 UNL     1      -6.277  46.188   4.934  1.00  0.00    -0.013 C 
HETATM   17  C11 UNL     1      -5.758  45.525   6.160  1.00  0.00     0.010 C 
BRANCH  11  18
HETATM   18  O1  UNL     1      -3.753  47.342   1.715  1.00  0.00    -0.381 OA
BRANCH  18  19
HETATM   19  C3  UNL     1      -4.823  47.435   0.794  1.00  0.00     0.194 C 
BRANCH  19  20
HETATM   20  C2  UNL     1      -5.648  48.640   1.033  1.00  0.00    -0.011 C 
HETATM   21  C1  UNL     1      -6.836  48.578   1.590  1.00  0.00     0.009 C 
ENDBRANCH  19  20
ENDBRANCH  18  19
ENDBRANCH  11  18
ENDBRANCH   8   9
ENDBRANCH   1   8
BRANCH   6  22
HETATM   22  C20 UNL     1      -8.494  45.739  -0.827  1.00  0.00     0.189 C 
BRANCH  22  23
HETATM   23  O2  UNL     1      -7.574  46.715  -1.251  1.00  0.00    -0.386 OA
ATOM     24  H2  UNL     1      -6.981  46.920  -0.538  1.00  0.00     0.210 HD
ENDBRANCH  22  23
BRANCH  22  25
HETATM   25  C21 UNL     1      -9.599  46.381  -0.072  1.00  0.00     0.092 C 
BRANCH  25  26
HETATM   26  N1  UNL     1     -10.734  45.595   0.055  1.00  0.00    -0.395 N 
ATOM     27  H1  UNL     1     -11.101  45.480   0.999  1.00  0.00     0.159 HD
BRANCH  26  28
HETATM   28  C22 UNL     1     -11.422  44.954  -0.947  1.00  0.00     0.081 C 
HETATM   29  C23 UNL     1     -11.365  43.475  -1.073  1.00  0.00     0.027 C 
HETATM   30  C24 UNL     1     -11.677  43.066  -2.503  1.00  0.00     0.034 C 
HETATM   31  C25 UNL     1     -12.477  44.059  -3.265  1.00  0.00     0.118 C 
HETATM   32  C26 UNL     1     -13.345  44.972  -2.483  1.00  0.00     0.034 C 
HETATM   33  C27 UNL     1     -12.891  45.347  -1.114  1.00  0.00     0.027 C 
BRANCH  31  34
HETATM   34  O3  UNL     1     -11.682  44.767  -4.208  1.00  0.00    -0.396 OA
ATOM     35  H3  UNL     1     -12.210  45.152  -4.897  1.00  0.00     0.210 HD
ENDBRANCH  31  34
ENDBRANCH  26  28
ENDBRANCH  25  26
ENDBRANCH  22  25
ENDBRANCH   6  22
TORSDOF 11
ENDMDL
MODEL 5
REMARK VINA RESULT: -6.563205846      2.002      3.548
REMARK  11 active torsions:
REMARK  status: ('A' for Active; 'I' for Inactive)
REMARK    1  A    between atoms: C2_2  and  C3_3 
REMARK    2  A    between atoms: C3_3  and  O1_4 
REMARK    3  A    between atoms: O1_4  and  C4_5 
REMARK    4  A    between atoms: C12_13  and  C13_14 
REMARK    5  A    between atoms: C13_14  and  C14_15 
REMARK    6  A    between atoms: C19_20  and  C20_21 
REMARK    7  A    between atoms: C20_21  and  O2_22 
REMARK    8  A    between atoms: C20_21  and  C21_24 
REMARK    9  A    between atoms: C21_24  and  N1_25 
REMARK   10  A    between atoms: N1_25  and  C22_27 
REMARK   11  A    between atoms: C25_30  and  O3_31 
ROOT
HETATM    1  C14 UNL     1      -7.525  47.605   1.282  1.00  0.00    -0.057 A 
HETATM    2  C15 UNL     1      -6.825  47.896   0.104  1.00  0.00     0.007 A 
HETATM    3  C16 UNL     1      -7.424  48.408  -1.021  1.00  0.00     0.008 A 
HETATM    4  C17 UNL     1      -8.790  48.656  -1.006  1.00  0.00    -0.053 A 
HETATM    5  C18 UNL     1      -9.462  49.218  -2.236  1.00  0.00     0.049 C 
HETATM    6  C19 UNL     1      -9.508  48.381   0.131  1.00  0.00    -0.018 A 
HETATM    7  C28 UNL     1      -8.871  47.867   1.239  1.00  0.00     0.017 A 
ENDROOT
BRANCH   1   8
HETATM    8  C13 UNL     1      -6.805  47.020   2.440  1.00  0.00     0.044 C 
BRANCH   8   9
HETATM    9  C12 UNL     1      -5.698  46.177   1.993  1.00  0.00     0.004 C 
HETATM   10  C7  UNL     1      -5.561  44.837   2.619  1.00  0.00    -0.010 C 
HETATM   11  C4  UNL     1      -6.485  43.756   2.048  1.00  0.00     0.130 C 
HETATM   12  C6  UNL     1      -6.144  44.541   3.936  1.00  0.00     0.015 C 
HETATM   13  C8  UNL     1      -4.127  44.420   2.497  1.00  0.00     0.013 C 
HETATM   14  C5  UNL     1      -6.418  43.117   3.415  1.00  0.00     0.034 C 
HETATM   15  C9  UNL     1      -3.471  45.548   1.740  1.00  0.00     0.005 C 
HETATM   16  C10 UNL     1      -4.324  46.756   2.191  1.00  0.00    -0.013 C 
HETATM   17  C11 UNL     1      -3.945  47.048   3.599  1.00  0.00     0.010 C 
BRANCH  11  18
HETATM   18  O1  UNL     1      -5.973  43.026   0.993  1.00  0.00    -0.381 OA
BRANCH  18  19
HETATM   19  C3  UNL     1      -7.015  42.773   0.070  1.00  0.00     0.194 C 
BRANCH  19  20
HETATM   20  C2  UNL     1      -7.841  43.978  -0.167  1.00  0.00    -0.011 C 
HETATM   21  C1  UNL     1      -7.837  44.617  -1.314  1.00  0.00     0.009 C 
ENDBRANCH  19  20
ENDBRANCH  18  19
ENDBRANCH  11  18
ENDBRANCH   8   9
ENDBRANCH   1   8
BRANCH   6  22
HETATM   22  C20 UNL     1     -10.980  48.653   0.099  1.00  0.00     0.189 C 
BRANCH  22  23
HETATM   23  O2  UNL     1     -11.317  49.526   1.148  1.00  0.00    -0.386 OA
ATOM     24  H2  UNL     1     -11.785  49.046   1.821  1.00  0.00     0.210 HD
ENDBRANCH  22  23
BRANCH  22  25
HETATM   25  C21 UNL     1     -11.783  47.409   0.200  1.00  0.00     0.092 C 
BRANCH  25  26
HETATM   26  N1  UNL     1     -12.394  47.027  -0.986  1.00  0.00    -0.395 N 
ATOM     27  H1  UNL     1     -12.880  47.761  -1.500  1.00  0.00     0.159 HD
BRANCH  26  28
HETATM   28  C22 UNL     1     -12.417  45.774  -1.547  1.00  0.00     0.081 C 
HETATM   29  C23 UNL     1     -11.661  44.656  -0.927  1.00  0.00     0.027 C 
HETATM   30  C24 UNL     1     -11.357  43.595  -1.971  1.00  0.00     0.034 C 
HETATM   31  C25 UNL     1     -12.284  43.592  -3.131  1.00  0.00     0.118 C 
HETATM   32  C26 UNL     1     -13.647  44.134  -2.911  1.00  0.00     0.034 C 
HETATM   33  C27 UNL     1     -13.798  45.219  -1.900  1.00  0.00     0.027 C 
BRANCH  31  34
HETATM   34  O3  UNL     1     -11.679  44.145  -4.294  1.00  0.00    -0.396 OA
ATOM     35  H3  UNL     1     -11.905  43.657  -5.076  1.00  0.00     0.210 HD
ENDBRANCH  31  34
ENDBRANCH  26  28
ENDBRANCH  25  26
ENDBRANCH  22  25
ENDBRANCH   6  22
TORSDOF 11
ENDMDL
