MODEL 1
REMARK VINA RESULT: -7.252268921      0.000      0.000
REMARK  10 active torsions:
REMARK  status: ('A' for Active; 'I' for Inactive)
REMARK    1  A    between atoms: C6_6  and  C8_8 
REMARK    2  A    between atoms: C8_8  and  C9_9 
REMARK    3  A    between atoms: C9_9  and  O1_10 
REMARK    4  A    between atoms: C9_9  and  N1_12 
REMARK    5  A    between atoms: N1_12  and  C10_14 
REMARK    6  A    between atoms: C10_14  and  C11_15 
REMARK    7  A    between atoms: C11_15  and  C12_16 
REMARK    8  A    between atoms: C12_16  and  C13_17 
REMARK       I    between atoms: C13_17  and  N2_19 
REMARK    9  A    between atoms: C21_28  and  C22_29 
REMARK   10  A    between atoms: C22_29  and  C23_30 
ROOT
HETATM    1  C1  UNL     1      -8.042  48.864   0.803  1.00  0.00     0.011 C 
HETATM    2  C2  UNL     1      -8.284  48.708  -0.651  1.00  0.00    -0.006 C 
HETATM    3  C3  UNL     1      -9.710  48.683  -1.050  1.00  0.00     0.006 C 
HETATM    4  C4  UNL     1     -10.499  47.528  -0.465  1.00  0.00     0.015 C 
HETATM    5  C5  UNL     1     -10.177  46.364  -1.319  1.00  0.00     0.037 C 
HETATM    6  C6  UNL     1     -11.008  45.118  -1.064  1.00  0.00    -0.029 C 
HETATM    7  C7  UNL     1     -11.576  45.320   0.375  1.00  0.00     0.016 C 
HETATM    8  C17 UNL     1     -10.180  43.953  -1.236  1.00  0.00     0.011 C 
HETATM    9  C18 UNL     1      -9.005  43.190  -1.486  1.00  0.00     0.009 C 
HETATM   10  C19 UNL     1      -7.824  44.175  -1.766  1.00  0.00     0.055 C 
HETATM   11  S1  UNL     1      -8.199  45.908  -0.738  1.00  0.00    -0.248 SA
HETATM   12  C20 UNL     1      -8.038  45.651   1.331  1.00  0.00     0.069 C 
HETATM   13  C21 UNL     1      -7.432  47.617  -1.327  1.00  0.00     0.043 C 
ENDROOT
BRANCH   6  14
HETATM   14  C8  UNL     1     -12.265  45.104  -1.879  1.00  0.00     0.063 C 
BRANCH  14  15
HETATM   15  C9  UNL     1     -12.569  43.943  -2.724  1.00  0.00     0.217 C 
BRANCH  15  16
HETATM   16  O1  UNL     1     -12.089  43.950  -4.025  1.00  0.00    -0.377 OA
ATOM     17  H1  UNL     1     -12.667  43.637  -4.710  1.00  0.00     0.212 HD
ENDBRANCH  15  16
BRANCH  15  18
HETATM   18  N1  UNL     1     -13.982  43.703  -2.877  1.00  0.00    -0.377 N 
ATOM     19  H1  UNL     1     -14.337  42.754  -2.996  1.00  0.00     0.161 HD
BRANCH  18  20
HETATM   20  C10 UNL     1     -14.860  44.797  -2.860  1.00  0.00     0.058 C 
BRANCH  20  21
HETATM   21  C11 UNL     1     -15.812  44.786  -4.024  1.00  0.00     0.053 C 
BRANCH  21  22
HETATM   22  C12 UNL     1     -16.788  45.942  -3.970  1.00  0.00     0.108 C 
BRANCH  22  23
HETATM   23  C13 UNL     1     -17.364  46.109  -5.328  1.00  0.00     0.220 C 
HETATM   24  O2  UNL     1     -17.963  45.157  -5.897  1.00  0.00    -0.273 OA
HETATM   25  N2  UNL     1     -17.252  47.340  -6.013  1.00  0.00    -0.344 N 
HETATM   26  C14 UNL     1     -16.763  48.711  -6.011  1.00  0.00     0.151 A 
HETATM   27  C15 UNL     1     -17.502  48.183  -7.175  1.00  0.00     0.101 A 
HETATM   28  C16 UNL     1     -18.892  48.714  -7.389  1.00  0.00     0.034 C 
ENDBRANCH  22  23
ENDBRANCH  21  22
ENDBRANCH  20  21
ENDBRANCH  18  20
ENDBRANCH  15  18
ENDBRANCH  14  15
ENDBRANCH   6  14
BRANCH  13  29
HETATM   29  C22 UNL     1      -5.998  47.814  -1.041  1.00  0.00     0.127 C 
BRANCH  29  30
HETATM   30  C23 UNL     1      -5.260  48.581  -2.024  1.00  0.00     0.173 C 
HETATM   31  O3  UNL     1      -5.745  49.196  -2.986  1.00  0.00    -0.648 OA
HETATM   32  O4  UNL     1      -3.859  48.631  -1.877  1.00  0.00    -0.648 OA
ENDBRANCH  29  30
ENDBRANCH  13  29
TORSDOF 10
ENDMDL
MODEL 2
REMARK VINA RESULT: -6.900575333      4.377      6.824
REMARK  10 active torsions:
REMARK  status: ('A' for Active; 'I' for Inactive)
REMARK    1  A    between atoms: C6_6  and  C8_8 
REMARK    2  A    between atoms: C8_8  and  C9_9 
REMARK    3  A    between atoms: C9_9  and  O1_10 
REMARK    4  A    between atoms: C9_9  and  N1_12 
REMARK    5  A    between atoms: N1_12  and  C10_14 
REMARK    6  A    between atoms: C10_14  and  C11_15 
REMARK    7  A    between atoms: C11_15  and  C12_16 
REMARK    8  A    between atoms: C12_16  and  C13_17 
REMARK       I    between atoms: C13_17  and  N2_19 
REMARK    9  A    between atoms: C21_28  and  C22_29 
REMARK   10  A    between atoms: C22_29  and  C23_30 
ROOT
HETATM    1  C1  UNL     1      -9.404  48.930   0.076  1.00  0.00     0.011 C 
HETATM    2  C2  UNL     1      -8.676  47.959  -0.775  1.00  0.00    -0.006 C 
HETATM    3  C3  UNL     1      -8.658  46.569  -0.266  1.00  0.00     0.006 C 
HETATM    4  C4  UNL     1      -7.968  46.406   1.074  1.00  0.00     0.015 C 
HETATM    5  C5  UNL     1      -6.521  46.376   0.765  1.00  0.00     0.037 C 
HETATM    6  C6  UNL     1      -5.614  46.012   1.928  1.00  0.00    -0.029 C 
HETATM    7  C7  UNL     1      -6.476  46.300   3.196  1.00  0.00     0.016 C 
HETATM    8  C17 UNL     1      -4.395  46.771   1.833  1.00  0.00     0.011 C 
HETATM    9  C18 UNL     1      -3.460  47.716   1.322  1.00  0.00     0.009 C 
HETATM   10  C19 UNL     1      -4.081  48.393   0.057  1.00  0.00     0.055 C 
HETATM   11  S1  UNL     1      -6.118  48.391   0.283  1.00  0.00    -0.248 SA
HETATM   12  C20 UNL     1      -6.747  49.691   1.795  1.00  0.00     0.069 C 
HETATM   13  C21 UNL     1      -7.307  48.452  -1.278  1.00  0.00     0.043 C 
ENDROOT
BRANCH   6  14
HETATM   14  C8  UNL     1      -5.408  44.532   2.039  1.00  0.00     0.063 C 
BRANCH  14  15
HETATM   15  C9  UNL     1      -6.351  43.725   2.823  1.00  0.00     0.217 C 
BRANCH  15  16
HETATM   16  O1  UNL     1      -5.838  42.967   3.866  1.00  0.00    -0.377 OA
ATOM     17  H1  UNL     1      -6.235  43.070   4.723  1.00  0.00     0.212 HD
ENDBRANCH  15  16
BRANCH  15  18
HETATM   18  N1  UNL     1      -7.084  42.772   2.030  1.00  0.00    -0.377 N 
ATOM     19  H1  UNL     1      -7.949  42.360   2.381  1.00  0.00     0.161 HD
BRANCH  18  20
HETATM   20  C10 UNL     1      -6.588  42.420   0.765  1.00  0.00     0.058 C 
BRANCH  20  21
HETATM   21  C11 UNL     1      -7.650  41.830  -0.122  1.00  0.00     0.053 C 
BRANCH  21  22
HETATM   22  C12 UNL     1      -8.191  42.843  -1.109  1.00  0.00     0.108 C 
BRANCH  22  23
HETATM   23  C13 UNL     1      -9.549  43.235  -0.653  1.00  0.00     0.220 C 
HETATM   24  O2  UNL     1      -9.822  43.310   0.575  1.00  0.00    -0.273 OA
HETATM   25  N2  UNL     1     -10.566  43.531  -1.588  1.00  0.00    -0.344 N 
HETATM   26  C14 UNL     1     -10.961  43.643  -2.985  1.00  0.00     0.151 A 
HETATM   27  C15 UNL     1     -11.931  43.930  -1.909  1.00  0.00     0.101 A 
HETATM   28  C16 UNL     1     -12.320  45.369  -1.717  1.00  0.00     0.034 C 
ENDBRANCH  22  23
ENDBRANCH  21  22
ENDBRANCH  20  21
ENDBRANCH  18  20
ENDBRANCH  15  18
ENDBRANCH  14  15
ENDBRANCH   6  14
BRANCH  13  29
HETATM   29  C22 UNL     1      -7.430  49.763  -1.946  1.00  0.00     0.127 C 
BRANCH  29  30
HETATM   30  C23 UNL     1      -6.236  50.245  -2.610  1.00  0.00     0.173 C 
HETATM   31  O3  UNL     1      -5.838  49.906  -3.735  1.00  0.00    -0.648 OA
HETATM   32  O4  UNL     1      -5.451  51.185  -1.913  1.00  0.00    -0.648 OA
ENDBRANCH  29  30
ENDBRANCH  13  29
TORSDOF 10
ENDMDL
MODEL 3
REMARK VINA RESULT: -6.795298458      3.891      6.419
REMARK  10 active torsions:
REMARK  status: ('A' for Active; 'I' for Inactive)
REMARK    1  A    between atoms: C6_6  and  C8_8 
REMARK    2  A    between atoms: C8_8  and  C9_9 
REMARK    3  A    between atoms: C9_9  and  O1_10 
REMARK    4  A    between atoms: C9_9  and  N1_12 
REMARK    5  A    between atoms: N1_12  and  C10_14 
REMARK    6  A    between atoms: C10_14  and  C11_15 
REMARK    7  A    between atoms: C11_15  and  C12_16 
REMARK    8  A    between atoms: C12_16  and  C13_17 
REMARK       I    between atoms: C13_17  and  N2_19 
REMARK    9  A    between atoms: C21_28  and  C22_29 
REMARK   10  A    between atoms: C22_29  and  C23_30 
ROOT
HETATM    1  C1  UNL     1      -6.981  49.044  -1.763  1.00  0.00     0.011 C 
HETATM    2  C2  UNL     1      -6.854  47.751  -1.048  1.00  0.00    -0.006 C 
HETATM    3  C3  UNL     1      -7.894  46.749  -1.374  1.00  0.00     0.006 C 
HETATM    4  C4  UNL     1      -9.304  47.178  -1.019  1.00  0.00     0.015 C 
HETATM    5  C5  UNL     1      -9.432  46.927   0.435  1.00  0.00     0.037 C 
HETATM    6  C6  UNL     1     -10.832  47.084   1.002  1.00  0.00    -0.029 C 
HETATM    7  C7  UNL     1     -11.577  47.969  -0.045  1.00  0.00     0.016 C 
HETATM    8  C17 UNL     1     -10.747  47.645   2.325  1.00  0.00     0.011 C 
HETATM    9  C18 UNL     1     -10.147  48.196   3.493  1.00  0.00     0.009 C 
HETATM   10  C19 UNL     1      -8.600  48.254   3.276  1.00  0.00     0.055 C 
HETATM   11  S1  UNL     1      -8.259  48.473   1.266  1.00  0.00    -0.248 SA
HETATM   12  C20 UNL     1      -8.843  50.354   0.565  1.00  0.00     0.069 C 
HETATM   13  C21 UNL     1      -6.569  47.881   0.460  1.00  0.00     0.043 C 
ENDROOT
BRANCH   6  14
HETATM   14  C8  UNL     1     -11.617  45.810   0.925  1.00  0.00     0.063 C 
BRANCH  14  15
HETATM   15  C9  UNL     1     -12.884  45.781   0.185  1.00  0.00     0.217 C 
BRANCH  15  16
HETATM   16  O1  UNL     1     -14.043  45.521   0.903  1.00  0.00    -0.377 OA
ATOM     17  H1  UNL     1     -13.949  45.146   1.770  1.00  0.00     0.212 HD
ENDBRANCH  15  16
BRANCH  15  18
HETATM   18  N1  UNL     1     -12.906  44.805  -0.874  1.00  0.00    -0.377 N 
ATOM     19  H1  UNL     1     -13.205  43.847  -0.691  1.00  0.00     0.161 HD
BRANCH  18  20
HETATM   20  C10 UNL     1     -12.508  45.194  -2.163  1.00  0.00     0.058 C 
BRANCH  20  21
HETATM   21  C11 UNL     1     -11.130  44.702  -2.509  1.00  0.00     0.053 C 
BRANCH  21  22
HETATM   22  C12 UNL     1     -10.816  43.379  -1.842  1.00  0.00     0.108 C 
BRANCH  22  23
HETATM   23  C13 UNL     1      -9.352  43.332  -1.604  1.00  0.00     0.220 C 
HETATM   24  O2  UNL     1      -8.538  43.391  -2.564  1.00  0.00    -0.273 OA
HETATM   25  N2  UNL     1      -8.838  43.217  -0.293  1.00  0.00    -0.344 N 
HETATM   26  C14 UNL     1      -9.112  43.104   1.133  1.00  0.00     0.151 A 
HETATM   27  C15 UNL     1      -7.720  43.124   0.639  1.00  0.00     0.101 A 
HETATM   28  C16 UNL     1      -6.921  44.364   0.925  1.00  0.00     0.034 C 
ENDBRANCH  22  23
ENDBRANCH  21  22
ENDBRANCH  20  21
ENDBRANCH  18  20
ENDBRANCH  15  18
ENDBRANCH  14  15
ENDBRANCH   6  14
BRANCH  13  29
HETATM   29  C22 UNL     1      -5.399  48.746   0.704  1.00  0.00     0.127 C 
BRANCH  29  30
HETATM   30  C23 UNL     1      -4.105  48.117   0.529  1.00  0.00     0.173 C 
HETATM   31  O3  UNL     1      -3.168  48.553  -0.158  1.00  0.00    -0.648 OA
HETATM   32  O4  UNL     1      -3.890  46.897   1.200  1.00  0.00    -0.648 OA
ENDBRANCH  29  30
ENDBRANCH  13  29
TORSDOF 10
ENDMDL
MODEL 4
REMARK VINA RESULT: -6.737170244      2.809      4.548
REMARK  10 active torsions:
REMARK  status: ('A' for Active; 'I' for Inactive)
REMARK    1  A    between atoms: C6_6  and  C8_8 
REMARK    2  A    between atoms: C8_8  and  C9_9 
REMARK    3  A    between atoms: C9_9  and  O1_10 
REMARK    4  A    between atoms: C9_9  and  N1_12 
REMARK    5  A    between atoms: N1_12  and  C10_14 
REMARK    6  A    between atoms: C10_14  and  C11_15 
REMARK    7  A    between atoms: C11_15  and  C12_16 
REMARK    8  A    between atoms: C12_16  and  C13_17 
REMARK       I    between atoms: C13_17  and  N2_19 
REMARK    9  A    between atoms: C21_28  and  C22_29 
REMARK   10  A    between atoms: C22_29  and  C23_30 
ROOT
HETATM    1  C1  UNL     1      -7.380  43.167  -0.809  1.00  0.00     0.011 C 
HETATM    2  C2  UNL     1      -8.318  43.141   0.339  1.00  0.00    -0.006 C 
HETATM    3  C3  UNL     1      -9.722  43.476   0.010  1.00  0.00     0.006 C 
HETATM    4  C4  UNL     1      -9.916  44.877  -0.535  1.00  0.00     0.015 C 
HETATM    5  C5  UNL     1      -9.920  45.759   0.654  1.00  0.00     0.037 C 
HETATM    6  C6  UNL     1     -10.307  47.204   0.392  1.00  0.00    -0.029 C 
HETATM    7  C7  UNL     1     -10.066  47.398  -1.138  1.00  0.00     0.016 C 
HETATM    8  C17 UNL     1      -9.532  48.065   1.246  1.00  0.00     0.011 C 
HETATM    9  C18 UNL     1      -8.562  48.439   2.219  1.00  0.00     0.009 C 
HETATM   10  C19 UNL     1      -7.855  47.144   2.738  1.00  0.00     0.055 C 
HETATM   11  S1  UNL     1      -7.887  45.765   1.222  1.00  0.00    -0.248 SA
HETATM   12  C20 UNL     1      -6.639  46.306  -0.366  1.00  0.00     0.069 C 
HETATM   13  C21 UNL     1      -7.794  43.841   1.606  1.00  0.00     0.043 C 
ENDROOT
BRANCH   6  14
HETATM   14  C8  UNL     1     -11.788  47.416   0.488  1.00  0.00     0.063 C 
BRANCH  14  15
HETATM   15  C9  UNL     1     -12.581  47.564  -0.739  1.00  0.00     0.217 C 
BRANCH  15  16
HETATM   16  O1  UNL     1     -13.238  48.769  -0.939  1.00  0.00    -0.377 OA
ATOM     17  H1  UNL     1     -14.102  48.868  -0.558  1.00  0.00     0.212 HD
ENDBRANCH  15  16
BRANCH  15  18
HETATM   18  N1  UNL     1     -13.621  46.575  -0.868  1.00  0.00    -0.377 N 
ATOM     19  H1  UNL     1     -14.602  46.838  -0.770  1.00  0.00     0.161 HD
BRANCH  18  20
HETATM   20  C10 UNL     1     -13.261  45.245  -1.132  1.00  0.00     0.058 C 
BRANCH  20  21
HETATM   21  C11 UNL     1     -13.061  44.987  -2.600  1.00  0.00     0.053 C 
BRANCH  21  22
HETATM   22  C12 UNL     1     -13.956  43.876  -3.108  1.00  0.00     0.108 C 
BRANCH  22  23
HETATM   23  C13 UNL     1     -15.314  44.443  -3.299  1.00  0.00     0.220 C 
HETATM   24  O2  UNL     1     -16.014  44.792  -2.310  1.00  0.00    -0.273 OA
HETATM   25  N2  UNL     1     -15.853  44.604  -4.595  1.00  0.00    -0.344 N 
HETATM   26  C14 UNL     1     -15.676  44.448  -6.032  1.00  0.00     0.151 A 
HETATM   27  C15 UNL     1     -16.927  45.017  -5.491  1.00  0.00     0.101 A 
HETATM   28  C16 UNL     1     -17.149  46.487  -5.712  1.00  0.00     0.034 C 
ENDBRANCH  22  23
ENDBRANCH  21  22
ENDBRANCH  20  21
ENDBRANCH  18  20
ENDBRANCH  15  18
ENDBRANCH  14  15
ENDBRANCH   6  14
BRANCH  13  29
HETATM   29  C22 UNL     1      -6.466  43.322   1.987  1.00  0.00     0.127 C 
BRANCH  29  30
HETATM   30  C23 UNL     1      -5.687  44.171   2.867  1.00  0.00     0.173 C 
HETATM   31  O3  UNL     1      -4.634  44.757   2.573  1.00  0.00    -0.648 OA
HETATM   32  O4  UNL     1      -6.170  44.347   4.179  1.00  0.00    -0.648 OA
ENDBRANCH  29  30
ENDBRANCH  13  29
TORSDOF 10
ENDMDL
MODEL 5
REMARK VINA RESULT: -6.590834066      3.322      5.548
REMARK  10 active torsions:
REMARK  status: ('A' for Active; 'I' for Inactive)
REMARK    1  A    between atoms: C6_6  and  C8_8 
REMARK    2  A    between atoms: C8_8  and  C9_9 
REMARK    3  A    between atoms: C9_9  and  O1_10 
REMARK    4  A    between atoms: C9_9  and  N1_12 
REMARK    5  A    between atoms: N1_12  and  C10_14 
REMARK    6  A    between atoms: C10_14  and  C11_15 
REMARK    7  A    between atoms: C11_15  and  C12_16 
REMARK    8  A    between atoms: C12_16  and  C13_17 
REMARK       I    between atoms: C13_17  and  N2_19 
REMARK    9  A    between atoms: C21_28  and  C22_29 
REMARK   10  A    between atoms: C22_29  and  C23_30 
ROOT
HETATM    1  C1  UNL     1      -5.335  42.914   1.336  1.00  0.00     0.011 C 
HETATM    2  C2  UNL     1      -6.624  43.069   2.053  1.00  0.00    -0.006 C 
HETATM    3  C3  UNL     1      -7.794  43.344   1.189  1.00  0.00     0.006 C 
HETATM    4  C4  UNL     1      -7.700  44.641   0.409  1.00  0.00     0.015 C 
HETATM    5  C5  UNL     1      -8.083  45.700   1.369  1.00  0.00     0.037 C 
HETATM    6  C6  UNL     1      -8.268  47.084   0.772  1.00  0.00    -0.029 C 
HETATM    7  C7  UNL     1      -7.482  47.033  -0.575  1.00  0.00     0.016 C 
HETATM    8  C17 UNL     1      -7.806  48.071   1.712  1.00  0.00     0.011 C 
HETATM    9  C18 UNL     1      -7.233  48.597   2.904  1.00  0.00     0.009 C 
HETATM   10  C19 UNL     1      -6.834  47.403   3.831  1.00  0.00     0.055 C 
HETATM   11  S1  UNL     1      -6.395  45.801   2.632  1.00  0.00    -0.248 SA
HETATM   12  C20 UNL     1      -4.630  46.086   1.547  1.00  0.00     0.069 C 
HETATM   13  C21 UNL     1      -6.554  43.963   3.305  1.00  0.00     0.043 C 
ENDROOT
BRANCH   6  14
HETATM   14  C8  UNL     1      -9.670  47.305   0.288  1.00  0.00     0.063 C 
BRANCH  14  15
HETATM   15  C9  UNL     1      -9.966  47.208  -1.146  1.00  0.00     0.217 C 
BRANCH  15  16
HETATM   16  O1  UNL     1     -10.354  48.367  -1.803  1.00  0.00    -0.377 OA
ATOM     17  H1  UNL     1     -10.498  49.145  -1.277  1.00  0.00     0.212 HD
ENDBRANCH  15  16
BRANCH  15  18
HETATM   18  N1  UNL     1     -11.016  46.269  -1.450  1.00  0.00    -0.377 N 
ATOM     19  H1  UNL     1     -11.994  46.519  -1.304  1.00  0.00     0.161 HD
BRANCH  18  20
HETATM   20  C10 UNL     1     -10.669  45.004  -1.949  1.00  0.00     0.058 C 
BRANCH  20  21
HETATM   21  C11 UNL     1     -11.815  44.032  -1.890  1.00  0.00     0.053 C 
BRANCH  21  22
HETATM   22  C12 UNL     1     -12.731  44.161  -3.089  1.00  0.00     0.108 C 
BRANCH  22  23
HETATM   23  C13 UNL     1     -13.991  44.796  -2.626  1.00  0.00     0.220 C 
HETATM   24  O2  UNL     1     -14.067  45.325  -1.485  1.00  0.00    -0.273 OA
HETATM   25  N2  UNL     1     -15.134  44.819  -3.456  1.00  0.00    -0.344 N 
HETATM   26  C14 UNL     1     -15.740  44.456  -4.730  1.00  0.00     0.151 A 
HETATM   27  C15 UNL     1     -16.522  45.184  -3.710  1.00  0.00     0.101 A 
HETATM   28  C16 UNL     1     -16.842  46.622  -4.005  1.00  0.00     0.034 C 
ENDBRANCH  22  23
ENDBRANCH  21  22
ENDBRANCH  20  21
ENDBRANCH  18  20
ENDBRANCH  15  18
ENDBRANCH  14  15
ENDBRANCH   6  14
BRANCH  13  29
HETATM   29  C22 UNL     1      -5.484  43.514   4.216  1.00  0.00     0.127 C 
BRANCH  29  30
HETATM   30  C23 UNL     1      -4.845  44.554   4.998  1.00  0.00     0.173 C 
HETATM   31  O3  UNL     1      -3.708  45.014   4.812  1.00  0.00    -0.648 OA
HETATM   32  O4  UNL     1      -5.583  45.094   6.070  1.00  0.00    -0.648 OA
ENDBRANCH  29  30
ENDBRANCH  13  29
TORSDOF 10
ENDMDL
