MODEL 1
REMARK VINA RESULT: -6.622433427      0.000      0.000
REMARK  12 active torsions:
REMARK  status: ('A' for Active; 'I' for Inactive)
REMARK    1  A    between atoms: C2_2  and  C3_3 
REMARK    2  A    between atoms: C4_4  and  C5_5 
REMARK    3  A    between atoms: C5_5  and  O1_6 
REMARK    4  A    between atoms: C8_10  and  C9_11 
REMARK    5  A    between atoms: C9_11  and  C11_13 
REMARK    6  A    between atoms: C11_13  and  C12_14 
REMARK    7  A    between atoms: C13_17  and  N1_18 
REMARK    8  A    between atoms: N1_18  and  C14_21 
REMARK    9  A    between atoms: C14_21  and  C15_22 
REMARK   10  A    between atoms: C15_22  and  C16_23 
REMARK   11  A    between atoms: C16_23  and  N2_24 
REMARK   12  A    between atoms: N2_24  and  C18_26 
ROOT
HETATM    1  C5  UNL     1     -12.740  44.148  -2.397  1.00  0.00     0.141 C 
HETATM    2  C6  UNL     1     -12.794  44.654  -1.031  1.00  0.00     0.020 C 
HETATM    3  C7  UNL     1     -11.871  45.349  -0.400  1.00  0.00    -0.020 C 
HETATM    4  C8  UNL     1     -10.566  45.728  -1.056  1.00  0.00     0.043 C 
HETATM    5  C13 UNL     1     -10.421  44.830  -2.235  1.00  0.00     0.198 C 
HETATM    6  C26 UNL     1     -11.618  44.830  -3.167  1.00  0.00     0.089 C 
ENDROOT
BRANCH   5   7
HETATM    7  N1  UNL     1     -10.303  43.467  -1.748  1.00  0.00    -0.070 N 
ATOM      8  H12 UNL     1     -10.395  43.434  -0.733  1.00  0.00     0.277 HD
ATOM      9  H11 UNL     1     -11.120  42.915  -2.007  1.00  0.00     0.277 HD
BRANCH   7  10
HETATM   10  C14 UNL     1      -9.124  42.841  -2.164  1.00  0.00     0.234 C 
BRANCH  10  11
HETATM   11  C15 UNL     1      -7.870  43.478  -1.596  1.00  0.00     0.057 C 
BRANCH  11  12
HETATM   12  C16 UNL     1      -7.519  42.616  -0.403  1.00  0.00     0.274 C 
BRANCH  12  13
HETATM   13  N2  UNL     1      -7.499  43.224   0.863  1.00  0.00     0.088 N 
HETATM   14  C17 UNL     1      -8.767  43.684   1.371  1.00  0.00     0.310 C 
BRANCH  13  15
HETATM   15  C18 UNL     1      -6.476  44.271   0.961  1.00  0.00     0.222 C 
HETATM   16  C19 UNL     1      -5.492  43.868   2.028  1.00  0.00     0.036 C 
HETATM   17  C20 UNL     1      -4.112  44.451   1.849  1.00  0.00     0.002 C 
HETATM   18  C21 UNL     1      -4.012  45.795   2.557  1.00  0.00     0.000 C 
HETATM   19  C22 UNL     1      -4.333  46.856   1.539  1.00  0.00     0.000 C 
HETATM   20  C23 UNL     1      -5.706  47.430   1.762  1.00  0.00     0.000 C 
HETATM   21  C24 UNL     1      -6.637  46.761   0.770  1.00  0.00     0.002 C 
HETATM   22  C25 UNL     1      -7.192  45.520   1.415  1.00  0.00     0.036 C 
ENDBRANCH  13  15
ENDBRANCH  12  13
ENDBRANCH  11  12
ENDBRANCH  10  11
ENDBRANCH   7  10
ENDBRANCH   5   7
BRANCH   4  23
HETATM   23  C9  UNL     1     -10.625  47.200  -1.358  1.00  0.00     0.001 C 
HETATM   24  C10 UNL     1      -9.224  47.796  -1.486  1.00  0.00     0.011 C 
BRANCH  23  25
HETATM   25  C11 UNL     1     -11.220  47.868  -0.118  1.00  0.00     0.118 C 
BRANCH  25  26
HETATM   26  C12 UNL     1     -11.491  49.293  -0.287  1.00  0.00     0.172 C 
HETATM   27  O2  UNL     1     -11.256  50.152   0.584  1.00  0.00    -0.648 OA
HETATM   28  O3  UNL     1     -12.054  49.683  -1.510  1.00  0.00    -0.648 OA
ENDBRANCH  25  26
ENDBRANCH  23  25
ENDBRANCH   4  23
BRANCH   1  29
HETATM   29  C4  UNL     1     -13.987  44.453  -3.102  1.00  0.00    -0.064 C 
HETATM   30  C3  UNL     1     -15.005  44.695  -3.712  1.00  0.00    -0.103 C 
BRANCH  30  31
HETATM   31  C2  UNL     1     -16.243  44.967  -4.493  1.00  0.00     0.089 C 
HETATM   32  C1  UNL     1     -16.081  44.404  -5.863  1.00  0.00     0.018 C 
ENDBRANCH  30  31
ENDBRANCH   1  29
BRANCH   1  33
HETATM   33  O1  UNL     1     -12.540  42.737  -2.376  1.00  0.00    -0.374 OA
ATOM     34  H1  UNL     1     -11.611  42.551  -2.304  1.00  0.00     0.212 HD
ENDBRANCH   1  33
TORSDOF 12
ENDMDL
MODEL 2
REMARK VINA RESULT: -6.540048479      1.184      1.938
REMARK  12 active torsions:
REMARK  status: ('A' for Active; 'I' for Inactive)
REMARK    1  A    between atoms: C2_2  and  C3_3 
REMARK    2  A    between atoms: C4_4  and  C5_5 
REMARK    3  A    between atoms: C5_5  and  O1_6 
REMARK    4  A    between atoms: C8_10  and  C9_11 
REMARK    5  A    between atoms: C9_11  and  C11_13 
REMARK    6  A    between atoms: C11_13  and  C12_14 
REMARK    7  A    between atoms: C13_17  and  N1_18 
REMARK    8  A    between atoms: N1_18  and  C14_21 
REMARK    9  A    between atoms: C14_21  and  C15_22 
REMARK   10  A    between atoms: C15_22  and  C16_23 
REMARK   11  A    between atoms: C16_23  and  N2_24 
REMARK   12  A    between atoms: N2_24  and  C18_26 
ROOT
HETATM    1  C5  UNL     1     -12.968  44.149  -2.422  1.00  0.00     0.141 C 
HETATM    2  C6  UNL     1     -13.123  44.778  -1.115  1.00  0.00     0.020 C 
HETATM    3  C7  UNL     1     -12.226  45.481  -0.457  1.00  0.00    -0.020 C 
HETATM    4  C8  UNL     1     -10.845  45.735  -1.009  1.00  0.00     0.043 C 
HETATM    5  C13 UNL     1     -10.640  44.728  -2.088  1.00  0.00     0.198 C 
HETATM    6  C26 UNL     1     -11.741  44.703  -3.131  1.00  0.00     0.089 C 
ENDROOT
BRANCH   5   7
HETATM    7  N1  UNL     1     -10.647  43.411  -1.478  1.00  0.00    -0.070 N 
ATOM      8  H12 UNL     1     -11.541  43.225  -1.022  1.00  0.00     0.277 HD
ATOM      9  H11 UNL     1     -10.668  42.680  -2.189  1.00  0.00     0.277 HD
BRANCH   7  10
HETATM   10  C14 UNL     1      -9.584  43.215  -0.592  1.00  0.00     0.234 C 
BRANCH  10  11
HETATM   11  C15 UNL     1      -8.223  43.264  -1.262  1.00  0.00     0.057 C 
BRANCH  11  12
HETATM   12  C16 UNL     1      -7.397  44.161  -0.366  1.00  0.00     0.274 C 
BRANCH  12  13
HETATM   13  N2  UNL     1      -6.536  43.550   0.560  1.00  0.00     0.088 N 
HETATM   14  C17 UNL     1      -6.644  42.117   0.684  1.00  0.00     0.310 C 
BRANCH  13  15
HETATM   15  C18 UNL     1      -6.577  44.201   1.874  1.00  0.00     0.222 C 
HETATM   16  C19 UNL     1      -6.366  45.678   1.672  1.00  0.00     0.036 C 
HETATM   17  C20 UNL     1      -6.972  46.542   2.752  1.00  0.00     0.002 C 
HETATM   18  C21 UNL     1      -5.969  46.763   3.876  1.00  0.00     0.000 C 
HETATM   19  C22 UNL     1      -6.226  45.702   4.912  1.00  0.00     0.000 C 
HETATM   20  C23 UNL     1      -5.165  44.636   4.879  1.00  0.00     0.000 C 
HETATM   21  C24 UNL     1      -5.736  43.460   4.111  1.00  0.00     0.002 C 
HETATM   22  C25 UNL     1      -5.409  43.650   2.655  1.00  0.00     0.036 C 
ENDBRANCH  13  15
ENDBRANCH  12  13
ENDBRANCH  11  12
ENDBRANCH  10  11
ENDBRANCH   7  10
ENDBRANCH   5   7
BRANCH   4  23
HETATM   23  C9  UNL     1     -10.790  47.175  -1.439  1.00  0.00     0.001 C 
HETATM   24  C10 UNL     1      -9.381  47.746  -1.288  1.00  0.00     0.011 C 
BRANCH  23  25
HETATM   25  C11 UNL     1     -11.635  47.955  -0.432  1.00  0.00     0.118 C 
BRANCH  25  26
HETATM   26  C12 UNL     1     -11.641  49.398  -0.657  1.00  0.00     0.172 C 
HETATM   27  O2  UNL     1     -11.969  49.931  -1.734  1.00  0.00    -0.648 OA
HETATM   28  O3  UNL     1     -11.243  50.201   0.421  1.00  0.00    -0.648 OA
ENDBRANCH  25  26
ENDBRANCH  23  25
ENDBRANCH   4  23
BRANCH   1  29
HETATM   29  C4  UNL     1     -14.123  44.450  -3.270  1.00  0.00    -0.064 C 
HETATM   30  C3  UNL     1     -15.098  44.698  -3.947  1.00  0.00    -0.103 C 
BRANCH  30  31
HETATM   31  C2  UNL     1     -16.315  45.014  -4.742  1.00  0.00     0.089 C 
HETATM   32  C1  UNL     1     -16.252  44.274  -6.034  1.00  0.00     0.018 C 
ENDBRANCH  30  31
ENDBRANCH   1  29
BRANCH   1  33
HETATM   33  O1  UNL     1     -12.853  42.738  -2.261  1.00  0.00    -0.374 OA
ATOM     34  H1  UNL     1     -12.063  42.435  -2.693  1.00  0.00     0.212 HD
ENDBRANCH   1  33
TORSDOF 12
ENDMDL
MODEL 3
REMARK VINA RESULT: -6.473420747      1.333      1.752
REMARK  12 active torsions:
REMARK  status: ('A' for Active; 'I' for Inactive)
REMARK    1  A    between atoms: C2_2  and  C3_3 
REMARK    2  A    between atoms: C4_4  and  C5_5 
REMARK    3  A    between atoms: C5_5  and  O1_6 
REMARK    4  A    between atoms: C8_10  and  C9_11 
REMARK    5  A    between atoms: C9_11  and  C11_13 
REMARK    6  A    between atoms: C11_13  and  C12_14 
REMARK    7  A    between atoms: C13_17  and  N1_18 
REMARK    8  A    between atoms: N1_18  and  C14_21 
REMARK    9  A    between atoms: C14_21  and  C15_22 
REMARK   10  A    between atoms: C15_22  and  C16_23 
REMARK   11  A    between atoms: C16_23  and  N2_24 
REMARK   12  A    between atoms: N2_24  and  C18_26 
ROOT
HETATM    1  C5  UNL     1     -11.796  44.446  -1.532  1.00  0.00     0.141 C 
HETATM    2  C6  UNL     1     -11.846  44.636  -0.087  1.00  0.00     0.020 C 
HETATM    3  C7  UNL     1     -10.993  45.306   0.659  1.00  0.00    -0.020 C 
HETATM    4  C8  UNL     1      -9.787  45.998   0.073  1.00  0.00     0.043 C 
HETATM    5  C13 UNL     1      -9.585  45.401  -1.276  1.00  0.00     0.198 C 
HETATM    6  C26 UNL     1     -10.818  45.428  -2.159  1.00  0.00     0.089 C 
ENDROOT
BRANCH   5   7
HETATM    7  N1  UNL     1      -9.258  43.997  -1.101  1.00  0.00    -0.070 N 
ATOM      8  H12 UNL     1      -9.607  43.651  -0.207  1.00  0.00     0.277 HD
ATOM      9  H11 UNL     1      -9.808  43.414  -1.731  1.00  0.00     0.277 HD
BRANCH   7  10
HETATM   10  C14 UNL     1      -7.893  43.734  -1.240  1.00  0.00     0.234 C 
BRANCH  10  11
HETATM   11  C15 UNL     1      -7.401  42.610  -0.347  1.00  0.00     0.057 C 
BRANCH  11  12
HETATM   12  C16 UNL     1      -7.572  43.147   1.058  1.00  0.00     0.274 C 
BRANCH  12  13
HETATM   13  N2  UNL     1      -6.429  43.242   1.868  1.00  0.00     0.088 N 
HETATM   14  C17 UNL     1      -6.645  43.146   3.291  1.00  0.00     0.310 C 
BRANCH  13  15
HETATM   15  C18 UNL     1      -5.604  44.408   1.534  1.00  0.00     0.222 C 
HETATM   16  C19 UNL     1      -4.470  44.479   2.522  1.00  0.00     0.036 C 
HETATM   17  C20 UNL     1      -3.238  45.177   2.000  1.00  0.00     0.002 C 
HETATM   18  C21 UNL     1      -3.312  46.669   2.293  1.00  0.00     0.000 C 
HETATM   19  C22 UNL     1      -3.910  47.328   1.079  1.00  0.00     0.000 C 
HETATM   20  C23 UNL     1      -5.336  47.739   1.326  1.00  0.00     0.000 C 
HETATM   21  C24 UNL     1      -6.222  46.683   0.694  1.00  0.00     0.002 C 
HETATM   22  C25 UNL     1      -6.485  45.619   1.725  1.00  0.00     0.036 C 
ENDBRANCH  13  15
ENDBRANCH  12  13
ENDBRANCH  11  12
ENDBRANCH  10  11
ENDBRANCH   7  10
ENDBRANCH   5   7
BRANCH   4  23
HETATM   23  C9  UNL     1     -10.059  47.477   0.101  1.00  0.00     0.001 C 
HETATM   24  C10 UNL     1      -9.157  48.225  -0.879  1.00  0.00     0.011 C 
BRANCH  23  25
HETATM   25  C11 UNL     1      -9.624  47.967   1.482  1.00  0.00     0.118 C 
BRANCH  25  26
HETATM   26  C12 UNL     1     -10.692  48.607   2.245  1.00  0.00     0.172 C 
HETATM   27  O2  UNL     1     -11.291  49.634   1.873  1.00  0.00    -0.648 OA
HETATM   28  O3  UNL     1     -11.035  48.009   3.466  1.00  0.00    -0.648 OA
ENDBRANCH  25  26
ENDBRANCH  23  25
ENDBRANCH   4  23
BRANCH   1  29
HETATM   29  C4  UNL     1     -13.107  44.712  -2.125  1.00  0.00    -0.064 C 
HETATM   30  C3  UNL     1     -14.204  44.904  -2.604  1.00  0.00    -0.103 C 
BRANCH  30  31
HETATM   31  C2  UNL     1     -15.567  45.113  -3.165  1.00  0.00     0.089 C 
HETATM   32  C1  UNL     1     -15.667  44.395  -4.467  1.00  0.00     0.018 C 
ENDBRANCH  30  31
ENDBRANCH   1  29
BRANCH   1  33
HETATM   33  O1  UNL     1     -11.407  43.106  -1.823  1.00  0.00    -0.374 OA
ATOM     34  H1  UNL     1     -10.501  43.095  -2.109  1.00  0.00     0.212 HD
ENDBRANCH   1  33
TORSDOF 12
ENDMDL
MODEL 4
REMARK VINA RESULT: -6.433558776      1.888      3.323
REMARK  12 active torsions:
REMARK  status: ('A' for Active; 'I' for Inactive)
REMARK    1  A    between atoms: C2_2  and  C3_3 
REMARK    2  A    between atoms: C4_4  and  C5_5 
REMARK    3  A    between atoms: C5_5  and  O1_6 
REMARK    4  A    between atoms: C8_10  and  C9_11 
REMARK    5  A    between atoms: C9_11  and  C11_13 
REMARK    6  A    between atoms: C11_13  and  C12_14 
REMARK    7  A    between atoms: C13_17  and  N1_18 
REMARK    8  A    between atoms: N1_18  and  C14_21 
REMARK    9  A    between atoms: C14_21  and  C15_22 
REMARK   10  A    between atoms: C15_22  and  C16_23 
REMARK   11  A    between atoms: C16_23  and  N2_24 
REMARK   12  A    between atoms: N2_24  and  C18_26 
ROOT
HETATM    1  C5  UNL     1     -10.011  44.059  -0.691  1.00  0.00     0.141 C 
HETATM    2  C6  UNL     1     -10.125  45.240   0.156  1.00  0.00     0.020 C 
HETATM    3  C7  UNL     1      -9.205  46.155   0.378  1.00  0.00    -0.020 C 
HETATM    4  C8  UNL     1      -7.837  46.085  -0.256  1.00  0.00     0.043 C 
HETATM    5  C13 UNL     1      -7.670  44.681  -0.722  1.00  0.00     0.198 C 
HETATM    6  C26 UNL     1      -8.799  44.180  -1.603  1.00  0.00     0.089 C 
ENDROOT
BRANCH   5   7
HETATM    7  N1  UNL     1      -7.671  43.818   0.446  1.00  0.00    -0.070 N 
ATOM      8  H12 UNL     1      -7.721  44.367   1.304  1.00  0.00     0.277 HD
ATOM      9  H11 UNL     1      -8.552  43.310   0.523  1.00  0.00     0.277 HD
BRANCH   7  10
HETATM   10  C14 UNL     1      -6.583  42.941   0.476  1.00  0.00     0.234 C 
BRANCH  10  11
HETATM   11  C15 UNL     1      -5.929  42.838   1.841  1.00  0.00     0.057 C 
BRANCH  11  12
HETATM   12  C16 UNL     1      -5.017  44.044   1.911  1.00  0.00     0.274 C 
BRANCH  12  13
HETATM   13  N2  UNL     1      -4.832  44.656   3.161  1.00  0.00     0.088 N 
HETATM   14  C17 UNL     1      -5.394  43.969   4.298  1.00  0.00     0.310 C 
BRANCH  13  15
HETATM   15  C18 UNL     1      -5.217  46.071   3.152  1.00  0.00     0.222 C 
HETATM   16  C19 UNL     1      -6.719  46.149   3.232  1.00  0.00     0.036 C 
HETATM   17  C20 UNL     1      -7.240  47.428   3.842  1.00  0.00     0.002 C 
HETATM   18  C21 UNL     1      -7.451  48.479   2.761  1.00  0.00     0.000 C 
HETATM   19  C22 UNL     1      -6.193  49.303   2.695  1.00  0.00     0.000 C 
HETATM   20  C23 UNL     1      -5.381  48.965   1.475  1.00  0.00     0.000 C 
HETATM   21  C24 UNL     1      -4.271  48.033   1.920  1.00  0.00     0.002 C 
HETATM   22  C25 UNL     1      -4.778  46.621   1.816  1.00  0.00     0.036 C 
ENDBRANCH  13  15
ENDBRANCH  12  13
ENDBRANCH  11  12
ENDBRANCH  10  11
ENDBRANCH   7  10
ENDBRANCH   5   7
BRANCH   4  23
HETATM   23  C9  UNL     1      -7.782  47.141  -1.326  1.00  0.00     0.001 C 
HETATM   24  C10 UNL     1      -6.358  47.658  -1.523  1.00  0.00     0.011 C 
BRANCH  23  25
HETATM   25  C11 UNL     1      -8.560  48.340  -0.785  1.00  0.00     0.118 C 
BRANCH  25  26
HETATM   26  C12 UNL     1      -9.544  48.877  -1.720  1.00  0.00     0.172 C 
HETATM   27  O2  UNL     1      -9.250  49.415  -2.805  1.00  0.00    -0.648 OA
HETATM   28  O3  UNL     1     -10.891  48.770  -1.343  1.00  0.00    -0.648 OA
ENDBRANCH  25  26
ENDBRANCH  23  25
ENDBRANCH   4  23
BRANCH   1  29
HETATM   29  C4  UNL     1     -11.185  43.938  -1.556  1.00  0.00    -0.064 C 
HETATM   30  C3  UNL     1     -12.167  43.868  -2.264  1.00  0.00    -0.103 C 
BRANCH  30  31
HETATM   31  C2  UNL     1     -13.375  43.823  -3.132  1.00  0.00     0.089 C 
HETATM   32  C1  UNL     1     -14.342  44.857  -2.665  1.00  0.00     0.018 C 
ENDBRANCH  30  31
ENDBRANCH   1  29
BRANCH   1  33
HETATM   33  O1  UNL     1      -9.902  42.896   0.126  1.00  0.00    -0.374 OA
ATOM     34  H1  UNL     1      -9.944  43.148   1.041  1.00  0.00     0.212 HD
ENDBRANCH   1  33
TORSDOF 12
ENDMDL
MODEL 5
REMARK VINA RESULT: -6.403048632      1.009      1.623
REMARK  12 active torsions:
REMARK  status: ('A' for Active; 'I' for Inactive)
REMARK    1  A    between atoms: C2_2  and  C3_3 
REMARK    2  A    between atoms: C4_4  and  C5_5 
REMARK    3  A    between atoms: C5_5  and  O1_6 
REMARK    4  A    between atoms: C8_10  and  C9_11 
REMARK    5  A    between atoms: C9_11  and  C11_13 
REMARK    6  A    between atoms: C11_13  and  C12_14 
REMARK    7  A    between atoms: C13_17  and  N1_18 
REMARK    8  A    between atoms: N1_18  and  C14_21 
REMARK    9  A    between atoms: C14_21  and  C15_22 
REMARK   10  A    between atoms: C15_22  and  C16_23 
REMARK   11  A    between atoms: C16_23  and  N2_24 
REMARK   12  A    between atoms: N2_24  and  C18_26 
ROOT
HETATM    1  C5  UNL     1     -12.355  44.007  -2.358  1.00  0.00     0.141 C 
HETATM    2  C6  UNL     1     -12.426  44.510  -0.991  1.00  0.00     0.020 C 
HETATM    3  C7  UNL     1     -11.526  45.233  -0.358  1.00  0.00    -0.020 C 
HETATM    4  C8  UNL     1     -10.232  45.652  -1.013  1.00  0.00     0.043 C 
HETATM    5  C13 UNL     1     -10.058  44.759  -2.192  1.00  0.00     0.198 C 
HETATM    6  C26 UNL     1     -11.253  44.723  -3.125  1.00  0.00     0.089 C 
ENDROOT
BRANCH   5   7
HETATM    7  N1  UNL     1      -9.899  43.401  -1.706  1.00  0.00    -0.070 N 
ATOM      8  H12 UNL     1     -10.424  43.258  -0.843  1.00  0.00     0.277 HD
ATOM      9  H11 UNL     1     -10.387  42.738  -2.309  1.00  0.00     0.277 HD
BRANCH   7  10
HETATM   10  C14 UNL     1      -8.560  43.034  -1.542  1.00  0.00     0.234 C 
BRANCH  10  11
HETATM   11  C15 UNL     1      -8.263  42.424  -0.184  1.00  0.00     0.057 C 
BRANCH  11  12
HETATM   12  C16 UNL     1      -7.054  43.188   0.312  1.00  0.00     0.274 C 
BRANCH  12  13
HETATM   13  N2  UNL     1      -7.194  43.950   1.483  1.00  0.00     0.088 N 
HETATM   14  C17 UNL     1      -7.816  45.242   1.333  1.00  0.00     0.310 C 
BRANCH  13  15
HETATM   15  C18 UNL     1      -5.940  44.049   2.237  1.00  0.00     0.222 C 
HETATM   16  C19 UNL     1      -6.279  44.130   3.702  1.00  0.00     0.036 C 
HETATM   17  C20 UNL     1      -5.190  43.623   4.617  1.00  0.00     0.002 C 
HETATM   18  C21 UNL     1      -4.242  44.756   4.987  1.00  0.00     0.000 C 
HETATM   19  C22 UNL     1      -3.104  44.717   4.002  1.00  0.00     0.000 C 
HETATM   20  C23 UNL     1      -3.210  45.833   2.999  1.00  0.00     0.000 C 
HETATM   21  C24 UNL     1      -3.798  45.241   1.732  1.00  0.00     0.002 C 
HETATM   22  C25 UNL     1      -5.296  45.349   1.820  1.00  0.00     0.036 C 
ENDBRANCH  13  15
ENDBRANCH  12  13
ENDBRANCH  11  12
ENDBRANCH  10  11
ENDBRANCH   7  10
ENDBRANCH   5   7
BRANCH   4  23
HETATM   23  C9  UNL     1     -10.335  47.122  -1.314  1.00  0.00     0.001 C 
HETATM   24  C10 UNL     1      -8.980  47.812  -1.177  1.00  0.00     0.011 C 
BRANCH  23  25
HETATM   25  C11 UNL     1     -11.194  47.727  -0.203  1.00  0.00     0.118 C 
BRANCH  25  26
HETATM   26  C12 UNL     1     -11.539  49.129  -0.421  1.00  0.00     0.172 C 
HETATM   27  O2  UNL     1     -12.057  49.562  -1.468  1.00  0.00    -0.648 OA
HETATM   28  O3  UNL     1     -11.252  50.015   0.628  1.00  0.00    -0.648 OA
ENDBRANCH  25  26
ENDBRANCH  23  25
ENDBRANCH   4  23
BRANCH   1  29
HETATM   29  C4  UNL     1     -13.609  44.274  -3.063  1.00  0.00    -0.064 C 
HETATM   30  C3  UNL     1     -14.662  44.472  -3.631  1.00  0.00    -0.103 C 
BRANCH  30  31
HETATM   31  C2  UNL     1     -15.975  44.695  -4.295  1.00  0.00     0.089 C 
HETATM   32  C1  UNL     1     -15.844  44.364  -5.743  1.00  0.00     0.018 C 
ENDBRANCH  30  31
ENDBRANCH   1  29
BRANCH   1  33
HETATM   33  O1  UNL     1     -12.112  42.603  -2.337  1.00  0.00    -0.374 OA
ATOM     34  H1  UNL     1     -11.547  42.370  -3.064  1.00  0.00     0.212 HD
ENDBRANCH   1  33
TORSDOF 12
ENDMDL
