MODEL 1
REMARK VINA RESULT: -6.510756065      0.000      0.000
REMARK  12 active torsions:
REMARK  status: ('A' for Active; 'I' for Inactive)
REMARK    1  A    between atoms: C2_2  and  N1_3 
REMARK    2  A    between atoms: N1_3  and  C3_4 
REMARK    3  A    between atoms: N1_3  and  C5_6 
REMARK    4  A    between atoms: C5_6  and  C6_7 
REMARK    5  A    between atoms: C7_8  and  C8_9 
REMARK    6  A    between atoms: C8_9  and  N2_11 
REMARK    7  A    between atoms: N2_11  and  C10_13 
REMARK    8  A    between atoms: C11_16  and  N4_17 
REMARK    9  A    between atoms: N4_17  and  C12_19 
REMARK   10  A    between atoms: C12_19  and  C13_20 
REMARK   11  A    between atoms: C14_21  and  C15_22 
REMARK   12  A    between atoms: C15_22  and  C18_25 
ROOT
HETATM    1  C10 UNL     1      -9.556  44.061   0.778  1.00  0.00     0.683 A 
HETATM    2  N3  UNL     1      -8.503  43.692   1.517  1.00  0.00    -0.177 N 
ATOM      3  H3  UNL     1      -8.561  43.826   2.527  1.00  0.00     0.185 HD
HETATM    4  C11 UNL     1      -7.375  43.157   1.020  1.00  0.00     0.122 A 
HETATM    5  C25 UNL     1      -7.281  42.972  -0.344  1.00  0.00     0.123 A 
HETATM    6  C26 UNL     1      -8.372  43.355  -1.119  1.00  0.00     0.263 A 
HETATM    7  O1  UNL     1      -8.274  43.181  -2.364  1.00  0.00    -0.268 OA
HETATM    8  N5  UNL     1      -9.470  43.881  -0.575  1.00  0.00    -0.156 N 
ATOM      9  H5  UNL     1     -10.252  44.152  -1.172  1.00  0.00     0.187 HD
ENDROOT
BRANCH   4  10
HETATM   10  N4  UNL     1      -6.290  42.781   1.883  1.00  0.00    -0.365 N 
ATOM     11  H4  UNL     1      -6.380  41.952   2.472  1.00  0.00     0.162 HD
BRANCH  10  12
HETATM   12  C12 UNL     1      -5.076  43.556   1.929  1.00  0.00     0.215 C 
BRANCH  12  13
HETATM   13  C13 UNL     1      -5.334  44.982   1.714  1.00  0.00    -0.086 C 
HETATM   14  C14 UNL     1      -5.553  46.163   1.511  1.00  0.00    -0.095 C 
BRANCH  14  15
HETATM   15  C15 UNL     1      -5.828  47.576   1.245  1.00  0.00     0.020 C 
HETATM   16  C16 UNL     1      -5.534  48.399   2.440  1.00  0.00     0.029 C 
HETATM   17  C17 UNL     1      -4.904  48.045   0.110  1.00  0.00     0.029 C 
BRANCH  15  18
HETATM   18  C18 UNL     1      -7.230  47.668   0.724  1.00  0.00     0.005 C 
HETATM   19  C19 UNL     1      -7.904  48.965   0.935  1.00  0.00     0.006 C 
HETATM   20  C20 UNL     1      -7.620  50.047  -0.032  1.00  0.00     0.000 C 
HETATM   21  C21 UNL     1      -7.826  49.734  -1.464  1.00  0.00     0.000 C 
HETATM   22  C22 UNL     1      -8.957  48.793  -1.744  1.00  0.00     0.000 C 
HETATM   23  C23 UNL     1      -8.757  47.422  -1.195  1.00  0.00     0.000 C 
HETATM   24  C24 UNL     1      -7.360  47.144  -0.700  1.00  0.00     0.006 C 
ENDBRANCH  15  18
ENDBRANCH  14  15
ENDBRANCH  12  13
ENDBRANCH  10  12
ENDBRANCH   4  10
BRANCH   1  25
HETATM   25  N2  UNL     1     -10.638  44.559   1.232  1.00  0.00    -0.218 N 
ATOM     26  H2  UNL     1     -11.113  44.044   1.974  1.00  0.00     0.178 HD
BRANCH  25  27
HETATM   27  C8  UNL     1     -11.253  45.795   0.786  1.00  0.00     0.118 C 
HETATM   28  C9  UNL     1     -10.933  46.931   1.740  1.00  0.00     0.037 C 
BRANCH  27  29
HETATM   29  C7  UNL     1     -12.723  45.601   0.788  1.00  0.00    -0.004 C 
HETATM   30  C6  UNL     1     -13.413  45.605  -0.333  1.00  0.00     0.001 C 
BRANCH  30  31
HETATM   31  C5  UNL     1     -12.747  45.803  -1.638  1.00  0.00     0.299 C 
BRANCH  31  32
HETATM   32  N1  UNL     1     -13.425  44.952  -2.605  1.00  0.00     0.091 N 
BRANCH  32  33
HETATM   33  C2  UNL     1     -12.964  43.603  -2.610  1.00  0.00     0.268 C 
HETATM   34  C1  UNL     1     -11.640  43.416  -3.308  1.00  0.00     0.037 C 
ENDBRANCH  32  33
BRANCH  32  35
HETATM   35  C3  UNL     1     -14.863  45.069  -2.544  1.00  0.00     0.268 C 
HETATM   36  C4  UNL     1     -15.429  44.337  -3.746  1.00  0.00     0.037 C 
ENDBRANCH  32  35
ENDBRANCH  31  32
ENDBRANCH  30  31
ENDBRANCH  27  29
ENDBRANCH  25  27
ENDBRANCH   1  25
TORSDOF 12
ENDMDL
MODEL 2
REMARK VINA RESULT: -6.440113057      3.303      6.424
REMARK  12 active torsions:
REMARK  status: ('A' for Active; 'I' for Inactive)
REMARK    1  A    between atoms: C2_2  and  N1_3 
REMARK    2  A    between atoms: N1_3  and  C3_4 
REMARK    3  A    between atoms: N1_3  and  C5_6 
REMARK    4  A    between atoms: C5_6  and  C6_7 
REMARK    5  A    between atoms: C7_8  and  C8_9 
REMARK    6  A    between atoms: C8_9  and  N2_11 
REMARK    7  A    between atoms: N2_11  and  C10_13 
REMARK    8  A    between atoms: C11_16  and  N4_17 
REMARK    9  A    between atoms: N4_17  and  C12_19 
REMARK   10  A    between atoms: C12_19  and  C13_20 
REMARK   11  A    between atoms: C14_21  and  C15_22 
REMARK   12  A    between atoms: C15_22  and  C18_25 
ROOT
HETATM    1  C10 UNL     1     -14.857  44.868  -3.056  1.00  0.00     0.683 A 
HETATM    2  N3  UNL     1     -14.544  45.474  -1.905  1.00  0.00    -0.177 N 
ATOM      3  H3  UNL     1     -15.284  45.979  -1.417  1.00  0.00     0.185 HD
HETATM    4  C11 UNL     1     -13.320  45.463  -1.348  1.00  0.00     0.122 A 
HETATM    5  C25 UNL     1     -12.309  44.787  -1.998  1.00  0.00     0.123 A 
HETATM    6  C26 UNL     1     -12.628  44.155  -3.197  1.00  0.00     0.263 A 
HETATM    7  O1  UNL     1     -11.694  43.541  -3.781  1.00  0.00    -0.268 OA
HETATM    8  N5  UNL     1     -13.860  44.196  -3.707  1.00  0.00    -0.156 N 
ATOM      9  H5  UNL     1     -14.059  43.722  -4.588  1.00  0.00     0.187 HD
ENDROOT
BRANCH   4  10
HETATM   10  N4  UNL     1     -13.066  46.135  -0.104  1.00  0.00    -0.365 N 
ATOM     11  H4  UNL     1     -13.501  45.789   0.752  1.00  0.00     0.162 HD
BRANCH  10  12
HETATM   12  C12 UNL     1     -12.207  47.289  -0.047  1.00  0.00     0.215 C 
BRANCH  12  13
HETATM   13  C13 UNL     1     -10.805  46.914   0.157  1.00  0.00    -0.086 C 
HETATM   14  C14 UNL     1      -9.636  46.603   0.302  1.00  0.00    -0.095 C 
BRANCH  14  15
HETATM   15  C15 UNL     1      -8.227  46.237   0.451  1.00  0.00     0.020 C 
HETATM   16  C16 UNL     1      -7.489  46.482  -0.810  1.00  0.00     0.029 C 
HETATM   17  C17 UNL     1      -7.606  47.126   1.540  1.00  0.00     0.029 C 
BRANCH  15  18
HETATM   18  C18 UNL     1      -8.181  44.831   0.965  1.00  0.00     0.005 C 
HETATM   19  C19 UNL     1      -9.290  43.958   0.531  1.00  0.00     0.006 C 
HETATM   20  C20 UNL     1      -9.182  43.327  -0.802  1.00  0.00     0.000 C 
HETATM   21  C21 UNL     1      -7.950  42.553  -1.076  1.00  0.00     0.000 C 
HETATM   22  C22 UNL     1      -7.384  41.835   0.110  1.00  0.00     0.000 C 
HETATM   23  C23 UNL     1      -6.898  42.739   1.192  1.00  0.00     0.000 C 
HETATM   24  C24 UNL     1      -6.809  44.192   0.800  1.00  0.00     0.006 C 
ENDBRANCH  15  18
ENDBRANCH  14  15
ENDBRANCH  12  13
ENDBRANCH  10  12
ENDBRANCH   4  10
BRANCH   1  25
HETATM   25  N2  UNL     1     -16.013  44.858  -3.594  1.00  0.00    -0.218 N 
ATOM     26  H2  UNL     1     -16.476  43.954  -3.686  1.00  0.00     0.178 HD
BRANCH  25  27
HETATM   27  C8  UNL     1     -16.727  46.022  -4.085  1.00  0.00     0.118 C 
HETATM   28  C9  UNL     1     -18.033  46.209  -3.335  1.00  0.00     0.037 C 
BRANCH  27  29
HETATM   29  C7  UNL     1     -17.054  45.788  -5.513  1.00  0.00    -0.004 C 
HETATM   30  C6  UNL     1     -17.094  46.781  -6.376  1.00  0.00     0.001 C 
BRANCH  30  31
HETATM   31  C5  UNL     1     -16.812  48.169  -5.953  1.00  0.00     0.299 C 
BRANCH  31  32
HETATM   32  N1  UNL     1     -16.778  48.991  -7.155  1.00  0.00     0.091 N 
BRANCH  32  33
HETATM   33  C2  UNL     1     -16.417  50.349  -6.914  1.00  0.00     0.268 C 
HETATM   34  C1  UNL     1     -15.011  50.523  -6.400  1.00  0.00     0.037 C 
ENDBRANCH  32  33
BRANCH  32  35
HETATM   35  C3  UNL     1     -16.036  48.379  -8.232  1.00  0.00     0.268 C 
HETATM   36  C4  UNL     1     -16.718  48.769  -9.530  1.00  0.00     0.037 C 
ENDBRANCH  32  35
ENDBRANCH  31  32
ENDBRANCH  30  31
ENDBRANCH  27  29
ENDBRANCH  25  27
ENDBRANCH   1  25
TORSDOF 12
ENDMDL
MODEL 3
REMARK VINA RESULT: -6.388399828      2.385      4.860
REMARK  12 active torsions:
REMARK  status: ('A' for Active; 'I' for Inactive)
REMARK    1  A    between atoms: C2_2  and  N1_3 
REMARK    2  A    between atoms: N1_3  and  C3_4 
REMARK    3  A    between atoms: N1_3  and  C5_6 
REMARK    4  A    between atoms: C5_6  and  C6_7 
REMARK    5  A    between atoms: C7_8  and  C8_9 
REMARK    6  A    between atoms: C8_9  and  N2_11 
REMARK    7  A    between atoms: N2_11  and  C10_13 
REMARK    8  A    between atoms: C11_16  and  N4_17 
REMARK    9  A    between atoms: N4_17  and  C12_19 
REMARK   10  A    between atoms: C12_19  and  C13_20 
REMARK   11  A    between atoms: C14_21  and  C15_22 
REMARK   12  A    between atoms: C15_22  and  C18_25 
ROOT
HETATM    1  C10 UNL     1      -8.516  45.535  -0.226  1.00  0.00     0.683 A 
HETATM    2  N3  UNL     1      -8.547  45.894   1.062  1.00  0.00    -0.177 N 
ATOM      3  H3  UNL     1      -8.138  45.255   1.744  1.00  0.00     0.185 HD
HETATM    4  C11 UNL     1      -9.082  47.040   1.520  1.00  0.00     0.122 A 
HETATM    5  C25 UNL     1      -9.642  47.913   0.610  1.00  0.00     0.123 A 
HETATM    6  C26 UNL     1      -9.613  47.544  -0.732  1.00  0.00     0.263 A 
HETATM    7  O1  UNL     1     -10.128  48.351  -1.553  1.00  0.00    -0.268 OA
HETATM    8  N5  UNL     1      -9.070  46.395  -1.134  1.00  0.00    -0.156 N 
ATOM      9  H5  UNL     1      -9.066  46.156  -2.126  1.00  0.00     0.187 HD
ENDROOT
BRANCH   4  10
HETATM   10  N4  UNL     1      -9.070  47.355   2.922  1.00  0.00    -0.365 N 
ATOM     11  H4  UNL     1      -9.756  46.922   3.540  1.00  0.00     0.162 HD
BRANCH  10  12
HETATM   12  C12 UNL     1      -8.103  48.273   3.466  1.00  0.00     0.215 C 
BRANCH  12  13
HETATM   13  C13 UNL     1      -6.979  47.572   4.092  1.00  0.00    -0.086 C 
HETATM   14  C14 UNL     1      -6.041  47.008   4.626  1.00  0.00    -0.095 C 
BRANCH  14  15
HETATM   15  C15 UNL     1      -4.915  46.348   5.290  1.00  0.00     0.020 C 
HETATM   16  C16 UNL     1      -3.940  47.349   5.780  1.00  0.00     0.029 C 
HETATM   17  C17 UNL     1      -5.452  45.578   6.506  1.00  0.00     0.029 C 
BRANCH  15  18
HETATM   18  C18 UNL     1      -4.372  45.326   4.339  1.00  0.00     0.005 C 
HETATM   19  C19 UNL     1      -4.820  43.938   4.570  1.00  0.00     0.006 C 
HETATM   20  C20 UNL     1      -6.136  43.545   4.025  1.00  0.00     0.000 C 
HETATM   21  C21 UNL     1      -6.360  43.786   2.582  1.00  0.00     0.000 C 
HETATM   22  C22 UNL     1      -5.143  43.623   1.723  1.00  0.00     0.000 C 
HETATM   23  C23 UNL     1      -4.066  44.616   1.999  1.00  0.00     0.000 C 
HETATM   24  C24 UNL     1      -4.485  45.762   2.885  1.00  0.00     0.006 C 
ENDBRANCH  15  18
ENDBRANCH  14  15
ENDBRANCH  12  13
ENDBRANCH  10  12
ENDBRANCH   4  10
BRANCH   1  25
HETATM   25  N2  UNL     1      -8.005  44.459  -0.680  1.00  0.00    -0.218 N 
ATOM     26  H2  UNL     1      -7.030  44.497  -0.979  1.00  0.00     0.178 HD
BRANCH  25  27
HETATM   27  C8  UNL     1      -8.689  43.186  -0.808  1.00  0.00     0.118 C 
HETATM   28  C9  UNL     1      -7.778  42.042  -0.402  1.00  0.00     0.037 C 
BRANCH  27  29
HETATM   29  C7  UNL     1      -9.042  42.999  -2.236  1.00  0.00    -0.004 C 
HETATM   30  C6  UNL     1     -10.272  43.186  -2.665  1.00  0.00     0.001 C 
BRANCH  30  31
HETATM   31  C5  UNL     1     -11.349  43.593  -1.737  1.00  0.00     0.299 C 
BRANCH  31  32
HETATM   32  N1  UNL     1     -12.065  44.698  -2.359  1.00  0.00     0.091 N 
BRANCH  32  33
HETATM   33  C2  UNL     1     -12.879  44.308  -3.463  1.00  0.00     0.268 C 
HETATM   34  C1  UNL     1     -14.358  44.430  -3.201  1.00  0.00     0.037 C 
ENDBRANCH  32  33
BRANCH  32  35
HETATM   35  C3  UNL     1     -12.752  45.531  -1.401  1.00  0.00     0.268 C 
HETATM   36  C4  UNL     1     -12.267  45.129  -0.021  1.00  0.00     0.037 C 
ENDBRANCH  32  35
ENDBRANCH  31  32
ENDBRANCH  30  31
ENDBRANCH  27  29
ENDBRANCH  25  27
ENDBRANCH   1  25
TORSDOF 12
ENDMDL
MODEL 4
REMARK VINA RESULT: -6.338348046      0.575      1.254
REMARK  12 active torsions:
REMARK  status: ('A' for Active; 'I' for Inactive)
REMARK    1  A    between atoms: C2_2  and  N1_3 
REMARK    2  A    between atoms: N1_3  and  C3_4 
REMARK    3  A    between atoms: N1_3  and  C5_6 
REMARK    4  A    between atoms: C5_6  and  C6_7 
REMARK    5  A    between atoms: C7_8  and  C8_9 
REMARK    6  A    between atoms: C8_9  and  N2_11 
REMARK    7  A    between atoms: N2_11  and  C10_13 
REMARK    8  A    between atoms: C11_16  and  N4_17 
REMARK    9  A    between atoms: N4_17  and  C12_19 
REMARK   10  A    between atoms: C12_19  and  C13_20 
REMARK   11  A    between atoms: C14_21  and  C15_22 
REMARK   12  A    between atoms: C15_22  and  C18_25 
ROOT
HETATM    1  C10 UNL     1      -9.547  44.035   0.770  1.00  0.00     0.683 A 
HETATM    2  N3  UNL     1      -8.458  43.722   1.482  1.00  0.00    -0.177 N 
ATOM      3  H3  UNL     1      -8.465  43.935   2.479  1.00  0.00     0.185 HD
HETATM    4  C11 UNL     1      -7.355  43.147   0.972  1.00  0.00     0.122 A 
HETATM    5  C25 UNL     1      -7.330  42.854  -0.376  1.00  0.00     0.123 A 
HETATM    6  C26 UNL     1      -8.460  43.178  -1.123  1.00  0.00     0.263 A 
HETATM    7  O1  UNL     1      -8.423  42.906  -2.354  1.00  0.00    -0.268 OA
HETATM    8  N5  UNL     1      -9.529  43.749  -0.568  1.00  0.00    -0.156 N 
ATOM      9  H5  UNL     1     -10.341  43.974  -1.144  1.00  0.00     0.187 HD
ENDROOT
BRANCH   4  10
HETATM   10  N4  UNL     1      -6.227  42.837   1.806  1.00  0.00    -0.365 N 
ATOM     11  H4  UNL     1      -6.257  42.011   2.405  1.00  0.00     0.162 HD
BRANCH  10  12
HETATM   12  C12 UNL     1      -5.056  43.674   1.809  1.00  0.00     0.215 C 
BRANCH  12  13
HETATM   13  C13 UNL     1      -5.404  45.097   1.799  1.00  0.00    -0.086 C 
HETATM   14  C14 UNL     1      -5.704  46.278   1.813  1.00  0.00    -0.095 C 
BRANCH  14  15
HETATM   15  C15 UNL     1      -6.069  47.695   1.856  1.00  0.00     0.020 C 
HETATM   16  C16 UNL     1      -7.315  47.888   2.632  1.00  0.00     0.029 C 
HETATM   17  C17 UNL     1      -4.946  48.464   2.569  1.00  0.00     0.029 C 
BRANCH  15  18
HETATM   18  C18 UNL     1      -6.102  48.192   0.444  1.00  0.00     0.005 C 
HETATM   19  C19 UNL     1      -6.584  47.223  -0.562  1.00  0.00     0.006 C 
HETATM   20  C20 UNL     1      -8.047  47.077  -0.724  1.00  0.00     0.000 C 
HETATM   21  C21 UNL     1      -8.817  48.315  -0.981  1.00  0.00     0.000 C 
HETATM   22  C22 UNL     1      -8.097  49.342  -1.801  1.00  0.00     0.000 C 
HETATM   23  C23 UNL     1      -6.888  49.909  -1.140  1.00  0.00     0.000 C 
HETATM   24  C24 UNL     1      -6.753  49.563   0.321  1.00  0.00     0.006 C 
ENDBRANCH  15  18
ENDBRANCH  14  15
ENDBRANCH  12  13
ENDBRANCH  10  12
ENDBRANCH   4  10
BRANCH   1  25
HETATM   25  N2  UNL     1     -10.605  44.571   1.237  1.00  0.00    -0.218 N 
ATOM     26  H2  UNL     1     -11.096  44.065   1.975  1.00  0.00     0.178 HD
BRANCH  25  27
HETATM   27  C8  UNL     1     -11.172  45.836   0.810  1.00  0.00     0.118 C 
HETATM   28  C9  UNL     1     -10.839  46.937   1.800  1.00  0.00     0.037 C 
BRANCH  27  29
HETATM   29  C7  UNL     1     -12.647  45.688   0.776  1.00  0.00    -0.004 C 
HETATM   30  C6  UNL     1     -13.297  45.588  -0.364  1.00  0.00     0.001 C 
BRANCH  30  31
HETATM   31  C5  UNL     1     -12.578  45.618  -1.656  1.00  0.00     0.299 C 
BRANCH  31  32
HETATM   32  N1  UNL     1     -13.435  44.978  -2.644  1.00  0.00     0.091 N 
BRANCH  32  33
HETATM   33  C2  UNL     1     -13.067  43.632  -2.941  1.00  0.00     0.268 C 
HETATM   34  C1  UNL     1     -11.623  43.472  -3.344  1.00  0.00     0.037 C 
ENDBRANCH  32  33
BRANCH  32  35
HETATM   35  C3  UNL     1     -14.841  45.141  -2.359  1.00  0.00     0.268 C 
HETATM   36  C4  UNL     1     -15.610  44.351  -3.401  1.00  0.00     0.037 C 
ENDBRANCH  32  35
ENDBRANCH  31  32
ENDBRANCH  30  31
ENDBRANCH  27  29
ENDBRANCH  25  27
ENDBRANCH   1  25
TORSDOF 12
ENDMDL
MODEL 5
REMARK VINA RESULT: -6.316625527      2.234      3.849
REMARK  12 active torsions:
REMARK  status: ('A' for Active; 'I' for Inactive)
REMARK    1  A    between atoms: C2_2  and  N1_3 
REMARK    2  A    between atoms: N1_3  and  C3_4 
REMARK    3  A    between atoms: N1_3  and  C5_6 
REMARK    4  A    between atoms: C5_6  and  C6_7 
REMARK    5  A    between atoms: C7_8  and  C8_9 
REMARK    6  A    between atoms: C8_9  and  N2_11 
REMARK    7  A    between atoms: N2_11  and  C10_13 
REMARK    8  A    between atoms: C11_16  and  N4_17 
REMARK    9  A    between atoms: N4_17  and  C12_19 
REMARK   10  A    between atoms: C12_19  and  C13_20 
REMARK   11  A    between atoms: C14_21  and  C15_22 
REMARK   12  A    between atoms: C15_22  and  C18_25 
ROOT
HETATM    1  C10 UNL     1      -9.421  44.102   0.804  1.00  0.00     0.683 A 
HETATM    2  N3  UNL     1      -8.401  43.770   1.605  1.00  0.00    -0.177 N 
ATOM      3  H3  UNL     1      -8.522  43.905   2.609  1.00  0.00     0.185 HD
HETATM    4  C11 UNL     1      -7.228  43.271   1.176  1.00  0.00     0.122 A 
HETATM    5  C25 UNL     1      -7.050  43.085  -0.179  1.00  0.00     0.123 A 
HETATM    6  C26 UNL     1      -8.107  43.429  -1.017  1.00  0.00     0.263 A 
HETATM    7  O1  UNL     1      -7.930  43.255  -2.254  1.00  0.00    -0.268 OA
HETATM    8  N5  UNL     1      -9.251  43.921  -0.541  1.00  0.00    -0.156 N 
ATOM      9  H5  UNL     1     -10.006  44.163  -1.183  1.00  0.00     0.187 HD
ENDROOT
BRANCH   4  10
HETATM   10  N4  UNL     1      -6.183  42.934   2.103  1.00  0.00    -0.365 N 
ATOM     11  H4  UNL     1      -5.241  42.755   1.754  1.00  0.00     0.162 HD
BRANCH  10  12
HETATM   12  C12 UNL     1      -6.446  42.846   3.516  1.00  0.00     0.215 C 
BRANCH  12  13
HETATM   13  C13 UNL     1      -5.503  43.651   4.296  1.00  0.00    -0.086 C 
HETATM   14  C14 UNL     1      -4.735  44.321   4.963  1.00  0.00    -0.095 C 
BRANCH  14  15
HETATM   15  C15 UNL     1      -3.828  45.122   5.787  1.00  0.00     0.020 C 
HETATM   16  C16 UNL     1      -4.525  45.623   6.993  1.00  0.00     0.029 C 
HETATM   17  C17 UNL     1      -2.672  44.222   6.251  1.00  0.00     0.029 C 
BRANCH  15  18
HETATM   18  C18 UNL     1      -3.228  46.171   4.903  1.00  0.00     0.005 C 
HETATM   19  C19 UNL     1      -2.076  45.735   4.088  1.00  0.00     0.006 C 
HETATM   20  C20 UNL     1      -2.362  45.027   2.822  1.00  0.00     0.000 C 
HETATM   21  C21 UNL     1      -3.273  45.703   1.871  1.00  0.00     0.000 C 
HETATM   22  C22 UNL     1      -3.168  47.197   1.855  1.00  0.00     0.000 C 
HETATM   23  C23 UNL     1      -3.579  47.848   3.131  1.00  0.00     0.000 C 
HETATM   24  C24 UNL     1      -4.278  46.933   4.105  1.00  0.00     0.006 C 
ENDBRANCH  15  18
ENDBRANCH  14  15
ENDBRANCH  12  13
ENDBRANCH  10  12
ENDBRANCH   4  10
BRANCH   1  25
HETATM   25  N2  UNL     1     -10.543  44.565   1.193  1.00  0.00    -0.218 N 
ATOM     26  H2  UNL     1     -11.059  44.019   1.883  1.00  0.00     0.178 HD
BRANCH  25  27
HETATM   27  C8  UNL     1     -11.150  45.802   0.739  1.00  0.00     0.118 C 
HETATM   28  C9  UNL     1     -10.843  46.937   1.698  1.00  0.00     0.037 C 
BRANCH  27  29
HETATM   29  C7  UNL     1     -12.620  45.609   0.719  1.00  0.00    -0.004 C 
HETATM   30  C6  UNL     1     -13.285  45.544  -0.415  1.00  0.00     0.001 C 
BRANCH  30  31
HETATM   31  C5  UNL     1     -12.588  45.659  -1.714  1.00  0.00     0.299 C 
BRANCH  31  32
HETATM   32  N1  UNL     1     -13.307  44.825  -2.667  1.00  0.00     0.091 N 
BRANCH  32  33
HETATM   33  C2  UNL     1     -12.885  43.463  -2.674  1.00  0.00     0.268 C 
HETATM   34  C1  UNL     1     -11.468  43.267  -3.149  1.00  0.00     0.037 C 
ENDBRANCH  32  33
BRANCH  32  35
HETATM   35  C3  UNL     1     -14.739  44.985  -2.585  1.00  0.00     0.268 C 
HETATM   36  C4  UNL     1     -15.331  44.438  -3.871  1.00  0.00     0.037 C 
ENDBRANCH  32  35
ENDBRANCH  31  32
ENDBRANCH  30  31
ENDBRANCH  27  29
ENDBRANCH  25  27
ENDBRANCH   1  25
TORSDOF 12
ENDMDL
