MODEL 1
REMARK VINA RESULT: -7.258893685      0.000      0.000
REMARK  12 active torsions:
REMARK  status: ('A' for Active; 'I' for Inactive)
REMARK    1  A    between atoms: C2_2  and  C3_3 
REMARK    2  A    between atoms: C3_3  and  N1_4 
REMARK    3  A    between atoms: C3_3  and  C19_28 
REMARK       I    between atoms: N1_4  and  C4_5 
REMARK    4  A    between atoms: C4_5  and  C5_7 
REMARK    5  A    between atoms: C5_7  and  C6_8 
REMARK    6  A    between atoms: C6_8  and  N2_10 
REMARK       I    between atoms: N2_10  and  C8_12 
REMARK    7  A    between atoms: C8_12  and  C9_14 
REMARK    8  A    between atoms: C9_14  and  C10_15 
REMARK    9  A    between atoms: C9_14  and  N3_19 
REMARK   10  A    between atoms: C10_15  and  C11_16 
REMARK       I    between atoms: N3_19  and  C14_21 
REMARK   11  A    between atoms: C14_21  and  O4_23 
REMARK   12  A    between atoms: O4_23  and  C15_24 
REMARK       I    between atoms: C19_28  and  N4_30 
ROOT
HETATM    1  C6  UNL     1       5.972  32.833   1.541  1.00  0.00     0.090 C 
HETATM    2  C7  UNL     1       5.565  32.188   2.868  1.00  0.00     0.032 C 
ENDROOT
BRANCH   1   3
HETATM    3  C5  UNL     1       4.999  33.919   1.261  1.00  0.00     0.143 C 
BRANCH   3   4
HETATM    4  C4  UNL     1       5.613  35.311   1.406  1.00  0.00     0.289 C 
HETATM    5  N1  UNL     1       5.805  36.131   0.368  1.00  0.00    -0.400 NA
HETATM    6  O1  UNL     1       5.908  35.558   2.627  1.00  0.00    -0.258 OA
BRANCH   5   7
HETATM    7  C3  UNL     1       6.009  36.994  -0.721  1.00  0.00     0.258 C 
BRANCH   7   8
HETATM    8  C2  UNL     1       5.319  36.376  -1.931  1.00  0.00     0.045 C 
HETATM    9  C1  UNL     1       5.012  37.469  -2.930  1.00  0.00     0.009 C 
ENDBRANCH   7   8
BRANCH   7  10
HETATM   10  C19 UNL     1       7.492  36.976  -1.052  1.00  0.00     0.255 C 
HETATM   11  O5  UNL     1       8.051  35.867  -1.237  1.00  0.00    -0.270 OA
HETATM   12  N4  UNL     1       8.253  38.157  -1.149  1.00  0.00    -0.349 N 
HETATM   13  C20 UNL     1       9.672  38.065  -1.447  1.00  0.00     0.126 C 
HETATM   14  C24 UNL     1       7.741  39.496  -0.960  1.00  0.00     0.126 C 
HETATM   15  C21 UNL     1      10.367  38.342  -0.099  1.00  0.00     0.029 C 
HETATM   16  C22 UNL     1       9.497  39.257   0.714  1.00  0.00    -0.037 A 
HETATM   17  C23 UNL     1       8.796  40.270  -0.156  1.00  0.00     0.029 C 
HETATM   18  C25 UNL     1       9.710  39.500   2.149  1.00  0.00     0.010 A 
HETATM   19  C26 UNL     1       8.570  38.586   1.741  1.00  0.00     0.010 A 
ENDBRANCH   7  10
ENDBRANCH   5   7
ENDBRANCH   3   4
ENDBRANCH   1   3
BRANCH   1  20
HETATM   20  N2  UNL     1       7.316  33.317   1.618  1.00  0.00    -0.355 N 
HETATM   21  C8  UNL     1       8.447  32.516   2.009  1.00  0.00     0.240 C 
HETATM   22  O2  UNL     1       8.238  31.308   2.352  1.00  0.00    -0.271 OA
ATOM     23  H2  UNL     1       7.484  34.294   1.380  1.00  0.00     0.162 HD
BRANCH  21  24
HETATM   24  C9  UNL     1       9.813  33.021   2.021  1.00  0.00     0.179 C 
BRANCH  24  25
HETATM   25  C10 UNL     1      10.083  34.457   2.213  1.00  0.00     0.038 C 
BRANCH  25  26
HETATM   26  C11 UNL     1      11.442  34.999   2.138  1.00  0.00    -0.020 C 
HETATM   27  C12 UNL     1      11.675  36.347   2.734  1.00  0.00     0.009 C 
HETATM   28  C13 UNL     1      11.872  35.095   0.651  1.00  0.00     0.009 C 
ENDBRANCH  25  26
ENDBRANCH  24  25
BRANCH  24  29
HETATM   29  N3  UNL     1      10.671  32.187   2.861  1.00  0.00    -0.324 N 
HETATM   30  C14 UNL     1      11.422  31.146   2.332  1.00  0.00     0.362 C 
HETATM   31  O3  UNL     1      11.474  30.776   1.150  1.00  0.00    -0.238 OA
ATOM     32  H3  UNL     1      10.720  32.375   3.862  1.00  0.00     0.165 HD
BRANCH  30  33
HETATM   33  O4  UNL     1      12.224  30.415   3.212  1.00  0.00    -0.294 OA
BRANCH  33  34
HETATM   34  C15 UNL     1      11.755  29.445   4.075  1.00  0.00     0.061 C 
HETATM   35  C16 UNL     1      10.406  28.894   3.727  1.00  0.00     0.046 C 
HETATM   36  C17 UNL     1      11.761  29.991   5.488  1.00  0.00     0.046 C 
HETATM   37  C18 UNL     1      12.739  28.278   4.058  1.00  0.00     0.046 C 
ENDBRANCH  33  34
ENDBRANCH  30  33
ENDBRANCH  24  29
ENDBRANCH  21  24
ENDBRANCH   1  20
TORSDOF 12
ENDMDL
MODEL 2
REMARK VINA RESULT: -7.164882091      2.709      7.464
REMARK  12 active torsions:
REMARK  status: ('A' for Active; 'I' for Inactive)
REMARK    1  A    between atoms: C2_2  and  C3_3 
REMARK    2  A    between atoms: C3_3  and  N1_4 
REMARK    3  A    between atoms: C3_3  and  C19_28 
REMARK       I    between atoms: N1_4  and  C4_5 
REMARK    4  A    between atoms: C4_5  and  C5_7 
REMARK    5  A    between atoms: C5_7  and  C6_8 
REMARK    6  A    between atoms: C6_8  and  N2_10 
REMARK       I    between atoms: N2_10  and  C8_12 
REMARK    7  A    between atoms: C8_12  and  C9_14 
REMARK    8  A    between atoms: C9_14  and  C10_15 
REMARK    9  A    between atoms: C9_14  and  N3_19 
REMARK   10  A    between atoms: C10_15  and  C11_16 
REMARK       I    between atoms: N3_19  and  C14_21 
REMARK   11  A    between atoms: C14_21  and  O4_23 
REMARK   12  A    between atoms: O4_23  and  C15_24 
REMARK       I    between atoms: C19_28  and  N4_30 
ROOT
HETATM    1  C6  UNL     1      10.124  32.680   1.988  1.00  0.00     0.090 C 
HETATM    2  C7  UNL     1       9.739  32.388   3.440  1.00  0.00     0.032 C 
ENDROOT
BRANCH   1   3
HETATM    3  C5  UNL     1      11.032  31.591   1.545  1.00  0.00     0.143 C 
BRANCH   3   4
HETATM    4  C4  UNL     1      11.546  31.798   0.121  1.00  0.00     0.289 C 
HETATM    5  N1  UNL     1      12.054  32.958  -0.307  1.00  0.00    -0.400 NA
HETATM    6  O1  UNL     1      11.415  30.731  -0.574  1.00  0.00    -0.258 OA
BRANCH   5   7
HETATM    7  C3  UNL     1      12.588  34.176  -0.757  1.00  0.00     0.258 C 
BRANCH   7   8
HETATM    8  C2  UNL     1      13.021  34.969   0.469  1.00  0.00     0.045 C 
HETATM    9  C1  UNL     1      14.145  34.228   1.159  1.00  0.00     0.009 C 
ENDBRANCH   7   8
BRANCH   7  10
HETATM   10  C19 UNL     1      11.453  34.977  -1.373  1.00  0.00     0.255 C 
HETATM   11  O5  UNL     1      10.284  34.525  -1.285  1.00  0.00    -0.270 OA
HETATM   12  N4  UNL     1      11.671  36.197  -2.043  1.00  0.00    -0.349 N 
HETATM   13  C20 UNL     1      10.542  36.898  -2.627  1.00  0.00     0.126 C 
HETATM   14  C24 UNL     1      12.959  36.831  -2.219  1.00  0.00     0.126 C 
HETATM   15  C21 UNL     1      10.671  36.639  -4.142  1.00  0.00     0.029 C 
HETATM   16  C22 UNL     1      12.124  36.471  -4.481  1.00  0.00    -0.037 A 
HETATM   17  C23 UNL     1      12.994  37.382  -3.652  1.00  0.00     0.029 C 
HETATM   18  C25 UNL     1      12.590  35.936  -5.770  1.00  0.00     0.010 A 
HETATM   19  C26 UNL     1      12.647  35.027  -4.556  1.00  0.00     0.010 A 
ENDBRANCH   7  10
ENDBRANCH   5   7
ENDBRANCH   3   4
ENDBRANCH   1   3
BRANCH   1  20
HETATM   20  N2  UNL     1       8.951  32.771   1.174  1.00  0.00    -0.355 N 
HETATM   21  C8  UNL     1       8.108  33.935   1.092  1.00  0.00     0.240 C 
HETATM   22  O2  UNL     1       8.394  34.938   1.822  1.00  0.00    -0.271 OA
ATOM     23  H2  UNL     1       8.695  31.957   0.615  1.00  0.00     0.162 HD
BRANCH  21  24
HETATM   24  C9  UNL     1       6.953  34.020   0.209  1.00  0.00     0.179 C 
BRANCH  24  25
HETATM   25  C10 UNL     1       5.598  34.207   0.757  1.00  0.00     0.038 C 
BRANCH  25  26
HETATM   26  C11 UNL     1       4.737  33.068   1.083  1.00  0.00    -0.020 C 
HETATM   27  C12 UNL     1       3.262  33.279   1.001  1.00  0.00     0.009 C 
HETATM   28  C13 UNL     1       5.034  32.600   2.532  1.00  0.00     0.009 C 
ENDBRANCH  25  26
ENDBRANCH  24  25
BRANCH  24  29
HETATM   29  N3  UNL     1       7.217  34.920  -0.913  1.00  0.00    -0.324 N 
HETATM   30  C14 UNL     1       6.887  36.266  -0.863  1.00  0.00     0.362 C 
HETATM   31  O3  UNL     1       6.345  36.878   0.069  1.00  0.00    -0.238 OA
ATOM     32  H3  UNL     1       7.656  34.548  -1.755  1.00  0.00     0.165 HD
BRANCH  30  33
HETATM   33  O4  UNL     1       7.194  37.050  -1.978  1.00  0.00    -0.294 OA
BRANCH  33  34
HETATM   34  C15 UNL     1       6.299  37.366  -2.980  1.00  0.00     0.061 C 
HETATM   35  C16 UNL     1       5.193  36.373  -3.172  1.00  0.00     0.046 C 
HETATM   36  C17 UNL     1       7.056  37.579  -4.275  1.00  0.00     0.046 C 
HETATM   37  C18 UNL     1       5.651  38.704  -2.634  1.00  0.00     0.046 C 
ENDBRANCH  33  34
ENDBRANCH  30  33
ENDBRANCH  24  29
ENDBRANCH  21  24
ENDBRANCH   1  20
TORSDOF 12
ENDMDL
MODEL 3
REMARK VINA RESULT: -7.143158217      1.563      2.352
REMARK  12 active torsions:
REMARK  status: ('A' for Active; 'I' for Inactive)
REMARK    1  A    between atoms: C2_2  and  C3_3 
REMARK    2  A    between atoms: C3_3  and  N1_4 
REMARK    3  A    between atoms: C3_3  and  C19_28 
REMARK       I    between atoms: N1_4  and  C4_5 
REMARK    4  A    between atoms: C4_5  and  C5_7 
REMARK    5  A    between atoms: C5_7  and  C6_8 
REMARK    6  A    between atoms: C6_8  and  N2_10 
REMARK       I    between atoms: N2_10  and  C8_12 
REMARK    7  A    between atoms: C8_12  and  C9_14 
REMARK    8  A    between atoms: C9_14  and  C10_15 
REMARK    9  A    between atoms: C9_14  and  N3_19 
REMARK   10  A    between atoms: C10_15  and  C11_16 
REMARK       I    between atoms: N3_19  and  C14_21 
REMARK   11  A    between atoms: C14_21  and  O4_23 
REMARK   12  A    between atoms: O4_23  and  C15_24 
REMARK       I    between atoms: C19_28  and  N4_30 
ROOT
HETATM    1  C6  UNL     1       6.567  33.406   2.114  1.00  0.00     0.090 C 
HETATM    2  C7  UNL     1       6.283  34.742   2.803  1.00  0.00     0.032 C 
ENDROOT
BRANCH   1   3
HETATM    3  C5  UNL     1       6.084  33.520   0.714  1.00  0.00     0.143 C 
BRANCH   3   4
HETATM    4  C4  UNL     1       7.033  34.326  -0.172  1.00  0.00     0.289 C 
HETATM    5  N1  UNL     1       6.919  35.646  -0.344  1.00  0.00    -0.400 NA
HETATM    6  O1  UNL     1       7.917  33.570  -0.706  1.00  0.00    -0.258 OA
BRANCH   5   7
HETATM    7  C3  UNL     1       6.801  37.034  -0.526  1.00  0.00     0.258 C 
BRANCH   7   8
HETATM    8  C2  UNL     1       5.857  37.263  -1.700  1.00  0.00     0.045 C 
HETATM    9  C1  UNL     1       4.437  37.325  -1.181  1.00  0.00     0.009 C 
ENDBRANCH   7   8
BRANCH   7  10
HETATM   10  C19 UNL     1       8.151  37.555  -0.989  1.00  0.00     0.255 C 
HETATM   11  O5  UNL     1       8.532  37.281  -2.154  1.00  0.00    -0.270 OA
HETATM   12  N4  UNL     1       8.986  38.323  -0.154  1.00  0.00    -0.349 N 
HETATM   13  C20 UNL     1      10.274  38.769  -0.655  1.00  0.00     0.126 C 
HETATM   14  C24 UNL     1       8.676  38.711   1.204  1.00  0.00     0.126 C 
HETATM   15  C21 UNL     1      11.297  37.848   0.040  1.00  0.00     0.029 C 
HETATM   16  C22 UNL     1      10.747  37.436   1.375  1.00  0.00    -0.037 A 
HETATM   17  C23 UNL     1       9.968  38.554   2.020  1.00  0.00     0.029 C 
HETATM   18  C25 UNL     1      11.322  36.344   2.177  1.00  0.00     0.010 A 
HETATM   19  C26 UNL     1      10.029  36.077   1.429  1.00  0.00     0.010 A 
ENDBRANCH   7  10
ENDBRANCH   5   7
ENDBRANCH   3   4
ENDBRANCH   1   3
BRANCH   1  20
HETATM   20  N2  UNL     1       7.964  33.102   2.181  1.00  0.00    -0.355 N 
HETATM   21  C8  UNL     1       8.499  31.822   2.566  1.00  0.00     0.240 C 
HETATM   22  O2  UNL     1       7.682  30.908   2.912  1.00  0.00    -0.271 OA
ATOM     23  H2  UNL     1       8.624  33.841   1.941  1.00  0.00     0.162 HD
BRANCH  21  24
HETATM   24  C9  UNL     1       9.925  31.524   2.568  1.00  0.00     0.179 C 
BRANCH  24  25
HETATM   25  C10 UNL     1      10.915  32.580   2.293  1.00  0.00     0.038 C 
BRANCH  25  26
HETATM   26  C11 UNL     1      11.543  32.718   0.977  1.00  0.00    -0.020 C 
HETATM   27  C12 UNL     1      11.302  31.627  -0.013  1.00  0.00     0.009 C 
HETATM   28  C13 UNL     1      13.081  32.819   1.152  1.00  0.00     0.009 C 
ENDBRANCH  25  26
ENDBRANCH  24  25
BRANCH  24  29
HETATM   29  N3  UNL     1      10.290  30.724   3.737  1.00  0.00    -0.324 N 
HETATM   30  C14 UNL     1      10.913  29.491   3.613  1.00  0.00     0.362 C 
HETATM   31  O3  UNL     1      11.228  28.905   2.568  1.00  0.00    -0.238 OA
ATOM     32  H3  UNL     1      10.081  31.083   4.670  1.00  0.00     0.165 HD
BRANCH  30  33
HETATM   33  O4  UNL     1      11.237  28.808   4.788  1.00  0.00    -0.294 OA
BRANCH  33  34
HETATM   34  C15 UNL     1      12.428  28.950   5.471  1.00  0.00     0.061 C 
HETATM   35  C16 UNL     1      13.540  29.562   4.675  1.00  0.00     0.046 C 
HETATM   36  C17 UNL     1      12.848  27.603   6.026  1.00  0.00     0.046 C 
HETATM   37  C18 UNL     1      12.181  29.854   6.675  1.00  0.00     0.046 C 
ENDBRANCH  33  34
ENDBRANCH  30  33
ENDBRANCH  24  29
ENDBRANCH  21  24
ENDBRANCH   1  20
TORSDOF 12
ENDMDL
MODEL 4
REMARK VINA RESULT: -7.129287537      1.949      7.679
REMARK  12 active torsions:
REMARK  status: ('A' for Active; 'I' for Inactive)
REMARK    1  A    between atoms: C2_2  and  C3_3 
REMARK    2  A    between atoms: C3_3  and  N1_4 
REMARK    3  A    between atoms: C3_3  and  C19_28 
REMARK       I    between atoms: N1_4  and  C4_5 
REMARK    4  A    between atoms: C4_5  and  C5_7 
REMARK    5  A    between atoms: C5_7  and  C6_8 
REMARK    6  A    between atoms: C6_8  and  N2_10 
REMARK       I    between atoms: N2_10  and  C8_12 
REMARK    7  A    between atoms: C8_12  and  C9_14 
REMARK    8  A    between atoms: C9_14  and  C10_15 
REMARK    9  A    between atoms: C9_14  and  N3_19 
REMARK   10  A    between atoms: C10_15  and  C11_16 
REMARK       I    between atoms: N3_19  and  C14_21 
REMARK   11  A    between atoms: C14_21  and  O4_23 
REMARK   12  A    between atoms: O4_23  and  C15_24 
REMARK       I    between atoms: C19_28  and  N4_30 
ROOT
HETATM    1  C6  UNL     1       4.765  33.866   1.267  1.00  0.00     0.090 C 
HETATM    2  C7  UNL     1       3.386  33.419   0.776  1.00  0.00     0.032 C 
ENDROOT
BRANCH   1   3
HETATM    3  C5  UNL     1       5.694  32.723   1.074  1.00  0.00     0.143 C 
BRANCH   3   4
HETATM    4  C4  UNL     1       6.437  32.346   2.356  1.00  0.00     0.289 C 
HETATM    5  N1  UNL     1       7.733  32.020   2.374  1.00  0.00    -0.400 NA
HETATM    6  O1  UNL     1       5.655  32.386   3.368  1.00  0.00    -0.258 OA
BRANCH   5   7
HETATM    7  C3  UNL     1       9.094  31.676   2.395  1.00  0.00     0.258 C 
BRANCH   7   8
HETATM    8  C2  UNL     1       9.334  30.830   3.639  1.00  0.00     0.045 C 
HETATM    9  C1  UNL     1      10.604  30.030   3.448  1.00  0.00     0.009 C 
ENDBRANCH   7   8
BRANCH   7  10
HETATM   10  C19 UNL     1       9.888  32.952   2.617  1.00  0.00     0.255 C 
HETATM   11  O5  UNL     1       9.579  33.689   3.586  1.00  0.00    -0.270 OA
HETATM   12  N4  UNL     1      10.948  33.334   1.771  1.00  0.00    -0.349 N 
HETATM   13  C20 UNL     1      11.649  34.579   2.030  1.00  0.00     0.126 C 
HETATM   14  C24 UNL     1      11.409  32.585   0.623  1.00  0.00     0.126 C 
HETATM   15  C21 UNL     1      11.124  35.548   0.952  1.00  0.00     0.029 C 
HETATM   16  C22 UNL     1      10.754  34.757  -0.270  1.00  0.00    -0.037 A 
HETATM   17  C23 UNL     1      11.700  33.603  -0.488  1.00  0.00     0.029 C 
HETATM   18  C25 UNL     1       9.962  35.314  -1.377  1.00  0.00     0.010 A 
HETATM   19  C26 UNL     1       9.273  34.369  -0.411  1.00  0.00     0.010 A 
ENDBRANCH   7  10
ENDBRANCH   5   7
ENDBRANCH   3   4
ENDBRANCH   1   3
BRANCH   1  20
HETATM   20  N2  UNL     1       5.188  35.033   0.557  1.00  0.00    -0.355 N 
HETATM   21  C8  UNL     1       6.091  36.023   1.085  1.00  0.00     0.240 C 
HETATM   22  O2  UNL     1       6.510  35.878   2.279  1.00  0.00    -0.271 OA
ATOM     23  H2  UNL     1       4.827  35.174  -0.386  1.00  0.00     0.162 HD
BRANCH  21  24
HETATM   24  C9  UNL     1       6.550  37.171   0.316  1.00  0.00     0.179 C 
BRANCH  24  25
HETATM   25  C10 UNL     1       7.912  37.704   0.499  1.00  0.00     0.038 C 
BRANCH  25  26
HETATM   26  C11 UNL     1       8.500  38.650  -0.452  1.00  0.00    -0.020 C 
HETATM   27  C12 UNL     1       9.972  38.883  -0.364  1.00  0.00     0.009 C 
HETATM   28  C13 UNL     1       7.824  40.035  -0.279  1.00  0.00     0.009 C 
ENDBRANCH  25  26
ENDBRANCH  24  25
BRANCH  24  29
HETATM   29  N3  UNL     1       6.208  37.024  -1.098  1.00  0.00    -0.324 N 
HETATM   30  C14 UNL     1       5.136  37.699  -1.665  1.00  0.00     0.362 C 
HETATM   31  O3  UNL     1       4.348  38.473  -1.102  1.00  0.00    -0.238 OA
ATOM     32  H3  UNL     1       6.771  36.407  -1.684  1.00  0.00     0.165 HD
BRANCH  30  33
HETATM   33  O4  UNL     1       4.897  37.507  -3.028  1.00  0.00    -0.294 OA
BRANCH  33  34
HETATM   34  C15 UNL     1       5.425  38.292  -4.033  1.00  0.00     0.061 C 
HETATM   35  C16 UNL     1       5.890  39.647  -3.593  1.00  0.00     0.046 C 
HETATM   36  C17 UNL     1       4.414  38.412  -5.155  1.00  0.00     0.046 C 
HETATM   37  C18 UNL     1       6.634  37.566  -4.617  1.00  0.00     0.046 C 
ENDBRANCH  33  34
ENDBRANCH  30  33
ENDBRANCH  24  29
ENDBRANCH  21  24
ENDBRANCH   1  20
TORSDOF 12
ENDMDL
MODEL 5
REMARK VINA RESULT: -7.126739607      1.585      3.092
REMARK  12 active torsions:
REMARK  status: ('A' for Active; 'I' for Inactive)
REMARK    1  A    between atoms: C2_2  and  C3_3 
REMARK    2  A    between atoms: C3_3  and  N1_4 
REMARK    3  A    between atoms: C3_3  and  C19_28 
REMARK       I    between atoms: N1_4  and  C4_5 
REMARK    4  A    between atoms: C4_5  and  C5_7 
REMARK    5  A    between atoms: C5_7  and  C6_8 
REMARK    6  A    between atoms: C6_8  and  N2_10 
REMARK       I    between atoms: N2_10  and  C8_12 
REMARK    7  A    between atoms: C8_12  and  C9_14 
REMARK    8  A    between atoms: C9_14  and  C10_15 
REMARK    9  A    between atoms: C9_14  and  N3_19 
REMARK   10  A    between atoms: C10_15  and  C11_16 
REMARK       I    between atoms: N3_19  and  C14_21 
REMARK   11  A    between atoms: C14_21  and  O4_23 
REMARK   12  A    between atoms: O4_23  and  C15_24 
REMARK       I    between atoms: C19_28  and  N4_30 
ROOT
HETATM    1  C6  UNL     1       6.278  33.017   1.608  1.00  0.00     0.090 C 
HETATM    2  C7  UNL     1       5.605  32.728   2.952  1.00  0.00     0.032 C 
ENDROOT
BRANCH   1   3
HETATM    3  C5  UNL     1       5.445  34.024   0.904  1.00  0.00     0.143 C 
BRANCH   3   4
HETATM    4  C4  UNL     1       6.100  35.404   0.861  1.00  0.00     0.289 C 
HETATM    5  N1  UNL     1       6.856  35.817  -0.160  1.00  0.00    -0.400 NA
HETATM    6  O1  UNL     1       5.827  36.075   1.916  1.00  0.00    -0.258 OA
BRANCH   5   7
HETATM    7  C3  UNL     1       7.652  36.252  -1.233  1.00  0.00     0.258 C 
BRANCH   7   8
HETATM    8  C2  UNL     1       9.107  36.160  -0.792  1.00  0.00     0.045 C 
HETATM    9  C1  UNL     1       9.591  34.741  -0.998  1.00  0.00     0.009 C 
ENDBRANCH   7   8
BRANCH   7  10
HETATM   10  C19 UNL     1       7.386  37.735  -1.432  1.00  0.00     0.255 C 
HETATM   11  O5  UNL     1       7.049  38.422  -0.436  1.00  0.00    -0.270 OA
HETATM   12  N4  UNL     1       7.498  38.356  -2.691  1.00  0.00    -0.349 N 
HETATM   13  C20 UNL     1       7.207  39.774  -2.812  1.00  0.00     0.126 C 
HETATM   14  C24 UNL     1       7.875  37.689  -3.918  1.00  0.00     0.126 C 
HETATM   15  C21 UNL     1       5.821  39.825  -3.486  1.00  0.00     0.029 C 
HETATM   16  C22 UNL     1       5.666  38.618  -4.365  1.00  0.00    -0.037 A 
HETATM   17  C23 UNL     1       6.968  38.244  -5.026  1.00  0.00     0.029 C 
HETATM   18  C25 UNL     1       4.374  38.199  -4.932  1.00  0.00     0.010 A 
HETATM   19  C26 UNL     1       4.923  37.418  -3.753  1.00  0.00     0.010 A 
ENDBRANCH   7  10
ENDBRANCH   5   7
ENDBRANCH   3   4
ENDBRANCH   1   3
BRANCH   1  20
HETATM   20  N2  UNL     1       7.618  33.473   1.815  1.00  0.00    -0.355 N 
HETATM   21  C8  UNL     1       8.719  32.621   2.185  1.00  0.00     0.240 C 
HETATM   22  O2  UNL     1       8.482  31.387   2.386  1.00  0.00    -0.271 OA
ATOM     23  H2  UNL     1       7.807  34.468   1.692  1.00  0.00     0.162 HD
BRANCH  21  24
HETATM   24  C9  UNL     1      10.085  33.105   2.331  1.00  0.00     0.179 C 
BRANCH  24  25
HETATM   25  C10 UNL     1      10.352  34.503   2.712  1.00  0.00     0.038 C 
BRANCH  25  26
HETATM   26  C11 UNL     1      11.335  35.319   1.996  1.00  0.00    -0.020 C 
HETATM   27  C12 UNL     1      12.622  34.663   1.618  1.00  0.00     0.009 C 
HETATM   28  C13 UNL     1      11.707  36.550   2.863  1.00  0.00     0.009 C 
ENDBRANCH  25  26
ENDBRANCH  24  25
BRANCH  24  29
HETATM   29  N3  UNL     1      10.893  32.163   3.105  1.00  0.00    -0.324 N 
HETATM   30  C14 UNL     1      11.558  31.105   2.504  1.00  0.00     0.362 C 
HETATM   31  O3  UNL     1      11.567  30.802   1.302  1.00  0.00    -0.238 OA
ATOM     32  H3  UNL     1      10.969  32.288   4.115  1.00  0.00     0.165 HD
BRANCH  30  33
HETATM   33  O4  UNL     1      12.318  30.268   3.325  1.00  0.00    -0.294 OA
BRANCH  33  34
HETATM   34  C15 UNL     1      11.792  29.287   4.143  1.00  0.00     0.061 C 
HETATM   35  C16 UNL     1      10.468  28.744   3.700  1.00  0.00     0.046 C 
HETATM   36  C17 UNL     1      11.707  29.815   5.561  1.00  0.00     0.046 C 
HETATM   37  C18 UNL     1      12.774  28.119   4.175  1.00  0.00     0.046 C 
ENDBRANCH  33  34
ENDBRANCH  30  33
ENDBRANCH  24  29
ENDBRANCH  21  24
ENDBRANCH   1  20
TORSDOF 12
ENDMDL
