MODEL 1
REMARK VINA RESULT: -7.332715811      0.000      0.000
REMARK  14 active torsions:
REMARK  status: ('A' for Active; 'I' for Inactive)
REMARK    1  A    between atoms: C2_2  and  C3_3 
REMARK    2  A    between atoms: C2_2  and  C15_19 
REMARK    3  A    between atoms: C4_4  and  C5_6 
REMARK    4  A    between atoms: C5_6  and  N2_7 
REMARK    5  A    between atoms: N3_11  and  C9_12 
REMARK    6  A    between atoms: C15_19  and  C16_20 
REMARK    7  A    between atoms: C16_20  and  O1_21 
REMARK    8  A    between atoms: C16_20  and  C17_23 
REMARK    9  A    between atoms: C17_23  and  C18_24 
REMARK   10  A    between atoms: C18_24  and  C19_25 
REMARK   11  A    between atoms: C18_24  and  O3_32 
REMARK   12  A    between atoms: C19_25  and  C20_26 
REMARK       I    between atoms: C20_26  and  N4_28 
REMARK   13  A    between atoms: N4_28  and  C21_30 
REMARK   14  A    between atoms: O3_32  and  C22_33 
ROOT
HETATM    1  C1  UNL     1       5.593  32.075   2.685  1.00  0.00     0.043 C 
HETATM    2  C2  UNL     1       6.994  32.466   2.410  1.00  0.00    -0.080 C 
ENDROOT
BRANCH   2   3
HETATM    3  C3  UNL     1       7.209  33.851   2.014  1.00  0.00     0.026 C 
HETATM    4  C4  UNL     1       7.521  34.374   0.861  1.00  0.00     0.042 C 
HETATM    5  N1  UNL     1       7.704  33.537  -0.263  1.00  0.00    -0.105 NA
BRANCH   4   6
HETATM    6  C5  UNL     1       7.688  35.852   0.763  1.00  0.00     0.179 C 
BRANCH   6   7
HETATM    7  N2  UNL     1       6.570  36.554   0.242  1.00  0.00    -0.353 N 
HETATM    8  C6  UNL     1       5.168  36.290   0.553  1.00  0.00     0.127 C 
HETATM    9  C7  UNL     1       4.316  36.407  -0.705  1.00  0.00     0.040 C 
HETATM   10  C8  UNL     1       4.422  37.869  -1.149  1.00  0.00     0.127 C 
HETATM   11  N3  UNL     1       5.783  38.043  -1.598  1.00  0.00    -0.353 N 
HETATM   12  C14 UNL     1       6.811  37.625  -0.685  1.00  0.00     0.172 C 
HETATM   13  S1  UNL     1       8.258  38.399  -0.745  1.00  0.00    -0.041 SA
BRANCH  11  14
HETATM   14  C9  UNL     1       6.123  38.579  -2.898  1.00  0.00     0.086 C 
HETATM   15  C10 UNL     1       5.211  39.616  -3.427  1.00  0.00     0.025 C 
HETATM   16  C11 UNL     1       5.361  39.547  -4.938  1.00  0.00     0.002 C 
HETATM   17  C12 UNL     1       5.493  38.072  -5.187  1.00  0.00     0.002 C 
HETATM   18  C13 UNL     1       6.177  37.508  -3.957  1.00  0.00     0.025 C 
ENDBRANCH  11  14
ENDBRANCH   6   7
ENDBRANCH   4   6
ENDBRANCH   2   3
BRANCH   2  19
HETATM   19  C15 UNL     1       8.011  31.931   3.400  1.00  0.00     0.065 C 
BRANCH  19  20
HETATM   20  C16 UNL     1       9.264  31.409   2.762  1.00  0.00     0.124 C 
BRANCH  20  21
HETATM   21  O1  UNL     1       9.396  30.058   3.077  1.00  0.00    -0.395 OA
ATOM     22  H1  UNL     1       9.933  29.643   2.413  1.00  0.00     0.210 HD
ENDBRANCH  20  21
BRANCH  20  23
HETATM   23  C17 UNL     1      10.503  32.089   3.272  1.00  0.00     0.065 C 
BRANCH  23  24
HETATM   24  C18 UNL     1      11.155  33.012   2.287  1.00  0.00     0.144 C 
BRANCH  24  25
HETATM   25  C19 UNL     1      10.843  34.470   2.465  1.00  0.00     0.135 C 
BRANCH  25  26
HETATM   26  C20 UNL     1      11.930  35.399   2.186  1.00  0.00     0.224 C 
HETATM   27  O2  UNL     1      12.167  36.372   2.939  1.00  0.00    -0.273 OA
HETATM   28  N4  UNL     1      12.782  35.266   1.048  1.00  0.00    -0.328 N 
ATOM     29  H4  UNL     1      12.418  35.398   0.104  1.00  0.00     0.169 HD
BRANCH  28  30
HETATM   30  C21 UNL     1      14.023  34.975   1.242  1.00  0.00     0.172 C 
HETATM   31  S2  UNL     1      15.277  33.995   1.505  1.00  0.00    -0.074 SA
ENDBRANCH  28  30
ENDBRANCH  25  26
ENDBRANCH  24  25
BRANCH  24  32
HETATM   32  O3  UNL     1      10.594  32.661   1.014  1.00  0.00    -0.300 OA
BRANCH  32  33
HETATM   33  C22 UNL     1      11.306  32.229  -0.069  1.00  0.00     0.373 C 
HETATM   34  N5  UNL     1      11.384  30.838  -0.302  1.00  0.00    -0.032 NA
HETATM   35  O4  UNL     1      11.853  33.068  -0.804  1.00  0.00    -0.242 OA
ENDBRANCH  32  33
ENDBRANCH  24  32
ENDBRANCH  23  24
ENDBRANCH  20  23
ENDBRANCH  19  20
ENDBRANCH   2  19
TORSDOF 14
ENDMDL
MODEL 2
REMARK VINA RESULT: -7.196588589      1.108      1.173
REMARK  14 active torsions:
REMARK  status: ('A' for Active; 'I' for Inactive)
REMARK    1  A    between atoms: C2_2  and  C3_3 
REMARK    2  A    between atoms: C2_2  and  C15_19 
REMARK    3  A    between atoms: C4_4  and  C5_6 
REMARK    4  A    between atoms: C5_6  and  N2_7 
REMARK    5  A    between atoms: N3_11  and  C9_12 
REMARK    6  A    between atoms: C15_19  and  C16_20 
REMARK    7  A    between atoms: C16_20  and  O1_21 
REMARK    8  A    between atoms: C16_20  and  C17_23 
REMARK    9  A    between atoms: C17_23  and  C18_24 
REMARK   10  A    between atoms: C18_24  and  C19_25 
REMARK   11  A    between atoms: C18_24  and  O3_32 
REMARK   12  A    between atoms: C19_25  and  C20_26 
REMARK       I    between atoms: C20_26  and  N4_28 
REMARK   13  A    between atoms: N4_28  and  C21_30 
REMARK   14  A    between atoms: O3_32  and  C22_33 
ROOT
HETATM    1  C1  UNL     1       5.628  32.083   2.696  1.00  0.00     0.043 C 
HETATM    2  C2  UNL     1       7.028  32.472   2.416  1.00  0.00    -0.080 C 
ENDROOT
BRANCH   2   3
HETATM    3  C3  UNL     1       7.244  33.856   2.017  1.00  0.00     0.026 C 
HETATM    4  C4  UNL     1       7.563  34.376   0.865  1.00  0.00     0.042 C 
HETATM    5  N1  UNL     1       7.753  33.535  -0.255  1.00  0.00    -0.105 NA
BRANCH   4   6
HETATM    6  C5  UNL     1       7.729  35.853   0.764  1.00  0.00     0.179 C 
BRANCH   6   7
HETATM    7  N2  UNL     1       6.609  36.554   0.247  1.00  0.00    -0.353 N 
HETATM    8  C6  UNL     1       5.209  36.292   0.565  1.00  0.00     0.127 C 
HETATM    9  C7  UNL     1       4.351  36.407  -0.689  1.00  0.00     0.040 C 
HETATM   10  C8  UNL     1       4.455  37.867  -1.136  1.00  0.00     0.127 C 
HETATM   11  N3  UNL     1       5.813  38.040  -1.592  1.00  0.00    -0.353 N 
HETATM   12  C14 UNL     1       6.846  37.624  -0.683  1.00  0.00     0.172 C 
HETATM   13  S1  UNL     1       8.293  38.398  -0.751  1.00  0.00    -0.041 SA
BRANCH  11  14
HETATM   14  C9  UNL     1       6.147  38.574  -2.894  1.00  0.00     0.086 C 
HETATM   15  C10 UNL     1       5.235  39.614  -3.419  1.00  0.00     0.025 C 
HETATM   16  C11 UNL     1       5.376  39.543  -4.931  1.00  0.00     0.002 C 
HETATM   17  C12 UNL     1       5.502  38.067  -5.179  1.00  0.00     0.002 C 
HETATM   18  C13 UNL     1       6.191  37.502  -3.953  1.00  0.00     0.025 C 
ENDBRANCH  11  14
ENDBRANCH   6   7
ENDBRANCH   4   6
ENDBRANCH   2   3
BRANCH   2  19
HETATM   19  C15 UNL     1       8.047  31.935   3.404  1.00  0.00     0.065 C 
BRANCH  19  20
HETATM   20  C16 UNL     1       9.286  31.385   2.761  1.00  0.00     0.124 C 
BRANCH  20  21
HETATM   21  O1  UNL     1       9.387  30.032   3.073  1.00  0.00    -0.395 OA
ATOM     22  H1  UNL     1      10.218  29.706   2.747  1.00  0.00     0.210 HD
ENDBRANCH  20  21
BRANCH  20  23
HETATM   23  C17 UNL     1      10.543  32.036   3.267  1.00  0.00     0.065 C 
BRANCH  23  24
HETATM   24  C18 UNL     1      11.200  32.962   2.290  1.00  0.00     0.144 C 
BRANCH  24  25
HETATM   25  C19 UNL     1      10.897  34.421   2.480  1.00  0.00     0.135 C 
BRANCH  25  26
HETATM   26  C20 UNL     1      11.822  35.356   1.854  1.00  0.00     0.224 C 
HETATM   27  O2  UNL     1      13.063  35.205   1.943  1.00  0.00    -0.273 OA
HETATM   28  N4  UNL     1      11.382  36.494   1.112  1.00  0.00    -0.328 N 
ATOM     29  H4  UNL     1      10.904  37.267   1.575  1.00  0.00     0.169 HD
BRANCH  28  30
HETATM   30  C21 UNL     1      11.603  36.520  -0.158  1.00  0.00     0.172 C 
HETATM   31  S2  UNL     1      12.208  37.114  -1.530  1.00  0.00    -0.074 SA
ENDBRANCH  28  30
ENDBRANCH  25  26
ENDBRANCH  24  25
BRANCH  24  32
HETATM   32  O3  UNL     1      10.636  32.624   1.014  1.00  0.00    -0.300 OA
BRANCH  32  33
HETATM   33  C22 UNL     1      11.347  32.203  -0.075  1.00  0.00     0.373 C 
HETATM   34  N5  UNL     1      11.394  30.818  -0.342  1.00  0.00    -0.032 NA
HETATM   35  O4  UNL     1      11.918  33.048  -0.784  1.00  0.00    -0.242 OA
ENDBRANCH  32  33
ENDBRANCH  24  32
ENDBRANCH  23  24
ENDBRANCH  20  23
ENDBRANCH  19  20
ENDBRANCH   2  19
TORSDOF 14
ENDMDL
MODEL 3
REMARK VINA RESULT: -6.914524098      1.879      2.157
REMARK  14 active torsions:
REMARK  status: ('A' for Active; 'I' for Inactive)
REMARK    1  A    between atoms: C2_2  and  C3_3 
REMARK    2  A    between atoms: C2_2  and  C15_19 
REMARK    3  A    between atoms: C4_4  and  C5_6 
REMARK    4  A    between atoms: C5_6  and  N2_7 
REMARK    5  A    between atoms: N3_11  and  C9_12 
REMARK    6  A    between atoms: C15_19  and  C16_20 
REMARK    7  A    between atoms: C16_20  and  O1_21 
REMARK    8  A    between atoms: C16_20  and  C17_23 
REMARK    9  A    between atoms: C17_23  and  C18_24 
REMARK   10  A    between atoms: C18_24  and  C19_25 
REMARK   11  A    between atoms: C18_24  and  O3_32 
REMARK   12  A    between atoms: C19_25  and  C20_26 
REMARK       I    between atoms: C20_26  and  N4_28 
REMARK   13  A    between atoms: N4_28  and  C21_30 
REMARK   14  A    between atoms: O3_32  and  C22_33 
ROOT
HETATM    1  C1  UNL     1       4.260  32.818   1.890  1.00  0.00     0.043 C 
HETATM    2  C2  UNL     1       5.699  33.161   1.862  1.00  0.00    -0.080 C 
ENDROOT
BRANCH   2   3
HETATM    3  C3  UNL     1       6.022  34.557   1.601  1.00  0.00     0.026 C 
HETATM    4  C4  UNL     1       6.631  35.122   0.596  1.00  0.00     0.042 C 
HETATM    5  N1  UNL     1       7.097  34.329  -0.477  1.00  0.00    -0.105 NA
BRANCH   4   6
HETATM    6  C5  UNL     1       6.830  36.599   0.614  1.00  0.00     0.179 C 
BRANCH   6   7
HETATM    7  N2  UNL     1       6.189  37.308  -0.434  1.00  0.00    -0.353 N 
HETATM    8  C6  UNL     1       4.781  37.205  -0.807  1.00  0.00     0.127 C 
HETATM    9  C7  UNL     1       4.634  37.213  -2.323  1.00  0.00     0.040 C 
HETATM   10  C8  UNL     1       5.133  38.584  -2.787  1.00  0.00     0.127 C 
HETATM   11  N3  UNL     1       6.556  38.583  -2.547  1.00  0.00    -0.353 N 
HETATM   12  C14 UNL     1       6.977  38.216  -1.223  1.00  0.00     0.172 C 
HETATM   13  S1  UNL     1       8.378  38.855  -0.652  1.00  0.00    -0.041 SA
BRANCH  11  14
HETATM   14  C9  UNL     1       7.529  38.902  -3.568  1.00  0.00     0.086 C 
HETATM   15  C10 UNL     1       7.090  39.866  -4.600  1.00  0.00     0.025 C 
HETATM   16  C11 UNL     1       7.940  39.560  -5.822  1.00  0.00     0.002 C 
HETATM   17  C12 UNL     1       8.032  38.062  -5.790  1.00  0.00     0.002 C 
HETATM   18  C13 UNL     1       7.982  37.679  -4.324  1.00  0.00     0.025 C 
ENDBRANCH  11  14
ENDBRANCH   6   7
ENDBRANCH   4   6
ENDBRANCH   2   3
BRANCH   2  19
HETATM   19  C15 UNL     1       6.528  32.519   2.959  1.00  0.00     0.065 C 
BRANCH  19  20
HETATM   20  C16 UNL     1       7.913  32.135   2.527  1.00  0.00     0.124 C 
BRANCH  20  21
HETATM   21  O1  UNL     1       8.151  30.818   2.914  1.00  0.00    -0.395 OA
ATOM     22  H1  UNL     1       9.090  30.675   2.943  1.00  0.00     0.210 HD
ENDBRANCH  20  21
BRANCH  20  23
HETATM   23  C17 UNL     1       8.978  32.971   3.178  1.00  0.00     0.065 C 
BRANCH  23  24
HETATM   24  C18 UNL     1      10.360  32.739   2.648  1.00  0.00     0.144 C 
BRANCH  24  25
HETATM   25  C19 UNL     1      11.090  33.969   2.190  1.00  0.00     0.135 C 
BRANCH  25  26
HETATM   26  C20 UNL     1      10.434  34.760   1.157  1.00  0.00     0.224 C 
HETATM   27  O2  UNL     1      10.095  35.949   1.362  1.00  0.00    -0.273 OA
HETATM   28  N4  UNL     1      10.134  34.237  -0.137  1.00  0.00    -0.328 N 
ATOM     29  H4  UNL     1       9.441  33.497  -0.255  1.00  0.00     0.169 HD
BRANCH  28  30
HETATM   30  C21 UNL     1      10.759  34.723  -1.154  1.00  0.00     0.172 C 
HETATM   31  S2  UNL     1      11.069  35.811  -2.305  1.00  0.00    -0.074 SA
ENDBRANCH  28  30
ENDBRANCH  25  26
ENDBRANCH  24  25
BRANCH  24  32
HETATM   32  O3  UNL     1      10.182  31.946   1.465  1.00  0.00    -0.300 OA
BRANCH  32  33
HETATM   33  C22 UNL     1      11.049  30.989   1.020  1.00  0.00     0.373 C 
HETATM   34  N5  UNL     1      11.488  31.061  -0.320  1.00  0.00    -0.032 NA
HETATM   35  O4  UNL     1      11.418  30.099   1.804  1.00  0.00    -0.242 OA
ENDBRANCH  32  33
ENDBRANCH  24  32
ENDBRANCH  23  24
ENDBRANCH  20  23
ENDBRANCH  19  20
ENDBRANCH   2  19
TORSDOF 14
ENDMDL
MODEL 4
REMARK VINA RESULT: -6.913475455      1.173      1.858
REMARK  14 active torsions:
REMARK  status: ('A' for Active; 'I' for Inactive)
REMARK    1  A    between atoms: C2_2  and  C3_3 
REMARK    2  A    between atoms: C2_2  and  C15_19 
REMARK    3  A    between atoms: C4_4  and  C5_6 
REMARK    4  A    between atoms: C5_6  and  N2_7 
REMARK    5  A    between atoms: N3_11  and  C9_12 
REMARK    6  A    between atoms: C15_19  and  C16_20 
REMARK    7  A    between atoms: C16_20  and  O1_21 
REMARK    8  A    between atoms: C16_20  and  C17_23 
REMARK    9  A    between atoms: C17_23  and  C18_24 
REMARK   10  A    between atoms: C18_24  and  C19_25 
REMARK   11  A    between atoms: C18_24  and  O3_32 
REMARK   12  A    between atoms: C19_25  and  C20_26 
REMARK       I    between atoms: C20_26  and  N4_28 
REMARK   13  A    between atoms: N4_28  and  C21_30 
REMARK   14  A    between atoms: O3_32  and  C22_33 
ROOT
HETATM    1  C1  UNL     1       5.490  31.992   2.650  1.00  0.00     0.043 C 
HETATM    2  C2  UNL     1       6.820  32.611   2.457  1.00  0.00    -0.080 C 
ENDROOT
BRANCH   2   3
HETATM    3  C3  UNL     1       6.832  34.043   2.190  1.00  0.00     0.026 C 
HETATM    4  C4  UNL     1       7.107  34.710   1.105  1.00  0.00     0.042 C 
HETATM    5  N1  UNL     1       7.469  34.017  -0.072  1.00  0.00    -0.105 NA
BRANCH   4   6
HETATM    6  C5  UNL     1       7.043  36.199   1.141  1.00  0.00     0.179 C 
BRANCH   6   7
HETATM    7  N2  UNL     1       7.291  36.845  -0.098  1.00  0.00    -0.353 N 
HETATM    8  C6  UNL     1       8.603  37.161  -0.655  1.00  0.00     0.127 C 
HETATM    9  C7  UNL     1       8.584  38.539  -1.305  1.00  0.00     0.040 C 
HETATM   10  C8  UNL     1       7.599  38.439  -2.473  1.00  0.00     0.127 C 
HETATM   11  N3  UNL     1       6.295  38.287  -1.873  1.00  0.00    -0.353 N 
HETATM   12  C14 UNL     1       6.163  37.241  -0.897  1.00  0.00     0.172 C 
HETATM   13  S1  UNL     1       4.694  36.530  -0.719  1.00  0.00    -0.041 SA
BRANCH  11  14
HETATM   14  C9  UNL     1       5.173  39.141  -2.196  1.00  0.00     0.086 C 
HETATM   15  C10 UNL     1       5.130  39.654  -3.583  1.00  0.00     0.025 C 
HETATM   16  C11 UNL     1       4.326  40.942  -3.508  1.00  0.00     0.002 C 
HETATM   17  C12 UNL     1       4.780  41.536  -2.207  1.00  0.00     0.002 C 
HETATM   18  C13 UNL     1       5.114  40.360  -1.311  1.00  0.00     0.025 C 
ENDBRANCH  11  14
ENDBRANCH   6   7
ENDBRANCH   4   6
ENDBRANCH   2   3
BRANCH   2  19
HETATM   19  C15 UNL     1       7.887  32.144   3.430  1.00  0.00     0.065 C 
BRANCH  19  20
HETATM   20  C16 UNL     1       9.102  31.565   2.768  1.00  0.00     0.124 C 
BRANCH  20  21
HETATM   21  O1  UNL     1       9.180  30.211   3.085  1.00  0.00    -0.395 OA
ATOM     22  H1  UNL     1       9.409  30.127   4.004  1.00  0.00     0.210 HD
ENDBRANCH  20  21
BRANCH  20  23
HETATM   23  C17 UNL     1      10.381  32.191   3.248  1.00  0.00     0.065 C 
BRANCH  23  24
HETATM   24  C18 UNL     1      11.039  33.099   2.255  1.00  0.00     0.144 C 
BRANCH  24  25
HETATM   25  C19 UNL     1      10.712  34.558   2.398  1.00  0.00     0.135 C 
BRANCH  25  26
HETATM   26  C20 UNL     1      11.803  35.489   2.145  1.00  0.00     0.224 C 
HETATM   27  O2  UNL     1      12.103  36.383   2.972  1.00  0.00    -0.273 OA
HETATM   28  N4  UNL     1      12.588  35.450   0.954  1.00  0.00    -0.328 N 
ATOM     29  H4  UNL     1      12.176  35.677   0.048  1.00  0.00     0.169 HD
BRANCH  28  30
HETATM   30  C21 UNL     1      13.831  35.120   1.050  1.00  0.00     0.172 C 
HETATM   31  S2  UNL     1      15.068  34.140   1.386  1.00  0.00    -0.074 SA
ENDBRANCH  28  30
ENDBRANCH  25  26
ENDBRANCH  24  25
BRANCH  24  32
HETATM   32  O3  UNL     1      10.501  32.716   0.981  1.00  0.00    -0.300 OA
BRANCH  32  33
HETATM   33  C22 UNL     1      11.236  32.286  -0.088  1.00  0.00     0.373 C 
HETATM   34  N5  UNL     1      11.343  30.895  -0.303  1.00  0.00    -0.032 NA
HETATM   35  O4  UNL     1      11.777  33.127  -0.825  1.00  0.00    -0.242 OA
ENDBRANCH  32  33
ENDBRANCH  24  32
ENDBRANCH  23  24
ENDBRANCH  20  23
ENDBRANCH  19  20
ENDBRANCH   2  19
TORSDOF 14
ENDMDL
MODEL 5
REMARK VINA RESULT: -6.849904278      2.886      4.464
REMARK  14 active torsions:
REMARK  status: ('A' for Active; 'I' for Inactive)
REMARK    1  A    between atoms: C2_2  and  C3_3 
REMARK    2  A    between atoms: C2_2  and  C15_19 
REMARK    3  A    between atoms: C4_4  and  C5_6 
REMARK    4  A    between atoms: C5_6  and  N2_7 
REMARK    5  A    between atoms: N3_11  and  C9_12 
REMARK    6  A    between atoms: C15_19  and  C16_20 
REMARK    7  A    between atoms: C16_20  and  O1_21 
REMARK    8  A    between atoms: C16_20  and  C17_23 
REMARK    9  A    between atoms: C17_23  and  C18_24 
REMARK   10  A    between atoms: C18_24  and  C19_25 
REMARK   11  A    between atoms: C18_24  and  O3_32 
REMARK   12  A    between atoms: C19_25  and  C20_26 
REMARK       I    between atoms: C20_26  and  N4_28 
REMARK   13  A    between atoms: N4_28  and  C21_30 
REMARK   14  A    between atoms: O3_32  and  C22_33 
ROOT
HETATM    1  C1  UNL     1       4.016  33.055   1.587  1.00  0.00     0.043 C 
HETATM    2  C2  UNL     1       5.490  33.051   1.460  1.00  0.00    -0.080 C 
ENDROOT
BRANCH   2   3
HETATM    3  C3  UNL     1       6.049  33.903   0.418  1.00  0.00     0.026 C 
HETATM    4  C4  UNL     1       6.025  35.197   0.266  1.00  0.00     0.042 C 
HETATM    5  N1  UNL     1       5.368  36.004   1.222  1.00  0.00    -0.105 NA
BRANCH   4   6
HETATM    6  C5  UNL     1       6.686  35.793  -0.929  1.00  0.00     0.179 C 
BRANCH   6   7
HETATM    7  N2  UNL     1       7.905  36.471  -0.671  1.00  0.00    -0.353 N 
HETATM    8  C6  UNL     1       9.214  35.849  -0.492  1.00  0.00     0.127 C 
HETATM    9  C7  UNL     1       9.978  36.539   0.631  1.00  0.00     0.040 C 
HETATM   10  C8  UNL     1      10.213  37.976   0.157  1.00  0.00     0.127 C 
HETATM   11  N3  UNL     1       8.913  38.601   0.147  1.00  0.00    -0.353 N 
HETATM   12  C14 UNL     1       7.878  37.904  -0.567  1.00  0.00     0.172 C 
HETATM   13  S1  UNL     1       6.672  38.791  -1.241  1.00  0.00    -0.041 SA
BRANCH  11  14
HETATM   14  C9  UNL     1       8.628  39.845   0.829  1.00  0.00     0.086 C 
HETATM   15  C10 UNL     1       9.440  41.009   0.413  1.00  0.00     0.025 C 
HETATM   16  C11 UNL     1       9.445  41.943   1.612  1.00  0.00     0.002 C 
HETATM   17  C12 UNL     1       9.535  40.990   2.769  1.00  0.00     0.002 C 
HETATM   18  C13 UNL     1       8.819  39.731   2.320  1.00  0.00     0.025 C 
ENDBRANCH  11  14
ENDBRANCH   6   7
ENDBRANCH   4   6
ENDBRANCH   2   3
BRANCH   2  19
HETATM   19  C15 UNL     1       6.242  33.093   2.777  1.00  0.00     0.065 C 
BRANCH  19  20
HETATM   20  C16 UNL     1       7.492  32.263   2.789  1.00  0.00     0.124 C 
BRANCH  20  21
HETATM   21  O1  UNL     1       7.827  31.982   4.112  1.00  0.00    -0.395 OA
ATOM     22  H1  UNL     1       8.685  31.575   4.127  1.00  0.00     0.210 HD
ENDBRANCH  20  21
BRANCH  20  23
HETATM   23  C17 UNL     1       8.672  32.977   2.192  1.00  0.00     0.065 C 
BRANCH  23  24
HETATM   24  C18 UNL     1       9.801  32.081   1.787  1.00  0.00     0.144 C 
BRANCH  24  25
HETATM   25  C19 UNL     1      10.817  31.800   2.858  1.00  0.00     0.135 C 
BRANCH  25  26
HETATM   26  C20 UNL     1      10.807  30.454   3.417  1.00  0.00     0.224 C 
HETATM   27  O2  UNL     1      11.222  29.471   2.759  1.00  0.00    -0.273 OA
HETATM   28  N4  UNL     1      10.325  30.171   4.730  1.00  0.00    -0.328 N 
ATOM     29  H4  UNL     1       9.337  30.280   4.960  1.00  0.00     0.169 HD
BRANCH  28  30
HETATM   30  C21 UNL     1      11.169  29.773   5.620  1.00  0.00     0.172 C 
HETATM   31  S2  UNL     1      12.577  29.764   6.407  1.00  0.00    -0.074 SA
ENDBRANCH  28  30
ENDBRANCH  25  26
ENDBRANCH  24  25
BRANCH  24  32
HETATM   32  O3  UNL     1      10.514  32.806   0.774  1.00  0.00    -0.300 OA
BRANCH  32  33
HETATM   33  C22 UNL     1      11.399  32.259  -0.111  1.00  0.00     0.373 C 
HETATM   34  N5  UNL     1      11.316  30.872  -0.361  1.00  0.00    -0.032 NA
HETATM   35  O4  UNL     1      12.234  32.996  -0.661  1.00  0.00    -0.242 OA
ENDBRANCH  32  33
ENDBRANCH  24  32
ENDBRANCH  23  24
ENDBRANCH  20  23
ENDBRANCH  19  20
ENDBRANCH   2  19
TORSDOF 14
ENDMDL
