MODEL 1
REMARK VINA RESULT: -7.438417165      0.000      0.000
REMARK  11 active torsions:
REMARK  status: ('A' for Active; 'I' for Inactive)
REMARK    1  A    between atoms: N1_2  and  C2_5 
REMARK    2  A    between atoms: C2_5  and  C4_7 
REMARK       I    between atoms: C4_7  and  N2_9 
REMARK    3  A    between atoms: C6_11  and  C7_12 
REMARK    4  A    between atoms: C7_12  and  C8_13 
REMARK    5  A    between atoms: C17_22  and  C18_23 
REMARK       I    between atoms: C18_23  and  N3_25 
REMARK    6  A    between atoms: N3_25  and  C19_27 
REMARK    7  A    between atoms: C19_27  and  C20_28 
REMARK    8  A    between atoms: C19_27  and  C24_35 
REMARK    9  A    between atoms: C20_28  and  C21_30 
REMARK   10  A    between atoms: C21_30  and  C22_31 
REMARK   11  A    between atoms: C22_31  and  C23_32 
ROOT
HETATM    1  C4  UNL     1      10.514  31.702   2.050  1.00  0.00     0.251 C 
HETATM    2  O1  UNL     1      11.242  30.883   1.363  1.00  0.00    -0.271 OA
HETATM    3  N2  UNL     1       9.809  32.698   1.350  1.00  0.00    -0.337 N 
HETATM    4  C5  UNL     1       8.986  33.721   1.964  1.00  0.00     0.132 C 
HETATM    5  C6  UNL     1       7.832  33.683   1.024  1.00  0.00     0.015 C 
HETATM    6  C16 UNL     1       8.490  33.816  -0.281  1.00  0.00     0.042 C 
HETATM    7  C17 UNL     1       9.736  32.921  -0.079  1.00  0.00     0.179 C 
ENDROOT
BRANCH   7   8
HETATM    8  C18 UNL     1      10.921  33.520  -0.672  1.00  0.00     0.241 C 
HETATM    9  O2  UNL     1      11.952  32.759  -0.749  1.00  0.00    -0.271 OA
HETATM   10  N3  UNL     1      11.008  34.815  -1.143  1.00  0.00    -0.347 N 
ATOM     11  H3  UNL     1      10.178  35.404  -1.075  1.00  0.00     0.163 HD
BRANCH  10  12
HETATM   12  C19 UNL     1      12.223  35.403  -1.738  1.00  0.00     0.161 C 
BRANCH  12  13
HETATM   13  C20 UNL     1      12.123  35.425  -3.192  1.00  0.00     0.150 C 
HETATM   14  O3  UNL     1      11.032  35.800  -3.676  1.00  0.00    -0.296 OA
BRANCH  13  15
HETATM   15  C21 UNL     1      13.155  35.051  -4.162  1.00  0.00     0.089 C 
BRANCH  15  16
HETATM   16  C22 UNL     1      12.606  34.994  -5.586  1.00  0.00     0.107 C 
BRANCH  16  17
HETATM   17  C23 UNL     1      13.365  34.017  -6.355  1.00  0.00     0.231 C 
HETATM   18  N4  UNL     1      12.939  33.546  -7.625  1.00  0.00    -0.062 NA
HETATM   19  O4  UNL     1      14.458  33.570  -5.865  1.00  0.00    -0.277 OA
ENDBRANCH  16  17
ENDBRANCH  15  16
ENDBRANCH  13  15
ENDBRANCH  12  13
BRANCH  12  20
HETATM   20  C24 UNL     1      12.401  36.717  -1.042  1.00  0.00    -0.024 C 
HETATM   21  C25 UNL     1      13.150  37.725  -1.868  1.00  0.00     0.017 C 
HETATM   22  C26 UNL     1      11.070  37.282  -0.562  1.00  0.00     0.017 C 
HETATM   23  C27 UNL     1      13.223  36.476   0.230  1.00  0.00     0.017 C 
ENDBRANCH  12  20
ENDBRANCH  10  12
ENDBRANCH   7   8
BRANCH   1  24
HETATM   24  C2  UNL     1      10.467  31.545   3.515  1.00  0.00     0.272 C 
HETATM   25  C3  UNL     1       9.362  30.535   3.829  1.00  0.00     0.050 C 
BRANCH  24  26
HETATM   26  N1  UNL     1      11.725  30.924   3.933  1.00  0.00    -0.067 N 
HETATM   27  C1  UNL     1      11.389  30.042   5.026  1.00  0.00     0.267 C 
ATOM     28  H12 UNL     1      12.455  31.597   4.164  1.00  0.00     0.277 HD
ATOM     29  H11 UNL     1      12.222  30.459   3.173  1.00  0.00     0.277 HD
ENDBRANCH  24  26
ENDBRANCH   1  24
BRANCH   5  30
HETATM   30  C7  UNL     1       6.581  34.340   1.382  1.00  0.00    -0.025 A 
HETATM   31  C11 UNL     1       6.827  35.168   2.666  1.00  0.00     0.012 A 
HETATM   32  C12 UNL     1       6.316  36.399   2.025  1.00  0.00     0.010 A 
HETATM   33  C13 UNL     1       6.108  35.598   0.749  1.00  0.00    -0.039 A 
HETATM   34  C14 UNL     1       4.662  35.705   0.354  1.00  0.00     0.015 C 
HETATM   35  C15 UNL     1       6.926  36.219  -0.357  1.00  0.00     0.015 C 
BRANCH  30  36
HETATM   36  C8  UNL     1       5.506  33.337   1.729  1.00  0.00    -0.013 C 
HETATM   37  C9  UNL     1       5.751  32.409   2.864  1.00  0.00     0.010 C 
HETATM   38  C10 UNL     1       4.843  32.643   0.583  1.00  0.00     0.010 C 
ENDBRANCH  30  36
ENDBRANCH   5  30
TORSDOF 11
ENDMDL
MODEL 2
REMARK VINA RESULT: -7.296146992      1.352      1.696
REMARK  11 active torsions:
REMARK  status: ('A' for Active; 'I' for Inactive)
REMARK    1  A    between atoms: N1_2  and  C2_5 
REMARK    2  A    between atoms: C2_5  and  C4_7 
REMARK       I    between atoms: C4_7  and  N2_9 
REMARK    3  A    between atoms: C6_11  and  C7_12 
REMARK    4  A    between atoms: C7_12  and  C8_13 
REMARK    5  A    between atoms: C17_22  and  C18_23 
REMARK       I    between atoms: C18_23  and  N3_25 
REMARK    6  A    between atoms: N3_25  and  C19_27 
REMARK    7  A    between atoms: C19_27  and  C20_28 
REMARK    8  A    between atoms: C19_27  and  C24_35 
REMARK    9  A    between atoms: C20_28  and  C21_30 
REMARK   10  A    between atoms: C21_30  and  C22_31 
REMARK   11  A    between atoms: C22_31  and  C23_32 
ROOT
HETATM    1  C4  UNL     1      10.486  31.633   2.261  1.00  0.00     0.251 C 
HETATM    2  O1  UNL     1      11.209  30.779   1.615  1.00  0.00    -0.271 OA
HETATM    3  N2  UNL     1       9.805  32.613   1.515  1.00  0.00    -0.337 N 
HETATM    4  C5  UNL     1       8.990  33.670   2.080  1.00  0.00     0.132 C 
HETATM    5  C6  UNL     1       7.848  33.614   1.126  1.00  0.00     0.015 C 
HETATM    6  C16 UNL     1       8.525  33.689  -0.173  1.00  0.00     0.042 C 
HETATM    7  C17 UNL     1       9.754  32.783   0.079  1.00  0.00     0.179 C 
ENDROOT
BRANCH   7   8
HETATM    8  C18 UNL     1      10.955  33.342  -0.521  1.00  0.00     0.241 C 
HETATM    9  O2  UNL     1      11.916  32.515  -0.721  1.00  0.00    -0.271 OA
HETATM   10  N3  UNL     1      11.126  34.666  -0.877  1.00  0.00    -0.347 N 
ATOM     11  H3  UNL     1      10.352  35.308  -0.711  1.00  0.00     0.163 HD
BRANCH  10  12
HETATM   12  C19 UNL     1      12.357  35.211  -1.480  1.00  0.00     0.161 C 
BRANCH  12  13
HETATM   13  C20 UNL     1      12.221  35.304  -2.928  1.00  0.00     0.150 C 
HETATM   14  O3  UNL     1      13.079  34.705  -3.614  1.00  0.00    -0.296 OA
BRANCH  13  15
HETATM   15  C21 UNL     1      11.193  36.026  -3.682  1.00  0.00     0.089 C 
BRANCH  15  16
HETATM   16  C22 UNL     1      11.802  37.025  -4.664  1.00  0.00     0.107 C 
BRANCH  16  17
HETATM   17  C23 UNL     1      10.773  37.471  -5.595  1.00  0.00     0.231 C 
HETATM   18  N4  UNL     1      11.077  38.190  -6.781  1.00  0.00    -0.062 NA
HETATM   19  O4  UNL     1       9.552  37.204  -5.329  1.00  0.00    -0.277 OA
ENDBRANCH  16  17
ENDBRANCH  15  16
ENDBRANCH  13  15
ENDBRANCH  12  13
BRANCH  12  20
HETATM   20  C24 UNL     1      12.628  36.480  -0.733  1.00  0.00    -0.024 C 
HETATM   21  C25 UNL     1      13.606  37.381  -1.435  1.00  0.00     0.017 C 
HETATM   22  C26 UNL     1      11.339  37.223  -0.403  1.00  0.00     0.017 C 
HETATM   23  C27 UNL     1      13.245  36.114   0.623  1.00  0.00     0.017 C 
ENDBRANCH  12  20
ENDBRANCH  10  12
ENDBRANCH   7   8
BRANCH   1  24
HETATM   24  C2  UNL     1      10.418  31.532   3.730  1.00  0.00     0.272 C 
HETATM   25  C3  UNL     1       9.281  30.564   4.067  1.00  0.00     0.050 C 
BRANCH  24  26
HETATM   26  N1  UNL     1      11.653  30.892   4.186  1.00  0.00    -0.067 N 
HETATM   27  C1  UNL     1      11.247  29.855   5.106  1.00  0.00     0.267 C 
ATOM     28  H12 UNL     1      12.328  31.545   4.582  1.00  0.00     0.277 HD
ATOM     29  H11 UNL     1      12.241  30.554   3.425  1.00  0.00     0.277 HD
ENDBRANCH  24  26
ENDBRANCH   1  24
BRANCH   5  30
HETATM   30  C7  UNL     1       6.603  34.302   1.444  1.00  0.00    -0.025 A 
HETATM   31  C11 UNL     1       6.820  35.106   2.748  1.00  0.00     0.012 A 
HETATM   32  C12 UNL     1       6.370  36.360   2.105  1.00  0.00     0.010 A 
HETATM   33  C13 UNL     1       6.192  35.582   0.810  1.00  0.00    -0.039 A 
HETATM   34  C14 UNL     1       4.768  35.737   0.359  1.00  0.00     0.015 C 
HETATM   35  C15 UNL     1       7.072  36.195  -0.252  1.00  0.00     0.015 C 
BRANCH  30  36
HETATM   36  C8  UNL     1       5.486  33.327   1.732  1.00  0.00    -0.013 C 
HETATM   37  C9  UNL     1       5.675  32.350   2.836  1.00  0.00     0.010 C 
HETATM   38  C10 UNL     1       4.823  32.700   0.548  1.00  0.00     0.010 C 
ENDBRANCH  30  36
ENDBRANCH   5  30
TORSDOF 11
ENDMDL
MODEL 3
REMARK VINA RESULT: -7.240508216      3.135      5.987
REMARK  11 active torsions:
REMARK  status: ('A' for Active; 'I' for Inactive)
REMARK    1  A    between atoms: N1_2  and  C2_5 
REMARK    2  A    between atoms: C2_5  and  C4_7 
REMARK       I    between atoms: C4_7  and  N2_9 
REMARK    3  A    between atoms: C6_11  and  C7_12 
REMARK    4  A    between atoms: C7_12  and  C8_13 
REMARK    5  A    between atoms: C17_22  and  C18_23 
REMARK       I    between atoms: C18_23  and  N3_25 
REMARK    6  A    between atoms: N3_25  and  C19_27 
REMARK    7  A    between atoms: C19_27  and  C20_28 
REMARK    8  A    between atoms: C19_27  and  C24_35 
REMARK    9  A    between atoms: C20_28  and  C21_30 
REMARK   10  A    between atoms: C21_30  and  C22_31 
REMARK   11  A    between atoms: C22_31  and  C23_32 
ROOT
HETATM    1  C4  UNL     1       5.922  34.973   1.187  1.00  0.00     0.251 C 
HETATM    2  O1  UNL     1       5.227  35.940   1.690  1.00  0.00    -0.271 OA
HETATM    3  N2  UNL     1       7.300  35.187   0.995  1.00  0.00    -0.337 N 
HETATM    4  C5  UNL     1       8.214  34.231   0.404  1.00  0.00     0.132 C 
HETATM    5  C6  UNL     1       9.360  34.400   1.340  1.00  0.00     0.015 C 
HETATM    6  C16 UNL     1       9.556  35.854   1.333  1.00  0.00     0.042 C 
HETATM    7  C17 UNL     1       8.090  36.352   1.333  1.00  0.00     0.179 C 
ENDROOT
BRANCH   7   8
HETATM    8  C18 UNL     1       7.918  37.494   0.449  1.00  0.00     0.241 C 
HETATM    9  O2  UNL     1       8.686  38.497   0.678  1.00  0.00    -0.271 OA
HETATM   10  N3  UNL     1       7.010  37.568  -0.588  1.00  0.00    -0.347 N 
ATOM     11  H3  UNL     1       6.410  36.761  -0.756  1.00  0.00     0.163 HD
BRANCH  10  12
HETATM   12  C19 UNL     1       6.851  38.741  -1.469  1.00  0.00     0.161 C 
BRANCH  12  13
HETATM   13  C20 UNL     1       7.855  38.728  -2.526  1.00  0.00     0.150 C 
HETATM   14  O3  UNL     1       8.279  39.839  -2.914  1.00  0.00    -0.296 OA
BRANCH  13  15
HETATM   15  C21 UNL     1       8.428  37.558  -3.197  1.00  0.00     0.089 C 
BRANCH  15  16
HETATM   16  C22 UNL     1       9.875  37.311  -2.777  1.00  0.00     0.107 C 
BRANCH  16  17
HETATM   17  C23 UNL     1      10.576  36.620  -3.851  1.00  0.00     0.231 C 
HETATM   18  N4  UNL     1      11.572  35.639  -3.607  1.00  0.00    -0.062 NA
HETATM   19  O4  UNL     1      10.280  36.913  -5.060  1.00  0.00    -0.277 OA
ENDBRANCH  16  17
ENDBRANCH  15  16
ENDBRANCH  13  15
ENDBRANCH  12  13
BRANCH  12  20
HETATM   20  C24 UNL     1       5.414  38.721  -1.888  1.00  0.00    -0.024 C 
HETATM   21  C25 UNL     1       5.234  38.550  -3.372  1.00  0.00     0.017 C 
HETATM   22  C26 UNL     1       4.618  37.675  -1.116  1.00  0.00     0.017 C 
HETATM   23  C27 UNL     1       4.787  40.068  -1.511  1.00  0.00     0.017 C 
ENDBRANCH  12  20
ENDBRANCH  10  12
ENDBRANCH   7   8
BRANCH   1  24
HETATM   24  C2  UNL     1       5.236  33.714   0.846  1.00  0.00     0.272 C 
HETATM   25  C3  UNL     1       5.095  32.908   2.140  1.00  0.00     0.050 C 
BRANCH  24  26
HETATM   26  N1  UNL     1       3.877  34.053   0.420  1.00  0.00    -0.067 N 
HETATM   27  C1  UNL     1       2.995  33.225   1.210  1.00  0.00     0.267 C 
ATOM     28  H12 UNL     1       3.730  33.961  -0.584  1.00  0.00     0.277 HD
ATOM     29  H11 UNL     1       3.667  35.048   0.485  1.00  0.00     0.277 HD
ENDBRANCH  24  26
ENDBRANCH   1  24
BRANCH   5  30
HETATM   30  C7  UNL     1      10.445  33.426   1.344  1.00  0.00    -0.025 A 
HETATM   31  C11 UNL     1      10.129  32.356   0.272  1.00  0.00     0.012 A 
HETATM   32  C12 UNL     1      11.439  32.561  -0.385  1.00  0.00     0.010 A 
HETATM   33  C13 UNL     1      11.738  33.642   0.644  1.00  0.00    -0.039 A 
HETATM   34  C14 UNL     1      13.010  33.277   1.355  1.00  0.00     0.015 C 
HETATM   35  C15 UNL     1      11.979  34.946  -0.074  1.00  0.00     0.015 C 
BRANCH  30  36
HETATM   36  C8  UNL     1      10.527  32.691   2.661  1.00  0.00    -0.013 C 
HETATM   37  C9  UNL     1      10.549  31.205   2.635  1.00  0.00     0.010 C 
HETATM   38  C10 UNL     1       9.675  33.212   3.773  1.00  0.00     0.010 C 
ENDBRANCH  30  36
ENDBRANCH   5  30
TORSDOF 11
ENDMDL
MODEL 4
REMARK VINA RESULT: -7.171975265      2.425      3.658
REMARK  11 active torsions:
REMARK  status: ('A' for Active; 'I' for Inactive)
REMARK    1  A    between atoms: N1_2  and  C2_5 
REMARK    2  A    between atoms: C2_5  and  C4_7 
REMARK       I    between atoms: C4_7  and  N2_9 
REMARK    3  A    between atoms: C6_11  and  C7_12 
REMARK    4  A    between atoms: C7_12  and  C8_13 
REMARK    5  A    between atoms: C17_22  and  C18_23 
REMARK       I    between atoms: C18_23  and  N3_25 
REMARK    6  A    between atoms: N3_25  and  C19_27 
REMARK    7  A    between atoms: C19_27  and  C20_28 
REMARK    8  A    between atoms: C19_27  and  C24_35 
REMARK    9  A    between atoms: C20_28  and  C21_30 
REMARK   10  A    between atoms: C21_30  and  C22_31 
REMARK   11  A    between atoms: C22_31  and  C23_32 
ROOT
HETATM    1  C4  UNL     1      10.663  31.844   2.192  1.00  0.00     0.251 C 
HETATM    2  O1  UNL     1      11.561  31.178   1.541  1.00  0.00    -0.271 OA
HETATM    3  N2  UNL     1       9.921  32.808   1.484  1.00  0.00    -0.337 N 
HETATM    4  C5  UNL     1       8.912  33.670   2.065  1.00  0.00     0.132 C 
HETATM    5  C6  UNL     1       7.886  33.580   0.991  1.00  0.00     0.015 C 
HETATM    6  C16 UNL     1       8.664  33.901  -0.211  1.00  0.00     0.042 C 
HETATM    7  C17 UNL     1       9.983  33.143   0.077  1.00  0.00     0.179 C 
ENDROOT
BRANCH   7   8
HETATM    8  C18 UNL     1      11.142  33.926  -0.322  1.00  0.00     0.241 C 
HETATM    9  O2  UNL     1      11.952  33.349  -1.133  1.00  0.00    -0.271 OA
HETATM   10  N3  UNL     1      11.420  35.210   0.103  1.00  0.00    -0.347 N 
ATOM     11  H3  UNL     1      10.764  35.653   0.746  1.00  0.00     0.163 HD
BRANCH  10  12
HETATM   12  C19 UNL     1      12.606  35.983  -0.313  1.00  0.00     0.161 C 
BRANCH  12  13
HETATM   13  C20 UNL     1      12.207  37.199  -1.011  1.00  0.00     0.150 C 
HETATM   14  O3  UNL     1      13.027  37.675  -1.826  1.00  0.00    -0.296 OA
BRANCH  13  15
HETATM   15  C21 UNL     1      10.951  37.939  -0.865  1.00  0.00     0.089 C 
BRANCH  15  16
HETATM   16  C22 UNL     1      11.000  38.922   0.302  1.00  0.00     0.107 C 
BRANCH  16  17
HETATM   17  C23 UNL     1      10.045  38.507   1.322  1.00  0.00     0.231 C 
HETATM   18  N4  UNL     1       9.714  39.323   2.435  1.00  0.00    -0.062 NA
HETATM   19  O4  UNL     1       9.486  37.363   1.204  1.00  0.00    -0.277 OA
ENDBRANCH  16  17
ENDBRANCH  15  16
ENDBRANCH  13  15
ENDBRANCH  12  13
BRANCH  12  20
HETATM   20  C24 UNL     1      13.423  36.142   0.932  1.00  0.00    -0.024 C 
HETATM   21  C25 UNL     1      14.295  37.368   0.912  1.00  0.00     0.017 C 
HETATM   22  C26 UNL     1      12.553  36.109   2.182  1.00  0.00     0.017 C 
HETATM   23  C27 UNL     1      14.353  34.929   1.052  1.00  0.00     0.017 C 
ENDBRANCH  12  20
ENDBRANCH  10  12
ENDBRANCH   7   8
BRANCH   1  24
HETATM   24  C2  UNL     1      10.471  31.556   3.625  1.00  0.00     0.272 C 
HETATM   25  C3  UNL     1       9.339  30.533   3.736  1.00  0.00     0.050 C 
BRANCH  24  26
HETATM   26  N1  UNL     1      11.681  30.887   4.106  1.00  0.00    -0.067 N 
HETATM   27  C1  UNL     1      11.248  29.981   5.145  1.00  0.00     0.267 C 
ATOM     28  H12 UNL     1      12.411  31.532   4.407  1.00  0.00     0.277 HD
ATOM     29  H11 UNL     1      12.216  30.432   3.367  1.00  0.00     0.277 HD
ENDBRANCH  24  26
ENDBRANCH   1  24
BRANCH   5  30
HETATM   30  C7  UNL     1       6.529  34.053   1.240  1.00  0.00    -0.025 A 
HETATM   31  C11 UNL     1       6.538  34.850   2.566  1.00  0.00     0.012 A 
HETATM   32  C12 UNL     1       5.931  36.031   1.913  1.00  0.00     0.010 A 
HETATM   33  C13 UNL     1       5.956  35.265   0.599  1.00  0.00    -0.039 A 
HETATM   34  C14 UNL     1       4.554  35.200   0.064  1.00  0.00     0.015 C 
HETATM   35  C15 UNL     1       6.786  36.034  -0.398  1.00  0.00     0.015 C 
BRANCH  30  36
HETATM   36  C8  UNL     1       5.570  32.905   1.445  1.00  0.00    -0.013 C 
HETATM   37  C9  UNL     1       4.116  33.164   1.269  1.00  0.00     0.010 C 
HETATM   38  C10 UNL     1       5.833  32.013   2.616  1.00  0.00     0.010 C 
ENDBRANCH  30  36
ENDBRANCH   5  30
TORSDOF 11
ENDMDL
MODEL 5
REMARK VINA RESULT: -7.071245893      3.333      6.035
REMARK  11 active torsions:
REMARK  status: ('A' for Active; 'I' for Inactive)
REMARK    1  A    between atoms: N1_2  and  C2_5 
REMARK    2  A    between atoms: C2_5  and  C4_7 
REMARK       I    between atoms: C4_7  and  N2_9 
REMARK    3  A    between atoms: C6_11  and  C7_12 
REMARK    4  A    between atoms: C7_12  and  C8_13 
REMARK    5  A    between atoms: C17_22  and  C18_23 
REMARK       I    between atoms: C18_23  and  N3_25 
REMARK    6  A    between atoms: N3_25  and  C19_27 
REMARK    7  A    between atoms: C19_27  and  C20_28 
REMARK    8  A    between atoms: C19_27  and  C24_35 
REMARK    9  A    between atoms: C20_28  and  C21_30 
REMARK   10  A    between atoms: C21_30  and  C22_31 
REMARK   11  A    between atoms: C22_31  and  C23_32 
ROOT
HETATM    1  C4  UNL     1       5.853  34.933   0.817  1.00  0.00     0.251 C 
HETATM    2  O1  UNL     1       5.216  36.025   1.089  1.00  0.00    -0.271 OA
HETATM    3  N2  UNL     1       7.235  35.024   0.571  1.00  0.00    -0.337 N 
HETATM    4  C5  UNL     1       8.089  33.911   0.210  1.00  0.00     0.132 C 
HETATM    5  C6  UNL     1       9.260  34.229   1.073  1.00  0.00     0.015 C 
HETATM    6  C16 UNL     1       9.528  35.630   0.730  1.00  0.00     0.042 C 
HETATM    7  C17 UNL     1       8.089  36.192   0.626  1.00  0.00     0.179 C 
ENDROOT
BRANCH   7   8
HETATM    8  C18 UNL     1       7.958  37.108  -0.495  1.00  0.00     0.241 C 
HETATM    9  O2  UNL     1       9.001  37.803  -0.773  1.00  0.00    -0.271 OA
HETATM   10  N3  UNL     1       6.818  37.275  -1.258  1.00  0.00    -0.347 N 
ATOM     11  H3  UNL     1       6.001  36.713  -1.023  1.00  0.00     0.163 HD
BRANCH  10  12
HETATM   12  C19 UNL     1       6.708  38.215  -2.390  1.00  0.00     0.161 C 
BRANCH  12  13
HETATM   13  C20 UNL     1       6.541  37.490  -3.643  1.00  0.00     0.150 C 
HETATM   14  O3  UNL     1       5.677  36.585  -3.660  1.00  0.00    -0.296 OA
BRANCH  13  15
HETATM   15  C21 UNL     1       7.276  37.692  -4.894  1.00  0.00     0.089 C 
BRANCH  15  16
HETATM   16  C22 UNL     1       8.543  38.518  -4.685  1.00  0.00     0.107 C 
BRANCH  16  17
HETATM   17  C23 UNL     1       9.710  37.667  -4.877  1.00  0.00     0.231 C 
HETATM   18  N4  UNL     1      10.242  36.855  -3.842  1.00  0.00    -0.062 NA
HETATM   19  O4  UNL     1      10.273  37.655  -6.025  1.00  0.00    -0.277 OA
ENDBRANCH  16  17
ENDBRANCH  15  16
ENDBRANCH  13  15
ENDBRANCH  12  13
BRANCH  12  20
HETATM   20  C24 UNL     1       5.622  39.168  -1.999  1.00  0.00    -0.024 C 
HETATM   21  C25 UNL     1       4.987  39.854  -3.177  1.00  0.00     0.017 C 
HETATM   22  C26 UNL     1       4.571  38.495  -1.125  1.00  0.00     0.017 C 
HETATM   23  C27 UNL     1       6.240  40.263  -1.120  1.00  0.00     0.017 C 
ENDBRANCH  12  20
ENDBRANCH  10  12
ENDBRANCH   7   8
BRANCH   1  24
HETATM   24  C2  UNL     1       5.098  33.667   0.780  1.00  0.00     0.272 C 
HETATM   25  C3  UNL     1       5.100  33.095   2.199  1.00  0.00     0.050 C 
BRANCH  24  26
HETATM   26  N1  UNL     1       3.705  33.993   0.468  1.00  0.00    -0.067 N 
HETATM   27  C1  UNL     1       2.900  33.184   1.353  1.00  0.00     0.267 C 
ATOM     28  H12 UNL     1       3.471  33.874  -0.518  1.00  0.00     0.277 HD
ATOM     29  H11 UNL     1       3.498  34.989   0.525  1.00  0.00     0.277 HD
ENDBRANCH  24  26
ENDBRANCH   1  24
BRANCH   5  30
HETATM   30  C7  UNL     1      10.294  33.226   1.294  1.00  0.00    -0.025 A 
HETATM   31  C11 UNL     1      10.015  32.036   0.345  1.00  0.00     0.012 A 
HETATM   32  C12 UNL     1      11.381  32.106  -0.220  1.00  0.00     0.010 A 
HETATM   33  C13 UNL     1      11.647  33.301   0.683  1.00  0.00    -0.039 A 
HETATM   34  C14 UNL     1      12.841  32.988   1.540  1.00  0.00     0.015 C 
HETATM   35  C15 UNL     1      12.005  34.490  -0.174  1.00  0.00     0.015 C 
BRANCH  30  36
HETATM   36  C8  UNL     1      10.239  32.668   2.696  1.00  0.00    -0.013 C 
HETATM   37  C9  UNL     1       9.891  31.233   2.868  1.00  0.00     0.010 C 
HETATM   38  C10 UNL     1       9.581  33.524   3.731  1.00  0.00     0.010 C 
ENDBRANCH  30  36
ENDBRANCH   5  30
TORSDOF 11
ENDMDL
