MODEL 1
REMARK VINA RESULT: -7.301336505      0.000      0.000
REMARK  12 active torsions:
REMARK  status: ('A' for Active; 'I' for Inactive)
REMARK    1  A    between atoms: C2_2  and  C3_3 
REMARK    2  A    between atoms: C3_3  and  C5_5 
REMARK    3  A    between atoms: C5_5  and  C6_6 
REMARK    4  A    between atoms: C5_5  and  N2_16 
REMARK    5  A    between atoms: C6_6  and  C7_7 
REMARK    6  A    between atoms: C7_7  and  N1_8 
REMARK    7  A    between atoms: C7_7  and  C10_13 
REMARK       I    between atoms: N1_8  and  C8_10 
REMARK       I    between atoms: N2_16  and  C13_18 
REMARK    8  A    between atoms: C13_18  and  C14_20 
REMARK       I    between atoms: N3_24  and  C18_25 
REMARK    9  A    between atoms: C18_25  and  C19_27 
REMARK   10  A    between atoms: C19_27  and  N4_29 
REMARK       I    between atoms: N4_29  and  C21_30 
REMARK   11  A    between atoms: C21_30  and  O5_32 
REMARK   12  A    between atoms: O5_32  and  C22_33 
ROOT
HETATM    1  N2  UNL     1       8.141  35.132   0.645  1.00  0.00    -0.354 N 
ATOM      2  H2  UNL     1       7.988  34.242   1.120  1.00  0.00     0.162 HD
HETATM    3  C13 UNL     1       9.441  35.409   0.202  1.00  0.00     0.241 C 
HETATM    4  O2  UNL     1       9.679  36.477  -0.413  1.00  0.00    -0.271 OA
ENDROOT
BRANCH   3   5
HETATM    5  C14 UNL     1      10.605  34.510   0.416  1.00  0.00     0.179 C 
HETATM    6  C15 UNL     1      11.790  35.429   0.726  1.00  0.00     0.037 C 
HETATM    7  C16 UNL     1      11.668  35.630   2.228  1.00  0.00     0.022 C 
HETATM    8  C17 UNL     1      10.750  34.538   2.743  1.00  0.00     0.127 C 
HETATM    9  N3  UNL     1      10.485  33.686   1.557  1.00  0.00    -0.336 N 
HETATM   10  C18 UNL     1      10.240  32.299   1.673  1.00  0.00     0.256 C 
HETATM   11  O3  UNL     1      10.156  31.584   0.655  1.00  0.00    -0.270 OA
BRANCH  10  12
HETATM   12  C19 UNL     1      10.079  31.654   2.986  1.00  0.00     0.257 C 
HETATM   13  C20 UNL     1       8.584  31.331   3.242  1.00  0.00     0.058 C 
BRANCH  12  14
HETATM   14  N4  UNL     1      10.836  30.455   3.156  1.00  0.00    -0.376 NA
HETATM   15  C21 UNL     1      11.522  29.357   3.303  1.00  0.00     0.436 C 
HETATM   16  O4  UNL     1      11.489  28.267   2.621  1.00  0.00    -0.221 OA
BRANCH  15  17
HETATM   17  O5  UNL     1      12.496  29.245   4.363  1.00  0.00    -0.283 OA
BRANCH  17  18
HETATM   18  C22 UNL     1      12.158  28.870   5.660  1.00  0.00     0.062 C 
HETATM   19  C23 UNL     1      12.474  29.971   6.663  1.00  0.00     0.046 C 
HETATM   20  C24 UNL     1      10.701  28.514   5.815  1.00  0.00     0.046 C 
HETATM   21  C25 UNL     1      12.979  27.643   6.022  1.00  0.00     0.046 C 
ENDBRANCH  17  18
ENDBRANCH  15  17
ENDBRANCH  12  14
ENDBRANCH  10  12
ENDBRANCH   3   5
BRANCH   1  22
HETATM   22  C5  UNL     1       7.022  35.985   0.488  1.00  0.00     0.090 C 
BRANCH  22  23
HETATM   23  C3  UNL     1       5.982  35.405   1.480  1.00  0.00     0.004 C 
HETATM   24  C4  UNL     1       6.669  34.462   2.425  1.00  0.00     0.012 C 
BRANCH  23  25
HETATM   25  C2  UNL     1       4.898  34.626   0.784  1.00  0.00     0.002 C 
HETATM   26  C1  UNL     1       4.647  33.265   1.393  1.00  0.00     0.005 C 
ENDBRANCH  23  25
ENDBRANCH  22  23
BRANCH  22  27
HETATM   27  C6  UNL     1       6.335  36.096  -0.792  1.00  0.00     0.051 C 
BRANCH  27  28
HETATM   28  C7  UNL     1       6.520  37.234  -1.700  1.00  0.00     0.089 C 
BRANCH  28  29
HETATM   29  N1  UNL     1       7.436  36.936  -2.809  1.00  0.00    -0.356 N 
HETATM   30  C8  UNL     1       8.421  37.846  -3.252  1.00  0.00     0.213 C 
HETATM   31  C9  UNL     1       9.321  37.516  -4.379  1.00  0.00     0.117 C 
HETATM   32  O1  UNL     1       8.511  38.957  -2.651  1.00  0.00    -0.274 OA
ATOM     33  H1  UNL     1       7.357  36.034  -3.280  1.00  0.00     0.162 HD
ENDBRANCH  28  29
BRANCH  28  34
HETATM   34  C10 UNL     1       5.270  37.867  -2.226  1.00  0.00     0.000 C 
HETATM   35  C11 UNL     1       4.118  37.695  -1.230  1.00  0.00     0.011 C 
HETATM   36  C12 UNL     1       4.788  37.395  -3.555  1.00  0.00     0.011 C 
ENDBRANCH  28  34
ENDBRANCH  27  28
ENDBRANCH  22  27
ENDBRANCH   1  22
TORSDOF 12
ENDMDL
MODEL 2
REMARK VINA RESULT: -7.270563111      1.170      1.538
REMARK  12 active torsions:
REMARK  status: ('A' for Active; 'I' for Inactive)
REMARK    1  A    between atoms: C2_2  and  C3_3 
REMARK    2  A    between atoms: C3_3  and  C5_5 
REMARK    3  A    between atoms: C5_5  and  C6_6 
REMARK    4  A    between atoms: C5_5  and  N2_16 
REMARK    5  A    between atoms: C6_6  and  C7_7 
REMARK    6  A    between atoms: C7_7  and  N1_8 
REMARK    7  A    between atoms: C7_7  and  C10_13 
REMARK       I    between atoms: N1_8  and  C8_10 
REMARK       I    between atoms: N2_16  and  C13_18 
REMARK    8  A    between atoms: C13_18  and  C14_20 
REMARK       I    between atoms: N3_24  and  C18_25 
REMARK    9  A    between atoms: C18_25  and  C19_27 
REMARK   10  A    between atoms: C19_27  and  N4_29 
REMARK       I    between atoms: N4_29  and  C21_30 
REMARK   11  A    between atoms: C21_30  and  O5_32 
REMARK   12  A    between atoms: O5_32  and  C22_33 
ROOT
HETATM    1  N2  UNL     1       7.708  35.156   0.330  1.00  0.00    -0.354 N 
ATOM      2  H2  UNL     1       7.581  34.244   0.768  1.00  0.00     0.162 HD
HETATM    3  C13 UNL     1       9.014  35.523  -0.024  1.00  0.00     0.241 C 
HETATM    4  O2  UNL     1       9.224  36.622  -0.594  1.00  0.00    -0.271 OA
ENDROOT
BRANCH   3   5
HETATM    5  C14 UNL     1      10.215  34.687   0.236  1.00  0.00     0.179 C 
HETATM    6  C15 UNL     1      11.330  35.665   0.614  1.00  0.00     0.037 C 
HETATM    7  C16 UNL     1      11.125  35.838   2.111  1.00  0.00     0.022 C 
HETATM    8  C17 UNL     1      10.246  34.690   2.568  1.00  0.00     0.127 C 
HETATM    9  N3  UNL     1      10.086  33.842   1.361  1.00  0.00    -0.336 N 
HETATM   10  C18 UNL     1       9.914  32.441   1.449  1.00  0.00     0.256 C 
HETATM   11  O3  UNL     1       9.921  31.737   0.420  1.00  0.00    -0.270 OA
BRANCH  10  12
HETATM   12  C19 UNL     1       9.727  31.770   2.745  1.00  0.00     0.257 C 
HETATM   13  C20 UNL     1       8.252  31.318   2.903  1.00  0.00     0.058 C 
BRANCH  12  14
HETATM   14  N4  UNL     1      10.572  30.638   2.956  1.00  0.00    -0.376 NA
HETATM   15  C21 UNL     1      11.338  29.601   3.141  1.00  0.00     0.436 C 
HETATM   16  O4  UNL     1      11.370  28.478   2.513  1.00  0.00    -0.221 OA
BRANCH  15  17
HETATM   17  O5  UNL     1      12.338  29.612   4.182  1.00  0.00    -0.283 OA
BRANCH  17  18
HETATM   18  C22 UNL     1      12.138  29.021   5.425  1.00  0.00     0.062 C 
HETATM   19  C23 UNL     1      12.516  29.961   6.561  1.00  0.00     0.046 C 
HETATM   20  C24 UNL     1      10.714  28.579   5.651  1.00  0.00     0.046 C 
HETATM   21  C25 UNL     1      13.027  27.790   5.507  1.00  0.00     0.046 C 
ENDBRANCH  17  18
ENDBRANCH  15  17
ENDBRANCH  12  14
ENDBRANCH  10  12
ENDBRANCH   3   5
BRANCH   1  22
HETATM   22  C5  UNL     1       6.552  35.947   0.127  1.00  0.00     0.090 C 
BRANCH  22  23
HETATM   23  C3  UNL     1       5.525  35.349   1.121  1.00  0.00     0.004 C 
HETATM   24  C4  UNL     1       6.190  34.280   1.941  1.00  0.00     0.012 C 
BRANCH  23  25
HETATM   25  C2  UNL     1       4.356  34.707   0.421  1.00  0.00     0.002 C 
HETATM   26  C1  UNL     1       3.925  33.398   1.042  1.00  0.00     0.005 C 
ENDBRANCH  23  25
ENDBRANCH  22  23
BRANCH  22  27
HETATM   27  C6  UNL     1       5.882  35.983  -1.166  1.00  0.00     0.051 C 
BRANCH  27  28
HETATM   28  C7  UNL     1       5.735  37.213  -1.954  1.00  0.00     0.089 C 
BRANCH  28  29
HETATM   29  N1  UNL     1       6.714  38.245  -1.588  1.00  0.00    -0.356 N 
HETATM   30  C8  UNL     1       6.349  39.582  -1.317  1.00  0.00     0.213 C 
HETATM   31  C9  UNL     1       7.363  40.599  -0.960  1.00  0.00     0.117 C 
HETATM   32  O1  UNL     1       5.122  39.885  -1.389  1.00  0.00    -0.274 OA
ATOM     33  H1  UNL     1       7.699  37.985  -1.528  1.00  0.00     0.162 HD
ENDBRANCH  28  29
BRANCH  28  34
HETATM   34  C10 UNL     1       5.702  37.043  -3.441  1.00  0.00     0.000 C 
HETATM   35  C11 UNL     1       7.040  37.461  -4.060  1.00  0.00     0.011 C 
HETATM   36  C12 UNL     1       4.624  37.765  -4.174  1.00  0.00     0.011 C 
ENDBRANCH  28  34
ENDBRANCH  27  28
ENDBRANCH  22  27
ENDBRANCH   1  22
TORSDOF 12
ENDMDL
MODEL 3
REMARK VINA RESULT: -7.039290892      2.344      8.978
REMARK  12 active torsions:
REMARK  status: ('A' for Active; 'I' for Inactive)
REMARK    1  A    between atoms: C2_2  and  C3_3 
REMARK    2  A    between atoms: C3_3  and  C5_5 
REMARK    3  A    between atoms: C5_5  and  C6_6 
REMARK    4  A    between atoms: C5_5  and  N2_16 
REMARK    5  A    between atoms: C6_6  and  C7_7 
REMARK    6  A    between atoms: C7_7  and  N1_8 
REMARK    7  A    between atoms: C7_7  and  C10_13 
REMARK       I    between atoms: N1_8  and  C8_10 
REMARK       I    between atoms: N2_16  and  C13_18 
REMARK    8  A    between atoms: C13_18  and  C14_20 
REMARK       I    between atoms: N3_24  and  C18_25 
REMARK    9  A    between atoms: C18_25  and  C19_27 
REMARK   10  A    between atoms: C19_27  and  N4_29 
REMARK       I    between atoms: N4_29  and  C21_30 
REMARK   11  A    between atoms: C21_30  and  O5_32 
REMARK   12  A    between atoms: O5_32  and  C22_33 
ROOT
HETATM    1  N2  UNL     1      10.108  33.699   1.653  1.00  0.00    -0.354 N 
ATOM      2  H2  UNL     1       9.198  33.393   1.308  1.00  0.00     0.162 HD
HETATM    3  C13 UNL     1      10.265  35.063   1.934  1.00  0.00     0.241 C 
HETATM    4  O2  UNL     1      11.355  35.489   2.388  1.00  0.00    -0.271 OA
ENDROOT
BRANCH   3   5
HETATM    5  C14 UNL     1       9.206  36.085   1.724  1.00  0.00     0.179 C 
HETATM    6  C15 UNL     1       9.875  37.225   0.951  1.00  0.00     0.037 C 
HETATM    7  C16 UNL     1       9.727  36.774  -0.494  1.00  0.00     0.022 C 
HETATM    8  C17 UNL     1       8.665  35.693  -0.510  1.00  0.00     0.127 C 
HETATM    9  N3  UNL     1       8.156  35.652   0.884  1.00  0.00    -0.336 N 
HETATM   10  C18 UNL     1       6.821  35.296   1.182  1.00  0.00     0.256 C 
HETATM   11  O3  UNL     1       6.383  35.401   2.345  1.00  0.00    -0.270 OA
BRANCH  10  12
HETATM   12  C19 UNL     1       5.909  34.795   0.142  1.00  0.00     0.257 C 
HETATM   13  C20 UNL     1       4.769  33.963   0.787  1.00  0.00     0.058 C 
BRANCH  12  14
HETATM   14  N4  UNL     1       5.321  35.811  -0.672  1.00  0.00    -0.376 NA
HETATM   15  C21 UNL     1       4.780  36.741  -1.407  1.00  0.00     0.436 C 
HETATM   16  O4  UNL     1       3.874  37.604  -1.108  1.00  0.00    -0.221 OA
BRANCH  15  17
HETATM   17  O5  UNL     1       5.192  36.914  -2.780  1.00  0.00    -0.283 OA
BRANCH  17  18
HETATM   18  C22 UNL     1       5.955  37.996  -3.207  1.00  0.00     0.062 C 
HETATM   19  C23 UNL     1       5.081  39.122  -3.743  1.00  0.00     0.046 C 
HETATM   20  C24 UNL     1       6.828  38.573  -2.121  1.00  0.00     0.046 C 
HETATM   21  C25 UNL     1       6.862  37.517  -4.329  1.00  0.00     0.046 C 
ENDBRANCH  17  18
ENDBRANCH  15  17
ENDBRANCH  12  14
ENDBRANCH  10  12
ENDBRANCH   3   5
BRANCH   1  22
HETATM   22  C5  UNL     1      11.110  32.711   1.808  1.00  0.00     0.090 C 
BRANCH  22  23
HETATM   23  C3  UNL     1      11.823  32.698   0.432  1.00  0.00     0.004 C 
HETATM   24  C4  UNL     1      11.530  31.402  -0.268  1.00  0.00     0.012 C 
BRANCH  23  25
HETATM   25  C2  UNL     1      13.320  32.805   0.561  1.00  0.00     0.002 C 
HETATM   26  C1  UNL     1      13.861  34.168   0.193  1.00  0.00     0.005 C 
ENDBRANCH  23  25
ENDBRANCH  22  23
BRANCH  22  27
HETATM   27  C6  UNL     1      10.761  31.324   2.090  1.00  0.00     0.051 C 
BRANCH  27  28
HETATM   28  C7  UNL     1       9.929  30.929   3.233  1.00  0.00     0.089 C 
BRANCH  28  29
HETATM   29  N1  UNL     1       8.508  30.797   2.885  1.00  0.00    -0.356 N 
HETATM   30  C8  UNL     1       7.561  31.812   3.143  1.00  0.00     0.213 C 
HETATM   31  C9  UNL     1       6.135  31.642   2.787  1.00  0.00     0.117 C 
HETATM   32  O1  UNL     1       7.972  32.878   3.690  1.00  0.00    -0.274 OA
ATOM     33  H1  UNL     1       8.192  29.935   2.438  1.00  0.00     0.162 HD
ENDBRANCH  28  29
BRANCH  28  34
HETATM   34  C10 UNL     1      10.384  29.722   3.992  1.00  0.00     0.000 C 
HETATM   35  C11 UNL     1      11.194  30.134   5.225  1.00  0.00     0.011 C 
HETATM   36  C12 UNL     1      11.192  28.721   3.238  1.00  0.00     0.011 C 
ENDBRANCH  28  34
ENDBRANCH  27  28
ENDBRANCH  22  27
ENDBRANCH   1  22
TORSDOF 12
ENDMDL
MODEL 4
REMARK VINA RESULT: -7.013103831      1.885      3.683
REMARK  12 active torsions:
REMARK  status: ('A' for Active; 'I' for Inactive)
REMARK    1  A    between atoms: C2_2  and  C3_3 
REMARK    2  A    between atoms: C3_3  and  C5_5 
REMARK    3  A    between atoms: C5_5  and  C6_6 
REMARK    4  A    between atoms: C5_5  and  N2_16 
REMARK    5  A    between atoms: C6_6  and  C7_7 
REMARK    6  A    between atoms: C7_7  and  N1_8 
REMARK    7  A    between atoms: C7_7  and  C10_13 
REMARK       I    between atoms: N1_8  and  C8_10 
REMARK       I    between atoms: N2_16  and  C13_18 
REMARK    8  A    between atoms: C13_18  and  C14_20 
REMARK       I    between atoms: N3_24  and  C18_25 
REMARK    9  A    between atoms: C18_25  and  C19_27 
REMARK   10  A    between atoms: C19_27  and  N4_29 
REMARK       I    between atoms: N4_29  and  C21_30 
REMARK   11  A    between atoms: C21_30  and  O5_32 
REMARK   12  A    between atoms: O5_32  and  C22_33 
ROOT
HETATM    1  N2  UNL     1       9.625  35.574   0.672  1.00  0.00    -0.354 N 
ATOM      2  H2  UNL     1       9.774  35.053   1.536  1.00  0.00     0.162 HD
HETATM    3  C13 UNL     1      10.263  35.102  -0.483  1.00  0.00     0.241 C 
HETATM    4  O2  UNL     1      10.091  35.689  -1.579  1.00  0.00    -0.271 OA
ENDROOT
BRANCH   3   5
HETATM    5  C14 UNL     1      11.166  33.922  -0.514  1.00  0.00     0.179 C 
HETATM    6  C15 UNL     1      12.522  34.447  -0.994  1.00  0.00     0.037 C 
HETATM    7  C16 UNL     1      13.172  34.911   0.301  1.00  0.00     0.022 C 
HETATM    8  C17 UNL     1      12.398  34.269   1.435  1.00  0.00     0.127 C 
HETATM    9  N3  UNL     1      11.427  33.372   0.761  1.00  0.00    -0.336 N 
HETATM   10  C18 UNL     1      10.975  32.174   1.360  1.00  0.00     0.256 C 
HETATM   11  O3  UNL     1      10.268  31.373   0.718  1.00  0.00    -0.270 OA
BRANCH  10  12
HETATM   12  C19 UNL     1      11.321  31.832   2.749  1.00  0.00     0.257 C 
HETATM   13  C20 UNL     1      10.185  32.276   3.707  1.00  0.00     0.058 C 
BRANCH  12  14
HETATM   14  N4  UNL     1      11.584  30.445   2.972  1.00  0.00    -0.376 NA
HETATM   15  C21 UNL     1      11.818  29.179   3.167  1.00  0.00     0.436 C 
HETATM   16  O4  UNL     1      11.377  28.152   2.530  1.00  0.00    -0.221 OA
BRANCH  15  17
HETATM   17  O5  UNL     1      12.694  28.758   4.234  1.00  0.00    -0.283 OA
BRANCH  17  18
HETATM   18  C22 UNL     1      12.285  28.692   5.562  1.00  0.00     0.062 C 
HETATM   19  C23 UNL     1      12.719  29.924   6.346  1.00  0.00     0.046 C 
HETATM   20  C24 UNL     1      10.791  28.555   5.719  1.00  0.00     0.046 C 
HETATM   21  C25 UNL     1      12.934  27.471   6.194  1.00  0.00     0.046 C 
ENDBRANCH  17  18
ENDBRANCH  15  17
ENDBRANCH  12  14
ENDBRANCH  10  12
ENDBRANCH   3   5
BRANCH   1  22
HETATM   22  C5  UNL     1       8.790  36.716   0.738  1.00  0.00     0.090 C 
BRANCH  22  23
HETATM   23  C3  UNL     1       9.596  37.703   1.619  1.00  0.00     0.004 C 
HETATM   24  C4  UNL     1       8.719  38.862   1.998  1.00  0.00     0.012 C 
BRANCH  23  25
HETATM   25  C2  UNL     1      10.793  38.269   0.900  1.00  0.00     0.002 C 
HETATM   26  C1  UNL     1      12.072  38.191   1.702  1.00  0.00     0.005 C 
ENDBRANCH  23  25
ENDBRANCH  22  23
BRANCH  22  27
HETATM   27  C6  UNL     1       7.462  36.643   1.332  1.00  0.00     0.051 C 
BRANCH  27  28
HETATM   28  C7  UNL     1       6.448  35.674   0.900  1.00  0.00     0.089 C 
BRANCH  28  29
HETATM   29  N1  UNL     1       6.153  34.661   1.922  1.00  0.00    -0.356 N 
HETATM   30  C8  UNL     1       6.800  33.406   1.963  1.00  0.00     0.213 C 
HETATM   31  C9  UNL     1       6.472  32.405   3.002  1.00  0.00     0.117 C 
HETATM   32  O1  UNL     1       7.673  33.163   1.078  1.00  0.00    -0.274 OA
ATOM     33  H1  UNL     1       5.452  34.873   2.633  1.00  0.00     0.162 HD
ENDBRANCH  28  29
BRANCH  28  34
HETATM   34  C10 UNL     1       5.172  36.249   0.368  1.00  0.00     0.000 C 
HETATM   35  C11 UNL     1       4.112  35.155   0.210  1.00  0.00     0.011 C 
HETATM   36  C12 UNL     1       5.257  36.982  -0.928  1.00  0.00     0.011 C 
ENDBRANCH  28  34
ENDBRANCH  27  28
ENDBRANCH  22  27
ENDBRANCH   1  22
TORSDOF 12
ENDMDL
MODEL 5
REMARK VINA RESULT: -6.908587894      1.109      1.564
REMARK  12 active torsions:
REMARK  status: ('A' for Active; 'I' for Inactive)
REMARK    1  A    between atoms: C2_2  and  C3_3 
REMARK    2  A    between atoms: C3_3  and  C5_5 
REMARK    3  A    between atoms: C5_5  and  C6_6 
REMARK    4  A    between atoms: C5_5  and  N2_16 
REMARK    5  A    between atoms: C6_6  and  C7_7 
REMARK    6  A    between atoms: C7_7  and  N1_8 
REMARK    7  A    between atoms: C7_7  and  C10_13 
REMARK       I    between atoms: N1_8  and  C8_10 
REMARK       I    between atoms: N2_16  and  C13_18 
REMARK    8  A    between atoms: C13_18  and  C14_20 
REMARK       I    between atoms: N3_24  and  C18_25 
REMARK    9  A    between atoms: C18_25  and  C19_27 
REMARK   10  A    between atoms: C19_27  and  N4_29 
REMARK       I    between atoms: N4_29  and  C21_30 
REMARK   11  A    between atoms: C21_30  and  O5_32 
REMARK   12  A    between atoms: O5_32  and  C22_33 
ROOT
HETATM    1  N2  UNL     1       8.027  35.426   0.475  1.00  0.00    -0.354 N 
ATOM      2  H2  UNL     1       7.793  34.494   0.815  1.00  0.00     0.162 HD
HETATM    3  C13 UNL     1       9.372  35.684   0.179  1.00  0.00     0.241 C 
HETATM    4  O2  UNL     1       9.712  36.807  -0.271  1.00  0.00    -0.271 OA
ENDROOT
BRANCH   3   5
HETATM    5  C14 UNL     1      10.472  34.702   0.367  1.00  0.00     0.179 C 
HETATM    6  C15 UNL     1      11.705  35.525   0.748  1.00  0.00     0.037 C 
HETATM    7  C16 UNL     1      11.562  35.655   2.257  1.00  0.00     0.022 C 
HETATM    8  C17 UNL     1      10.565  34.600   2.694  1.00  0.00     0.127 C 
HETATM    9  N3  UNL     1      10.273  33.830   1.460  1.00  0.00    -0.336 N 
HETATM   10  C18 UNL     1       9.938  32.457   1.497  1.00  0.00     0.256 C 
HETATM   11  O3  UNL     1       9.832  31.802   0.441  1.00  0.00    -0.270 OA
BRANCH  10  12
HETATM   12  C19 UNL     1       9.706  31.757   2.771  1.00  0.00     0.257 C 
HETATM   13  C20 UNL     1       8.227  31.301   2.867  1.00  0.00     0.058 C 
BRANCH  12  14
HETATM   14  N4  UNL     1      10.545  30.620   2.985  1.00  0.00    -0.376 NA
HETATM   15  C21 UNL     1      11.305  29.579   3.174  1.00  0.00     0.436 C 
HETATM   16  O4  UNL     1      11.319  28.448   2.561  1.00  0.00    -0.221 OA
BRANCH  15  17
HETATM   17  O5  UNL     1      12.319  29.597   4.201  1.00  0.00    -0.283 OA
BRANCH  17  18
HETATM   18  C22 UNL     1      12.144  28.994   5.442  1.00  0.00     0.062 C 
HETATM   19  C23 UNL     1      12.517  29.935   6.580  1.00  0.00     0.046 C 
HETATM   20  C24 UNL     1      10.731  28.525   5.682  1.00  0.00     0.046 C 
HETATM   21  C25 UNL     1      13.057  27.780   5.508  1.00  0.00     0.046 C 
ENDBRANCH  17  18
ENDBRANCH  15  17
ENDBRANCH  12  14
ENDBRANCH  10  12
ENDBRANCH   3   5
BRANCH   1  22
HETATM   22  C5  UNL     1       6.967  36.354   0.340  1.00  0.00     0.090 C 
BRANCH  22  23
HETATM   23  C3  UNL     1       5.914  35.852   1.361  1.00  0.00     0.004 C 
HETATM   24  C4  UNL     1       6.578  34.939   2.352  1.00  0.00     0.012 C 
BRANCH  23  25
HETATM   25  C2  UNL     1       4.809  35.066   0.705  1.00  0.00     0.002 C 
HETATM   26  C1  UNL     1       4.777  33.612   1.116  1.00  0.00     0.005 C 
ENDBRANCH  23  25
ENDBRANCH  22  23
BRANCH  22  27
HETATM   27  C6  UNL     1       6.256  36.506  -0.923  1.00  0.00     0.051 C 
BRANCH  27  28
HETATM   28  C7  UNL     1       6.563  37.570  -1.887  1.00  0.00     0.089 C 
BRANCH  28  29
HETATM   29  N1  UNL     1       5.453  37.841  -2.810  1.00  0.00    -0.356 N 
HETATM   30  C8  UNL     1       5.603  37.812  -4.214  1.00  0.00     0.213 C 
HETATM   31  C9  UNL     1       4.465  38.099  -5.115  1.00  0.00     0.117 C 
HETATM   32  O1  UNL     1       6.747  37.531  -4.680  1.00  0.00    -0.274 OA
ATOM     33  H1  UNL     1       4.536  38.060  -2.421  1.00  0.00     0.162 HD
ENDBRANCH  28  29
BRANCH  28  34
HETATM   34  C10 UNL     1       7.073  38.854  -1.310  1.00  0.00     0.000 C 
HETATM   35  C11 UNL     1       5.967  39.914  -1.292  1.00  0.00     0.011 C 
HETATM   36  C12 UNL     1       8.264  39.459  -1.972  1.00  0.00     0.011 C 
ENDBRANCH  28  34
ENDBRANCH  27  28
ENDBRANCH  22  27
ENDBRANCH   1  22
TORSDOF 12
ENDMDL
