MODEL 1
REMARK VINA RESULT: -6.527820434      0.000      0.000
REMARK  12 active torsions:
REMARK  status: ('A' for Active; 'I' for Inactive)
REMARK    1  A    between atoms: C2_2  and  C4_4 
REMARK    2  A    between atoms: C4_4  and  C5_5 
REMARK    3  A    between atoms: C5_5  and  N1_6 
REMARK    4  A    between atoms: C5_5  and  C11_15 
REMARK       I    between atoms: N1_6  and  C6_8 
REMARK    5  A    between atoms: C6_8  and  O2_10 
REMARK    6  A    between atoms: O2_10  and  C7_11 
REMARK       I    between atoms: C11_15  and  N2_17 
REMARK    7  A    between atoms: N2_17  and  C12_19 
REMARK    8  A    between atoms: C12_19  and  C13_20 
REMARK    9  A    between atoms: C12_19  and  C17_24 
REMARK   10  A    between atoms: C13_20  and  C14_21 
REMARK       I    between atoms: C17_24  and  N3_26 
REMARK   11  A    between atoms: C21_31  and  C22_32 
REMARK       I    between atoms: C22_32  and  N4_34 
REMARK   12  A    between atoms: N4_34  and  C23_36 
ROOT
HETATM    1  C12 UNL     1      10.120  33.443   0.955  1.00  0.00     0.177 C 
ENDROOT
BRANCH   1   2
HETATM    2  N2  UNL     1       8.763  33.496   0.332  1.00  0.00    -0.346 N 
HETATM    3  C11 UNL     1       7.901  34.566   0.673  1.00  0.00     0.241 C 
HETATM    4  O3  UNL     1       8.311  35.436   1.477  1.00  0.00    -0.271 OA
ATOM      5  H2  UNL     1       8.464  32.776  -0.326  1.00  0.00     0.163 HD
BRANCH   3   6
HETATM    6  C5  UNL     1       6.526  34.696   0.118  1.00  0.00     0.179 C 
BRANCH   6   7
HETATM    7  C4  UNL     1       5.666  33.505   0.287  1.00  0.00     0.038 C 
BRANCH   7   8
HETATM    8  C2  UNL     1       4.729  33.499   1.434  1.00  0.00    -0.020 C 
HETATM    9  C1  UNL     1       3.283  33.285   1.007  1.00  0.00     0.009 C 
HETATM   10  C3  UNL     1       5.028  32.601   2.571  1.00  0.00     0.009 C 
ENDBRANCH   7   8
ENDBRANCH   6   7
BRANCH   6  11
HETATM   11  N1  UNL     1       6.545  35.181  -1.236  1.00  0.00    -0.324 N 
HETATM   12  C6  UNL     1       5.504  36.000  -1.752  1.00  0.00     0.362 C 
HETATM   13  O1  UNL     1       4.562  36.306  -1.002  1.00  0.00    -0.238 OA
ATOM     14  H1  UNL     1       7.326  34.931  -1.842  1.00  0.00     0.165 HD
BRANCH  12  15
HETATM   15  O2  UNL     1       5.518  36.458  -3.045  1.00  0.00    -0.294 OA
BRANCH  15  16
HETATM   16  C7  UNL     1       5.923  37.755  -3.432  1.00  0.00     0.061 C 
HETATM   17  C8  UNL     1       4.813  38.498  -4.141  1.00  0.00     0.046 C 
HETATM   18  C9  UNL     1       7.024  37.573  -4.479  1.00  0.00     0.046 C 
HETATM   19  C10 UNL     1       6.467  38.587  -2.323  1.00  0.00     0.046 C 
ENDBRANCH  15  16
ENDBRANCH  12  15
ENDBRANCH   6  11
ENDBRANCH   3   6
ENDBRANCH   1   2
BRANCH   1  20
HETATM   20  C13 UNL     1      10.141  32.040   1.528  1.00  0.00     0.038 C 
BRANCH  20  21
HETATM   21  C14 UNL     1       9.810  31.873   2.949  1.00  0.00    -0.020 C 
HETATM   22  C15 UNL     1       9.631  33.118   3.753  1.00  0.00     0.009 C 
HETATM   23  C16 UNL     1       8.453  31.142   3.003  1.00  0.00     0.009 C 
ENDBRANCH  20  21
ENDBRANCH   1  20
BRANCH   1  24
HETATM   24  C17 UNL     1      11.114  33.620  -0.109  1.00  0.00     0.243 C 
HETATM   25  O4  UNL     1      11.613  32.532  -0.570  1.00  0.00    -0.271 OA
HETATM   26  N3  UNL     1      11.570  34.846  -0.668  1.00  0.00    -0.333 N 
HETATM   27  C18 UNL     1      12.629  34.789  -1.655  1.00  0.00     0.153 C 
HETATM   28  C21 UNL     1      11.008  36.131  -0.325  1.00  0.00     0.203 C 
HETATM   29  C19 UNL     1      13.661  35.812  -1.211  1.00  0.00     0.187 C 
HETATM   30  O5  UNL     1      13.383  36.335   0.036  1.00  0.00    -0.387 OA
HETATM   31  C20 UNL     1      12.192  37.007   0.156  1.00  0.00     0.202 C 
BRANCH  28  32
HETATM   32  C22 UNL     1      10.439  36.892  -1.459  1.00  0.00     0.243 C 
HETATM   33  O6  UNL     1       9.385  36.587  -2.062  1.00  0.00    -0.271 OA
HETATM   34  N4  UNL     1      11.116  38.054  -1.913  1.00  0.00    -0.355 N 
ATOM     35  H4  UNL     1      11.969  38.335  -1.431  1.00  0.00     0.162 HD
BRANCH  34  36
HETATM   36  C23 UNL     1      10.663  38.861  -3.021  1.00  0.00     0.076 C 
HETATM   37  C24 UNL     1      11.712  39.101  -4.047  1.00  0.00     0.032 C 
HETATM   38  C25 UNL     1      10.039  40.176  -2.599  1.00  0.00     0.032 C 
ENDBRANCH  34  36
ENDBRANCH  28  32
ENDBRANCH   1  24
TORSDOF 12
ENDMDL
MODEL 2
REMARK VINA RESULT: -6.441082595      2.228      6.935
REMARK  12 active torsions:
REMARK  status: ('A' for Active; 'I' for Inactive)
REMARK    1  A    between atoms: C2_2  and  C4_4 
REMARK    2  A    between atoms: C4_4  and  C5_5 
REMARK    3  A    between atoms: C5_5  and  N1_6 
REMARK    4  A    between atoms: C5_5  and  C11_15 
REMARK       I    between atoms: N1_6  and  C6_8 
REMARK    5  A    between atoms: C6_8  and  O2_10 
REMARK    6  A    between atoms: O2_10  and  C7_11 
REMARK       I    between atoms: C11_15  and  N2_17 
REMARK    7  A    between atoms: N2_17  and  C12_19 
REMARK    8  A    between atoms: C12_19  and  C13_20 
REMARK    9  A    between atoms: C12_19  and  C17_24 
REMARK   10  A    between atoms: C13_20  and  C14_21 
REMARK       I    between atoms: C17_24  and  N3_26 
REMARK   11  A    between atoms: C21_31  and  C22_32 
REMARK       I    between atoms: C22_32  and  N4_34 
REMARK   12  A    between atoms: N4_34  and  C23_36 
ROOT
HETATM    1  C12 UNL     1       7.019  34.850   0.739  1.00  0.00     0.177 C 
ENDROOT
BRANCH   1   2
HETATM    2  N2  UNL     1       8.240  34.221   1.329  1.00  0.00    -0.346 N 
HETATM    3  C11 UNL     1       9.204  33.663   0.455  1.00  0.00     0.241 C 
HETATM    4  O3  UNL     1       9.006  33.728  -0.780  1.00  0.00    -0.271 OA
ATOM      5  H2  UNL     1       8.375  34.194   2.339  1.00  0.00     0.163 HD
BRANCH   3   6
HETATM    6  C5  UNL     1      10.444  33.001   0.948  1.00  0.00     0.179 C 
BRANCH   6   7
HETATM    7  C4  UNL     1      11.487  32.781  -0.076  1.00  0.00     0.038 C 
BRANCH   7   8
HETATM    8  C2  UNL     1      12.790  33.458   0.123  1.00  0.00    -0.020 C 
HETATM    9  C1  UNL     1      12.636  34.933   0.468  1.00  0.00     0.009 C 
HETATM   10  C3  UNL     1      13.754  32.846   1.064  1.00  0.00     0.009 C 
ENDBRANCH   7   8
ENDBRANCH   6   7
BRANCH   6  11
HETATM   11  N1  UNL     1      10.145  31.813   1.701  1.00  0.00    -0.324 N 
HETATM   12  C6  UNL     1      10.020  31.837   3.118  1.00  0.00     0.362 C 
HETATM   13  O1  UNL     1      10.166  32.919   3.709  1.00  0.00    -0.238 OA
ATOM     14  H1  UNL     1      10.019  30.930   1.207  1.00  0.00     0.165 HD
BRANCH  12  15
HETATM   15  O2  UNL     1       9.742  30.702   3.837  1.00  0.00    -0.294 OA
BRANCH  15  16
HETATM   16  C7  UNL     1      10.703  29.740   4.221  1.00  0.00     0.061 C 
HETATM   17  C8  UNL     1      12.103  30.166   3.840  1.00  0.00     0.046 C 
HETATM   18  C9  UNL     1      10.420  28.487   3.390  1.00  0.00     0.046 C 
HETATM   19  C10 UNL     1      10.658  29.365   5.662  1.00  0.00     0.046 C 
ENDBRANCH  15  16
ENDBRANCH  12  15
ENDBRANCH   6  11
ENDBRANCH   3   6
ENDBRANCH   1   2
BRANCH   1  20
HETATM   20  C13 UNL     1       5.946  34.417   1.719  1.00  0.00     0.038 C 
BRANCH  20  21
HETATM   21  C14 UNL     1       5.391  33.064   1.577  1.00  0.00    -0.020 C 
HETATM   22  C15 UNL     1       5.515  32.155   2.755  1.00  0.00     0.009 C 
HETATM   23  C16 UNL     1       3.877  33.231   1.336  1.00  0.00     0.009 C 
ENDBRANCH  20  21
ENDBRANCH   1  20
BRANCH   1  24
HETATM   24  C17 UNL     1       7.214  36.303   0.741  1.00  0.00     0.243 C 
HETATM   25  O4  UNL     1       7.260  36.843   1.904  1.00  0.00    -0.271 OA
HETATM   26  N3  UNL     1       7.352  37.156  -0.390  1.00  0.00    -0.333 N 
HETATM   27  C18 UNL     1       7.447  38.583  -0.156  1.00  0.00     0.153 C 
HETATM   28  C21 UNL     1       7.436  36.667  -1.745  1.00  0.00     0.203 C 
HETATM   29  C19 UNL     1       6.445  39.222  -1.102  1.00  0.00     0.187 C 
HETATM   30  O5  UNL     1       5.653  38.290  -1.741  1.00  0.00    -0.387 OA
HETATM   31  C20 UNL     1       6.310  37.382  -2.533  1.00  0.00     0.202 C 
BRANCH  28  32
HETATM   32  C22 UNL     1       8.669  37.036  -2.473  1.00  0.00     0.243 C 
HETATM   33  O6  UNL     1       8.737  37.928  -3.350  1.00  0.00    -0.271 OA
HETATM   34  N4  UNL     1       9.874  36.346  -2.176  1.00  0.00    -0.355 N 
ATOM     35  H4  UNL     1       9.851  35.625  -1.455  1.00  0.00     0.162 HD
BRANCH  34  36
HETATM   36  C23 UNL     1      11.129  36.609  -2.837  1.00  0.00     0.076 C 
HETATM   37  C24 UNL     1      11.887  35.377  -3.182  1.00  0.00     0.032 C 
HETATM   38  C25 UNL     1      12.023  37.574  -2.083  1.00  0.00     0.032 C 
ENDBRANCH  34  36
ENDBRANCH  28  32
ENDBRANCH   1  24
TORSDOF 12
ENDMDL
MODEL 3
REMARK VINA RESULT: -6.427873374      2.690      7.017
REMARK  12 active torsions:
REMARK  status: ('A' for Active; 'I' for Inactive)
REMARK    1  A    between atoms: C2_2  and  C4_4 
REMARK    2  A    between atoms: C4_4  and  C5_5 
REMARK    3  A    between atoms: C5_5  and  N1_6 
REMARK    4  A    between atoms: C5_5  and  C11_15 
REMARK       I    between atoms: N1_6  and  C6_8 
REMARK    5  A    between atoms: C6_8  and  O2_10 
REMARK    6  A    between atoms: O2_10  and  C7_11 
REMARK       I    between atoms: C11_15  and  N2_17 
REMARK    7  A    between atoms: N2_17  and  C12_19 
REMARK    8  A    between atoms: C12_19  and  C13_20 
REMARK    9  A    between atoms: C12_19  and  C17_24 
REMARK   10  A    between atoms: C13_20  and  C14_21 
REMARK       I    between atoms: C17_24  and  N3_26 
REMARK   11  A    between atoms: C21_31  and  C22_32 
REMARK       I    between atoms: C22_32  and  N4_34 
REMARK   12  A    between atoms: N4_34  and  C23_36 
ROOT
HETATM    1  C12 UNL     1      12.614  34.577   0.418  1.00  0.00     0.177 C 
ENDROOT
BRANCH   1   2
HETATM    2  N2  UNL     1      11.834  33.456   1.024  1.00  0.00    -0.346 N 
HETATM    3  C11 UNL     1      11.123  33.696   2.225  1.00  0.00     0.241 C 
HETATM    4  O3  UNL     1      11.164  34.842   2.730  1.00  0.00    -0.271 OA
ATOM      5  H2  UNL     1      11.814  32.537   0.582  1.00  0.00     0.163 HD
BRANCH   3   6
HETATM    6  C5  UNL     1      10.331  32.638   2.913  1.00  0.00     0.179 C 
BRANCH   6   7
HETATM    7  C4  UNL     1       9.201  33.131   3.729  1.00  0.00     0.038 C 
BRANCH   7   8
HETATM    8  C2  UNL     1       7.869  32.536   3.476  1.00  0.00    -0.020 C 
HETATM    9  C1  UNL     1       6.958  33.458   2.676  1.00  0.00     0.009 C 
HETATM   10  C3  UNL     1       7.814  31.181   2.885  1.00  0.00     0.009 C 
ENDBRANCH   7   8
ENDBRANCH   6   7
BRANCH   6  11
HETATM   11  N1  UNL     1      11.180  31.725   3.631  1.00  0.00    -0.324 N 
HETATM   12  C6  UNL     1      11.652  30.521   3.040  1.00  0.00     0.362 C 
HETATM   13  O1  UNL     1      11.324  30.265   1.870  1.00  0.00    -0.238 OA
ATOM     14  H1  UNL     1      11.450  31.948   4.589  1.00  0.00     0.165 HD
BRANCH  12  15
HETATM   15  O2  UNL     1      12.455  29.646   3.727  1.00  0.00    -0.294 OA
BRANCH  15  16
HETATM   16  C7  UNL     1      12.119  29.050   4.963  1.00  0.00     0.061 C 
HETATM   17  C8  UNL     1      12.468  29.946   6.129  1.00  0.00     0.046 C 
HETATM   18  C9  UNL     1      13.018  27.820   5.112  1.00  0.00     0.046 C 
HETATM   19  C10 UNL     1      10.701  28.606   5.067  1.00  0.00     0.046 C 
ENDBRANCH  15  16
ENDBRANCH  12  15
ENDBRANCH   6  11
ENDBRANCH   3   6
ENDBRANCH   1   2
BRANCH   1  20
HETATM   20  C13 UNL     1      14.014  33.998   0.390  1.00  0.00     0.038 C 
BRANCH  20  21
HETATM   21  C14 UNL     1      15.122  34.854   0.834  1.00  0.00    -0.020 C 
HETATM   22  C15 UNL     1      14.758  36.130   1.519  1.00  0.00     0.009 C 
HETATM   23  C16 UNL     1      15.923  34.039   1.869  1.00  0.00     0.009 C 
ENDBRANCH  20  21
ENDBRANCH   1  20
BRANCH   1  24
HETATM   24  C17 UNL     1      12.088  34.817  -0.929  1.00  0.00     0.243 C 
HETATM   25  O4  UNL     1      12.822  34.373  -1.884  1.00  0.00    -0.271 OA
HETATM   26  N3  UNL     1      10.877  35.478  -1.278  1.00  0.00    -0.333 N 
HETATM   27  C18 UNL     1      10.596  35.682  -2.685  1.00  0.00     0.153 C 
HETATM   28  C21 UNL     1       9.907  35.918  -0.305  1.00  0.00     0.203 C 
HETATM   29  C19 UNL     1      10.215  37.147  -2.819  1.00  0.00     0.187 C 
HETATM   30  O5  UNL     1      10.414  37.853  -1.650  1.00  0.00    -0.387 OA
HETATM   31  C20 UNL     1       9.695  37.432  -0.560  1.00  0.00     0.202 C 
BRANCH  28  32
HETATM   32  C22 UNL     1       8.555  35.339  -0.456  1.00  0.00     0.243 C 
HETATM   33  O6  UNL     1       8.304  34.112  -0.463  1.00  0.00    -0.271 OA
HETATM   34  N4  UNL     1       7.446  36.213  -0.603  1.00  0.00    -0.355 N 
ATOM     35  H4  UNL     1       7.618  37.218  -0.585  1.00  0.00     0.162 HD
BRANCH  34  36
HETATM   36  C23 UNL     1       6.087  35.759  -0.777  1.00  0.00     0.076 C 
HETATM   37  C24 UNL     1       5.476  36.194  -2.060  1.00  0.00     0.032 C 
HETATM   38  C25 UNL     1       5.175  36.114   0.380  1.00  0.00     0.032 C 
ENDBRANCH  34  36
ENDBRANCH  28  32
ENDBRANCH   1  24
TORSDOF 12
ENDMDL
MODEL 4
REMARK VINA RESULT: -6.388169478      2.390      6.886
REMARK  12 active torsions:
REMARK  status: ('A' for Active; 'I' for Inactive)
REMARK    1  A    between atoms: C2_2  and  C4_4 
REMARK    2  A    between atoms: C4_4  and  C5_5 
REMARK    3  A    between atoms: C5_5  and  N1_6 
REMARK    4  A    between atoms: C5_5  and  C11_15 
REMARK       I    between atoms: N1_6  and  C6_8 
REMARK    5  A    between atoms: C6_8  and  O2_10 
REMARK    6  A    between atoms: O2_10  and  C7_11 
REMARK       I    between atoms: C11_15  and  N2_17 
REMARK    7  A    between atoms: N2_17  and  C12_19 
REMARK    8  A    between atoms: C12_19  and  C13_20 
REMARK    9  A    between atoms: C12_19  and  C17_24 
REMARK   10  A    between atoms: C13_20  and  C14_21 
REMARK       I    between atoms: C17_24  and  N3_26 
REMARK   11  A    between atoms: C21_31  and  C22_32 
REMARK       I    between atoms: C22_32  and  N4_34 
REMARK   12  A    between atoms: N4_34  and  C23_36 
ROOT
HETATM    1  C12 UNL     1       7.189  35.005   1.275  1.00  0.00     0.177 C 
ENDROOT
BRANCH   1   2
HETATM    2  N2  UNL     1       8.461  34.328   1.672  1.00  0.00    -0.346 N 
HETATM    3  C11 UNL     1       9.062  33.426   0.761  1.00  0.00     0.241 C 
HETATM    4  O3  UNL     1       8.513  33.237  -0.350  1.00  0.00    -0.271 OA
ATOM      5  H2  UNL     1       8.886  34.512   2.580  1.00  0.00     0.163 HD
BRANCH   3   6
HETATM    6  C5  UNL     1      10.319  32.692   1.072  1.00  0.00     0.179 C 
BRANCH   6   7
HETATM    7  C4  UNL     1      11.163  32.368  -0.098  1.00  0.00     0.038 C 
BRANCH   7   8
HETATM    8  C2  UNL     1      12.540  32.913  -0.116  1.00  0.00    -0.020 C 
HETATM    9  C1  UNL     1      12.630  34.254  -0.831  1.00  0.00     0.009 C 
HETATM   10  C3  UNL     1      13.267  33.009   1.170  1.00  0.00     0.009 C 
ENDBRANCH   7   8
ENDBRANCH   6   7
BRANCH   6  11
HETATM   11  N1  UNL     1      10.072  31.551   1.912  1.00  0.00    -0.324 N 
HETATM   12  C6  UNL     1      10.031  31.660   3.330  1.00  0.00     0.362 C 
HETATM   13  O1  UNL     1      10.208  32.777   3.845  1.00  0.00    -0.238 OA
ATOM     14  H1  UNL     1       9.920  30.640   1.480  1.00  0.00     0.165 HD
BRANCH  12  15
HETATM   15  O2  UNL     1       9.802  30.571   4.132  1.00  0.00    -0.294 OA
BRANCH  15  16
HETATM   16  C7  UNL     1      10.772  29.598   4.460  1.00  0.00     0.061 C 
HETATM   17  C8  UNL     1      12.168  30.059   4.105  1.00  0.00     0.046 C 
HETATM   18  C9  UNL     1      10.501  28.392   3.558  1.00  0.00     0.046 C 
HETATM   19  C10 UNL     1      10.730  29.140   5.876  1.00  0.00     0.046 C 
ENDBRANCH  15  16
ENDBRANCH  12  15
ENDBRANCH   6  11
ENDBRANCH   3   6
ENDBRANCH   1   2
BRANCH   1  20
HETATM   20  C13 UNL     1       6.284  34.669   2.443  1.00  0.00     0.038 C 
BRANCH  20  21
HETATM   21  C14 UNL     1       5.347  33.548   2.286  1.00  0.00    -0.020 C 
HETATM   22  C15 UNL     1       4.981  33.162   0.891  1.00  0.00     0.009 C 
HETATM   23  C16 UNL     1       6.034  32.309   2.895  1.00  0.00     0.009 C 
ENDBRANCH  20  21
ENDBRANCH   1  20
BRANCH   1  24
HETATM   24  C17 UNL     1       7.454  36.444   1.178  1.00  0.00     0.243 C 
HETATM   25  O4  UNL     1       7.352  37.089   2.283  1.00  0.00    -0.271 OA
HETATM   26  N3  UNL     1       7.803  37.181   0.011  1.00  0.00    -0.333 N 
HETATM   27  C18 UNL     1       7.933  38.619   0.131  1.00  0.00     0.153 C 
HETATM   28  C21 UNL     1       8.065  36.563  -1.266  1.00  0.00     0.203 C 
HETATM   29  C19 UNL     1       7.118  39.201  -1.011  1.00  0.00     0.187 C 
HETATM   30  O5  UNL     1       6.385  38.242  -1.680  1.00  0.00    -0.387 OA
HETATM   31  C20 UNL     1       7.107  37.240  -2.278  1.00  0.00     0.202 C 
BRANCH  28  32
HETATM   32  C22 UNL     1       9.411  36.816  -1.825  1.00  0.00     0.243 C 
HETATM   33  O6  UNL     1      10.437  37.027  -1.138  1.00  0.00    -0.271 OA
HETATM   34  N4  UNL     1       9.578  36.826  -3.235  1.00  0.00    -0.355 N 
ATOM     35  H4  UNL     1       8.762  36.642  -3.818  1.00  0.00     0.162 HD
BRANCH  34  36
HETATM   36  C23 UNL     1      10.839  37.081  -3.888  1.00  0.00     0.076 C 
HETATM   37  C24 UNL     1      10.766  38.147  -4.922  1.00  0.00     0.032 C 
HETATM   38  C25 UNL     1      11.486  35.839  -4.468  1.00  0.00     0.032 C 
ENDBRANCH  34  36
ENDBRANCH  28  32
ENDBRANCH   1  24
TORSDOF 12
ENDMDL
MODEL 5
REMARK VINA RESULT: -6.383131655      1.054      1.502
REMARK  12 active torsions:
REMARK  status: ('A' for Active; 'I' for Inactive)
REMARK    1  A    between atoms: C2_2  and  C4_4 
REMARK    2  A    between atoms: C4_4  and  C5_5 
REMARK    3  A    between atoms: C5_5  and  N1_6 
REMARK    4  A    between atoms: C5_5  and  C11_15 
REMARK       I    between atoms: N1_6  and  C6_8 
REMARK    5  A    between atoms: C6_8  and  O2_10 
REMARK    6  A    between atoms: O2_10  and  C7_11 
REMARK       I    between atoms: C11_15  and  N2_17 
REMARK    7  A    between atoms: N2_17  and  C12_19 
REMARK    8  A    between atoms: C12_19  and  C13_20 
REMARK    9  A    between atoms: C12_19  and  C17_24 
REMARK   10  A    between atoms: C13_20  and  C14_21 
REMARK       I    between atoms: C17_24  and  N3_26 
REMARK   11  A    between atoms: C21_31  and  C22_32 
REMARK       I    between atoms: C22_32  and  N4_34 
REMARK   12  A    between atoms: N4_34  and  C23_36 
ROOT
HETATM    1  C12 UNL     1      10.213  33.453   1.301  1.00  0.00     0.177 C 
ENDROOT
BRANCH   1   2
HETATM    2  N2  UNL     1       8.834  33.421   0.726  1.00  0.00    -0.346 N 
HETATM    3  C11 UNL     1       8.070  34.613   0.730  1.00  0.00     0.241 C 
HETATM    4  O3  UNL     1       8.582  35.654   1.205  1.00  0.00    -0.271 OA
ATOM      5  H2  UNL     1       8.451  32.559   0.339  1.00  0.00     0.163 HD
BRANCH   3   6
HETATM    6  C5  UNL     1       6.681  34.678   0.196  1.00  0.00     0.179 C 
BRANCH   6   7
HETATM    7  C4  UNL     1       5.873  33.457   0.401  1.00  0.00     0.038 C 
BRANCH   7   8
HETATM    8  C2  UNL     1       4.863  33.483   1.483  1.00  0.00    -0.020 C 
HETATM    9  C1  UNL     1       3.442  33.316   0.962  1.00  0.00     0.009 C 
HETATM   10  C3  UNL     1       5.056  32.576   2.637  1.00  0.00     0.009 C 
ENDBRANCH   7   8
ENDBRANCH   6   7
BRANCH   6  11
HETATM   11  N1  UNL     1       6.659  35.137  -1.166  1.00  0.00    -0.324 N 
HETATM   12  C6  UNL     1       5.539  35.827  -1.705  1.00  0.00     0.362 C 
HETATM   13  O1  UNL     1       4.562  36.040  -0.968  1.00  0.00    -0.238 OA
ATOM     14  H1  UNL     1       7.469  34.964  -1.762  1.00  0.00     0.165 HD
BRANCH  12  15
HETATM   15  O2  UNL     1       5.515  36.260  -3.007  1.00  0.00    -0.294 OA
BRANCH  15  16
HETATM   16  C7  UNL     1       5.761  37.590  -3.414  1.00  0.00     0.061 C 
HETATM   17  C8  UNL     1       4.836  38.013  -4.533  1.00  0.00     0.046 C 
HETATM   18  C9  UNL     1       7.166  37.606  -4.021  1.00  0.00     0.046 C 
HETATM   19  C10 UNL     1       5.718  38.590  -2.311  1.00  0.00     0.046 C 
ENDBRANCH  15  16
ENDBRANCH  12  15
ENDBRANCH   6  11
ENDBRANCH   3   6
ENDBRANCH   1   2
BRANCH   1  20
HETATM   20  C13 UNL     1      10.316  32.078   1.930  1.00  0.00     0.038 C 
BRANCH  20  21
HETATM   21  C14 UNL     1       9.825  31.912   3.305  1.00  0.00    -0.020 C 
HETATM   22  C15 UNL     1       8.431  31.402   3.468  1.00  0.00     0.009 C 
HETATM   23  C16 UNL     1      10.735  30.862   3.974  1.00  0.00     0.009 C 
ENDBRANCH  20  21
ENDBRANCH   1  20
BRANCH   1  24
HETATM   24  C17 UNL     1      11.160  33.627   0.195  1.00  0.00     0.243 C 
HETATM   25  O4  UNL     1      11.134  32.699  -0.691  1.00  0.00    -0.271 OA
HETATM   26  N3  UNL     1      12.083  34.693   0.009  1.00  0.00    -0.333 N 
HETATM   27  C18 UNL     1      12.991  34.616  -1.117  1.00  0.00     0.153 C 
HETATM   28  C21 UNL     1      12.133  35.855   0.864  1.00  0.00     0.203 C 
HETATM   29  C19 UNL     1      14.372  34.904  -0.552  1.00  0.00     0.187 C 
HETATM   30  O5  UNL     1      14.375  34.970   0.826  1.00  0.00    -0.387 OA
HETATM   31  C20 UNL     1      13.589  35.947   1.384  1.00  0.00     0.202 C 
BRANCH  28  32
HETATM   32  C22 UNL     1      11.917  37.150   0.181  1.00  0.00     0.243 C 
HETATM   33  O6  UNL     1      12.790  38.037   0.049  1.00  0.00    -0.271 OA
HETATM   34  N4  UNL     1      10.639  37.429  -0.371  1.00  0.00    -0.355 N 
ATOM     35  H4  UNL     1       9.913  36.718  -0.291  1.00  0.00     0.162 HD
BRANCH  34  36
HETATM   36  C23 UNL     1      10.311  38.665  -1.040  1.00  0.00     0.076 C 
HETATM   37  C24 UNL     1       8.981  39.210  -0.661  1.00  0.00     0.032 C 
HETATM   38  C25 UNL     1      10.430  38.589  -2.550  1.00  0.00     0.032 C 
ENDBRANCH  34  36
ENDBRANCH  28  32
ENDBRANCH   1  24
TORSDOF 12
ENDMDL
