MODEL 1
REMARK VINA RESULT: -6.499515396      0.000      0.000
REMARK  10 active torsions:
REMARK  status: ('A' for Active; 'I' for Inactive)
REMARK    1  A    between atoms: C2_2  and  C3_3 
REMARK    2  A    between atoms: C3_3  and  C5_5 
REMARK    3  A    between atoms: C5_5  and  N1_6 
REMARK    4  A    between atoms: C5_5  and  C12_16 
REMARK       I    between atoms: N1_6  and  C6_8 
REMARK    5  A    between atoms: C6_8  and  O2_10 
REMARK    6  A    between atoms: O2_10  and  C7_11 
REMARK       I    between atoms: C12_16  and  N2_18 
REMARK    7  A    between atoms: N2_18  and  C13_20 
REMARK    8  A    between atoms: C13_20  and  C15_22 
REMARK    9  A    between atoms: C15_22  and  C17_24 
REMARK       I    between atoms: C17_24  and  N3_26 
REMARK   10  A    between atoms: N3_26  and  C18_28 
ROOT
HETATM    1  C5  UNL     1      69.211  53.511  -0.003  1.00  0.00     0.182 C 
ENDROOT
BRANCH   1   2
HETATM    2  C3  UNL     1      69.049  52.103  -0.531  1.00  0.00     0.013 C 
HETATM    3  C4  UNL     1      68.603  51.157   0.561  1.00  0.00     0.012 C 
BRANCH   2   4
HETATM    4  C2  UNL     1      68.075  52.027  -1.673  1.00  0.00     0.002 C 
HETATM    5  C1  UNL     1      68.286  50.703  -2.375  1.00  0.00     0.005 C 
ENDBRANCH   2   4
ENDBRANCH   1   2
BRANCH   1   6
HETATM    6  N1  UNL     1      68.966  54.499  -1.034  1.00  0.00    -0.323 N 
HETATM    7  C6  UNL     1      68.406  55.773  -0.784  1.00  0.00     0.361 C 
HETATM    8  O1  UNL     1      68.077  56.136   0.383  1.00  0.00    -0.238 OA
ATOM      9  H1  UNL     1      69.212  54.261  -1.996  1.00  0.00     0.165 HD
BRANCH   7  10
HETATM   10  O2  UNL     1      68.208  56.647  -1.816  1.00  0.00    -0.299 OA
BRANCH  10  11
HETATM   11  C7  UNL     1      66.994  56.894  -2.459  1.00  0.00     0.133 C 
HETATM   12  C8  UNL     1      66.960  58.255  -3.139  1.00  0.00     0.032 C 
HETATM   13  C9  UNL     1      66.914  57.979  -4.625  1.00  0.00     0.002 C 
HETATM   14  C10 UNL     1      66.144  56.663  -4.668  1.00  0.00     0.002 C 
HETATM   15  C11 UNL     1      66.860  55.877  -3.584  1.00  0.00     0.032 C 
ENDBRANCH  10  11
ENDBRANCH   7  10
ENDBRANCH   1   6
BRANCH   1  16
HETATM   16  C12 UNL     1      70.559  53.677   0.582  1.00  0.00     0.241 C 
HETATM   17  O3  UNL     1      70.665  54.206   1.710  1.00  0.00    -0.271 OA
HETATM   18  N2  UNL     1      71.732  53.259  -0.087  1.00  0.00    -0.354 N 
ATOM     19  H2  UNL     1      71.646  52.826  -1.007  1.00  0.00     0.162 HD
BRANCH  18  20
HETATM   20  C13 UNL     1      73.048  53.421   0.486  1.00  0.00     0.093 C 
HETATM   21  C14 UNL     1      74.011  54.056  -0.466  1.00  0.00     0.033 C 
BRANCH  20  22
HETATM   22  C15 UNL     1      73.576  52.067   0.902  1.00  0.00     0.096 C 
HETATM   23  C16 UNL     1      74.926  52.310   1.552  1.00  0.00     0.022 C 
BRANCH  22  24
HETATM   24  C17 UNL     1      73.817  51.258  -0.309  1.00  0.00     0.229 C 
HETATM   25  O4  UNL     1      72.842  50.866  -0.989  1.00  0.00    -0.273 OA
HETATM   26  N3  UNL     1      75.150  50.935  -0.684  1.00  0.00    -0.305 N 
ATOM     27  H3  UNL     1      75.937  51.260  -0.122  1.00  0.00     0.171 HD
BRANCH  26  28
HETATM   28  C18 UNL     1      75.373  50.163  -1.841  1.00  0.00     0.355 C 
HETATM   29  O5  UNL     1      75.756  50.713  -2.895  1.00  0.00    -0.283 OA
ENDBRANCH  26  28
ENDBRANCH  22  24
ENDBRANCH  20  22
ENDBRANCH  18  20
ENDBRANCH   1  16
TORSDOF 10
ENDMDL
MODEL 2
REMARK VINA RESULT: -6.401499897      2.069      3.008
REMARK  10 active torsions:
REMARK  status: ('A' for Active; 'I' for Inactive)
REMARK    1  A    between atoms: C2_2  and  C3_3 
REMARK    2  A    between atoms: C3_3  and  C5_5 
REMARK    3  A    between atoms: C5_5  and  N1_6 
REMARK    4  A    between atoms: C5_5  and  C12_16 
REMARK       I    between atoms: N1_6  and  C6_8 
REMARK    5  A    between atoms: C6_8  and  O2_10 
REMARK    6  A    between atoms: O2_10  and  C7_11 
REMARK       I    between atoms: C12_16  and  N2_18 
REMARK    7  A    between atoms: N2_18  and  C13_20 
REMARK    8  A    between atoms: C13_20  and  C15_22 
REMARK    9  A    between atoms: C15_22  and  C17_24 
REMARK       I    between atoms: C17_24  and  N3_26 
REMARK   10  A    between atoms: N3_26  and  C18_28 
ROOT
HETATM    1  C5  UNL     1      69.236  53.526   0.164  1.00  0.00     0.182 C 
ENDROOT
BRANCH   1   2
HETATM    2  C3  UNL     1      69.150  52.097  -0.326  1.00  0.00     0.013 C 
HETATM    3  C4  UNL     1      68.666  51.171   0.767  1.00  0.00     0.012 C 
BRANCH   2   4
HETATM    4  C2  UNL     1      68.252  51.954  -1.523  1.00  0.00     0.002 C 
HETATM    5  C1  UNL     1      68.505  50.591  -2.131  1.00  0.00     0.005 C 
ENDBRANCH   2   4
ENDBRANCH   1   2
BRANCH   1   6
HETATM    6  N1  UNL     1      69.001  54.472  -0.908  1.00  0.00    -0.323 N 
HETATM    7  C6  UNL     1      68.416  55.745  -0.717  1.00  0.00     0.361 C 
HETATM    8  O1  UNL     1      68.053  56.144   0.427  1.00  0.00    -0.238 OA
ATOM      9  H1  UNL     1      69.274  54.204  -1.854  1.00  0.00     0.165 HD
BRANCH   7  10
HETATM   10  O2  UNL     1      68.230  56.578  -1.785  1.00  0.00    -0.299 OA
BRANCH  10  11
HETATM   11  C7  UNL     1      67.016  56.830  -2.426  1.00  0.00     0.133 C 
HETATM   12  C8  UNL     1      66.982  58.196  -3.095  1.00  0.00     0.032 C 
HETATM   13  C9  UNL     1      66.936  57.933  -4.583  1.00  0.00     0.002 C 
HETATM   14  C10 UNL     1      66.166  56.617  -4.637  1.00  0.00     0.002 C 
HETATM   15  C11 UNL     1      66.883  55.822  -3.560  1.00  0.00     0.032 C 
ENDBRANCH  10  11
ENDBRANCH   7  10
ENDBRANCH   1   6
BRANCH   1  16
HETATM   16  C12 UNL     1      70.549  53.761   0.802  1.00  0.00     0.241 C 
HETATM   17  O3  UNL     1      70.602  54.478   1.825  1.00  0.00    -0.271 OA
HETATM   18  N2  UNL     1      71.746  53.204   0.299  1.00  0.00    -0.354 N 
ATOM     19  H2  UNL     1      71.704  52.618  -0.536  1.00  0.00     0.162 HD
BRANCH  18  20
HETATM   20  C13 UNL     1      73.028  53.434   0.924  1.00  0.00     0.093 C 
HETATM   21  C14 UNL     1      74.062  53.908  -0.049  1.00  0.00     0.033 C 
BRANCH  20  22
HETATM   22  C15 UNL     1      73.501  52.152   1.568  1.00  0.00     0.096 C 
HETATM   23  C16 UNL     1      72.696  51.029   0.939  1.00  0.00     0.022 C 
BRANCH  22  24
HETATM   24  C17 UNL     1      73.153  52.183   3.002  1.00  0.00     0.229 C 
HETATM   25  O4  UNL     1      73.026  51.105   3.626  1.00  0.00    -0.273 OA
HETATM   26  N3  UNL     1      72.968  53.433   3.654  1.00  0.00    -0.305 N 
ATOM     27  H3  UNL     1      73.074  54.306   3.135  1.00  0.00     0.171 HD
BRANCH  26  28
HETATM   28  C18 UNL     1      72.637  53.455   5.023  1.00  0.00     0.355 C 
HETATM   29  O5  UNL     1      71.758  54.238   5.440  1.00  0.00    -0.283 OA
ENDBRANCH  26  28
ENDBRANCH  22  24
ENDBRANCH  20  22
ENDBRANCH  18  20
ENDBRANCH   1  16
TORSDOF 10
ENDMDL
MODEL 3
REMARK VINA RESULT: -6.348946926      1.723      2.085
REMARK  10 active torsions:
REMARK  status: ('A' for Active; 'I' for Inactive)
REMARK    1  A    between atoms: C2_2  and  C3_3 
REMARK    2  A    between atoms: C3_3  and  C5_5 
REMARK    3  A    between atoms: C5_5  and  N1_6 
REMARK    4  A    between atoms: C5_5  and  C12_16 
REMARK       I    between atoms: N1_6  and  C6_8 
REMARK    5  A    between atoms: C6_8  and  O2_10 
REMARK    6  A    between atoms: O2_10  and  C7_11 
REMARK       I    between atoms: C12_16  and  N2_18 
REMARK    7  A    between atoms: N2_18  and  C13_20 
REMARK    8  A    between atoms: C13_20  and  C15_22 
REMARK    9  A    between atoms: C15_22  and  C17_24 
REMARK       I    between atoms: C17_24  and  N3_26 
REMARK   10  A    between atoms: N3_26  and  C18_28 
ROOT
HETATM    1  C5  UNL     1      69.232  53.496   0.123  1.00  0.00     0.182 C 
ENDROOT
BRANCH   1   2
HETATM    2  C3  UNL     1      69.110  52.069  -0.365  1.00  0.00     0.013 C 
HETATM    3  C4  UNL     1      68.664  51.147   0.747  1.00  0.00     0.012 C 
BRANCH   2   4
HETATM    4  C2  UNL     1      68.161  51.937  -1.522  1.00  0.00     0.002 C 
HETATM    5  C1  UNL     1      68.474  50.638  -2.233  1.00  0.00     0.005 C 
ENDBRANCH   2   4
ENDBRANCH   1   2
BRANCH   1   6
HETATM    6  N1  UNL     1      68.983  54.447  -0.942  1.00  0.00    -0.323 N 
HETATM    7  C6  UNL     1      68.444  55.737  -0.733  1.00  0.00     0.361 C 
HETATM    8  O1  UNL     1      68.139  56.150   0.424  1.00  0.00    -0.238 OA
ATOM      9  H1  UNL     1      69.209  54.169  -1.898  1.00  0.00     0.165 HD
BRANCH   7  10
HETATM   10  O2  UNL     1      68.241  56.573  -1.795  1.00  0.00    -0.299 OA
BRANCH  10  11
HETATM   11  C7  UNL     1      67.016  56.824  -2.417  1.00  0.00     0.133 C 
HETATM   12  C8  UNL     1      66.971  58.190  -3.085  1.00  0.00     0.032 C 
HETATM   13  C9  UNL     1      66.902  57.928  -4.572  1.00  0.00     0.002 C 
HETATM   14  C10 UNL     1      66.134  56.611  -4.615  1.00  0.00     0.002 C 
HETATM   15  C11 UNL     1      66.867  55.816  -3.549  1.00  0.00     0.032 C 
ENDBRANCH  10  11
ENDBRANCH   7  10
ENDBRANCH   1   6
BRANCH   1  16
HETATM   16  C12 UNL     1      70.565  53.710   0.724  1.00  0.00     0.241 C 
HETATM   17  O3  UNL     1      70.646  54.341   1.802  1.00  0.00    -0.271 OA
HETATM   18  N2  UNL     1      71.752  53.228   0.128  1.00  0.00    -0.354 N 
ATOM     19  H2  UNL     1      71.688  52.714  -0.750  1.00  0.00     0.162 HD
BRANCH  18  20
HETATM   20  C13 UNL     1      73.054  53.438   0.718  1.00  0.00     0.093 C 
HETATM   21  C14 UNL     1      73.890  54.399  -0.068  1.00  0.00     0.033 C 
BRANCH  20  22
HETATM   22  C15 UNL     1      73.774  52.112   0.811  1.00  0.00     0.096 C 
HETATM   23  C16 UNL     1      73.795  51.532  -0.591  1.00  0.00     0.022 C 
BRANCH  22  24
HETATM   24  C17 UNL     1      72.976  51.195   1.648  1.00  0.00     0.229 C 
HETATM   25  O4  UNL     1      72.595  51.572   2.780  1.00  0.00    -0.273 OA
HETATM   26  N3  UNL     1      72.651  49.900   1.159  1.00  0.00    -0.305 N 
ATOM     27  H3  UNL     1      72.967  49.603   0.236  1.00  0.00     0.171 HD
BRANCH  26  28
HETATM   28  C18 UNL     1      71.889  49.031   1.964  1.00  0.00     0.355 C 
HETATM   29  O5  UNL     1      70.897  48.443   1.483  1.00  0.00    -0.283 OA
ENDBRANCH  26  28
ENDBRANCH  22  24
ENDBRANCH  20  22
ENDBRANCH  18  20
ENDBRANCH   1  16
TORSDOF 10
ENDMDL
MODEL 4
REMARK VINA RESULT: -6.345446609      2.391      7.235
REMARK  10 active torsions:
REMARK  status: ('A' for Active; 'I' for Inactive)
REMARK    1  A    between atoms: C2_2  and  C3_3 
REMARK    2  A    between atoms: C3_3  and  C5_5 
REMARK    3  A    between atoms: C5_5  and  N1_6 
REMARK    4  A    between atoms: C5_5  and  C12_16 
REMARK       I    between atoms: N1_6  and  C6_8 
REMARK    5  A    between atoms: C6_8  and  O2_10 
REMARK    6  A    between atoms: O2_10  and  C7_11 
REMARK       I    between atoms: C12_16  and  N2_18 
REMARK    7  A    between atoms: N2_18  and  C13_20 
REMARK    8  A    between atoms: C13_20  and  C15_22 
REMARK    9  A    between atoms: C15_22  and  C17_24 
REMARK       I    between atoms: C17_24  and  N3_26 
REMARK   10  A    between atoms: N3_26  and  C18_28 
ROOT
HETATM    1  C5  UNL     1      70.116  49.763   0.337  1.00  0.00     0.182 C 
ENDROOT
BRANCH   1   2
HETATM    2  C3  UNL     1      69.387  48.656   1.065  1.00  0.00     0.013 C 
HETATM    3  C4  UNL     1      68.299  48.056   0.203  1.00  0.00     0.012 C 
BRANCH   2   4
HETATM    4  C2  UNL     1      70.311  47.563   1.521  1.00  0.00     0.002 C 
HETATM    5  C1  UNL     1      70.184  47.444   3.024  1.00  0.00     0.005 C 
ENDBRANCH   2   4
ENDBRANCH   1   2
BRANCH   1   6
HETATM    6  N1  UNL     1      71.244  50.254   1.103  1.00  0.00    -0.323 N 
HETATM    7  C6  UNL     1      72.439  50.735   0.521  1.00  0.00     0.361 C 
HETATM    8  O1  UNL     1      72.601  50.767  -0.734  1.00  0.00    -0.238 OA
ATOM      9  H1  UNL     1      71.170  50.252   2.121  1.00  0.00     0.165 HD
BRANCH   7  10
HETATM   10  O2  UNL     1      73.456  51.181   1.319  1.00  0.00    -0.299 OA
BRANCH  10  11
HETATM   11  C7  UNL     1      73.532  52.439   1.921  1.00  0.00     0.133 C 
HETATM   12  C8  UNL     1      72.652  53.470   1.231  1.00  0.00     0.032 C 
HETATM   13  C9  UNL     1      71.559  53.815   2.217  1.00  0.00     0.002 C 
HETATM   14  C10 UNL     1      72.282  53.640   3.548  1.00  0.00     0.002 C 
HETATM   15  C11 UNL     1      72.968  52.303   3.329  1.00  0.00     0.032 C 
ENDBRANCH  10  11
ENDBRANCH   7  10
ENDBRANCH   1   6
BRANCH   1  16
HETATM   16  C12 UNL     1      69.177  50.858   0.014  1.00  0.00     0.241 C 
HETATM   17  O3  UNL     1      68.449  51.315   0.922  1.00  0.00    -0.271 OA
HETATM   18  N2  UNL     1      69.071  51.408  -1.284  1.00  0.00    -0.354 N 
ATOM     19  H2  UNL     1      69.664  51.035  -2.026  1.00  0.00     0.162 HD
BRANCH  18  20
HETATM   20  C13 UNL     1      68.152  52.477  -1.598  1.00  0.00     0.093 C 
HETATM   21  C14 UNL     1      67.098  52.058  -2.573  1.00  0.00     0.033 C 
BRANCH  20  22
HETATM   22  C15 UNL     1      68.927  53.641  -2.172  1.00  0.00     0.096 C 
HETATM   23  C16 UNL     1      70.225  53.726  -1.388  1.00  0.00     0.022 C 
BRANCH  22  24
HETATM   24  C17 UNL     1      68.181  54.886  -1.910  1.00  0.00     0.229 C 
HETATM   25  O4  UNL     1      68.143  55.346  -0.746  1.00  0.00    -0.273 OA
HETATM   26  N3  UNL     1      67.516  55.546  -2.980  1.00  0.00    -0.305 N 
ATOM     27  H3  UNL     1      67.553  55.163  -3.925  1.00  0.00     0.171 HD
BRANCH  26  28
HETATM   28  C18 UNL     1      66.805  56.735  -2.722  1.00  0.00     0.355 C 
HETATM   29  O5  UNL     1      67.396  57.835  -2.755  1.00  0.00    -0.283 OA
ENDBRANCH  26  28
ENDBRANCH  22  24
ENDBRANCH  20  22
ENDBRANCH  18  20
ENDBRANCH   1  16
TORSDOF 10
ENDMDL
MODEL 5
REMARK VINA RESULT: -6.279110605      3.322      5.070
REMARK  10 active torsions:
REMARK  status: ('A' for Active; 'I' for Inactive)
REMARK    1  A    between atoms: C2_2  and  C3_3 
REMARK    2  A    between atoms: C3_3  and  C5_5 
REMARK    3  A    between atoms: C5_5  and  N1_6 
REMARK    4  A    between atoms: C5_5  and  C12_16 
REMARK       I    between atoms: N1_6  and  C6_8 
REMARK    5  A    between atoms: C6_8  and  O2_10 
REMARK    6  A    between atoms: O2_10  and  C7_11 
REMARK       I    between atoms: C12_16  and  N2_18 
REMARK    7  A    between atoms: N2_18  and  C13_20 
REMARK    8  A    between atoms: C13_20  and  C15_22 
REMARK    9  A    between atoms: C15_22  and  C17_24 
REMARK       I    between atoms: C17_24  and  N3_26 
REMARK   10  A    between atoms: N3_26  and  C18_28 
ROOT
HETATM    1  C5  UNL     1      70.609  49.753   1.423  1.00  0.00     0.182 C 
ENDROOT
BRANCH   1   2
HETATM    2  C3  UNL     1      70.209  48.473   0.722  1.00  0.00     0.013 C 
HETATM    3  C4  UNL     1      69.741  47.430   1.711  1.00  0.00     0.012 C 
BRANCH   2   4
HETATM    4  C2  UNL     1      69.134  48.693  -0.305  1.00  0.00     0.002 C 
HETATM    5  C1  UNL     1      67.851  48.097   0.232  1.00  0.00     0.005 C 
ENDBRANCH   2   4
ENDBRANCH   1   2
BRANCH   1   6
HETATM    6  N1  UNL     1      70.513  50.898   0.540  1.00  0.00    -0.323 N 
HETATM    7  C6  UNL     1      69.512  51.891   0.648  1.00  0.00     0.361 C 
HETATM    8  O1  UNL     1      68.619  51.839   1.543  1.00  0.00    -0.238 OA
ATOM      9  H1  UNL     1      71.207  50.992  -0.202  1.00  0.00     0.165 HD
BRANCH   7  10
HETATM   10  O2  UNL     1      69.495  52.941  -0.228  1.00  0.00    -0.299 OA
BRANCH  10  11
HETATM   11  C7  UNL     1      69.265  52.857  -1.602  1.00  0.00     0.133 C 
HETATM   12  C8  UNL     1      68.195  51.834  -1.953  1.00  0.00     0.032 C 
HETATM   13  C9  UNL     1      67.023  52.622  -2.492  1.00  0.00     0.002 C 
HETATM   14  C10 UNL     1      67.726  53.807  -3.146  1.00  0.00     0.002 C 
HETATM   15  C11 UNL     1      68.704  54.199  -2.052  1.00  0.00     0.032 C 
ENDBRANCH  10  11
ENDBRANCH   7  10
ENDBRANCH   1   6
BRANCH   1  16
HETATM   16  C12 UNL     1      71.974  49.620   1.973  1.00  0.00     0.241 C 
HETATM   17  O3  UNL     1      72.917  49.366   1.192  1.00  0.00    -0.271 OA
HETATM   18  N2  UNL     1      72.254  49.770   3.350  1.00  0.00    -0.354 N 
ATOM     19  H2  UNL     1      71.486  49.977   3.989  1.00  0.00     0.162 HD
BRANCH  18  20
HETATM   20  C13 UNL     1      73.589  49.639   3.887  1.00  0.00     0.093 C 
HETATM   21  C14 UNL     1      73.755  48.404   4.714  1.00  0.00     0.033 C 
BRANCH  20  22
HETATM   22  C15 UNL     1      73.902  50.852   4.733  1.00  0.00     0.096 C 
HETATM   23  C16 UNL     1      72.970  50.796   5.930  1.00  0.00     0.022 C 
BRANCH  22  24
HETATM   24  C17 UNL     1      73.555  52.067   3.971  1.00  0.00     0.229 C 
HETATM   25  O4  UNL     1      74.135  52.296   2.885  1.00  0.00    -0.273 OA
HETATM   26  N3  UNL     1      72.571  52.959   4.478  1.00  0.00    -0.305 N 
ATOM     27  H3  UNL     1      72.106  52.763   5.365  1.00  0.00     0.171 HD
BRANCH  26  28
HETATM   28  C18 UNL     1      72.246  54.117   3.745  1.00  0.00     0.355 C 
HETATM   29  O5  UNL     1      71.419  54.052   2.811  1.00  0.00    -0.283 OA
ENDBRANCH  26  28
ENDBRANCH  22  24
ENDBRANCH  20  22
ENDBRANCH  18  20
ENDBRANCH   1  16
TORSDOF 10
ENDMDL
