MODEL 1
REMARK VINA RESULT: -6.985200466      0.000      0.000
REMARK  10 active torsions:
REMARK  status: ('A' for Active; 'I' for Inactive)
REMARK    1  A    between atoms: S1_2  and  C1_4 
REMARK    2  A    between atoms: S1_2  and  N3_24 
REMARK    3  A    between atoms: C1_4  and  C2_5 
REMARK    4  A    between atoms: C5_8  and  C6_9 
REMARK    5  A    between atoms: C6_9  and  N1_10 
REMARK    6  A    between atoms: N1_10  and  C7_13 
REMARK    7  A    between atoms: C7_13  and  C8_14 
REMARK    8  A    between atoms: C8_14  and  C9_15 
REMARK    9  A    between atoms: N3_24  and  C16_26 
REMARK   10  A    between atoms: C16_26  and  C17_27 
ROOT
HETATM    1  C2  UNL     1      69.957  52.693   0.296  1.00  0.00    -0.043 A 
HETATM    2  C3  UNL     1      70.335  51.874  -0.705  1.00  0.00     0.009 A 
HETATM    3  C4  UNL     1      69.827  50.548  -0.986  1.00  0.00     0.009 A 
HETATM    4  C5  UNL     1      68.924  50.199   0.032  1.00  0.00    -0.033 A 
HETATM    5  C14 UNL     1      68.629  50.996   0.955  1.00  0.00     0.009 A 
HETATM    6  C15 UNL     1      68.998  52.258   1.250  1.00  0.00     0.009 A 
ENDROOT
BRANCH   4   7
HETATM    7  C6  UNL     1      68.345  48.844  -0.008  1.00  0.00     0.270 C 
BRANCH   7   8
HETATM    8  N1  UNL     1      69.539  47.973   0.184  1.00  0.00    -0.071 N 
ATOM      9  H12 UNL     1      69.584  47.242  -0.525  1.00  0.00     0.277 HD
ATOM     10  H11 UNL     1      70.402  48.469  -0.042  1.00  0.00     0.277 HD
BRANCH   8  11
HETATM   11  C7  UNL     1      69.582  47.438   1.470  1.00  0.00     0.233 C 
BRANCH  11  12
HETATM   12  C8  UNL     1      70.974  47.564   1.922  1.00  0.00     0.032 C 
BRANCH  12  13
HETATM   13  C9  UNL     1      71.137  48.893   2.696  1.00  0.00    -0.010 C 
HETATM   14  C10 UNL     1      72.148  49.687   1.875  1.00  0.00     0.024 C 
HETATM   15  C11 UNL     1      72.567  50.955   2.558  1.00  0.00     0.114 C 
HETATM   16  N2  UNL     1      72.927  50.707   3.951  1.00  0.00    -0.421 N 
HETATM   17  C12 UNL     1      72.976  49.346   4.324  1.00  0.00     0.114 C 
ATOM     18  H2  UNL     1      73.128  51.462   4.607  1.00  0.00     0.153 HD
HETATM   19  C13 UNL     1      71.678  48.625   4.069  1.00  0.00     0.024 C 
ENDBRANCH  12  13
ENDBRANCH  11  12
ENDBRANCH   8  11
ENDBRANCH   7   8
ENDBRANCH   4   7
BRANCH   1  20
HETATM   20  C1  UNL     1      70.430  54.095   0.336  1.00  0.00     0.201 C 
BRANCH  20  21
HETATM   21  S1  UNL     1      69.113  55.126   0.185  1.00  0.00     0.230 S 
HETATM   22  O1  UNL     1      68.492  55.692   1.360  1.00  0.00    -0.206 OA
HETATM   23  O2  UNL     1      69.641  56.407  -0.744  1.00  0.00    -0.206 OA
BRANCH  21  24
HETATM   24  N3  UNL     1      67.843  54.632  -0.949  1.00  0.00    -0.319 N 
ATOM     25  H3  UNL     1      66.980  54.172  -0.660  1.00  0.00     0.172 HD
BRANCH  24  26
HETATM   26  C16 UNL     1      68.147  54.940  -2.283  1.00  0.00     0.136 C 
BRANCH  26  27
HETATM   27  C17 UNL     1      67.468  53.872  -3.133  1.00  0.00     0.004 A 
HETATM   28  C18 UNL     1      66.975  52.627  -2.495  1.00  0.00     0.007 A 
HETATM   29  C19 UNL     1      68.145  52.639  -3.468  1.00  0.00     0.007 A 
ENDBRANCH  26  27
ENDBRANCH  24  26
ENDBRANCH  21  24
ENDBRANCH  20  21
ENDBRANCH   1  20
TORSDOF 10
ENDMDL
MODEL 2
REMARK VINA RESULT: -6.894115670      1.139      1.271
REMARK  10 active torsions:
REMARK  status: ('A' for Active; 'I' for Inactive)
REMARK    1  A    between atoms: S1_2  and  C1_4 
REMARK    2  A    between atoms: S1_2  and  N3_24 
REMARK    3  A    between atoms: C1_4  and  C2_5 
REMARK    4  A    between atoms: C5_8  and  C6_9 
REMARK    5  A    between atoms: C6_9  and  N1_10 
REMARK    6  A    between atoms: N1_10  and  C7_13 
REMARK    7  A    between atoms: C7_13  and  C8_14 
REMARK    8  A    between atoms: C8_14  and  C9_15 
REMARK    9  A    between atoms: N3_24  and  C16_26 
REMARK   10  A    between atoms: C16_26  and  C17_27 
ROOT
HETATM    1  C2  UNL     1      69.902  52.864   0.566  1.00  0.00    -0.043 A 
HETATM    2  C3  UNL     1      70.626  52.239  -0.381  1.00  0.00     0.009 A 
HETATM    3  C4  UNL     1      70.376  50.932  -0.950  1.00  0.00     0.009 A 
HETATM    4  C5  UNL     1      69.286  50.359  -0.274  1.00  0.00    -0.033 A 
HETATM    5  C14 UNL     1      68.664  50.982   0.620  1.00  0.00     0.009 A 
HETATM    6  C15 UNL     1      68.785  52.212   1.157  1.00  0.00     0.009 A 
ENDROOT
BRANCH   4   7
HETATM    7  C6  UNL     1      68.908  48.982  -0.637  1.00  0.00     0.270 C 
BRANCH   7   8
HETATM    8  N1  UNL     1      68.634  48.359   0.689  1.00  0.00    -0.071 N 
ATOM      9  H12 UNL     1      68.277  49.043   1.355  1.00  0.00     0.277 HD
ATOM     10  H11 UNL     1      67.825  47.738   0.648  1.00  0.00     0.277 HD
BRANCH   8  11
HETATM   11  C7  UNL     1      69.756  47.700   1.188  1.00  0.00     0.233 C 
BRANCH  11  12
HETATM   12  C8  UNL     1      69.864  48.084   2.602  1.00  0.00     0.032 C 
BRANCH  12  13
HETATM   13  C9  UNL     1      71.357  48.274   2.961  1.00  0.00    -0.010 C 
HETATM   14  C10 UNL     1      71.968  48.906   1.715  1.00  0.00     0.024 C 
HETATM   15  C11 UNL     1      73.460  49.018   1.806  1.00  0.00     0.114 C 
HETATM   16  N2  UNL     1      74.057  47.759   2.243  1.00  0.00    -0.421 N 
HETATM   17  C12 UNL     1      73.162  46.670   2.324  1.00  0.00     0.114 C 
ATOM     18  H2  UNL     1      75.046  47.672   2.473  1.00  0.00     0.153 HD
HETATM   19  C13 UNL     1      71.992  46.942   3.233  1.00  0.00     0.024 C 
ENDBRANCH  12  13
ENDBRANCH  11  12
ENDBRANCH   8  11
ENDBRANCH   7   8
ENDBRANCH   4   7
BRANCH   1  20
HETATM   20  C1  UNL     1      70.172  54.279   0.906  1.00  0.00     0.201 C 
BRANCH  20  21
HETATM   21  S1  UNL     1      68.922  55.235   0.324  1.00  0.00     0.230 S 
HETATM   22  O1  UNL     1      68.096  55.991   1.237  1.00  0.00    -0.206 OA
HETATM   23  O2  UNL     1      69.632  56.338  -0.707  1.00  0.00    -0.206 OA
BRANCH  21  24
HETATM   24  N3  UNL     1      67.883  54.515  -0.920  1.00  0.00    -0.319 N 
ATOM     25  H3  UNL     1      67.032  53.995  -0.709  1.00  0.00     0.172 HD
BRANCH  24  26
HETATM   26  C16 UNL     1      68.353  54.735  -2.224  1.00  0.00     0.136 C 
BRANCH  26  27
HETATM   27  C17 UNL     1      67.632  53.729  -3.113  1.00  0.00     0.004 A 
HETATM   28  C18 UNL     1      66.879  52.609  -2.496  1.00  0.00     0.007 A 
HETATM   29  C19 UNL     1      68.150  52.391  -3.303  1.00  0.00     0.007 A 
ENDBRANCH  26  27
ENDBRANCH  24  26
ENDBRANCH  21  24
ENDBRANCH  20  21
ENDBRANCH   1  20
TORSDOF 10
ENDMDL
MODEL 3
REMARK VINA RESULT: -6.821958722      0.667      1.185
REMARK  10 active torsions:
REMARK  status: ('A' for Active; 'I' for Inactive)
REMARK    1  A    between atoms: S1_2  and  C1_4 
REMARK    2  A    between atoms: S1_2  and  N3_24 
REMARK    3  A    between atoms: C1_4  and  C2_5 
REMARK    4  A    between atoms: C5_8  and  C6_9 
REMARK    5  A    between atoms: C6_9  and  N1_10 
REMARK    6  A    between atoms: N1_10  and  C7_13 
REMARK    7  A    between atoms: C7_13  and  C8_14 
REMARK    8  A    between atoms: C8_14  and  C9_15 
REMARK    9  A    between atoms: N3_24  and  C16_26 
REMARK   10  A    between atoms: C16_26  and  C17_27 
ROOT
HETATM    1  C2  UNL     1      69.972  52.921   0.565  1.00  0.00    -0.043 A 
HETATM    2  C3  UNL     1      70.727  52.281  -0.348  1.00  0.00     0.009 A 
HETATM    3  C4  UNL     1      70.506  50.957  -0.890  1.00  0.00     0.009 A 
HETATM    4  C5  UNL     1      69.405  50.389  -0.227  1.00  0.00    -0.033 A 
HETATM    5  C14 UNL     1      68.754  51.027   0.635  1.00  0.00     0.009 A 
HETATM    6  C15 UNL     1      68.848  52.271   1.144  1.00  0.00     0.009 A 
ENDROOT
BRANCH   4   7
HETATM    7  C6  UNL     1      69.052  48.999  -0.565  1.00  0.00     0.270 C 
BRANCH   7   8
HETATM    8  N1  UNL     1      68.694  48.422   0.762  1.00  0.00    -0.071 N 
ATOM      9  H12 UNL     1      68.472  49.152   1.438  1.00  0.00     0.277 HD
ATOM     10  H11 UNL     1      67.788  47.952   0.731  1.00  0.00     0.277 HD
BRANCH   8  11
HETATM   11  C7  UNL     1      69.691  47.574   1.238  1.00  0.00     0.233 C 
BRANCH  11  12
HETATM   12  C8  UNL     1      69.933  47.966   2.634  1.00  0.00     0.032 C 
BRANCH  12  13
HETATM   13  C9  UNL     1      71.458  48.069   2.873  1.00  0.00    -0.010 C 
HETATM   14  C10 UNL     1      71.588  48.359   4.364  1.00  0.00     0.024 C 
HETATM   15  C11 UNL     1      73.001  48.660   4.765  1.00  0.00     0.114 C 
HETATM   16  N2  UNL     1      73.605  49.641   3.867  1.00  0.00    -0.421 N 
HETATM   17  C12 UNL     1      72.719  50.224   2.935  1.00  0.00     0.114 C 
ATOM     18  H2  UNL     1      74.594  49.886   3.910  1.00  0.00     0.153 HD
HETATM   19  C13 UNL     1      72.027  49.202   2.071  1.00  0.00     0.024 C 
ENDBRANCH  12  13
ENDBRANCH  11  12
ENDBRANCH   8  11
ENDBRANCH   7   8
ENDBRANCH   4   7
BRANCH   1  20
HETATM   20  C1  UNL     1      70.219  54.347   0.876  1.00  0.00     0.201 C 
BRANCH  20  21
HETATM   21  S1  UNL     1      68.933  55.266   0.309  1.00  0.00     0.230 S 
HETATM   22  O1  UNL     1      68.089  55.986   1.232  1.00  0.00    -0.206 OA
HETATM   23  O2  UNL     1      69.601  56.399  -0.718  1.00  0.00    -0.206 OA
BRANCH  21  24
HETATM   24  N3  UNL     1      67.912  54.521  -0.935  1.00  0.00    -0.319 N 
ATOM     25  H3  UNL     1      67.029  54.054  -0.731  1.00  0.00     0.172 HD
BRANCH  24  26
HETATM   26  C16 UNL     1      68.443  54.641  -2.228  1.00  0.00     0.136 C 
BRANCH  26  27
HETATM   27  C17 UNL     1      67.681  53.648  -3.097  1.00  0.00     0.004 A 
HETATM   28  C18 UNL     1      66.807  52.633  -2.460  1.00  0.00     0.007 A 
HETATM   29  C19 UNL     1      68.091  52.263  -3.188  1.00  0.00     0.007 A 
ENDBRANCH  26  27
ENDBRANCH  24  26
ENDBRANCH  21  24
ENDBRANCH  20  21
ENDBRANCH   1  20
TORSDOF 10
ENDMDL
MODEL 4
REMARK VINA RESULT: -6.670136566      1.036      1.517
REMARK  10 active torsions:
REMARK  status: ('A' for Active; 'I' for Inactive)
REMARK    1  A    between atoms: S1_2  and  C1_4 
REMARK    2  A    between atoms: S1_2  and  N3_24 
REMARK    3  A    between atoms: C1_4  and  C2_5 
REMARK    4  A    between atoms: C5_8  and  C6_9 
REMARK    5  A    between atoms: C6_9  and  N1_10 
REMARK    6  A    between atoms: N1_10  and  C7_13 
REMARK    7  A    between atoms: C7_13  and  C8_14 
REMARK    8  A    between atoms: C8_14  and  C9_15 
REMARK    9  A    between atoms: N3_24  and  C16_26 
REMARK   10  A    between atoms: C16_26  and  C17_27 
ROOT
HETATM    1  C2  UNL     1      69.856  52.907   0.366  1.00  0.00    -0.043 A 
HETATM    2  C3  UNL     1      68.879  52.256   1.025  1.00  0.00     0.009 A 
HETATM    3  C4  UNL     1      68.555  50.848   0.938  1.00  0.00     0.009 A 
HETATM    4  C5  UNL     1      69.378  50.267  -0.041  1.00  0.00    -0.033 A 
HETATM    5  C14 UNL     1      70.257  50.931  -0.642  1.00  0.00     0.009 A 
HETATM    6  C15 UNL     1      70.667  52.214  -0.574  1.00  0.00     0.009 A 
ENDROOT
BRANCH   4   7
HETATM    7  C6  UNL     1      69.159  48.845  -0.358  1.00  0.00     0.270 C 
BRANCH   7   8
HETATM    8  N1  UNL     1      68.916  48.245   0.984  1.00  0.00    -0.071 N 
ATOM      9  H12 UNL     1      68.747  48.964   1.688  1.00  0.00     0.277 HD
ATOM     10  H11 UNL     1      68.013  47.770   1.022  1.00  0.00     0.277 HD
BRANCH   8  11
HETATM   11  C7  UNL     1      69.953  47.396   1.363  1.00  0.00     0.233 C 
BRANCH  11  12
HETATM   12  C8  UNL     1      70.653  48.068   2.466  1.00  0.00     0.032 C 
BRANCH  12  13
HETATM   13  C9  UNL     1      72.019  48.587   1.957  1.00  0.00    -0.010 C 
HETATM   14  C10 UNL     1      73.040  47.647   2.588  1.00  0.00     0.024 C 
HETATM   15  C11 UNL     1      74.451  48.091   2.343  1.00  0.00     0.114 C 
HETATM   16  N2  UNL     1      74.615  49.511   2.645  1.00  0.00    -0.421 N 
HETATM   17  C12 UNL     1      73.499  50.126   3.252  1.00  0.00     0.114 C 
ATOM     18  H2  UNL     1      75.473  50.020   2.433  1.00  0.00     0.153 HD
HETATM   19  C13 UNL     1      72.242  49.993   2.432  1.00  0.00     0.024 C 
ENDBRANCH  12  13
ENDBRANCH  11  12
ENDBRANCH   8  11
ENDBRANCH   7   8
ENDBRANCH   4   7
BRANCH   1  20
HETATM   20  C1  UNL     1      70.187  54.308   0.708  1.00  0.00     0.201 C 
BRANCH  20  21
HETATM   21  S1  UNL     1      68.918  55.304   0.244  1.00  0.00     0.230 S 
HETATM   22  O1  UNL     1      68.129  55.990   1.239  1.00  0.00    -0.206 OA
HETATM   23  O2  UNL     1      69.592  56.479  -0.729  1.00  0.00    -0.206 OA
BRANCH  21  24
HETATM   24  N3  UNL     1      67.832  54.677  -1.010  1.00  0.00    -0.319 N 
ATOM     25  H3  UNL     1      66.883  54.354  -0.822  1.00  0.00     0.172 HD
BRANCH  24  26
HETATM   26  C16 UNL     1      68.412  54.670  -2.287  1.00  0.00     0.136 C 
BRANCH  26  27
HETATM   27  C17 UNL     1      67.629  53.652  -3.107  1.00  0.00     0.004 A 
HETATM   28  C18 UNL     1      66.798  52.635  -2.417  1.00  0.00     0.007 A 
HETATM   29  C19 UNL     1      68.055  52.272  -3.194  1.00  0.00     0.007 A 
ENDBRANCH  26  27
ENDBRANCH  24  26
ENDBRANCH  21  24
ENDBRANCH  20  21
ENDBRANCH   1  20
TORSDOF 10
ENDMDL
MODEL 5
REMARK VINA RESULT: -6.628985314      1.397      1.621
REMARK  10 active torsions:
REMARK  status: ('A' for Active; 'I' for Inactive)
REMARK    1  A    between atoms: S1_2  and  C1_4 
REMARK    2  A    between atoms: S1_2  and  N3_24 
REMARK    3  A    between atoms: C1_4  and  C2_5 
REMARK    4  A    between atoms: C5_8  and  C6_9 
REMARK    5  A    between atoms: C6_9  and  N1_10 
REMARK    6  A    between atoms: N1_10  and  C7_13 
REMARK    7  A    between atoms: C7_13  and  C8_14 
REMARK    8  A    between atoms: C8_14  and  C9_15 
REMARK    9  A    between atoms: N3_24  and  C16_26 
REMARK   10  A    between atoms: C16_26  and  C17_27 
ROOT
HETATM    1  C2  UNL     1      70.003  53.018   0.623  1.00  0.00    -0.043 A 
HETATM    2  C3  UNL     1      70.871  52.379  -0.183  1.00  0.00     0.009 A 
HETATM    3  C4  UNL     1      70.697  51.081  -0.800  1.00  0.00     0.009 A 
HETATM    4  C5  UNL     1      69.489  50.533  -0.338  1.00  0.00    -0.033 A 
HETATM    5  C14 UNL     1      68.730  51.168   0.434  1.00  0.00     0.009 A 
HETATM    6  C15 UNL     1      68.782  52.392   0.995  1.00  0.00     0.009 A 
ENDROOT
BRANCH   4   7
HETATM    7  C6  UNL     1      69.149  49.168  -0.775  1.00  0.00     0.270 C 
BRANCH   7   8
HETATM    8  N1  UNL     1      68.603  48.553   0.467  1.00  0.00    -0.071 N 
ATOM      9  H12 UNL     1      68.254  49.262   1.111  1.00  0.00     0.277 HD
ATOM     10  H11 UNL     1      67.729  48.059   0.285  1.00  0.00     0.277 HD
BRANCH   8  11
HETATM   11  C7  UNL     1      69.537  47.723   1.083  1.00  0.00     0.233 C 
BRANCH  11  12
HETATM   12  C8  UNL     1      69.613  48.156   2.485  1.00  0.00     0.032 C 
BRANCH  12  13
HETATM   13  C9  UNL     1      71.092  48.147   2.938  1.00  0.00    -0.010 C 
HETATM   14  C10 UNL     1      71.689  46.921   2.256  1.00  0.00     0.024 C 
HETATM   15  C11 UNL     1      73.092  46.644   2.707  1.00  0.00     0.114 C 
HETATM   16  N2  UNL     1      73.193  46.679   4.163  1.00  0.00    -0.421 N 
HETATM   17  C12 UNL     1      71.961  46.790   4.845  1.00  0.00     0.114 C 
ATOM     18  H2  UNL     1      74.086  46.627   4.652  1.00  0.00     0.153 HD
HETATM   19  C13 UNL     1      71.171  48.003   4.429  1.00  0.00     0.024 C 
ENDBRANCH  12  13
ENDBRANCH  11  12
ENDBRANCH   8  11
ENDBRANCH   7   8
ENDBRANCH   4   7
BRANCH   1  20
HETATM   20  C1  UNL     1      70.241  54.424   1.019  1.00  0.00     0.201 C 
BRANCH  20  21
HETATM   21  S1  UNL     1      69.302  55.434   0.062  1.00  0.00     0.230 S 
HETATM   22  O1  UNL     1      68.076  55.994   0.580  1.00  0.00    -0.206 OA
HETATM   23  O2  UNL     1      70.284  56.719  -0.346  1.00  0.00    -0.206 OA
BRANCH  21  24
HETATM   24  N3  UNL     1      69.029  54.916  -1.612  1.00  0.00    -0.319 N 
ATOM     25  H3  UNL     1      69.747  54.479  -2.189  1.00  0.00     0.172 HD
BRANCH  24  26
HETATM   26  C16 UNL     1      67.724  55.169  -2.061  1.00  0.00     0.136 C 
BRANCH  26  27
HETATM   27  C17 UNL     1      67.373  54.034  -3.014  1.00  0.00     0.004 A 
HETATM   28  C18 UNL     1      66.996  52.706  -2.469  1.00  0.00     0.007 A 
HETATM   29  C19 UNL     1      68.287  52.936  -3.242  1.00  0.00     0.007 A 
ENDBRANCH  26  27
ENDBRANCH  24  26
ENDBRANCH  21  24
ENDBRANCH  20  21
ENDBRANCH   1  20
TORSDOF 10
ENDMDL
