MODEL 1
REMARK VINA RESULT: -8.289733834      0.000      0.000
REMARK  6 active torsions:
REMARK  status: ('A' for Active; 'I' for Inactive)
REMARK    1  A    between atoms: O1_2  and  C2_3 
REMARK    2  A    between atoms: C2_3  and  O2_4 
REMARK    3  A    between atoms: C2_3  and  C3_6 
REMARK    4  A    between atoms: N1_8  and  C5_9 
REMARK    5  A    between atoms: C5_9  and  C6_10 
REMARK    6  A    between atoms: C14_18  and  O3_19 
ROOT
HETATM    1  C3  UNL     1     -37.827  55.028   7.899  1.00  0.00     0.046 A 
HETATM    2  C4  UNL     1     -38.303  55.489   6.689  1.00  0.00     0.105 A 
HETATM    3  N1  UNL     1     -39.028  56.597   6.912  1.00  0.00    -0.363 N 
HETATM    4  C13 UNL     1     -39.023  56.847   8.224  1.00  0.00     0.127 A 
HETATM    5  C14 UNL     1     -38.271  55.873   8.874  1.00  0.00     0.093 A 
ENDROOT
BRANCH   3   6
HETATM    6  C5  UNL     1     -39.696  57.381   5.915  1.00  0.00     0.132 C 
BRANCH   6   7
HETATM    7  C6  UNL     1     -38.765  57.981   4.903  1.00  0.00     0.004 C 
HETATM    8  C7  UNL     1     -39.538  58.699   3.815  1.00  0.00     0.006 C 
HETATM    9  C8  UNL     1     -38.732  58.765   2.528  1.00  0.00     0.000 C 
HETATM   10  C9  UNL     1     -37.405  59.440   2.716  1.00  0.00     0.000 C 
HETATM   11  C10 UNL     1     -36.449  58.454   3.366  1.00  0.00     0.000 C 
HETATM   12  C11 UNL     1     -36.363  58.648   4.860  1.00  0.00     0.000 C 
HETATM   13  C12 UNL     1     -37.699  58.844   5.502  1.00  0.00     0.006 C 
ENDBRANCH   6   7
ENDBRANCH   3   6
BRANCH   1  14
HETATM   14  C2  UNL     1     -36.968  53.815   8.141  1.00  0.00     0.294 C 
BRANCH  14  15
HETATM   15  O1  UNL     1     -35.813  54.131   8.813  1.00  0.00    -0.362 OA
HETATM   16  C1  UNL     1     -35.563  53.300   9.901  1.00  0.00     0.205 C 
ENDBRANCH  14  15
BRANCH  14  17
HETATM   17  O2  UNL     1     -37.718  52.960   8.958  1.00  0.00    -0.367 OA
ATOM     18  H2  UNL     1     -38.587  53.333   9.048  1.00  0.00     0.213 HD
ENDBRANCH  14  17
ENDBRANCH   1  14
BRANCH   5  19
HETATM   19  O3  UNL     1     -38.038  55.800  10.246  1.00  0.00    -0.359 OA
ATOM     20  H3  UNL     1     -38.653  55.954  10.954  1.00  0.00     0.217 HD
ENDBRANCH   5  19
TORSDOF 6
ENDMDL
MODEL 2
REMARK VINA RESULT: -7.971900273      1.173      1.986
REMARK  6 active torsions:
REMARK  status: ('A' for Active; 'I' for Inactive)
REMARK    1  A    between atoms: O1_2  and  C2_3 
REMARK    2  A    between atoms: C2_3  and  O2_4 
REMARK    3  A    between atoms: C2_3  and  C3_6 
REMARK    4  A    between atoms: N1_8  and  C5_9 
REMARK    5  A    between atoms: C5_9  and  C6_10 
REMARK    6  A    between atoms: C14_18  and  O3_19 
ROOT
HETATM    1  C3  UNL     1     -37.968  55.565   7.416  1.00  0.00     0.046 A 
HETATM    2  C4  UNL     1     -37.231  56.471   6.682  1.00  0.00     0.105 A 
HETATM    3  N1  UNL     1     -37.840  57.666   6.748  1.00  0.00    -0.363 N 
HETATM    4  C13 UNL     1     -38.936  57.541   7.502  1.00  0.00     0.127 A 
HETATM    5  C14 UNL     1     -39.044  56.224   7.939  1.00  0.00     0.093 A 
ENDROOT
BRANCH   3   6
HETATM    6  C5  UNL     1     -37.392  58.874   6.120  1.00  0.00     0.132 C 
BRANCH   6   7
HETATM    7  C6  UNL     1     -37.472  58.835   4.622  1.00  0.00     0.004 C 
HETATM    8  C7  UNL     1     -36.265  58.131   4.033  1.00  0.00     0.006 C 
HETATM    9  C8  UNL     1     -36.005  58.597   2.611  1.00  0.00     0.000 C 
HETATM   10  C9  UNL     1     -37.186  58.384   1.711  1.00  0.00     0.000 C 
HETATM   11  C10 UNL     1     -38.201  59.484   1.977  1.00  0.00     0.000 C 
HETATM   12  C11 UNL     1     -39.286  59.036   2.925  1.00  0.00     0.000 C 
HETATM   13  C12 UNL     1     -38.760  58.279   4.102  1.00  0.00     0.006 C 
ENDBRANCH   6   7
ENDBRANCH   3   6
BRANCH   1  14
HETATM   14  C2  UNL     1     -37.672  54.104   7.628  1.00  0.00     0.294 C 
BRANCH  14  15
HETATM   15  O1  UNL     1     -36.372  53.896   8.018  1.00  0.00    -0.362 OA
HETATM   16  C1  UNL     1     -36.192  53.959   9.396  1.00  0.00     0.205 C 
ENDBRANCH  14  15
BRANCH  14  17
HETATM   17  O2  UNL     1     -38.504  53.682   8.673  1.00  0.00    -0.367 OA
ATOM     18  H2  UNL     1     -38.629  52.745   8.584  1.00  0.00     0.213 HD
ENDBRANCH  14  17
ENDBRANCH   1  14
BRANCH   5  19
HETATM   19  O3  UNL     1     -40.057  55.710   8.746  1.00  0.00    -0.359 OA
ATOM     20  H3  UNL     1     -40.993  55.704   8.579  1.00  0.00     0.217 HD
ENDBRANCH   5  19
TORSDOF 6
ENDMDL
MODEL 3
REMARK VINA RESULT: -7.962244213      1.249      1.950
REMARK  6 active torsions:
REMARK  status: ('A' for Active; 'I' for Inactive)
REMARK    1  A    between atoms: O1_2  and  C2_3 
REMARK    2  A    between atoms: C2_3  and  O2_4 
REMARK    3  A    between atoms: C2_3  and  C3_6 
REMARK    4  A    between atoms: N1_8  and  C5_9 
REMARK    5  A    between atoms: C5_9  and  C6_10 
REMARK    6  A    between atoms: C14_18  and  O3_19 
ROOT
HETATM    1  C3  UNL     1     -37.185  54.503   8.789  1.00  0.00     0.046 A 
HETATM    2  C4  UNL     1     -37.703  55.776   8.680  1.00  0.00     0.105 A 
HETATM    3  N1  UNL     1     -38.369  55.865   7.517  1.00  0.00    -0.363 N 
HETATM    4  C13 UNL     1     -38.287  54.688   6.892  1.00  0.00     0.127 A 
HETATM    5  C14 UNL     1     -37.544  53.806   7.672  1.00  0.00     0.093 A 
ENDROOT
BRANCH   3   6
HETATM    6  C5  UNL     1     -39.054  57.025   7.027  1.00  0.00     0.132 C 
BRANCH   6   7
HETATM    7  C6  UNL     1     -38.464  57.581   5.764  1.00  0.00     0.004 C 
HETATM    8  C7  UNL     1     -39.436  58.522   5.081  1.00  0.00     0.006 C 
HETATM    9  C8  UNL     1     -39.158  58.602   3.589  1.00  0.00     0.000 C 
HETATM   10  C9  UNL     1     -37.755  59.041   3.289  1.00  0.00     0.000 C 
HETATM   11  C10 UNL     1     -36.825  57.855   3.487  1.00  0.00     0.000 C 
HETATM   12  C11 UNL     1     -36.166  57.872   4.844  1.00  0.00     0.000 C 
HETATM   13  C12 UNL     1     -37.115  58.200   5.952  1.00  0.00     0.006 C 
ENDBRANCH   6   7
ENDBRANCH   3   6
BRANCH   1  14
HETATM   14  C2  UNL     1     -36.365  53.943   9.922  1.00  0.00     0.294 C 
BRANCH  14  15
HETATM   15  O1  UNL     1     -36.819  52.711  10.323  1.00  0.00    -0.362 OA
HETATM   16  C1  UNL     1     -35.804  51.772  10.477  1.00  0.00     0.205 C 
ENDBRANCH  14  15
BRANCH  14  17
HETATM   17  O2  UNL     1     -35.067  53.778   9.423  1.00  0.00    -0.367 OA
ATOM     18  H2  UNL     1     -34.770  52.910   9.668  1.00  0.00     0.213 HD
ENDBRANCH  14  17
ENDBRANCH   1  14
BRANCH   5  19
HETATM   19  O3  UNL     1     -37.244  52.484   7.350  1.00  0.00    -0.359 OA
ATOM     20  H3  UNL     1     -37.207  51.733   7.931  1.00  0.00     0.217 HD
ENDBRANCH   5  19
TORSDOF 6
ENDMDL
MODEL 4
REMARK VINA RESULT: -7.847587294      2.467      6.562
REMARK  6 active torsions:
REMARK  status: ('A' for Active; 'I' for Inactive)
REMARK    1  A    between atoms: O1_2  and  C2_3 
REMARK    2  A    between atoms: C2_3  and  O2_4 
REMARK    3  A    between atoms: C2_3  and  C3_6 
REMARK    4  A    between atoms: N1_8  and  C5_9 
REMARK    5  A    between atoms: C5_9  and  C6_10 
REMARK    6  A    between atoms: C14_18  and  O3_19 
ROOT
HETATM    1  C3  UNL     1     -37.559  57.045   6.340  1.00  0.00     0.046 A 
HETATM    2  C4  UNL     1     -37.236  55.738   6.041  1.00  0.00     0.105 A 
HETATM    3  N1  UNL     1     -37.795  54.941   6.966  1.00  0.00    -0.363 N 
HETATM    4  C13 UNL     1     -38.461  55.705   7.835  1.00  0.00     0.127 A 
HETATM    5  C14 UNL     1     -38.330  57.041   7.466  1.00  0.00     0.093 A 
ENDROOT
BRANCH   3   6
HETATM    6  C5  UNL     1     -37.698  53.511   7.013  1.00  0.00     0.132 C 
BRANCH   6   7
HETATM    7  C6  UNL     1     -37.079  52.995   8.279  1.00  0.00     0.004 C 
HETATM    8  C7  UNL     1     -36.954  51.485   8.243  1.00  0.00     0.006 C 
HETATM    9  C8  UNL     1     -36.929  50.908   9.649  1.00  0.00     0.000 C 
HETATM   10  C9  UNL     1     -35.818  51.474  10.482  1.00  0.00     0.000 C 
HETATM   11  C10 UNL     1     -36.231  52.855  10.963  1.00  0.00     0.000 C 
HETATM   12  C11 UNL     1     -35.664  53.951  10.094  1.00  0.00     0.000 C 
HETATM   13  C12 UNL     1     -35.787  53.661   8.633  1.00  0.00     0.006 C 
ENDBRANCH   6   7
ENDBRANCH   3   6
BRANCH   1  14
HETATM   14  C2  UNL     1     -37.154  58.283   5.583  1.00  0.00     0.294 C 
BRANCH  14  15
HETATM   15  O1  UNL     1     -38.241  59.032   5.206  1.00  0.00    -0.362 OA
HETATM   16  C1  UNL     1     -38.820  58.603   4.016  1.00  0.00     0.205 C 
ENDBRANCH  14  15
BRANCH  14  17
HETATM   17  O2  UNL     1     -36.391  59.053   6.470  1.00  0.00    -0.367 OA
ATOM     18  H2  UNL     1     -35.552  58.623   6.581  1.00  0.00     0.213 HD
ENDBRANCH  14  17
ENDBRANCH   1  14
BRANCH   5  19
HETATM   19  O3  UNL     1     -38.886  58.131   8.131  1.00  0.00    -0.359 OA
ATOM     20  H3  UNL     1     -39.473  58.125   8.879  1.00  0.00     0.217 HD
ENDBRANCH   5  19
TORSDOF 6
ENDMDL
MODEL 5
REMARK VINA RESULT: -7.818152923      2.558      6.499
REMARK  6 active torsions:
REMARK  status: ('A' for Active; 'I' for Inactive)
REMARK    1  A    between atoms: O1_2  and  C2_3 
REMARK    2  A    between atoms: C2_3  and  O2_4 
REMARK    3  A    between atoms: C2_3  and  C3_6 
REMARK    4  A    between atoms: N1_8  and  C5_9 
REMARK    5  A    between atoms: C5_9  and  C6_10 
REMARK    6  A    between atoms: C14_18  and  O3_19 
ROOT
HETATM    1  C3  UNL     1     -37.418  57.251   6.102  1.00  0.00     0.046 A 
HETATM    2  C4  UNL     1     -37.029  55.937   5.949  1.00  0.00     0.105 A 
HETATM    3  N1  UNL     1     -37.828  55.167   6.706  1.00  0.00    -0.363 N 
HETATM    4  C13 UNL     1     -38.708  55.955   7.328  1.00  0.00     0.127 A 
HETATM    5  C14 UNL     1     -38.475  57.279   6.966  1.00  0.00     0.093 A 
ENDROOT
BRANCH   3   6
HETATM    6  C5  UNL     1     -37.753  53.740   6.826  1.00  0.00     0.132 C 
BRANCH   6   7
HETATM    7  C6  UNL     1     -36.997  53.280   8.038  1.00  0.00     0.004 C 
HETATM    8  C7  UNL     1     -37.195  54.238   9.196  1.00  0.00     0.006 C 
HETATM    9  C8  UNL     1     -36.029  54.166  10.167  1.00  0.00     0.000 C 
HETATM   10  C9  UNL     1     -35.815  52.782  10.705  1.00  0.00     0.000 C 
HETATM   11  C10 UNL     1     -35.098  51.958   9.648  1.00  0.00     0.000 C 
HETATM   12  C11 UNL     1     -36.055  51.116   8.840  1.00  0.00     0.000 C 
HETATM   13  C12 UNL     1     -37.281  51.862   8.422  1.00  0.00     0.006 C 
ENDBRANCH   6   7
ENDBRANCH   3   6
BRANCH   1  14
HETATM   14  C2  UNL     1     -36.813  58.466   5.448  1.00  0.00     0.294 C 
BRANCH  14  15
HETATM   15  O1  UNL     1     -37.752  59.207   4.774  1.00  0.00    -0.362 OA
HETATM   16  C1  UNL     1     -37.527  59.265   3.402  1.00  0.00     0.205 C 
ENDBRANCH  14  15
BRANCH  14  17
HETATM   17  O2  UNL     1     -36.308  59.258   6.486  1.00  0.00    -0.367 OA
ATOM     18  H2  UNL     1     -36.989  59.869   6.743  1.00  0.00     0.213 HD
ENDBRANCH  14  17
ENDBRANCH   1  14
BRANCH   5  19
HETATM   19  O3  UNL     1     -39.191  58.387   7.412  1.00  0.00    -0.359 OA
ATOM     20  H3  UNL     1     -39.985  58.401   7.934  1.00  0.00     0.217 HD
ENDBRANCH   5  19
TORSDOF 6
ENDMDL
