MODEL 1
REMARK VINA RESULT: -6.110500798      0.000      0.000
REMARK  4 active torsions:
REMARK  status: ('A' for Active; 'I' for Inactive)
REMARK    1  A    between atoms: N1_2  and  O1_3 
REMARK    2  A    between atoms: N2_5  and  C2_7 
REMARK    3  A    between atoms: C3_8  and  C4_9 
REMARK    4  A    between atoms: C5_13  and  C6_14 
ROOT
HETATM    1  C2  UNL     1     -38.089  56.520   6.985  1.00  0.00     0.097 A 
HETATM    2  C3  UNL     1     -39.369  56.683   7.455  1.00  0.00     0.112 A 
HETATM    3  S1  UNL     1     -40.083  57.705   6.300  1.00  0.00    -0.072 SA
HETATM    4  C5  UNL     1     -38.758  57.910   5.242  1.00  0.00     0.106 A 
HETATM    5  C7  UNL     1     -37.784  57.163   5.833  1.00  0.00     0.087 A 
HETATM    6 CL1  UNL     1     -36.164  57.051   5.091  1.00  0.00    -0.080 Cl
ENDROOT
BRANCH   1   7
HETATM    7  N2  UNL     1     -37.171  55.673   7.760  1.00  0.00    -0.277 N 
HETATM    8  N1  UNL     1     -37.114  54.432   7.528  1.00  0.00    -0.206 N 
HETATM    9  C1  UNL     1     -36.182  53.668   8.336  1.00  0.00     0.207 C 
ATOM     10  H2  UNL     1     -36.581  56.086   8.482  1.00  0.00     0.189 HD
BRANCH   8  11
HETATM   11  O1  UNL     1     -37.853  53.777   6.591  1.00  0.00    -0.273 OA
ATOM     12  H1  UNL     1     -38.493  54.270   6.090  1.00  0.00     0.246 HD
ENDBRANCH   8  11
ENDBRANCH   1   7
BRANCH   2  13
HETATM   13  C4  UNL     1     -39.983  56.126   8.651  1.00  0.00     0.219 C 
HETATM   14  O2  UNL     1     -41.203  55.879   8.633  1.00  0.00    -0.643 OA
HETATM   15  O3  UNL     1     -39.244  55.873   9.784  1.00  0.00    -0.643 OA
ENDBRANCH   2  13
BRANCH   4  16
HETATM   16  C6  UNL     1     -38.676  58.696   3.996  1.00  0.00     0.218 C 
HETATM   17  O4  UNL     1     -39.506  58.464   3.105  1.00  0.00    -0.643 OA
HETATM   18  O5  UNL     1     -37.715  59.655   3.824  1.00  0.00    -0.643 OA
ENDBRANCH   4  16
TORSDOF 4
ENDMDL
MODEL 2
REMARK VINA RESULT: -5.967547691      1.937      2.250
REMARK  4 active torsions:
REMARK  status: ('A' for Active; 'I' for Inactive)
REMARK    1  A    between atoms: N1_2  and  O1_3 
REMARK    2  A    between atoms: N2_5  and  C2_7 
REMARK    3  A    between atoms: C3_8  and  C4_9 
REMARK    4  A    between atoms: C5_13  and  C6_14 
ROOT
HETATM    1  C2  UNL     1     -37.949  55.264   7.844  1.00  0.00     0.097 A 
HETATM    2  C3  UNL     1     -38.499  56.319   8.529  1.00  0.00     0.112 A 
HETATM    3  S1  UNL     1     -38.287  57.628   7.465  1.00  0.00    -0.072 SA
HETATM    4  C5  UNL     1     -37.510  56.825   6.174  1.00  0.00     0.106 A 
HETATM    5  C7  UNL     1     -37.438  55.539   6.620  1.00  0.00     0.087 A 
HETATM    6 CL1  UNL     1     -36.690  54.277   5.605  1.00  0.00    -0.080 Cl
ENDROOT
BRANCH   1   7
HETATM    7  N2  UNL     1     -37.960  53.942   8.487  1.00  0.00    -0.277 N 
HETATM    8  N1  UNL     1     -36.911  53.501   9.037  1.00  0.00    -0.206 N 
HETATM    9  C1  UNL     1     -37.007  52.189   9.648  1.00  0.00     0.207 C 
ATOM     10  H2  UNL     1     -38.813  53.382   8.489  1.00  0.00     0.189 HD
BRANCH   8  11
HETATM   11  O1  UNL     1     -35.722  54.160   9.092  1.00  0.00    -0.273 OA
ATOM     12  H1  UNL     1     -34.919  53.652   9.085  1.00  0.00     0.246 HD
ENDBRANCH   8  11
ENDBRANCH   1   7
BRANCH   2  13
HETATM   13  C4  UNL     1     -39.116  56.335   9.847  1.00  0.00     0.219 C 
HETATM   14  O2  UNL     1     -40.303  55.975   9.952  1.00  0.00    -0.643 OA
HETATM   15  O3  UNL     1     -38.415  56.735  10.960  1.00  0.00    -0.643 OA
ENDBRANCH   2  13
BRANCH   4  16
HETATM   16  C6  UNL     1     -37.031  57.373   4.891  1.00  0.00     0.218 C 
HETATM   17  O4  UNL     1     -35.811  57.531   4.744  1.00  0.00    -0.643 OA
HETATM   18  O5  UNL     1     -37.904  57.699   3.888  1.00  0.00    -0.643 OA
ENDBRANCH   4  16
TORSDOF 4
ENDMDL
MODEL 3
REMARK VINA RESULT: -5.590265162      2.663      4.872
REMARK  4 active torsions:
REMARK  status: ('A' for Active; 'I' for Inactive)
REMARK    1  A    between atoms: N1_2  and  O1_3 
REMARK    2  A    between atoms: N2_5  and  C2_7 
REMARK    3  A    between atoms: C3_8  and  C4_9 
REMARK    4  A    between atoms: C5_13  and  C6_14 
ROOT
HETATM    1  C2  UNL     1     -38.065  56.200   6.368  1.00  0.00     0.097 A 
HETATM    2  C3  UNL     1     -38.774  57.059   7.171  1.00  0.00     0.112 A 
HETATM    3  S1  UNL     1     -38.668  56.335   8.705  1.00  0.00    -0.072 SA
HETATM    4  C5  UNL     1     -37.732  54.962   8.310  1.00  0.00     0.106 A 
HETATM    5  C7  UNL     1     -37.528  55.114   6.971  1.00  0.00     0.087 A 
HETATM    6 CL1  UNL     1     -36.579  53.904   6.065  1.00  0.00    -0.080 Cl
ENDROOT
BRANCH   1   7
HETATM    7  N2  UNL     1     -37.950  56.527   4.939  1.00  0.00    -0.277 N 
HETATM    8  N1  UNL     1     -36.954  57.185   4.523  1.00  0.00    -0.206 N 
HETATM    9  C1  UNL     1     -36.917  57.466   3.100  1.00  0.00     0.207 C 
ATOM     10  H2  UNL     1     -38.672  56.225   4.285  1.00  0.00     0.189 HD
BRANCH   8  11
HETATM   11  O1  UNL     1     -35.936  57.639   5.303  1.00  0.00    -0.273 OA
ATOM     12  H1  UNL     1     -35.151  57.109   5.381  1.00  0.00     0.246 HD
ENDBRANCH   8  11
ENDBRANCH   1   7
BRANCH   2  13
HETATM   13  C4  UNL     1     -39.458  58.293   6.815  1.00  0.00     0.219 C 
HETATM   14  O2  UNL     1     -39.141  59.341   7.407  1.00  0.00    -0.643 OA
HETATM   15  O3  UNL     1     -40.435  58.315   5.847  1.00  0.00    -0.643 OA
ENDBRANCH   2  13
BRANCH   4  16
HETATM   16  C6  UNL     1     -37.256  53.877   9.189  1.00  0.00     0.218 C 
HETATM   17  O4  UNL     1     -37.840  52.785   9.135  1.00  0.00    -0.643 OA
HETATM   18  O5  UNL     1     -36.199  54.063  10.039  1.00  0.00    -0.643 OA
ENDBRANCH   4  16
TORSDOF 4
ENDMDL
MODEL 4
REMARK VINA RESULT: -5.372392143      1.393      1.652
REMARK  4 active torsions:
REMARK  status: ('A' for Active; 'I' for Inactive)
REMARK    1  A    between atoms: N1_2  and  O1_3 
REMARK    2  A    between atoms: N2_5  and  C2_7 
REMARK    3  A    between atoms: C3_8  and  C4_9 
REMARK    4  A    between atoms: C5_13  and  C6_14 
ROOT
HETATM    1  C2  UNL     1     -38.154  55.957   6.907  1.00  0.00     0.097 A 
HETATM    2  C3  UNL     1     -38.721  56.677   7.930  1.00  0.00     0.112 A 
HETATM    3  S1  UNL     1     -38.521  58.290   7.430  1.00  0.00    -0.072 SA
HETATM    4  C5  UNL     1     -37.727  58.031   5.940  1.00  0.00     0.106 A 
HETATM    5  C7  UNL     1     -37.641  56.672   5.878  1.00  0.00     0.087 A 
HETATM    6 CL1  UNL     1     -36.872  55.884   4.474  1.00  0.00    -0.080 Cl
ENDROOT
BRANCH   1   7
HETATM    7  N2  UNL     1     -38.152  54.491   7.014  1.00  0.00    -0.277 N 
HETATM    8  N1  UNL     1     -37.244  53.910   7.675  1.00  0.00    -0.206 N 
HETATM    9  C1  UNL     1     -37.315  52.462   7.731  1.00  0.00     0.207 C 
ATOM     10  H2  UNL     1     -38.880  53.943   6.556  1.00  0.00     0.189 HD
BRANCH   8  11
HETATM   11  O1  UNL     1     -36.226  54.539   8.323  1.00  0.00    -0.273 OA
ATOM     12  H1  UNL     1     -35.691  55.158   7.840  1.00  0.00     0.246 HD
ENDBRANCH   8  11
ENDBRANCH   1   7
BRANCH   2  13
HETATM   13  C4  UNL     1     -39.345  56.196   9.154  1.00  0.00     0.219 C 
HETATM   14  O2  UNL     1     -40.455  55.639   9.076  1.00  0.00    -0.643 OA
HETATM   15  O3  UNL     1     -38.733  56.348  10.376  1.00  0.00    -0.643 OA
ENDBRANCH   2  13
BRANCH   4  16
HETATM   16  C6  UNL     1     -37.250  59.021   4.956  1.00  0.00     0.218 C 
HETATM   17  O4  UNL     1     -36.082  59.423   5.055  1.00  0.00    -0.643 OA
HETATM   18  O5  UNL     1     -38.067  59.484   3.961  1.00  0.00    -0.643 OA
ENDBRANCH   4  16
TORSDOF 4
ENDMDL
MODEL 5
REMARK VINA RESULT: -5.125097001      1.782      2.152
REMARK  4 active torsions:
REMARK  status: ('A' for Active; 'I' for Inactive)
REMARK    1  A    between atoms: N1_2  and  O1_3 
REMARK    2  A    between atoms: N2_5  and  C2_7 
REMARK    3  A    between atoms: C3_8  and  C4_9 
REMARK    4  A    between atoms: C5_13  and  C6_14 
ROOT
HETATM    1  C2  UNL     1     -38.076  57.484   5.663  1.00  0.00     0.097 A 
HETATM    2  C3  UNL     1     -39.423  57.670   5.476  1.00  0.00     0.112 A 
HETATM    3  S1  UNL     1     -39.503  58.489   3.989  1.00  0.00    -0.072 SA
HETATM    4  C5  UNL     1     -37.837  58.583   3.625  1.00  0.00     0.106 A 
HETATM    5  C7  UNL     1     -37.261  57.962   4.693  1.00  0.00     0.087 A 
HETATM    6 CL1  UNL     1     -35.487  57.798   4.786  1.00  0.00    -0.080 Cl
ENDROOT
BRANCH   1   7
HETATM    7  N2  UNL     1     -37.636  56.789   6.882  1.00  0.00    -0.277 N 
HETATM    8  N1  UNL     1     -37.234  55.593   6.813  1.00  0.00    -0.206 N 
HETATM    9  C1  UNL     1     -36.819  54.981   8.061  1.00  0.00     0.207 C 
ATOM     10  H2  UNL     1     -37.656  57.271   7.780  1.00  0.00     0.189 HD
BRANCH   8  11
HETATM   11  O1  UNL     1     -37.167  54.855   5.672  1.00  0.00    -0.273 OA
ATOM     12  H1  UNL     1     -36.314  54.688   5.287  1.00  0.00     0.246 HD
ENDBRANCH   8  11
ENDBRANCH   1   7
BRANCH   2  13
HETATM   13  C4  UNL     1     -40.531  57.272   6.333  1.00  0.00     0.219 C 
HETATM   14  O2  UNL     1     -41.685  57.597   6.002  1.00  0.00    -0.643 OA
HETATM   15  O3  UNL     1     -40.320  56.553   7.486  1.00  0.00    -0.643 OA
ENDBRANCH   2  13
BRANCH   4  16
HETATM   16  C6  UNL     1     -37.174  59.183   2.451  1.00  0.00     0.218 C 
HETATM   17  O4  UNL     1     -37.657  60.220   1.976  1.00  0.00    -0.643 OA
HETATM   18  O5  UNL     1     -36.057  58.615   1.900  1.00  0.00    -0.643 OA
ENDBRANCH   4  16
TORSDOF 4
ENDMDL
