MODEL 1
REMARK VINA RESULT: -6.847347462      0.000      0.000
REMARK  7 active torsions:
REMARK  status: ('A' for Active; 'I' for Inactive)
REMARK    1  A    between atoms: C2_2  and  C3_3 
REMARK    2  A    between atoms: C2_2  and  N2_16 
REMARK    3  A    between atoms: C3_3  and  C4_4 
REMARK    4  A    between atoms: C6_6  and  C7_7 
REMARK    5  A    between atoms: C7_7  and  N1_8 
REMARK    6  A    between atoms: C7_7  and  O1_11 
REMARK    7  A    between atoms: N2_16  and  N3_18 
ROOT
HETATM    1  C4  UNL     1     -37.645  54.384   7.847  1.00  0.00    -0.013 A 
HETATM    2  C5  UNL     1     -37.001  54.922   6.776  1.00  0.00     0.032 A 
HETATM    3  C6  UNL     1     -37.379  56.162   6.380  1.00  0.00     0.040 A 
HETATM    4  C8  UNL     1     -38.381  56.756   7.102  1.00  0.00     0.066 A 
HETATM    5 BR1  UNL     1     -39.186  58.474   6.864  1.00  0.00    -0.042 Br
HETATM    6  S1  UNL     1     -38.757  55.596   8.284  1.00  0.00    -0.086 SA
ENDROOT
BRANCH   1   7
HETATM    7  C3  UNL     1     -37.409  53.028   8.479  1.00  0.00     0.072 C 
BRANCH   7   8
HETATM    8  C2  UNL     1     -36.415  53.178   9.615  1.00  0.00     0.101 C 
HETATM    9  C1  UNL     1     -35.040  52.892   9.053  1.00  0.00     0.034 C 
BRANCH   8  10
HETATM   10  N2  UNL     1     -36.772  52.252  10.653  1.00  0.00    -0.318 N 
ATOM     11  H2  UNL     1     -36.601  52.476  11.633  1.00  0.00     0.182 HD
BRANCH  10  12
HETATM   12  N3  UNL     1     -37.289  51.181  10.333  1.00  0.00    -0.253 N 
HETATM   13  N4  UNL     1     -37.456  49.953  10.276  1.00  0.00    -0.331 N 
ATOM     14  H42 UNL     1     -36.669  49.678  10.864  1.00  0.00     0.178 HD
ATOM     15  H41 UNL     1     -37.884  49.066  10.010  1.00  0.00     0.178 HD
ATOM     16  H3  UNL     1     -38.061  51.508   9.751  1.00  0.00     0.207 HD
ENDBRANCH  10  12
ENDBRANCH   8  10
ENDBRANCH   7   8
ENDBRANCH   1   7
BRANCH   3  17
HETATM   17  C7  UNL     1     -36.776  56.890   5.229  1.00  0.00     0.145 C 
BRANCH  17  18
HETATM   18  N1  UNL     1     -37.132  56.649   4.024  1.00  0.00    -0.379 N 
ATOM     19  H12 UNL     1     -37.770  55.870   3.863  1.00  0.00     0.158 HD
ATOM     20  H11 UNL     1     -36.794  57.213   3.245  1.00  0.00     0.158 HD
ENDBRANCH  17  18
BRANCH  17  21
HETATM   21  O1  UNL     1     -35.807  57.852   5.435  1.00  0.00    -0.346 OA
ATOM     22  H1  UNL     1     -35.626  58.507   4.772  1.00  0.00     0.219 HD
ENDBRANCH  17  21
ENDBRANCH   3  17
TORSDOF 7
ENDMDL
MODEL 2
REMARK VINA RESULT: -6.841133559      2.355      2.720
REMARK  7 active torsions:
REMARK  status: ('A' for Active; 'I' for Inactive)
REMARK    1  A    between atoms: C2_2  and  C3_3 
REMARK    2  A    between atoms: C2_2  and  N2_16 
REMARK    3  A    between atoms: C3_3  and  C4_4 
REMARK    4  A    between atoms: C6_6  and  C7_7 
REMARK    5  A    between atoms: C7_7  and  N1_8 
REMARK    6  A    between atoms: C7_7  and  O1_11 
REMARK    7  A    between atoms: N2_16  and  N3_18 
ROOT
HETATM    1  C4  UNL     1     -37.413  55.357   6.537  1.00  0.00    -0.013 A 
HETATM    2  C5  UNL     1     -38.512  56.065   6.910  1.00  0.00     0.032 A 
HETATM    3  C6  UNL     1     -38.758  57.227   6.255  1.00  0.00     0.040 A 
HETATM    4  C8  UNL     1     -37.866  57.576   5.275  1.00  0.00     0.066 A 
HETATM    5 BR1  UNL     1     -37.860  59.115   4.140  1.00  0.00    -0.042 Br
HETATM    6  S1  UNL     1     -36.740  56.305   5.295  1.00  0.00    -0.086 SA
ENDROOT
BRANCH   1   7
HETATM    7  C3  UNL     1     -36.926  54.042   7.109  1.00  0.00     0.072 C 
BRANCH   7   8
HETATM    8  C2  UNL     1     -37.600  53.805   8.448  1.00  0.00     0.101 C 
HETATM    9  C1  UNL     1     -36.599  54.161   9.526  1.00  0.00     0.034 C 
BRANCH   8  10
HETATM   10  N2  UNL     1     -37.994  52.426   8.517  1.00  0.00    -0.318 N 
ATOM     11  H2  UNL     1     -38.722  52.060   7.904  1.00  0.00     0.182 HD
BRANCH  10  12
HETATM   12  N3  UNL     1     -37.434  51.695   9.335  1.00  0.00    -0.253 N 
HETATM   13  N4  UNL     1     -37.279  50.739  10.109  1.00  0.00    -0.331 N 
ATOM     14  H42 UNL     1     -38.186  50.295   9.967  1.00  0.00     0.178 HD
ATOM     15  H41 UNL     1     -36.814  50.134  10.786  1.00  0.00     0.178 HD
ATOM     16  H3  UNL     1     -36.541  52.177   9.442  1.00  0.00     0.207 HD
ENDBRANCH  10  12
ENDBRANCH   8  10
ENDBRANCH   7   8
ENDBRANCH   1   7
BRANCH   3  17
HETATM   17  C7  UNL     1     -39.917  58.118   6.542  1.00  0.00     0.145 C 
BRANCH  17  18
HETATM   18  N1  UNL     1     -41.103  57.809   6.178  1.00  0.00    -0.379 N 
ATOM     19  H12 UNL     1     -41.656  57.220   6.801  1.00  0.00     0.158 HD
ATOM     20  H11 UNL     1     -41.491  58.137   5.294  1.00  0.00     0.158 HD
ENDBRANCH  17  18
BRANCH  17  21
HETATM   21  O1  UNL     1     -39.738  59.311   7.214  1.00  0.00    -0.346 OA
ATOM     22  H1  UNL     1     -39.805  59.348   8.160  1.00  0.00     0.219 HD
ENDBRANCH  17  21
ENDBRANCH   3  17
TORSDOF 7
ENDMDL
MODEL 3
REMARK VINA RESULT: -6.777737181      4.494      8.041
REMARK  7 active torsions:
REMARK  status: ('A' for Active; 'I' for Inactive)
REMARK    1  A    between atoms: C2_2  and  C3_3 
REMARK    2  A    between atoms: C2_2  and  N2_16 
REMARK    3  A    between atoms: C3_3  and  C4_4 
REMARK    4  A    between atoms: C6_6  and  C7_7 
REMARK    5  A    between atoms: C7_7  and  N1_8 
REMARK    6  A    between atoms: C7_7  and  O1_11 
REMARK    7  A    between atoms: N2_16  and  N3_18 
ROOT
HETATM    1  C4  UNL     1     -37.478  58.538   4.623  1.00  0.00    -0.013 A 
HETATM    2  C5  UNL     1     -38.256  58.528   5.737  1.00  0.00     0.032 A 
HETATM    3  C6  UNL     1     -38.256  57.397   6.487  1.00  0.00     0.040 A 
HETATM    4  C8  UNL     1     -37.466  56.369   6.043  1.00  0.00     0.066 A 
HETATM    5 BR1  UNL     1     -37.197  54.637   6.806  1.00  0.00    -0.042 Br
HETATM    6  S1  UNL     1     -36.764  56.994   4.629  1.00  0.00    -0.086 SA
ENDROOT
BRANCH   1   7
HETATM    7  C3  UNL     1     -37.306  59.670   3.629  1.00  0.00     0.072 C 
BRANCH   7   8
HETATM    8  C2  UNL     1     -37.510  59.130   2.226  1.00  0.00     0.101 C 
HETATM    9  C1  UNL     1     -36.151  58.734   1.693  1.00  0.00     0.034 C 
BRANCH   8  10
HETATM   10  N2  UNL     1     -38.117  60.160   1.430  1.00  0.00    -0.318 N 
ATOM     11  H2  UNL     1     -38.684  60.888   1.864  1.00  0.00     0.182 HD
BRANCH  10  12
HETATM   12  N3  UNL     1     -37.939  60.144   0.212  1.00  0.00    -0.253 N 
HETATM   13  N4  UNL     1     -38.010  60.518  -0.968  1.00  0.00    -0.331 N 
ATOM     14  H42 UNL     1     -38.559  61.364  -0.814  1.00  0.00     0.178 HD
ATOM     15  H41 UNL     1     -37.862  60.504  -1.977  1.00  0.00     0.178 HD
ATOM     16  H3  UNL     1     -37.392  59.289   0.110  1.00  0.00     0.207 HD
ENDBRANCH  10  12
ENDBRANCH   8  10
ENDBRANCH   7   8
ENDBRANCH   1   7
BRANCH   3  17
HETATM   17  C7  UNL     1     -39.052  57.224   7.734  1.00  0.00     0.145 C 
BRANCH  17  18
HETATM   18  N1  UNL     1     -38.561  57.495   8.883  1.00  0.00    -0.379 N 
ATOM     19  H12 UNL     1     -38.470  56.733   9.556  1.00  0.00     0.158 HD
ATOM     20  H11 UNL     1     -38.266  58.441   9.126  1.00  0.00     0.158 HD
ENDBRANCH  17  18
BRANCH  17  21
HETATM   21  O1  UNL     1     -40.352  56.761   7.680  1.00  0.00    -0.346 OA
ATOM     22  H1  UNL     1     -41.083  57.365   7.722  1.00  0.00     0.219 HD
ENDBRANCH  17  21
ENDBRANCH   3  17
TORSDOF 7
ENDMDL
MODEL 4
REMARK VINA RESULT: -6.751376842      3.903      7.211
REMARK  7 active torsions:
REMARK  status: ('A' for Active; 'I' for Inactive)
REMARK    1  A    between atoms: C2_2  and  C3_3 
REMARK    2  A    between atoms: C2_2  and  N2_16 
REMARK    3  A    between atoms: C3_3  and  C4_4 
REMARK    4  A    between atoms: C6_6  and  C7_7 
REMARK    5  A    between atoms: C7_7  and  N1_8 
REMARK    6  A    between atoms: C7_7  and  O1_11 
REMARK    7  A    between atoms: N2_16  and  N3_18 
ROOT
HETATM    1  C4  UNL     1     -38.285  57.469   5.921  1.00  0.00    -0.013 A 
HETATM    2  C5  UNL     1     -38.856  57.499   7.154  1.00  0.00     0.032 A 
HETATM    3  C6  UNL     1     -38.536  56.499   8.013  1.00  0.00     0.040 A 
HETATM    4  C8  UNL     1     -37.664  55.550   7.550  1.00  0.00     0.066 A 
HETATM    5 BR1  UNL     1     -36.977  54.004   8.439  1.00  0.00    -0.042 Br
HETATM    6  S1  UNL     1     -37.323  56.067   5.968  1.00  0.00    -0.086 SA
ENDROOT
BRANCH   1   7
HETATM    7  C3  UNL     1     -38.478  58.461   4.792  1.00  0.00     0.072 C 
BRANCH   7   8
HETATM    8  C2  UNL     1     -37.733  57.966   3.566  1.00  0.00     0.101 C 
HETATM    9  C1  UNL     1     -36.373  58.628   3.565  1.00  0.00     0.034 C 
BRANCH   8  10
HETATM   10  N2  UNL     1     -38.499  58.313   2.402  1.00  0.00    -0.318 N 
ATOM     11  H2  UNL     1     -39.440  57.944   2.268  1.00  0.00     0.182 HD
BRANCH  10  12
HETATM   12  N3  UNL     1     -37.993  59.066   1.569  1.00  0.00    -0.253 N 
HETATM   13  N4  UNL     1     -37.846  59.655   0.488  1.00  0.00    -0.331 N 
ATOM     14  H42 UNL     1     -38.650  59.259   0.001  1.00  0.00     0.178 HD
ATOM     15  H41 UNL     1     -37.426  60.279  -0.202  1.00  0.00     0.178 HD
ATOM     16  H3  UNL     1     -37.202  59.433   2.098  1.00  0.00     0.207 HD
ENDBRANCH  10  12
ENDBRANCH   8  10
ENDBRANCH   7   8
ENDBRANCH   1   7
BRANCH   3  17
HETATM   17  C7  UNL     1     -39.074  56.386   9.398  1.00  0.00     0.145 C 
BRANCH  17  18
HETATM   18  N1  UNL     1     -38.371  56.710  10.416  1.00  0.00    -0.379 N 
ATOM     19  H12 UNL     1     -38.678  57.507  10.974  1.00  0.00     0.158 HD
ATOM     20  H11 UNL     1     -37.529  56.193  10.668  1.00  0.00     0.158 HD
ENDBRANCH  17  18
BRANCH  17  21
HETATM   21  O1  UNL     1     -40.356  55.923   9.619  1.00  0.00    -0.346 OA
ATOM     22  H1  UNL     1     -40.854  56.218  10.372  1.00  0.00     0.219 HD
ENDBRANCH  17  21
ENDBRANCH   3  17
TORSDOF 7
ENDMDL
MODEL 5
REMARK VINA RESULT: -6.678995627      2.276      2.500
REMARK  7 active torsions:
REMARK  status: ('A' for Active; 'I' for Inactive)
REMARK    1  A    between atoms: C2_2  and  C3_3 
REMARK    2  A    between atoms: C2_2  and  N2_16 
REMARK    3  A    between atoms: C3_3  and  C4_4 
REMARK    4  A    between atoms: C6_6  and  C7_7 
REMARK    5  A    between atoms: C7_7  and  N1_8 
REMARK    6  A    between atoms: C7_7  and  O1_11 
REMARK    7  A    between atoms: N2_16  and  N3_18 
ROOT
HETATM    1  C4  UNL     1     -37.490  53.549   7.864  1.00  0.00    -0.013 A 
HETATM    2  C5  UNL     1     -38.281  54.578   8.271  1.00  0.00     0.032 A 
HETATM    3  C6  UNL     1     -38.287  55.700   7.509  1.00  0.00     0.040 A 
HETATM    4  C8  UNL     1     -37.488  55.687   6.396  1.00  0.00     0.066 A 
HETATM    5 BR1  UNL     1     -37.220  57.053   5.085  1.00  0.00    -0.042 Br
HETATM    6  S1  UNL     1     -36.771  54.148   6.443  1.00  0.00    -0.086 SA
ENDROOT
BRANCH   1   7
HETATM    7  C3  UNL     1     -37.311  52.203   8.535  1.00  0.00     0.072 C 
BRANCH   7   8
HETATM    8  C2  UNL     1     -36.485  52.384   9.794  1.00  0.00     0.101 C 
HETATM    9  C1  UNL     1     -35.122  52.887   9.371  1.00  0.00     0.034 C 
BRANCH   8  10
HETATM   10  N2  UNL     1     -36.403  51.118  10.466  1.00  0.00    -0.318 N 
ATOM     11  H2  UNL     1     -35.625  50.909  11.093  1.00  0.00     0.182 HD
BRANCH  10  12
HETATM   12  N3  UNL     1     -37.292  50.289  10.269  1.00  0.00    -0.253 N 
HETATM   13  N4  UNL     1     -38.026  49.313  10.486  1.00  0.00    -0.331 N 
ATOM     14  H42 UNL     1     -37.638  49.044  11.390  1.00  0.00     0.178 HD
ATOM     15  H41 UNL     1     -38.763  48.627  10.322  1.00  0.00     0.178 HD
ATOM     16  H3  UNL     1     -37.644  50.598   9.363  1.00  0.00     0.207 HD
ENDBRANCH  10  12
ENDBRANCH   8  10
ENDBRANCH   7   8
ENDBRANCH   1   7
BRANCH   3  17
HETATM   17  C7  UNL     1     -39.096  56.913   7.816  1.00  0.00     0.145 C 
BRANCH  17  18
HETATM   18  N1  UNL     1     -38.609  57.889   8.484  1.00  0.00    -0.379 N 
ATOM     19  H12 UNL     1     -38.740  57.887   9.495  1.00  0.00     0.158 HD
ATOM     20  H11 UNL     1     -38.105  58.648   8.026  1.00  0.00     0.158 HD
ENDBRANCH  17  18
BRANCH  17  21
HETATM   21  O1  UNL     1     -40.403  57.014   7.383  1.00  0.00    -0.346 OA
ATOM     22  H1  UNL     1     -41.124  56.860   7.981  1.00  0.00     0.219 HD
ENDBRANCH  17  21
ENDBRANCH   3  17
TORSDOF 7
ENDMDL
