MODEL 1
REMARK VINA RESULT: -8.894562060      0.000      0.000
REMARK  2 active torsions:
REMARK  status: ('A' for Active; 'I' for Inactive)
REMARK    1  A    between atoms: C19_23  and  O4_24 
REMARK    2  A    between atoms: C20_26  and  O5_27 
ROOT
HETATM    1  C1  UNL     1      28.430  45.531   8.376  1.00  0.00     0.076 C 
HETATM    2  C2  UNL     1      29.893  45.468   7.881  1.00  0.00     0.042 C 
HETATM    3  C3  UNL     1      30.520  44.395   8.368  1.00  0.00     0.005 C 
HETATM    4  C4  UNL     1      31.928  43.937   8.159  1.00  0.00     0.032 C 
HETATM    5  C5  UNL     1      32.753  45.132   8.176  1.00  0.00     0.046 C 
HETATM    6  C6  UNL     1      34.126  45.305   8.651  1.00  0.00     0.107 C 
HETATM    7  C7  UNL     1      34.333  44.603   9.959  1.00  0.00     0.050 C 
HETATM    8  O1  UNL     1      34.270  46.703   8.906  1.00  0.00    -0.228 OA
HETATM    9  O2  UNL     1      33.188  47.380   8.781  1.00  0.00    -0.232 OA
HETATM   10  C8  UNL     1      33.016  48.245   7.781  1.00  0.00     0.194 C 
HETATM   11  C9  UNL     1      34.244  48.253   6.925  1.00  0.00     0.038 C 
HETATM   12  C10 UNL     1      34.572  47.080   6.105  1.00  0.00     0.009 C 
HETATM   13  C11 UNL     1      35.514  46.069   6.632  1.00  0.00     0.014 C 
HETATM   14  C12 UNL     1      35.986  45.262   5.407  1.00  0.00    -0.019 C 
HETATM   15  C13 UNL     1      37.263  45.784   4.832  1.00  0.00     0.017 C 
HETATM   16  C14 UNL     1      34.950  45.301   4.285  1.00  0.00     0.017 C 
HETATM   17  C15 UNL     1      36.064  43.824   5.826  1.00  0.00     0.160 C 
HETATM   18 CL1  UNL     1      37.726  43.276   6.088  1.00  0.00    -0.116 Cl
HETATM   19  C16 UNL     1      35.237  43.737   7.041  1.00  0.00     0.157 C 
HETATM   20  O3  UNL     1      34.687  42.756   7.435  1.00  0.00    -0.295 OA
HETATM   21  C17 UNL     1      35.234  45.086   7.647  1.00  0.00     0.057 C 
HETATM   22  C18 UNL     1      36.471  45.024   8.595  1.00  0.00     0.027 C 
HETATM   23  C19 UNL     1      31.718  48.475   7.154  1.00  0.00     0.205 C 
HETATM   24  C20 UNL     1      30.937  47.406   6.489  1.00  0.00     0.294 C 
HETATM   25  O6  UNL     1      30.244  46.453   7.095  1.00  0.00    -0.323 OA
ENDROOT
BRANCH  23  26
HETATM   26  O4  UNL     1      30.793  49.021   8.094  1.00  0.00    -0.388 OA
ATOM     27  H4  UNL     1      31.230  49.244   8.907  1.00  0.00     0.210 HD
ENDBRANCH  23  26
BRANCH  24  28
HETATM   28  O5  UNL     1      31.007  47.506   5.191  1.00  0.00    -0.368 OA
ATOM     29  H5  UNL     1      30.260  47.977   4.841  1.00  0.00     0.212 HD
ENDBRANCH  24  28
TORSDOF 2
ENDMDL
MODEL 2
REMARK VINA RESULT: -8.551561135      2.385      5.979
REMARK  2 active torsions:
REMARK  status: ('A' for Active; 'I' for Inactive)
REMARK    1  A    between atoms: C19_23  and  O4_24 
REMARK    2  A    between atoms: C20_26  and  O5_27 
ROOT
HETATM    1  C1  UNL     1      37.007  43.633   4.543  1.00  0.00     0.076 C 
HETATM    2  C2  UNL     1      35.702  44.092   5.233  1.00  0.00     0.042 C 
HETATM    3  C3  UNL     1      35.121  45.082   4.553  1.00  0.00     0.005 C 
HETATM    4  C4  UNL     1      33.858  45.827   4.847  1.00  0.00     0.032 C 
HETATM    5  C5  UNL     1      33.831  46.033   6.284  1.00  0.00     0.046 C 
HETATM    6  C6  UNL     1      33.278  47.150   7.052  1.00  0.00     0.107 C 
HETATM    7  C7  UNL     1      33.637  48.462   6.422  1.00  0.00     0.050 C 
HETATM    8  O1  UNL     1      33.938  47.107   8.319  1.00  0.00    -0.228 OA
HETATM    9  O2  UNL     1      34.873  46.235   8.402  1.00  0.00    -0.232 OA
HETATM   10  C8  UNL     1      34.749  45.148   9.164  1.00  0.00     0.194 C 
HETATM   11  C9  UNL     1      33.412  45.172   9.836  1.00  0.00     0.038 C 
HETATM   12  C10 UNL     1      32.191  44.985   9.043  1.00  0.00     0.009 C 
HETATM   13  C11 UNL     1      31.450  46.173   8.564  1.00  0.00     0.014 C 
HETATM   14  C12 UNL     1      30.043  45.665   8.196  1.00  0.00    -0.019 C 
HETATM   15  C13 UNL     1      29.064  45.819   9.315  1.00  0.00     0.017 C 
HETATM   16  C14 UNL     1      30.067  44.181   7.833  1.00  0.00     0.017 C 
HETATM   17  C15 UNL     1      29.629  46.374   6.940  1.00  0.00     0.160 C 
HETATM   18 CL1  UNL     1      28.446  47.656   7.236  1.00  0.00    -0.116 Cl
HETATM   19  C16 UNL     1      30.885  46.880   6.360  1.00  0.00     0.157 C 
HETATM   20  O3  UNL     1      31.071  47.106   5.204  1.00  0.00    -0.295 OA
HETATM   21  C17 UNL     1      31.834  47.042   7.482  1.00  0.00     0.057 C 
HETATM   22  C18 UNL     1      31.560  48.509   7.936  1.00  0.00     0.027 C 
HETATM   23  C19 UNL     1      35.332  43.860   8.799  1.00  0.00     0.205 C 
HETATM   24  C20 UNL     1      34.989  43.140   7.550  1.00  0.00     0.294 C 
HETATM   25  O6  UNL     1      35.411  43.443   6.332  1.00  0.00    -0.323 OA
ENDROOT
BRANCH  23  26
HETATM   26  O4  UNL     1      36.755  43.946   8.747  1.00  0.00    -0.388 OA
ATOM     27  H4  UNL     1      37.152  43.318   9.339  1.00  0.00     0.210 HD
ENDBRANCH  23  26
BRANCH  24  28
HETATM   28  O5  UNL     1      34.194  42.133   7.787  1.00  0.00    -0.368 OA
ATOM     29  H5  UNL     1      33.298  42.422   7.909  1.00  0.00     0.212 HD
ENDBRANCH  24  28
TORSDOF 2
ENDMDL
MODEL 3
REMARK VINA RESULT: -8.235807774      2.350      5.898
REMARK  2 active torsions:
REMARK  status: ('A' for Active; 'I' for Inactive)
REMARK    1  A    between atoms: C19_23  and  O4_24 
REMARK    2  A    between atoms: C20_26  and  O5_27 
ROOT
HETATM    1  C1  UNL     1      38.412  46.218   5.325  1.00  0.00     0.076 C 
HETATM    2  C2  UNL     1      37.019  45.922   5.927  1.00  0.00     0.042 C 
HETATM    3  C3  UNL     1      36.054  46.519   5.223  1.00  0.00     0.005 C 
HETATM    4  C4  UNL     1      34.575  46.510   5.437  1.00  0.00     0.032 C 
HETATM    5  C5  UNL     1      34.369  46.602   6.872  1.00  0.00     0.046 C 
HETATM    6  C6  UNL     1      33.287  47.248   7.616  1.00  0.00     0.107 C 
HETATM    7  C7  UNL     1      32.967  48.592   7.035  1.00  0.00     0.050 C 
HETATM    8  O1  UNL     1      33.808  47.479   8.926  1.00  0.00    -0.228 OA
HETATM    9  O2  UNL     1      35.051  47.193   9.062  1.00  0.00    -0.232 OA
HETATM   10  C8  UNL     1      35.452  46.154   9.796  1.00  0.00     0.194 C 
HETATM   11  C9  UNL     1      34.252  45.468  10.370  1.00  0.00     0.038 C 
HETATM   12  C10 UNL     1      33.338  44.733   9.487  1.00  0.00     0.009 C 
HETATM   13  C11 UNL     1      32.125  45.409   8.976  1.00  0.00     0.014 C 
HETATM   14  C12 UNL     1      31.190  44.281   8.499  1.00  0.00    -0.019 C 
HETATM   15  C13 UNL     1      30.209  43.864   9.547  1.00  0.00     0.017 C 
HETATM   16  C14 UNL     1      31.981  43.031   8.114  1.00  0.00     0.017 C 
HETATM   17  C15 UNL     1      30.543  44.748   7.228  1.00  0.00     0.160 C 
HETATM   18 CL1  UNL     1      28.860  45.243   7.459  1.00  0.00    -0.116 Cl
HETATM   19  C16 UNL     1      31.400  45.846   6.748  1.00  0.00     0.157 C 
HETATM   20  O3  UNL     1      31.509  46.192   5.613  1.00  0.00    -0.295 OA
HETATM   21  C17 UNL     1      32.075  46.406   7.938  1.00  0.00     0.057 C 
HETATM   22  C18 UNL     1      31.073  47.511   8.396  1.00  0.00     0.027 C 
HETATM   23  C19 UNL     1      36.624  45.355   9.452  1.00  0.00     0.205 C 
HETATM   24  C20 UNL     1      36.761  44.624   8.170  1.00  0.00     0.294 C 
HETATM   25  O6  UNL     1      37.037  45.161   6.990  1.00  0.00    -0.323 OA
ENDROOT
BRANCH  23  26
HETATM   26  O4  UNL     1      37.810  46.148   9.504  1.00  0.00    -0.388 OA
ATOM     27  H4  UNL     1      38.346  45.904  10.249  1.00  0.00     0.210 HD
ENDBRANCH  23  26
BRANCH  24  28
HETATM   28  O5  UNL     1      36.573  43.344   8.332  1.00  0.00    -0.368 OA
ATOM     29  H5  UNL     1      37.396  42.888   8.462  1.00  0.00     0.212 HD
ENDBRANCH  24  28
TORSDOF 2
ENDMDL
MODEL 4
REMARK VINA RESULT: -8.007916930      2.694      5.144
REMARK  2 active torsions:
REMARK  status: ('A' for Active; 'I' for Inactive)
REMARK    1  A    between atoms: C19_23  and  O4_24 
REMARK    2  A    between atoms: C20_26  and  O5_27 
ROOT
HETATM    1  C1  UNL     1      37.191  50.191   7.118  1.00  0.00     0.076 C 
HETATM    2  C2  UNL     1      35.979  49.241   7.257  1.00  0.00     0.042 C 
HETATM    3  C3  UNL     1      36.217  48.288   8.161  1.00  0.00     0.005 C 
HETATM    4  C4  UNL     1      35.339  47.165   8.615  1.00  0.00     0.032 C 
HETATM    5  C5  UNL     1      34.667  46.667   7.428  1.00  0.00     0.046 C 
HETATM    6  C6  UNL     1      34.242  45.304   7.105  1.00  0.00     0.107 C 
HETATM    7  C7  UNL     1      35.309  44.313   7.460  1.00  0.00     0.050 C 
HETATM    8  O1  UNL     1      34.108  45.273   5.683  1.00  0.00    -0.228 OA
HETATM    9  O2  UNL     1      34.493  46.342   5.089  1.00  0.00    -0.232 OA
HETATM   10  C8  UNL     1      33.624  47.164   4.498  1.00  0.00     0.194 C 
HETATM   11  C9  UNL     1      32.241  46.615   4.662  1.00  0.00     0.038 C 
HETATM   12  C10 UNL     1      31.613  46.600   5.990  1.00  0.00     0.009 C 
HETATM   13  C11 UNL     1      31.694  45.375   6.815  1.00  0.00     0.014 C 
HETATM   14  C12 UNL     1      30.591  45.518   7.881  1.00  0.00    -0.019 C 
HETATM   15  C13 UNL     1      29.311  44.859   7.478  1.00  0.00     0.017 C 
HETATM   16  C14 UNL     1      30.265  46.987   8.147  1.00  0.00     0.017 C 
HETATM   17  C15 UNL     1      31.150  44.996   9.172  1.00  0.00     0.160 C 
HETATM   18 CL1  UNL     1      30.525  43.394   9.590  1.00  0.00    -0.116 Cl
HETATM   19  C16 UNL     1      32.611  45.007   8.983  1.00  0.00     0.157 C 
HETATM   20  O3  UNL     1      33.419  45.089   9.855  1.00  0.00    -0.295 OA
HETATM   21  C17 UNL     1      32.850  44.898   7.528  1.00  0.00     0.057 C 
HETATM   22  C18 UNL     1      32.927  43.354   7.322  1.00  0.00     0.027 C 
HETATM   23  C19 UNL     1      33.809  48.611   4.465  1.00  0.00     0.205 C 
HETATM   24  C20 UNL     1      33.912  49.444   5.686  1.00  0.00     0.294 C 
HETATM   25  O6  UNL     1      34.966  49.535   6.483  1.00  0.00    -0.323 OA
ENDROOT
BRANCH  23  26
HETATM   26  O4  UNL     1      34.986  48.954   3.735  1.00  0.00    -0.388 OA
ATOM     27  H4  UNL     1      35.743  48.500   4.084  1.00  0.00     0.210 HD
ENDBRANCH  23  26
BRANCH  24  28
HETATM   28  O5  UNL     1      32.809  50.106   5.903  1.00  0.00    -0.368 OA
ATOM     29  H5  UNL     1      32.096  49.523   6.135  1.00  0.00     0.212 HD
ENDBRANCH  24  28
TORSDOF 2
ENDMDL
MODEL 5
REMARK VINA RESULT: -8.006052580      2.829      5.568
REMARK  2 active torsions:
REMARK  status: ('A' for Active; 'I' for Inactive)
REMARK    1  A    between atoms: C19_23  and  O4_24 
REMARK    2  A    between atoms: C20_26  and  O5_27 
ROOT
HETATM    1  C1  UNL     1      39.513  46.979   8.363  1.00  0.00     0.076 C 
HETATM    2  C2  UNL     1      38.009  46.639   8.248  1.00  0.00     0.042 C 
HETATM    3  C3  UNL     1      37.628  45.810   9.222  1.00  0.00     0.005 C 
HETATM    4  C4  UNL     1      36.282  45.221   9.500  1.00  0.00     0.032 C 
HETATM    5  C5  UNL     1      35.712  44.879   8.208  1.00  0.00     0.046 C 
HETATM    6  C6  UNL     1      34.815  43.778   7.851  1.00  0.00     0.107 C 
HETATM    7  C7  UNL     1      35.256  42.499   8.495  1.00  0.00     0.050 C 
HETATM    8  O1  UNL     1      34.967  43.604   6.441  1.00  0.00    -0.228 OA
HETATM    9  O2  UNL     1      35.884  44.326   5.912  1.00  0.00    -0.232 OA
HETATM   10  C8  UNL     1      35.591  45.339   5.095  1.00  0.00     0.194 C 
HETATM   11  C9  UNL     1      34.105  45.433   4.946  1.00  0.00     0.038 C 
HETATM   12  C10 UNL     1      33.281  45.864   6.082  1.00  0.00     0.009 C 
HETATM   13  C11 UNL     1      32.660  44.843   6.955  1.00  0.00     0.014 C 
HETATM   14  C12 UNL     1      31.539  45.574   7.717  1.00  0.00    -0.019 C 
HETATM   15  C13 UNL     1      30.208  45.447   7.047  1.00  0.00     0.017 C 
HETATM   16  C14 UNL     1      31.831  47.070   7.833  1.00  0.00     0.017 C 
HETATM   17  C15 UNL     1      31.549  45.057   9.125  1.00  0.00     0.160 C 
HETATM   18 CL1  UNL     1      30.226  43.928   9.450  1.00  0.00    -0.116 Cl
HETATM   19  C16 UNL     1      32.877  44.443   9.294  1.00  0.00     0.157 C 
HETATM   20  O3  UNL     1      33.451  44.310  10.330  1.00  0.00    -0.295 OA
HETATM   21  C17 UNL     1      33.331  44.041   7.945  1.00  0.00     0.057 C 
HETATM   22  C18 UNL     1      32.775  42.589   7.830  1.00  0.00     0.027 C 
HETATM   23  C19 UNL     1      36.383  46.564   5.045  1.00  0.00     0.205 C 
HETATM   24  C20 UNL     1      36.589  47.445   6.218  1.00  0.00     0.294 C 
HETATM   25  O6  UNL     1      37.398  47.208   7.241  1.00  0.00    -0.323 OA
ENDROOT
BRANCH  23  26
HETATM   26  O4  UNL     1      37.713  46.288   4.605  1.00  0.00    -0.388 OA
ATOM     27  H4  UNL     1      37.817  45.366   4.405  1.00  0.00     0.210 HD
ENDBRANCH  23  26
BRANCH  24  28
HETATM   28  O5  UNL     1      35.860  48.523   6.135  1.00  0.00    -0.368 OA
ATOM     29  H5  UNL     1      35.003  48.391   6.521  1.00  0.00     0.212 HD
ENDBRANCH  24  28
TORSDOF 2
ENDMDL
