MODEL 1
REMARK VINA RESULT: -7.487551661      0.000      0.000
REMARK  1 active torsions:
REMARK  status: ('A' for Active; 'I' for Inactive)
REMARK    1  A    between atoms: C7_8  and  O2_9 
ROOT
HETATM    1  C1  UNL     1      35.146  46.543  10.121  1.00  0.00     0.046 C 
HETATM    2  C2  UNL     1      35.769  46.127   8.856  1.00  0.00     0.059 C 
HETATM    3  C3  UNL     1      37.116  45.540   9.379  1.00  0.00     0.046 C 
HETATM    4  O1  UNL     1      35.273  45.336   7.970  1.00  0.00    -0.363 OA
HETATM    5  C4  UNL     1      34.100  44.981   7.529  1.00  0.00     0.125 C 
HETATM    6  C5  UNL     1      33.701  45.100   6.084  1.00  0.00     0.048 C 
HETATM    7  C6  UNL     1      34.719  45.088   5.034  1.00  0.00     0.053 C 
HETATM    8  C7  UNL     1      36.121  44.840   5.432  1.00  0.00     0.166 C 
HETATM    9  C8  UNL     1      36.192  43.617   6.204  1.00  0.00     0.298 C 
HETATM   10  O3  UNL     1      37.314  43.001   6.262  1.00  0.00    -0.262 OA
HETATM   11  O4  UNL     1      35.187  42.981   6.924  1.00  0.00    -0.284 OA
HETATM   12  C9  UNL     1      34.149  43.464   7.748  1.00  0.00     0.314 C 
HETATM   13  O5  UNL     1      32.940  42.816   7.598  1.00  0.00    -0.286 OA
HETATM   14  C10 UNL     1      31.775  43.397   8.020  1.00  0.00     0.262 C 
HETATM   15  O6  UNL     1      30.867  42.746   8.561  1.00  0.00    -0.265 OA
HETATM   16  C11 UNL     1      31.614  44.841   7.814  1.00  0.00     0.129 C 
HETATM   17  C12 UNL     1      32.890  45.615   8.235  1.00  0.00     0.096 C 
HETATM   18  S1  UNL     1      32.622  47.250   7.621  1.00  0.00    -0.161 SA
HETATM   19  C13 UNL     1      33.823  48.458   7.552  1.00  0.00     0.075 C 
HETATM   20  C14 UNL     1      35.123  48.460   8.206  1.00  0.00     0.018 C 
HETATM   21  C15 UNL     1      36.105  47.342   7.970  1.00  0.00     0.022 C 
HETATM   22  C16 UNL     1      36.253  47.138   6.546  1.00  0.00     0.036 C 
HETATM   23  C17 UNL     1      36.890  46.055   5.832  1.00  0.00     0.074 C 
HETATM   24  C18 UNL     1      37.226  46.723   4.445  1.00  0.00     0.036 C 
HETATM   25 CL1  UNL     1      38.547  45.623   6.287  1.00  0.00    -0.116 Cl
ENDROOT
BRANCH   8  26
HETATM   26  O2  UNL     1      36.772  44.393   4.229  1.00  0.00    -0.378 OA
ATOM     27  H2  UNL     1      36.117  43.873   3.778  1.00  0.00     0.211 HD
ENDBRANCH   8  26
TORSDOF 1
ENDMDL
MODEL 2
REMARK VINA RESULT: -7.432358018      2.385      3.771
REMARK  1 active torsions:
REMARK  status: ('A' for Active; 'I' for Inactive)
REMARK    1  A    between atoms: C7_8  and  O2_9 
ROOT
HETATM    1  C1  UNL     1      35.101  43.541   6.835  1.00  0.00     0.046 C 
HETATM    2  C2  UNL     1      35.102  44.976   6.513  1.00  0.00     0.059 C 
HETATM    3  C3  UNL     1      35.570  44.936   5.026  1.00  0.00     0.046 C 
HETATM    4  O1  UNL     1      34.118  45.797   6.631  1.00  0.00    -0.363 OA
HETATM    5  C4  UNL     1      33.056  45.946   7.370  1.00  0.00     0.125 C 
HETATM    6  C5  UNL     1      32.784  47.191   8.168  1.00  0.00     0.048 C 
HETATM    7  C6  UNL     1      33.363  48.471   7.758  1.00  0.00     0.053 C 
HETATM    8  C7  UNL     1      34.114  48.515   6.485  1.00  0.00     0.166 C 
HETATM    9  C8  UNL     1      33.288  47.980   5.421  1.00  0.00     0.298 C 
HETATM   10  O3  UNL     1      33.555  48.325   4.217  1.00  0.00    -0.262 OA
HETATM   11  O4  UNL     1      32.206  47.114   5.510  1.00  0.00    -0.284 OA
HETATM   12  C9  UNL     1      31.955  45.975   6.303  1.00  0.00     0.314 C 
HETATM   13  O5  UNL     1      30.668  45.880   6.793  1.00  0.00    -0.286 OA
HETATM   14  C10 UNL     1      30.381  45.073   7.860  1.00  0.00     0.262 C 
HETATM   15  O6  UNL     1      29.337  44.404   7.925  1.00  0.00    -0.265 OA
HETATM   16  C11 UNL     1      31.356  45.012   8.957  1.00  0.00     0.129 C 
HETATM   17  C12 UNL     1      32.800  44.849   8.417  1.00  0.00     0.096 C 
HETATM   18  S1  UNL     1      33.820  45.118   9.835  1.00  0.00    -0.161 SA
HETATM   19  C13 UNL     1      35.510  45.336   9.773  1.00  0.00     0.075 C 
HETATM   20  C14 UNL     1      36.402  45.071   8.654  1.00  0.00     0.018 C 
HETATM   21  C15 UNL     1      36.177  45.731   7.318  1.00  0.00     0.022 C 
HETATM   22  C16 UNL     1      36.018  47.155   7.516  1.00  0.00     0.036 C 
HETATM   23  C17 UNL     1      35.561  48.168   6.592  1.00  0.00     0.074 C 
HETATM   24  C18 UNL     1      36.187  49.479   7.200  1.00  0.00     0.036 C 
HETATM   25 CL1  UNL     1      36.342  48.254   5.004  1.00  0.00    -0.116 Cl
ENDROOT
BRANCH   8  26
HETATM   26  O2  UNL     1      34.113  49.903   6.105  1.00  0.00    -0.378 OA
ATOM     27  H2  UNL     1      34.724  50.318   6.701  1.00  0.00     0.211 HD
ENDBRANCH   8  26
TORSDOF 1
ENDMDL
MODEL 3
REMARK VINA RESULT: -7.395139207      2.407      4.768
REMARK  1 active torsions:
REMARK  status: ('A' for Active; 'I' for Inactive)
REMARK    1  A    between atoms: C7_8  and  O2_9 
ROOT
HETATM    1  C1  UNL     1      37.523  46.155   6.217  1.00  0.00     0.046 C 
HETATM    2  C2  UNL     1      36.527  45.472   7.056  1.00  0.00     0.059 C 
HETATM    3  C3  UNL     1      37.299  45.388   8.408  1.00  0.00     0.046 C 
HETATM    4  O1  UNL     1      35.314  45.844   7.277  1.00  0.00    -0.363 OA
HETATM    5  C4  UNL     1      34.374  46.511   6.672  1.00  0.00     0.125 C 
HETATM    6  C5  UNL     1      33.009  45.940   6.408  1.00  0.00     0.048 C 
HETATM    7  C6  UNL     1      32.478  44.872   7.257  1.00  0.00     0.053 C 
HETATM    8  C7  UNL     1      33.273  44.467   8.436  1.00  0.00     0.166 C 
HETATM    9  C8  UNL     1      33.573  45.636   9.238  1.00  0.00     0.298 C 
HETATM   10  O3  UNL     1      33.847  45.465  10.478  1.00  0.00    -0.262 OA
HETATM   11  O4  UNL     1      33.612  46.970   8.852  1.00  0.00    -0.284 OA
HETATM   12  C9  UNL     1      34.091  47.618   7.694  1.00  0.00     0.314 C 
HETATM   13  O5  UNL     1      33.294  48.646   7.233  1.00  0.00    -0.286 OA
HETATM   14  C10 UNL     1      33.409  49.099   5.947  1.00  0.00     0.262 C 
HETATM   15  O6  UNL     1      33.324  50.304   5.657  1.00  0.00    -0.265 OA
HETATM   16  C11 UNL     1      33.637  48.109   4.887  1.00  0.00     0.129 C 
HETATM   17  C12 UNL     1      34.735  47.092   5.295  1.00  0.00     0.096 C 
HETATM   18  S1  UNL     1      34.630  45.831   4.061  1.00  0.00    -0.161 SA
HETATM   19  C13 UNL     1      35.415  44.322   4.164  1.00  0.00     0.075 C 
HETATM   20  C14 UNL     1      36.475  43.929   5.082  1.00  0.00     0.018 C 
HETATM   21  C15 UNL     1      36.278  44.030   6.572  1.00  0.00     0.022 C 
HETATM   22  C16 UNL     1      35.033  43.387   6.928  1.00  0.00     0.036 C 
HETATM   23  C17 UNL     1      34.304  43.420   8.175  1.00  0.00     0.074 C 
HETATM   24  C18 UNL     1      33.445  42.103   8.093  1.00  0.00     0.036 C 
HETATM   25 CL1  UNL     1      35.185  43.028   9.662  1.00  0.00    -0.116 Cl
ENDROOT
BRANCH   8  26
HETATM   26  O2  UNL     1      32.330  43.822   9.311  1.00  0.00    -0.378 OA
ATOM     27  H2  UNL     1      31.707  44.501   9.540  1.00  0.00     0.211 HD
ENDBRANCH   8  26
TORSDOF 1
ENDMDL
MODEL 4
REMARK VINA RESULT: -7.361420662      2.439      4.513
REMARK  1 active torsions:
REMARK  status: ('A' for Active; 'I' for Inactive)
REMARK    1  A    between atoms: C7_8  and  O2_9 
ROOT
HETATM    1  C1  UNL     1      36.374  47.352   6.086  1.00  0.00     0.046 C 
HETATM    2  C2  UNL     1      35.746  46.307   6.908  1.00  0.00     0.059 C 
HETATM    3  C3  UNL     1      36.791  46.180   8.058  1.00  0.00     0.046 C 
HETATM    4  O1  UNL     1      34.559  46.321   7.406  1.00  0.00    -0.363 OA
HETATM    5  C4  UNL     1      33.392  46.830   7.130  1.00  0.00     0.125 C 
HETATM    6  C5  UNL     1      32.153  45.993   6.978  1.00  0.00     0.048 C 
HETATM    7  C6  UNL     1      32.052  44.695   7.647  1.00  0.00     0.053 C 
HETATM    8  C7  UNL     1      33.148  44.299   8.557  1.00  0.00     0.166 C 
HETATM    9  C8  UNL     1      33.363  45.345   9.535  1.00  0.00     0.298 C 
HETATM   10  O3  UNL     1      33.926  45.032  10.642  1.00  0.00    -0.262 OA
HETATM   11  O4  UNL     1      33.038  46.694   9.454  1.00  0.00    -0.284 OA
HETATM   12  C9  UNL     1      33.110  47.634   8.405  1.00  0.00     0.314 C 
HETATM   13  O5  UNL     1      32.037  48.496   8.323  1.00  0.00    -0.286 OA
HETATM   14  C10 UNL     1      31.775  49.183   7.168  1.00  0.00     0.262 C 
HETATM   15  O6  UNL     1      31.381  50.361   7.171  1.00  0.00    -0.265 OA
HETATM   16  C11 UNL     1      31.972  48.483   5.893  1.00  0.00     0.129 C 
HETATM   17  C12 UNL     1      33.320  47.716   5.875  1.00  0.00     0.096 C 
HETATM   18  S1  UNL     1      33.218  46.706   4.428  1.00  0.00    -0.161 SA
HETATM   19  C13 UNL     1      34.305  45.445   4.061  1.00  0.00     0.075 C 
HETATM   20  C14 UNL     1      35.595  45.172   4.678  1.00  0.00     0.018 C 
HETATM   21  C15 UNL     1      35.706  44.957   6.165  1.00  0.00     0.022 C 
HETATM   22  C16 UNL     1      34.729  43.973   6.573  1.00  0.00     0.036 C 
HETATM   23  C17 UNL     1      34.294  43.603   7.901  1.00  0.00     0.074 C 
HETATM   24  C18 UNL     1      33.732  42.149   7.674  1.00  0.00     0.036 C 
HETATM   25 CL1  UNL     1      35.536  43.187   9.094  1.00  0.00    -0.116 Cl
ENDROOT
BRANCH   8  26
HETATM   26  O2  UNL     1      32.571  43.295   9.412  1.00  0.00    -0.378 OA
ATOM     27  H2  UNL     1      32.444  42.541   8.850  1.00  0.00     0.211 HD
ENDBRANCH   8  26
TORSDOF 1
ENDMDL
MODEL 5
REMARK VINA RESULT: -7.360364157      2.396      5.200
REMARK  1 active torsions:
REMARK  status: ('A' for Active; 'I' for Inactive)
REMARK    1  A    between atoms: C7_8  and  O2_9 
ROOT
HETATM    1  C1  UNL     1      35.155  46.515   3.928  1.00  0.00     0.046 C 
HETATM    2  C2  UNL     1      34.805  45.901   5.217  1.00  0.00     0.059 C 
HETATM    3  C3  UNL     1      35.342  44.453   5.001  1.00  0.00     0.046 C 
HETATM    4  O1  UNL     1      35.142  46.313   6.389  1.00  0.00    -0.363 OA
HETATM    5  C4  UNL     1      35.428  47.436   6.983  1.00  0.00     0.125 C 
HETATM    6  C5  UNL     1      34.698  47.925   8.202  1.00  0.00     0.048 C 
HETATM    7  C6  UNL     1      34.037  46.974   9.097  1.00  0.00     0.053 C 
HETATM    8  C7  UNL     1      34.213  45.531   8.825  1.00  0.00     0.166 C 
HETATM    9  C8  UNL     1      35.627  45.228   8.736  1.00  0.00     0.298 C 
HETATM   10  O3  UNL     1      36.002  44.022   8.948  1.00  0.00    -0.262 OA
HETATM   11  O4  UNL     1      36.684  46.081   8.442  1.00  0.00    -0.284 OA
HETATM   12  C9  UNL     1      36.833  47.138   7.520  1.00  0.00     0.314 C 
HETATM   13  O5  UNL     1      37.517  48.235   8.000  1.00  0.00    -0.286 OA
HETATM   14  C10 UNL     1      37.409  49.453   7.386  1.00  0.00     0.262 C 
HETATM   15  O6  UNL     1      38.379  50.218   7.253  1.00  0.00    -0.265 OA
HETATM   16  C11 UNL     1      36.091  49.851   6.875  1.00  0.00     0.129 C 
HETATM   17  C12 UNL     1      35.418  48.692   6.095  1.00  0.00     0.096 C 
HETATM   18  S1  UNL     1      33.758  49.247   5.854  1.00  0.00    -0.161 SA
HETATM   19  C13 UNL     1      32.488  48.256   5.296  1.00  0.00     0.075 C 
HETATM   20  C14 UNL     1      32.587  46.940   4.682  1.00  0.00     0.018 C 
HETATM   21  C15 UNL     1      33.277  45.808   5.398  1.00  0.00     0.022 C 
HETATM   22  C16 UNL     1      32.745  45.705   6.739  1.00  0.00     0.036 C 
HETATM   23  C17 UNL     1      33.232  44.943   7.867  1.00  0.00     0.074 C 
HETATM   24  C18 UNL     1      31.937  44.790   8.749  1.00  0.00     0.036 C 
HETATM   25 CL1  UNL     1      33.553  43.218   7.625  1.00  0.00    -0.116 Cl
ENDROOT
BRANCH   8  26
HETATM   26  O2  UNL     1      33.915  44.882  10.075  1.00  0.00    -0.378 OA
ATOM     27  H2  UNL     1      33.011  45.109  10.256  1.00  0.00     0.211 HD
ENDBRANCH   8  26
TORSDOF 1
ENDMDL
