MODEL 1
REMARK VINA RESULT: -8.196441503      0.000      0.000
REMARK  1 active torsions:
REMARK  status: ('A' for Active; 'I' for Inactive)
REMARK    1  A    between atoms: C14_17  and  O4_18 
ROOT
HETATM    1  C1  UNL     1      37.775  45.489   8.119  1.00  0.00     0.012 C 
HETATM    2  C2  UNL     1      36.523  46.297   7.747  1.00  0.00     0.015 C 
HETATM    3  C3  UNL     1      35.548  46.159   8.849  1.00  0.00     0.059 C 
HETATM    4  C4  UNL     1      34.139  45.777   8.372  1.00  0.00     0.138 C 
HETATM    5  O1  UNL     1      33.445  45.524   9.541  1.00  0.00    -0.336 OA
HETATM    6  C5  UNL     1      32.215  44.959   9.360  1.00  0.00     0.276 C 
HETATM    7  O2  UNL     1      31.382  45.685   8.518  1.00  0.00    -0.325 OA
HETATM    8  C6  UNL     1      30.215  44.981   8.337  1.00  0.00     0.164 C 
HETATM    9  C7  UNL     1      29.205  45.851   7.577  1.00  0.00     0.079 C 
HETATM   10  C8  UNL     1      29.550  44.539   9.597  1.00  0.00     0.071 C 
HETATM   11  C9  UNL     1      30.155  43.173   9.833  1.00  0.00     0.038 C 
HETATM   12  C10 UNL     1      31.017  42.977   8.618  1.00  0.00     0.138 C 
HETATM   13  O3  UNL     1      30.412  43.780   7.645  1.00  0.00    -0.349 OA
HETATM   14  C11 UNL     1      32.420  43.559   8.835  1.00  0.00     0.035 C 
HETATM   15  C12 UNL     1      33.098  42.691   9.849  1.00  0.00     0.023 C 
HETATM   16  C13 UNL     1      33.172  43.594   7.547  1.00  0.00     0.052 C 
HETATM   17  C14 UNL     1      34.138  44.690   7.377  1.00  0.00     0.164 C 
HETATM   18  S1  UNL     1      33.424  47.320   7.682  1.00  0.00    -0.128 SA
HETATM   19  C15 UNL     1      34.703  48.288   6.840  1.00  0.00     0.087 C 
HETATM   20  C16 UNL     1      35.816  48.698   7.760  1.00  0.00     0.059 C 
HETATM   21  C17 UNL     1      36.982  47.748   7.692  1.00  0.00     0.137 C 
HETATM   22  O5  UNL     1      37.512  48.036   6.434  1.00  0.00    -0.341 OA
HETATM   23  C18 UNL     1      37.580  49.404   6.349  1.00  0.00     0.253 A 
HETATM   24  F1  UNL     1      37.628  49.947   5.102  1.00  0.00    -0.206 F 
HETATM   25  C19 UNL     1      38.519  50.044   7.353  1.00  0.00     0.245 A 
HETATM   26  O6  UNL     1      37.371  50.568   7.984  1.00  0.00    -0.374 OA
HETATM   27  C20 UNL     1      36.433  49.969   7.166  1.00  0.00     0.198 A 
ENDROOT
BRANCH  17  28
HETATM   28  O4  UNL     1      33.962  45.225   6.077  1.00  0.00    -0.392 OA
ATOM     29  H4  UNL     1      33.318  44.714   5.601  1.00  0.00     0.210 HD
ENDBRANCH  17  28
TORSDOF 1
ENDMDL
MODEL 2
REMARK VINA RESULT: -8.158027860      2.844      4.674
REMARK  1 active torsions:
REMARK  status: ('A' for Active; 'I' for Inactive)
REMARK    1  A    between atoms: C14_17  and  O4_18 
ROOT
HETATM    1  C1  UNL     1      34.743  48.010   4.800  1.00  0.00     0.012 C 
HETATM    2  C2  UNL     1      34.296  46.987   5.855  1.00  0.00     0.015 C 
HETATM    3  C3  UNL     1      32.933  46.536   5.503  1.00  0.00     0.059 C 
HETATM    4  C4  UNL     1      31.952  46.586   6.684  1.00  0.00     0.138 C 
HETATM    5  O1  UNL     1      30.723  46.308   6.112  1.00  0.00    -0.336 OA
HETATM    6  C5  UNL     1      29.655  46.504   6.940  1.00  0.00     0.276 C 
HETATM    7  O2  UNL     1      29.736  45.803   8.138  1.00  0.00    -0.325 OA
HETATM    8  C6  UNL     1      28.662  46.145   8.923  1.00  0.00     0.164 C 
HETATM    9  C7  UNL     1      28.622  45.238  10.159  1.00  0.00     0.079 C 
HETATM   10  C8  UNL     1      27.334  46.026   8.252  1.00  0.00     0.071 C 
HETATM   11  C9  UNL     1      27.137  47.401   7.654  1.00  0.00     0.038 C 
HETATM   12  C10 UNL     1      28.340  48.154   8.149  1.00  0.00     0.138 C 
HETATM   13  O3  UNL     1      28.693  47.485   9.327  1.00  0.00    -0.349 OA
HETATM   14  C11 UNL     1      29.529  47.986   7.194  1.00  0.00     0.035 C 
HETATM   15  C12 UNL     1      29.185  48.726   5.939  1.00  0.00     0.023 C 
HETATM   16  C13 UNL     1      30.776  48.512   7.821  1.00  0.00     0.052 C 
HETATM   17  C14 UNL     1      32.032  47.840   7.454  1.00  0.00     0.164 C 
HETATM   18  S1  UNL     1      32.367  45.132   7.724  1.00  0.00    -0.128 SA
HETATM   19  C15 UNL     1      34.156  44.844   7.723  1.00  0.00     0.087 C 
HETATM   20  C16 UNL     1      34.695  44.566   6.350  1.00  0.00     0.059 C 
HETATM   21  C17 UNL     1      35.246  45.807   5.699  1.00  0.00     0.137 C 
HETATM   22  O5  UNL     1      36.408  46.026   6.438  1.00  0.00    -0.341 OA
HETATM   23  C18 UNL     1      37.042  44.813   6.527  1.00  0.00     0.253 A 
HETATM   24  F1  UNL     1      37.931  44.650   7.545  1.00  0.00    -0.206 F 
HETATM   25  C19 UNL     1      37.497  44.249   5.195  1.00  0.00     0.245 A 
HETATM   26  O6  UNL     1      36.504  43.260   5.356  1.00  0.00    -0.374 OA
HETATM   27  C20 UNL     1      35.971  43.738   6.538  1.00  0.00     0.198 A 
ENDROOT
BRANCH  17  28
HETATM   28  O4  UNL     1      32.775  47.630   8.642  1.00  0.00    -0.392 OA
ATOM     29  H4  UNL     1      33.683  47.451   8.428  1.00  0.00     0.210 HD
ENDBRANCH  17  28
TORSDOF 1
ENDMDL
MODEL 3
REMARK VINA RESULT: -7.979247198      4.014      7.436
REMARK  1 active torsions:
REMARK  status: ('A' for Active; 'I' for Inactive)
REMARK    1  A    between atoms: C14_17  and  O4_18 
ROOT
HETATM    1  C1  UNL     1      27.856  46.613   8.714  1.00  0.00     0.012 C 
HETATM    2  C2  UNL     1      28.652  47.616   7.866  1.00  0.00     0.015 C 
HETATM    3  C3  UNL     1      29.357  46.860   6.810  1.00  0.00     0.059 C 
HETATM    4  C4  UNL     1      30.849  47.212   6.701  1.00  0.00     0.138 C 
HETATM    5  O1  UNL     1      31.348  46.285   5.805  1.00  0.00    -0.336 OA
HETATM    6  C5  UNL     1      32.710  46.267   5.707  1.00  0.00     0.276 C 
HETATM    7  O2  UNL     1      33.268  47.502   5.399  1.00  0.00    -0.325 OA
HETATM    8  C6  UNL     1      34.637  47.386   5.417  1.00  0.00     0.164 C 
HETATM    9  C7  UNL     1      35.268  48.679   4.886  1.00  0.00     0.079 C 
HETATM   10  C8  UNL     1      35.180  46.266   4.594  1.00  0.00     0.071 C 
HETATM   11  C9  UNL     1      35.224  45.119   5.579  1.00  0.00     0.038 C 
HETATM   12  C10 UNL     1      34.790  45.767   6.863  1.00  0.00     0.138 C 
HETATM   13  O3  UNL     1      35.138  47.112   6.695  1.00  0.00    -0.349 OA
HETATM   14  C11 UNL     1      33.263  45.739   7.009  1.00  0.00     0.035 C 
HETATM   15  C12 UNL     1      32.873  44.310   7.226  1.00  0.00     0.023 C 
HETATM   16  C13 UNL     1      32.834  46.607   8.143  1.00  0.00     0.052 C 
HETATM   17  C14 UNL     1      31.529  47.271   8.008  1.00  0.00     0.164 C 
HETATM   18  S1  UNL     1      30.906  48.831   5.841  1.00  0.00    -0.128 SA
HETATM   19  C15 UNL     1      29.511  49.869   6.353  1.00  0.00     0.087 C 
HETATM   20  C16 UNL     1      28.182  49.250   6.029  1.00  0.00     0.059 C 
HETATM   21  C17 UNL     1      27.607  48.504   7.203  1.00  0.00     0.137 C 
HETATM   22  O5  UNL     1      27.251  49.546   8.059  1.00  0.00    -0.341 OA
HETATM   23  C18 UNL     1      26.590  50.468   7.287  1.00  0.00     0.253 A 
HETATM   24  F1  UNL     1      26.538  51.746   7.754  1.00  0.00    -0.206 F 
HETATM   25  C19 UNL     1      25.293  49.962   6.686  1.00  0.00     0.245 A 
HETATM   26  O6  UNL     1      25.939  50.010   5.433  1.00  0.00    -0.374 OA
HETATM   27  C20 UNL     1      27.182  50.403   5.891  1.00  0.00     0.198 A 
ENDROOT
BRANCH  17  28
HETATM   28  O4  UNL     1      31.684  48.620   8.410  1.00  0.00    -0.392 OA
ATOM     29  H4  UNL     1      32.199  48.663   9.207  1.00  0.00     0.210 HD
ENDBRANCH  17  28
TORSDOF 1
ENDMDL
MODEL 4
REMARK VINA RESULT: -7.855738218      2.892      4.358
REMARK  1 active torsions:
REMARK  status: ('A' for Active; 'I' for Inactive)
REMARK    1  A    between atoms: C14_17  and  O4_18 
ROOT
HETATM    1  C1  UNL     1      32.331  50.225   4.754  1.00  0.00     0.012 C 
HETATM    2  C2  UNL     1      33.383  49.109   4.821  1.00  0.00     0.015 C 
HETATM    3  C3  UNL     1      32.673  47.813   4.818  1.00  0.00     0.059 C 
HETATM    4  C4  UNL     1      33.140  46.858   5.926  1.00  0.00     0.138 C 
HETATM    5  O1  UNL     1      32.245  45.806   5.864  1.00  0.00    -0.336 OA
HETATM    6  C5  UNL     1      32.335  44.922   6.902  1.00  0.00     0.276 C 
HETATM    7  O2  UNL     1      33.607  44.391   7.080  1.00  0.00    -0.325 OA
HETATM    8  C6  UNL     1      33.599  43.593   8.198  1.00  0.00     0.164 C 
HETATM    9  C7  UNL     1      34.932  42.841   8.300  1.00  0.00     0.079 C 
HETATM   10  C8  UNL     1      32.516  42.568   8.228  1.00  0.00     0.071 C 
HETATM   11  C9  UNL     1      31.388  43.294   8.928  1.00  0.00     0.038 C 
HETATM   12  C10 UNL     1      32.015  44.610   9.292  1.00  0.00     0.138 C 
HETATM   13  O3  UNL     1      33.382  44.319   9.376  1.00  0.00    -0.349 OA
HETATM   14  C11 UNL     1      31.868  45.627   8.152  1.00  0.00     0.035 C 
HETATM   15  C12 UNL     1      30.416  45.979   8.069  1.00  0.00     0.023 C 
HETATM   16  C13 UNL     1      32.713  46.827   8.416  1.00  0.00     0.052 C 
HETATM   17  C14 UNL     1      33.269  47.513   7.240  1.00  0.00     0.164 C 
HETATM   18  S1  UNL     1      34.749  46.191   5.348  1.00  0.00    -0.128 SA
HETATM   19  C15 UNL     1      35.678  47.465   4.456  1.00  0.00     0.087 C 
HETATM   20  C16 UNL     1      34.952  47.965   3.241  1.00  0.00     0.059 C 
HETATM   21  C17 UNL     1      34.177  49.224   3.526  1.00  0.00     0.137 C 
HETATM   22  O5  UNL     1      35.198  50.162   3.672  1.00  0.00    -0.341 OA
HETATM   23  C18 UNL     1      36.055  49.964   2.619  1.00  0.00     0.253 A 
HETATM   24  F1  UNL     1      37.330  50.419   2.762  1.00  0.00    -0.206 F 
HETATM   25  C19 UNL     1      35.440  50.226   1.257  1.00  0.00     0.245 A 
HETATM   26  O6  UNL     1      35.524  48.836   1.032  1.00  0.00    -0.374 OA
HETATM   27  C20 UNL     1      36.020  48.487   2.273  1.00  0.00     0.198 A 
ENDROOT
BRANCH  17  28
HETATM   28  O4  UNL     1      34.632  47.796   7.507  1.00  0.00    -0.392 OA
ATOM     29  H4  UNL     1      34.753  47.958   8.435  1.00  0.00     0.210 HD
ENDBRANCH  17  28
TORSDOF 1
ENDMDL
MODEL 5
REMARK VINA RESULT: -7.838534358      2.790      7.107
REMARK  1 active torsions:
REMARK  status: ('A' for Active; 'I' for Inactive)
REMARK    1  A    between atoms: C14_17  and  O4_18 
ROOT
HETATM    1  C1  UNL     1      31.720  48.784   7.660  1.00  0.00     0.012 C 
HETATM    2  C2  UNL     1      32.173  47.317   7.601  1.00  0.00     0.015 C 
HETATM    3  C3  UNL     1      33.382  47.181   8.440  1.00  0.00     0.059 C 
HETATM    4  C4  UNL     1      34.534  46.451   7.734  1.00  0.00     0.138 C 
HETATM    5  O1  UNL     1      35.603  46.590   8.600  1.00  0.00    -0.336 OA
HETATM    6  C5  UNL     1      36.805  46.197   8.086  1.00  0.00     0.276 C 
HETATM    7  O2  UNL     1      36.812  44.893   7.606  1.00  0.00    -0.325 OA
HETATM    8  C6  UNL     1      38.035  44.639   7.034  1.00  0.00     0.164 C 
HETATM    9  C7  UNL     1      38.136  43.150   6.680  1.00  0.00     0.079 C 
HETATM   10  C8  UNL     1      39.208  44.962   7.898  1.00  0.00     0.071 C 
HETATM   11  C9  UNL     1      39.508  46.399   7.531  1.00  0.00     0.038 C 
HETATM   12  C10 UNL     1      38.522  46.673   6.431  1.00  0.00     0.138 C 
HETATM   13  O3  UNL     1      38.264  45.409   5.888  1.00  0.00    -0.349 OA
HETATM   14  C11 UNL     1      37.185  47.171   6.997  1.00  0.00     0.035 C 
HETATM   15  C12 UNL     1      37.432  48.539   7.552  1.00  0.00     0.023 C 
HETATM   16  C13 UNL     1      36.143  47.187   5.930  1.00  0.00     0.052 C 
HETATM   17  C14 UNL     1      34.761  46.921   6.355  1.00  0.00     0.164 C 
HETATM   18  S1  UNL     1      34.080  44.674   7.770  1.00  0.00    -0.128 SA
HETATM   19  C15 UNL     1      32.290  44.474   7.566  1.00  0.00     0.087 C 
HETATM   20  C16 UNL     1      31.506  45.146   8.655  1.00  0.00     0.059 C 
HETATM   21  C17 UNL     1      31.047  46.522   8.251  1.00  0.00     0.137 C 
HETATM   22  O5  UNL     1      30.061  46.230   7.309  1.00  0.00    -0.341 OA
HETATM   23  C18 UNL     1      29.278  45.250   7.863  1.00  0.00     0.253 A 
HETATM   24  F1  UNL     1      28.547  44.482   7.009  1.00  0.00    -0.206 F 
HETATM   25  C19 UNL     1      28.541  45.676   9.118  1.00  0.00     0.245 A 
HETATM   26  O6  UNL     1      29.392  44.802   9.828  1.00  0.00    -0.374 OA
HETATM   27  C20 UNL     1      30.168  44.405   8.756  1.00  0.00     0.198 A 
ENDROOT
BRANCH  17  28
HETATM   28  O4  UNL     1      34.192  46.007   5.434  1.00  0.00    -0.392 OA
ATOM     29  H4  UNL     1      33.369  45.676   5.773  1.00  0.00     0.210 HD
ENDBRANCH  17  28
TORSDOF 1
ENDMDL
