MODEL 1
REMARK VINA RESULT: -7.194853369      0.000      0.000
REMARK  1 active torsions:
REMARK  status: ('A' for Active; 'I' for Inactive)
REMARK    1  A    between atoms: C11_14  and  O4_15 
ROOT
HETATM    1  C1  UNL     1     -35.294 -15.054  58.799  1.00  0.00     0.024 C 
HETATM    2  C2  UNL     1     -34.412 -15.383  59.991  1.00  0.00     0.121 C 
HETATM    3  C3  UNL     1     -34.944 -14.651  61.171  1.00  0.00     0.265 C 
HETATM    4  O1  UNL     1     -35.520 -13.523  61.124  1.00  0.00    -0.265 OA
HETATM    5  O2  UNL     1     -34.665 -15.470  62.254  1.00  0.00    -0.318 OA
HETATM    6  C4  UNL     1     -34.894 -16.794  61.808  1.00  0.00     0.221 C 
HETATM    7  C5  UNL     1     -34.506 -16.852  60.353  1.00  0.00     0.133 C 
HETATM    8  O3  UNL     1     -35.552 -17.380  59.646  1.00  0.00    -0.333 OA
HETATM    9  C6  UNL     1     -35.457 -18.690  59.304  1.00  0.00     0.224 C 
HETATM   10  C7  UNL     1     -36.298 -18.901  58.038  1.00  0.00     0.074 C 
HETATM   11  C8  UNL     1     -36.316 -20.368  57.655  1.00  0.00     0.006 C 
HETATM   12  C9  UNL     1     -36.947 -21.117  58.816  1.00  0.00     0.003 C 
HETATM   13  C10 UNL     1     -35.971 -21.043  59.969  1.00  0.00     0.037 C 
HETATM   14  C11 UNL     1     -35.968 -19.578  60.425  1.00  0.00     0.183 C 
HETATM   15  O5  UNL     1     -34.179 -19.128  58.991  1.00  0.00    -0.197 OA
HETATM   16  O6  UNL     1     -33.459 -18.955  60.104  1.00  0.00    -0.223 OA
HETATM   17  C12 UNL     1     -33.199 -17.568  60.138  1.00  0.00     0.130 C 
HETATM   18  C13 UNL     1     -32.572 -17.229  58.813  1.00  0.00     0.045 C 
HETATM   19  C14 UNL     1     -31.414 -18.220  58.621  1.00  0.00     0.019 C 
HETATM   20  C15 UNL     1     -30.334 -17.781  59.596  1.00  0.00     0.058 C 
HETATM   21 BR1  UNL     1     -29.604 -19.353  60.488  1.00  0.00    -0.091 Br
HETATM   22  C16 UNL     1     -30.853 -16.864  60.662  1.00  0.00     0.019 C 
HETATM   23  C17 UNL     1     -32.200 -17.332  61.215  1.00  0.00     0.045 C 
ENDROOT
BRANCH  14  24
HETATM   24  O4  UNL     1     -37.274 -19.287  60.780  1.00  0.00    -0.390 OA
ATOM     25  H4  UNL     1     -37.370 -19.117  61.709  1.00  0.00     0.210 HD
ENDBRANCH  14  24
TORSDOF 1
ENDMDL
MODEL 2
REMARK VINA RESULT: -7.122883865      2.563      5.469
REMARK  1 active torsions:
REMARK  status: ('A' for Active; 'I' for Inactive)
REMARK    1  A    between atoms: C11_14  and  O4_15 
ROOT
HETATM    1  C1  UNL     1     -30.968 -18.220  59.133  1.00  0.00     0.024 C 
HETATM    2  C2  UNL     1     -32.248 -19.027  59.260  1.00  0.00     0.121 C 
HETATM    3  C3  UNL     1     -32.003 -20.127  60.230  1.00  0.00     0.265 C 
HETATM    4  O1  UNL     1     -30.889 -20.709  60.398  1.00  0.00    -0.265 OA
HETATM    5  O2  UNL     1     -33.223 -20.330  60.854  1.00  0.00    -0.318 OA
HETATM    6  C4  UNL     1     -33.783 -19.043  61.040  1.00  0.00     0.221 C 
HETATM    7  C5  UNL     1     -33.361 -18.196  59.868  1.00  0.00     0.133 C 
HETATM    8  O3  UNL     1     -32.796 -17.045  60.346  1.00  0.00    -0.333 OA
HETATM    9  C6  UNL     1     -33.579 -15.936  60.345  1.00  0.00     0.224 C 
HETATM   10  C7  UNL     1     -32.653 -14.715  60.258  1.00  0.00     0.074 C 
HETATM   11  C8  UNL     1     -33.459 -13.434  60.352  1.00  0.00     0.006 C 
HETATM   12  C9  UNL     1     -34.153 -13.451  61.702  1.00  0.00     0.003 C 
HETATM   13  C10 UNL     1     -35.196 -14.546  61.647  1.00  0.00     0.037 C 
HETATM   14  C11 UNL     1     -34.417 -15.867  61.609  1.00  0.00     0.183 C 
HETATM   15  O5  UNL     1     -34.453 -15.830  59.274  1.00  0.00    -0.197 OA
HETATM   16  O6  UNL     1     -35.264 -16.888  59.369  1.00  0.00    -0.223 OA
HETATM   17  C12 UNL     1     -34.486 -17.966  58.893  1.00  0.00     0.130 C 
HETATM   18  C13 UNL     1     -33.990 -17.556  57.533  1.00  0.00     0.045 C 
HETATM   19  C14 UNL     1     -35.229 -17.101  56.746  1.00  0.00     0.019 C 
HETATM   20  C15 UNL     1     -35.998 -18.371  56.424  1.00  0.00     0.058 C 
HETATM   21 BR1  UNL     1     -37.896 -18.065  56.750  1.00  0.00    -0.091 Br
HETATM   22  C16 UNL     1     -35.582 -19.533  57.275  1.00  0.00     0.019 C 
HETATM   23  C17 UNL     1     -35.396 -19.134  58.740  1.00  0.00     0.045 C 
ENDROOT
BRANCH  14  24
HETATM   24  O4  UNL     1     -33.646 -15.887  62.759  1.00  0.00    -0.390 OA
ATOM     25  H4  UNL     1     -34.122 -15.582  63.523  1.00  0.00     0.210 HD
ENDBRANCH  14  24
TORSDOF 1
ENDMDL
MODEL 3
REMARK VINA RESULT: -6.779198030      2.332      4.398
REMARK  1 active torsions:
REMARK  status: ('A' for Active; 'I' for Inactive)
REMARK    1  A    between atoms: C11_14  and  O4_15 
ROOT
HETATM    1  C1  UNL     1     -31.641 -20.634  60.364  1.00  0.00     0.024 C 
HETATM    2  C2  UNL     1     -31.353 -19.208  59.927  1.00  0.00     0.121 C 
HETATM    3  C3  UNL     1     -30.269 -19.250  58.910  1.00  0.00     0.265 C 
HETATM    4  O1  UNL     1     -29.331 -20.102  58.888  1.00  0.00    -0.265 OA
HETATM    5  O2  UNL     1     -30.538 -18.190  58.059  1.00  0.00    -0.318 OA
HETATM    6  C4  UNL     1     -31.945 -18.162  57.907  1.00  0.00     0.221 C 
HETATM    7  C5  UNL     1     -32.547 -18.602  59.216  1.00  0.00     0.133 C 
HETATM    8  O3  UNL     1     -33.432 -19.616  58.967  1.00  0.00    -0.333 OA
HETATM    9  C6  UNL     1     -34.748 -19.284  58.939  1.00  0.00     0.224 C 
HETATM   10  C7  UNL     1     -35.550 -20.537  59.315  1.00  0.00     0.074 C 
HETATM   11  C8  UNL     1     -37.038 -20.263  59.208  1.00  0.00     0.006 C 
HETATM   12  C9  UNL     1     -37.313 -19.899  57.760  1.00  0.00     0.003 C 
HETATM   13  C10 UNL     1     -36.666 -18.554  57.514  1.00  0.00     0.037 C 
HETATM   14  C11 UNL     1     -35.153 -18.800  57.558  1.00  0.00     0.183 C 
HETATM   15  O5  UNL     1     -35.129 -18.301  59.840  1.00  0.00    -0.197 OA
HETATM   16  O6  UNL     1     -34.437 -17.212  59.493  1.00  0.00    -0.223 OA
HETATM   17  C12 UNL     1     -33.137 -17.453  59.989  1.00  0.00     0.130 C 
HETATM   18  C13 UNL     1     -33.300 -17.769  61.451  1.00  0.00     0.045 C 
HETATM   19  C14 UNL     1     -34.146 -16.632  62.044  1.00  0.00     0.019 C 
HETATM   20  C15 UNL     1     -33.229 -15.422  62.090  1.00  0.00     0.058 C 
HETATM   21 BR1  UNL     1     -34.208 -13.858  61.460  1.00  0.00    -0.091 Br
HETATM   22  C16 UNL     1     -32.022 -15.574  61.215  1.00  0.00     0.019 C 
HETATM   23  C17 UNL     1     -32.372 -16.183  59.856  1.00  0.00     0.045 C 
ENDROOT
BRANCH  14  24
HETATM   24  O4  UNL     1     -34.891 -19.735  56.570  1.00  0.00    -0.390 OA
ATOM     25  H4  UNL     1     -35.284 -19.504  55.737  1.00  0.00     0.210 HD
ENDBRANCH  14  24
TORSDOF 1
ENDMDL
MODEL 4
REMARK VINA RESULT: -6.763395992      2.557      4.926
REMARK  1 active torsions:
REMARK  status: ('A' for Active; 'I' for Inactive)
REMARK    1  A    between atoms: C11_14  and  O4_15 
ROOT
HETATM    1  C1  UNL     1     -34.866 -17.286  56.707  1.00  0.00     0.024 C 
HETATM    2  C2  UNL     1     -35.610 -18.045  57.791  1.00  0.00     0.121 C 
HETATM    3  C3  UNL     1     -36.520 -19.017  57.129  1.00  0.00     0.265 C 
HETATM    4  O1  UNL     1     -37.084 -18.834  56.009  1.00  0.00    -0.265 OA
HETATM    5  O2  UNL     1     -36.581 -20.096  57.998  1.00  0.00    -0.318 OA
HETATM    6  C4  UNL     1     -35.271 -20.257  58.509  1.00  0.00     0.221 C 
HETATM    7  C5  UNL     1     -34.661 -18.884  58.622  1.00  0.00     0.133 C 
HETATM    8  O3  UNL     1     -33.453 -18.892  57.978  1.00  0.00    -0.333 OA
HETATM    9  C6  UNL     1     -32.347 -19.005  58.757  1.00  0.00     0.224 C 
HETATM   10  C7  UNL     1     -31.182 -18.348  58.004  1.00  0.00     0.074 C 
HETATM   11  C8  UNL     1     -29.889 -18.525  58.777  1.00  0.00     0.006 C 
HETATM   12  C9  UNL     1     -29.645 -20.019  58.888  1.00  0.00     0.003 C 
HETATM   13  C10 UNL     1     -30.710 -20.571  59.810  1.00  0.00     0.037 C 
HETATM   14  C11 UNL     1     -32.032 -20.463  59.039  1.00  0.00     0.183 C 
HETATM   15  O5  UNL     1     -32.420 -18.362  59.984  1.00  0.00    -0.197 OA
HETATM   16  O6  UNL     1     -33.427 -18.952  60.636  1.00  0.00    -0.223 OA
HETATM   17  C12 UNL     1     -34.589 -18.406  60.048  1.00  0.00     0.130 C 
HETATM   18  C13 UNL     1     -34.444 -16.912  60.144  1.00  0.00     0.045 C 
HETATM   19  C14 UNL     1     -34.115 -16.607  61.614  1.00  0.00     0.019 C 
HETATM   20  C15 UNL     1     -35.406 -16.842  62.379  1.00  0.00     0.058 C 
HETATM   21 BR1  UNL     1     -35.007 -17.828  64.013  1.00  0.00    -0.091 Br
HETATM   22  C16 UNL     1     -36.402 -17.651  61.603  1.00  0.00     0.019 C 
HETATM   23  C17 UNL     1     -35.746 -18.830  60.883  1.00  0.00     0.045 C 
ENDROOT
BRANCH  14  24
HETATM   24  O4  UNL     1     -31.858 -21.202  57.881  1.00  0.00    -0.390 OA
ATOM     25  H4  UNL     1     -32.446 -20.933  57.185  1.00  0.00     0.210 HD
ENDBRANCH  14  24
TORSDOF 1
ENDMDL
MODEL 5
REMARK VINA RESULT: -6.716784472      2.419      3.904
REMARK  1 active torsions:
REMARK  status: ('A' for Active; 'I' for Inactive)
REMARK    1  A    between atoms: C11_14  and  O4_15 
ROOT
HETATM    1  C1  UNL     1     -32.599 -14.816  60.047  1.00  0.00     0.024 C 
HETATM    2  C2  UNL     1     -33.175 -16.012  60.784  1.00  0.00     0.121 C 
HETATM    3  C3  UNL     1     -33.236 -15.675  62.230  1.00  0.00     0.265 C 
HETATM    4  O1  UNL     1     -32.416 -14.918  62.832  1.00  0.00    -0.265 OA
HETATM    5  O2  UNL     1     -34.345 -16.356  62.708  1.00  0.00    -0.318 OA
HETATM    6  C4  UNL     1     -35.328 -16.257  61.695  1.00  0.00     0.221 C 
HETATM    7  C5  UNL     1     -34.610 -16.270  60.370  1.00  0.00     0.133 C 
HETATM    8  O3  UNL     1     -35.026 -15.189  59.641  1.00  0.00    -0.333 OA
HETATM    9  C6  UNL     1     -35.955 -15.422  58.680  1.00  0.00     0.224 C 
HETATM   10  C7  UNL     1     -35.792 -14.339  57.605  1.00  0.00     0.074 C 
HETATM   11  C8  UNL     1     -36.867 -14.482  56.545  1.00  0.00     0.006 C 
HETATM   12  C9  UNL     1     -38.201 -14.304  57.247  1.00  0.00     0.003 C 
HETATM   13  C10 UNL     1     -38.393 -15.510  58.140  1.00  0.00     0.037 C 
HETATM   14  C11 UNL     1     -37.357 -15.372  59.262  1.00  0.00     0.183 C 
HETATM   15  O5  UNL     1     -35.834 -16.636  58.022  1.00  0.00    -0.197 OA
HETATM   16  O6  UNL     1     -35.993 -17.571  58.964  1.00  0.00    -0.223 OA
HETATM   17  C12 UNL     1     -34.760 -17.585  59.652  1.00  0.00     0.130 C 
HETATM   18  C13 UNL     1     -33.700 -17.790  58.604  1.00  0.00     0.045 C 
HETATM   19  C14 UNL     1     -34.135 -19.017  57.789  1.00  0.00     0.019 C 
HETATM   20  C15 UNL     1     -33.907 -20.213  58.697  1.00  0.00     0.058 C 
HETATM   21 BR1  UNL     1     -35.444 -21.407  58.575  1.00  0.00    -0.091 Br
HETATM   22  C16 UNL     1     -33.756 -19.828  60.138  1.00  0.00     0.019 C 
HETATM   23  C17 UNL     1     -34.775 -18.766  60.557  1.00  0.00     0.045 C 
ENDROOT
BRANCH  14  24
HETATM   24  O4  UNL     1     -37.630 -14.167  59.887  1.00  0.00    -0.390 OA
ATOM     25  H4  UNL     1     -37.841 -14.273  60.807  1.00  0.00     0.210 HD
ENDBRANCH  14  24
TORSDOF 1
ENDMDL
