MODEL 1
REMARK VINA RESULT: -7.609223088      0.000      0.000
REMARK  1 active torsions:
REMARK  status: ('A' for Active; 'I' for Inactive)
REMARK       I    between atoms: C2_2  and  N1_4 
REMARK    1  A    between atoms: N2_21  and  O5_23 
ROOT
HETATM    1  C1  UNL     1     -36.591 -20.180  59.956  1.00  0.00     0.117 C 
HETATM    2  C2  UNL     1     -35.924 -20.436  58.670  1.00  0.00     0.215 C 
HETATM    3  O1  UNL     1     -36.542 -21.085  57.788  1.00  0.00    -0.274 OA
HETATM    4  N1  UNL     1     -34.611 -19.988  58.362  1.00  0.00    -0.348 N 
HETATM    5  C3  UNL     1     -33.987 -20.252  57.104  1.00  0.00     0.152 C 
HETATM    6  C4  UNL     1     -34.145 -21.664  56.614  1.00  0.00     0.187 C 
HETATM    7  O2  UNL     1     -34.038 -22.523  57.684  1.00  0.00    -0.387 OA
HETATM    8  C5  UNL     1     -34.148 -23.862  57.322  1.00  0.00     0.194 C 
HETATM    9  C6  UNL     1     -32.739 -24.415  57.067  1.00  0.00     0.205 C 
HETATM   10  O3  UNL     1     -31.884 -23.859  58.050  1.00  0.00    -0.319 OA
HETATM   11  C7  UNL     1     -30.872 -24.552  58.680  1.00  0.00     0.258 C 
HETATM   12  O4  UNL     1     -30.640 -24.570  59.909  1.00  0.00    -0.265 OA
HETATM   13  C8  UNL     1     -29.965 -25.356  57.829  1.00  0.00     0.111 C 
HETATM   14  C9  UNL     1     -29.382 -24.411  56.784  1.00  0.00     0.010 C 
HETATM   15  C10 UNL     1     -27.882 -24.332  56.870  1.00  0.00     0.000 C 
HETATM   16  C11 UNL     1     -27.420 -23.454  58.030  1.00  0.00     0.000 C 
HETATM   17  C12 UNL     1     -27.733 -22.017  57.777  1.00  0.00     0.000 C 
HETATM   18  C13 UNL     1     -28.582 -21.392  58.867  1.00  0.00     0.006 C 
HETATM   19  C14 UNL     1     -28.367 -19.899  58.793  1.00  0.00     0.060 C 
HETATM   20  C15 UNL     1     -28.602 -19.216  60.073  1.00  0.00     0.042 C 
HETATM   21  N2  UNL     1     -27.607 -19.108  60.884  1.00  0.00    -0.273 N 
ATOM     22  H2  UNL     1     -27.758 -18.636  61.775  1.00  0.00     0.194 HD
HETATM   23  C16 UNL     1     -29.878 -18.645  60.504  1.00  0.00     0.017 C 
HETATM   24  C17 UNL     1     -29.896 -17.579  61.284  1.00  0.00     0.199 C 
HETATM   25  F1  UNL     1     -31.092 -17.074  61.665  1.00  0.00    -0.219 F 
HETATM   26  C18 UNL     1     -31.182 -19.222  60.094  1.00  0.00     0.210 C 
HETATM   27  O6  UNL     1     -31.611 -18.743  58.870  1.00  0.00    -0.385 OA
HETATM   28  C19 UNL     1     -32.898 -18.287  58.849  1.00  0.00     0.188 C 
HETATM   29  C20 UNL     1     -33.919 -19.237  59.400  1.00  0.00     0.152 C 
ENDROOT
BRANCH  21  30
HETATM   30  O5  UNL     1     -26.359 -19.595  60.610  1.00  0.00    -0.290 OA
ATOM     31  H5  UNL     1     -25.734 -19.836  61.284  1.00  0.00     0.244 HD
ENDBRANCH  21  30
TORSDOF 1
ENDMDL
MODEL 2
REMARK VINA RESULT: -7.554042492      4.528      8.200
REMARK  1 active torsions:
REMARK  status: ('A' for Active; 'I' for Inactive)
REMARK       I    between atoms: C2_2  and  N1_4 
REMARK    1  A    between atoms: N2_21  and  O5_23 
ROOT
HETATM    1  C1  UNL     1     -36.883 -23.341  58.711  1.00  0.00     0.117 C 
HETATM    2  C2  UNL     1     -35.875 -22.500  58.047  1.00  0.00     0.215 C 
HETATM    3  O1  UNL     1     -34.741 -22.988  57.812  1.00  0.00    -0.274 OA
HETATM    4  N1  UNL     1     -36.109 -21.155  57.653  1.00  0.00    -0.348 N 
HETATM    5  C3  UNL     1     -35.111 -20.360  57.011  1.00  0.00     0.152 C 
HETATM    6  C4  UNL     1     -33.745 -20.451  57.633  1.00  0.00     0.187 C 
HETATM    7  O2  UNL     1     -33.881 -20.500  59.002  1.00  0.00    -0.387 OA
HETATM    8  C5  UNL     1     -32.661 -20.563  59.669  1.00  0.00     0.194 C 
HETATM    9  C6  UNL     1     -32.225 -19.134  60.021  1.00  0.00     0.205 C 
HETATM   10  O3  UNL     1     -33.385 -18.424  60.417  1.00  0.00    -0.319 OA
HETATM   11  C7  UNL     1     -33.421 -17.515  61.453  1.00  0.00     0.258 C 
HETATM   12  O4  UNL     1     -34.281 -17.458  62.360  1.00  0.00    -0.265 OA
HETATM   13  C8  UNL     1     -32.344 -16.499  61.505  1.00  0.00     0.111 C 
HETATM   14  C9  UNL     1     -32.355 -15.771  60.165  1.00  0.00     0.010 C 
HETATM   15  C10 UNL     1     -32.615 -14.297  60.328  1.00  0.00     0.000 C 
HETATM   16  C11 UNL     1     -34.090 -14.001  60.584  1.00  0.00     0.000 C 
HETATM   17  C12 UNL     1     -34.915 -14.270  59.369  1.00  0.00     0.000 C 
HETATM   18  C13 UNL     1     -36.033 -15.263  59.616  1.00  0.00     0.006 C 
HETATM   19  C14 UNL     1     -37.072 -15.034  58.544  1.00  0.00     0.060 C 
HETATM   20  C15 UNL     1     -38.423 -15.445  58.950  1.00  0.00     0.042 C 
HETATM   21  N2  UNL     1     -39.158 -14.574  59.552  1.00  0.00    -0.273 N 
ATOM     22  H2  UNL     1     -40.098 -14.848  59.838  1.00  0.00     0.194 HD
HETATM   23  C16 UNL     1     -39.008 -16.767  58.724  1.00  0.00     0.017 C 
HETATM   24  C17 UNL     1     -40.309 -16.892  58.531  1.00  0.00     0.199 C 
HETATM   25  F1  UNL     1     -40.819 -18.128  58.324  1.00  0.00    -0.219 F 
HETATM   26  C18 UNL     1     -38.186 -18.003  58.702  1.00  0.00     0.210 C 
HETATM   27  O6  UNL     1     -37.641 -18.253  57.455  1.00  0.00    -0.385 OA
HETATM   28  C19 UNL     1     -37.829 -19.522  56.988  1.00  0.00     0.188 C 
HETATM   29  C20 UNL     1     -37.431 -20.614  57.936  1.00  0.00     0.152 C 
ENDROOT
BRANCH  21  30
HETATM   30  O5  UNL     1     -38.740 -13.302  59.828  1.00  0.00    -0.290 OA
ATOM     31  H5  UNL     1     -38.916 -12.863  60.651  1.00  0.00     0.244 HD
ENDBRANCH  21  30
TORSDOF 1
ENDMDL
MODEL 3
REMARK VINA RESULT: -7.394911326      1.146      1.247
REMARK  1 active torsions:
REMARK  status: ('A' for Active; 'I' for Inactive)
REMARK       I    between atoms: C2_2  and  N1_4 
REMARK    1  A    between atoms: N2_21  and  O5_23 
ROOT
HETATM    1  C1  UNL     1     -35.462 -19.714  60.457  1.00  0.00     0.117 C 
HETATM    2  C2  UNL     1     -35.002 -20.000  59.090  1.00  0.00     0.215 C 
HETATM    3  O1  UNL     1     -35.828 -20.447  58.254  1.00  0.00    -0.274 OA
HETATM    4  N1  UNL     1     -33.664 -19.801  58.653  1.00  0.00    -0.348 N 
HETATM    5  C3  UNL     1     -33.244 -20.088  57.318  1.00  0.00     0.152 C 
HETATM    6  C4  UNL     1     -33.739 -21.401  56.777  1.00  0.00     0.187 C 
HETATM    7  O2  UNL     1     -33.699 -22.341  57.782  1.00  0.00    -0.387 OA
HETATM    8  C5  UNL     1     -34.120 -23.601  57.367  1.00  0.00     0.194 C 
HETATM    9  C6  UNL     1     -32.889 -24.402  56.919  1.00  0.00     0.205 C 
HETATM   10  O3  UNL     1     -31.839 -24.101  57.821  1.00  0.00    -0.319 OA
HETATM   11  C7  UNL     1     -30.931 -25.027  58.290  1.00  0.00     0.258 C 
HETATM   12  O4  UNL     1     -30.579 -25.182  59.481  1.00  0.00    -0.265 OA
HETATM   13  C8  UNL     1     -30.303 -25.929  57.297  1.00  0.00     0.111 C 
HETATM   14  C9  UNL     1     -29.652 -25.043  56.241  1.00  0.00     0.010 C 
HETATM   15  C10 UNL     1     -28.167 -25.270  56.154  1.00  0.00     0.000 C 
HETATM   16  C11 UNL     1     -27.414 -24.590  57.294  1.00  0.00     0.000 C 
HETATM   17  C12 UNL     1     -27.450 -23.104  57.155  1.00  0.00     0.000 C 
HETATM   18  C13 UNL     1     -28.034 -22.406  58.368  1.00  0.00     0.006 C 
HETATM   19  C14 UNL     1     -27.525 -20.985  58.346  1.00  0.00     0.060 C 
HETATM   20  C15 UNL     1     -27.479 -20.366  59.678  1.00  0.00     0.042 C 
HETATM   21  N2  UNL     1     -26.403 -20.518  60.371  1.00  0.00    -0.273 N 
ATOM     22  H2  UNL     1     -26.359 -20.093  61.297  1.00  0.00     0.194 HD
HETATM   23  C16 UNL     1     -28.557 -19.586  60.286  1.00  0.00     0.017 C 
HETATM   24  C17 UNL     1     -28.274 -18.599  61.117  1.00  0.00     0.199 C 
HETATM   25  F1  UNL     1     -29.293 -17.897  61.662  1.00  0.00    -0.219 F 
HETATM   26  C18 UNL     1     -29.989 -19.862  60.005  1.00  0.00     0.210 C 
HETATM   27  O6  UNL     1     -30.436 -19.217  58.866  1.00  0.00    -0.385 OA
HETATM   28  C19 UNL     1     -31.597 -18.514  59.020  1.00  0.00     0.188 C 
HETATM   29  C20 UNL     1     -32.728 -19.281  59.639  1.00  0.00     0.152 C 
ENDROOT
BRANCH  21  30
HETATM   30  O5  UNL     1     -25.318 -21.221  59.927  1.00  0.00    -0.290 OA
ATOM     31  H5  UNL     1     -24.431 -20.880  59.948  1.00  0.00     0.244 HD
ENDBRANCH  21  30
TORSDOF 1
ENDMDL
MODEL 4
REMARK VINA RESULT: -7.297728602      3.307      6.656
REMARK  1 active torsions:
REMARK  status: ('A' for Active; 'I' for Inactive)
REMARK       I    between atoms: C2_2  and  N1_4 
REMARK    1  A    between atoms: N2_21  and  O5_23 
ROOT
HETATM    1  C1  UNL     1     -37.884 -17.556  58.879  1.00  0.00     0.117 C 
HETATM    2  C2  UNL     1     -37.258 -17.620  60.208  1.00  0.00     0.215 C 
HETATM    3  O1  UNL     1     -37.736 -16.919  61.136  1.00  0.00    -0.274 OA
HETATM    4  N1  UNL     1     -36.134 -18.436  60.508  1.00  0.00    -0.348 N 
HETATM    5  C3  UNL     1     -35.544 -18.478  61.809  1.00  0.00     0.152 C 
HETATM    6  C4  UNL     1     -35.352 -17.132  62.451  1.00  0.00     0.187 C 
HETATM    7  O2  UNL     1     -34.952 -16.233  61.489  1.00  0.00    -0.387 OA
HETATM    8  C5  UNL     1     -34.726 -14.957  61.997  1.00  0.00     0.194 C 
HETATM    9  C6  UNL     1     -33.240 -14.835  62.363  1.00  0.00     0.205 C 
HETATM   10  O3  UNL     1     -32.502 -15.501  61.354  1.00  0.00    -0.319 OA
HETATM   11  C7  UNL     1     -31.304 -15.048  60.843  1.00  0.00     0.258 C 
HETATM   12  O4  UNL     1     -30.996 -14.972  59.633  1.00  0.00    -0.265 OA
HETATM   13  C8  UNL     1     -30.273 -14.610  61.811  1.00  0.00     0.111 C 
HETATM   14  C9  UNL     1     -30.030 -15.778  62.762  1.00  0.00     0.010 C 
HETATM   15  C10 UNL     1     -28.602 -16.251  62.720  1.00  0.00     0.000 C 
HETATM   16  C11 UNL     1     -28.316 -17.101  61.485  1.00  0.00     0.000 C 
HETATM   17  C12 UNL     1     -29.016 -18.417  61.561  1.00  0.00     0.000 C 
HETATM   18  C13 UNL     1     -29.929 -18.676  60.379  1.00  0.00     0.006 C 
HETATM   19  C14 UNL     1     -30.123 -20.171  60.290  1.00  0.00     0.060 C 
HETATM   20  C15 UNL     1     -30.449 -20.633  58.933  1.00  0.00     0.042 C 
HETATM   21  N2  UNL     1     -29.468 -20.926  58.150  1.00  0.00    -0.273 N 
ATOM     22  H2  UNL     1     -29.681 -21.248  57.206  1.00  0.00     0.194 HD
HETATM   23  C16 UNL     1     -31.800 -20.791  58.396  1.00  0.00     0.017 C 
HETATM   24  C17 UNL     1     -32.051 -21.729  57.499  1.00  0.00     0.199 C 
HETATM   25  F1  UNL     1     -33.310 -21.850  57.021  1.00  0.00    -0.219 F 
HETATM   26  C18 UNL     1     -32.928 -19.925  58.822  1.00  0.00     0.210 C 
HETATM   27  O6  UNL     1     -33.547 -20.390  59.968  1.00  0.00    -0.385 OA
HETATM   28  C19 UNL     1     -34.907 -20.480  59.892  1.00  0.00     0.188 C 
HETATM   29  C20 UNL     1     -35.601 -19.238  59.417  1.00  0.00     0.152 C 
ENDROOT
BRANCH  21  30
HETATM   30  O5  UNL     1     -28.156 -20.825  58.522  1.00  0.00    -0.290 OA
ATOM     31  H5  UNL     1     -27.525 -21.525  58.401  1.00  0.00     0.244 HD
ENDBRANCH  21  30
TORSDOF 1
ENDMDL
MODEL 5
REMARK VINA RESULT: -7.274649712      1.086      1.159
REMARK  1 active torsions:
REMARK  status: ('A' for Active; 'I' for Inactive)
REMARK       I    between atoms: C2_2  and  N1_4 
REMARK    1  A    between atoms: N2_21  and  O5_23 
ROOT
HETATM    1  C1  UNL     1     -36.122 -21.331  59.364  1.00  0.00     0.117 C 
HETATM    2  C2  UNL     1     -35.391 -21.609  58.119  1.00  0.00     0.215 C 
HETATM    3  O1  UNL     1     -35.935 -22.333  57.247  1.00  0.00    -0.274 OA
HETATM    4  N1  UNL     1     -34.093 -21.102  57.840  1.00  0.00    -0.348 N 
HETATM    5  C3  UNL     1     -33.404 -21.388  56.621  1.00  0.00     0.152 C 
HETATM    6  C4  UNL     1     -33.464 -22.829  56.195  1.00  0.00     0.187 C 
HETATM    7  O2  UNL     1     -33.353 -23.629  57.309  1.00  0.00    -0.387 OA
HETATM    8  C5  UNL     1     -33.375 -24.988  57.009  1.00  0.00     0.194 C 
HETATM    9  C6  UNL     1     -31.929 -25.471  56.835  1.00  0.00     0.205 C 
HETATM   10  O3  UNL     1     -31.146 -24.821  57.821  1.00  0.00    -0.319 OA
HETATM   11  C7  UNL     1     -30.124 -25.426  58.522  1.00  0.00     0.258 C 
HETATM   12  O4  UNL     1     -29.941 -25.373  59.759  1.00  0.00    -0.265 OA
HETATM   13  C8  UNL     1     -29.141 -26.216  57.747  1.00  0.00     0.111 C 
HETATM   14  C9  UNL     1     -28.568 -25.289  56.680  1.00  0.00     0.010 C 
HETATM   15  C10 UNL     1     -27.079 -25.121  56.819  1.00  0.00     0.000 C 
HETATM   16  C11 UNL     1     -26.714 -24.165  57.951  1.00  0.00     0.000 C 
HETATM   17  C12 UNL     1     -27.095 -22.761  57.617  1.00  0.00     0.000 C 
HETATM   18  C13 UNL     1     -28.021 -22.135  58.641  1.00  0.00     0.006 C 
HETATM   19  C14 UNL     1     -27.885 -20.638  58.502  1.00  0.00     0.060 C 
HETATM   20  C15 UNL     1     -28.210 -19.910  59.737  1.00  0.00     0.042 C 
HETATM   21  N2  UNL     1     -27.256 -19.708  60.579  1.00  0.00    -0.273 N 
ATOM     22  H2  UNL     1     -27.468 -19.204  61.440  1.00  0.00     0.194 HD
HETATM   23  C16 UNL     1     -29.532 -19.393  60.091  1.00  0.00     0.017 C 
HETATM   24  C17 UNL     1     -29.640 -18.294  60.817  1.00  0.00     0.199 C 
HETATM   25  F1  UNL     1     -30.876 -17.841  61.127  1.00  0.00    -0.219 F 
HETATM   26  C18 UNL     1     -30.785 -20.062  59.661  1.00  0.00     0.210 C 
HETATM   27  O6  UNL     1     -31.189 -19.666  58.400  1.00  0.00    -0.385 OA
HETATM   28  C19 UNL     1     -32.497 -19.285  58.307  1.00  0.00     0.188 C 
HETATM   29  C20 UNL     1     -33.486 -20.265  58.865  1.00  0.00     0.152 C 
ENDROOT
BRANCH  21  30
HETATM   30  O5  UNL     1     -25.973 -20.135  60.377  1.00  0.00    -0.290 OA
ATOM     31  H5  UNL     1     -25.243 -19.872  60.926  1.00  0.00     0.244 HD
ENDBRANCH  21  30
TORSDOF 1
ENDMDL
