MODEL 1
REMARK VINA RESULT: -8.180667156      0.000      0.000
REMARK  1 active torsions:
REMARK  status: ('A' for Active; 'I' for Inactive)
REMARK    1  A    between atoms: C15_20  and  O5_21 
ROOT
HETATM    1  C1  UNL     1     -31.470 -16.228  61.686  1.00  0.00     0.020 C 
HETATM    2  C2  UNL     1     -31.493 -17.006  60.644  1.00  0.00    -0.016 C 
HETATM    3  C3  UNL     1     -32.273 -17.066  59.386  1.00  0.00     0.104 C 
HETATM    4  C4  UNL     1     -32.447 -18.540  59.223  1.00  0.00     0.277 C 
HETATM    5  O1  UNL     1     -33.652 -19.060  59.578  1.00  0.00    -0.330 OA
HETATM    6  C5  UNL     1     -34.397 -18.293  60.443  1.00  0.00     0.274 C 
HETATM    7  O2  UNL     1     -35.703 -18.767  60.539  1.00  0.00    -0.324 OA
HETATM    8  C6  UNL     1     -36.533 -17.686  60.803  1.00  0.00     0.183 C 
HETATM    9  C7  UNL     1     -36.996 -17.750  62.218  1.00  0.00     0.081 C 
HETATM   10  O3  UNL     1     -37.631 -17.619  59.955  1.00  0.00    -0.309 OA
HETATM   11  C8  UNL     1     -37.784 -16.328  59.495  1.00  0.00     0.127 A 
HETATM   12  C9  UNL     1     -38.673 -15.519  58.828  1.00  0.00     0.092 A 
HETATM   13 CL1  UNL     1     -40.248 -15.940  58.202  1.00  0.00    -0.079 Cl
HETATM   14  C10 UNL     1     -38.070 -14.289  58.747  1.00  0.00     0.169 A 
HETATM   15  O4  UNL     1     -36.922 -14.359  59.316  1.00  0.00    -0.321 OA
HETATM   16  C11 UNL     1     -36.693 -15.546  59.781  1.00  0.00     0.102 A 
HETATM   17  C12 UNL     1     -35.742 -16.416  60.497  1.00  0.00     0.075 C 
HETATM   18  C13 UNL     1     -35.339 -15.816  61.783  1.00  0.00     0.029 C 
HETATM   19  C14 UNL     1     -34.681 -17.000  59.656  1.00  0.00     0.091 C 
HETATM   20  C15 UNL     1     -33.493 -16.248  59.292  1.00  0.00     0.141 C 
HETATM   21  O6  UNL     1     -31.459 -19.169  59.965  1.00  0.00    -0.320 OA
HETATM   22  C16 UNL     1     -30.598 -18.217  60.430  1.00  0.00     0.195 C 
HETATM   23  C17 UNL     1     -29.508 -17.861  59.473  1.00  0.00     0.111 C 
HETATM   24  C18 UNL     1     -28.678 -18.431  60.597  1.00  0.00     0.063 C 
HETATM   25  C19 UNL     1     -28.098 -19.801  60.262  1.00  0.00     0.046 C 
HETATM   26  C20 UNL     1     -27.629 -17.424  61.026  1.00  0.00     0.046 C 
HETATM   27  O7  UNL     1     -29.766 -18.515  61.444  1.00  0.00    -0.340 OA
ENDROOT
BRANCH  20  28
HETATM   28  O5  UNL     1     -33.305 -15.024  59.877  1.00  0.00    -0.394 OA
ATOM     29  H5  UNL     1     -33.993 -14.841  60.507  1.00  0.00     0.210 HD
ENDBRANCH  20  28
TORSDOF 1
ENDMDL
MODEL 2
REMARK VINA RESULT: -8.170348346      1.447      1.778
REMARK  1 active torsions:
REMARK  status: ('A' for Active; 'I' for Inactive)
REMARK    1  A    between atoms: C15_20  and  O5_21 
ROOT
HETATM    1  C1  UNL     1     -29.875 -17.376  61.240  1.00  0.00     0.020 C 
HETATM    2  C2  UNL     1     -30.232 -18.275  60.370  1.00  0.00    -0.016 C 
HETATM    3  C3  UNL     1     -31.284 -18.385  59.333  1.00  0.00     0.104 C 
HETATM    4  C4  UNL     1     -31.663 -19.824  59.457  1.00  0.00     0.277 C 
HETATM    5  O1  UNL     1     -32.805 -20.103  60.140  1.00  0.00    -0.330 OA
HETATM    6  C5  UNL     1     -33.233 -19.122  61.004  1.00  0.00     0.274 C 
HETATM    7  O2  UNL     1     -34.527 -19.375  61.451  1.00  0.00    -0.324 OA
HETATM    8  C6  UNL     1     -35.140 -18.155  61.702  1.00  0.00     0.183 C 
HETATM    9  C7  UNL     1     -35.266 -17.957  63.174  1.00  0.00     0.081 C 
HETATM   10  O3  UNL     1     -36.390 -18.038  61.106  1.00  0.00    -0.309 OA
HETATM   11  C8  UNL     1     -36.493 -16.812  60.482  1.00  0.00     0.127 A 
HETATM   12  C9  UNL     1     -37.411 -15.975  59.894  1.00  0.00     0.092 A 
HETATM   13 CL1  UNL     1     -39.126 -16.233  59.694  1.00  0.00    -0.079 Cl
HETATM   14  C10 UNL     1     -36.703 -14.873  59.485  1.00  0.00     0.169 A 
HETATM   15  O4  UNL     1     -35.471 -15.039  59.801  1.00  0.00    -0.321 OA
HETATM   16  C11 UNL     1     -35.281 -16.173  60.398  1.00  0.00     0.102 A 
HETATM   17  C12 UNL     1     -34.299 -17.073  61.030  1.00  0.00     0.075 C 
HETATM   18  C13 UNL     1     -33.541 -16.373  62.084  1.00  0.00     0.029 C 
HETATM   19  C14 UNL     1     -33.538 -17.919  60.091  1.00  0.00     0.091 C 
HETATM   20  C15 UNL     1     -32.387 -17.412  59.365  1.00  0.00     0.141 C 
HETATM   21  O6  UNL     1     -30.610 -20.490  60.067  1.00  0.00    -0.320 OA
HETATM   22  C16 UNL     1     -29.559 -19.625  60.175  1.00  0.00     0.195 C 
HETATM   23  C17 UNL     1     -28.687 -19.571  58.964  1.00  0.00     0.111 C 
HETATM   24  C18 UNL     1     -27.692 -20.104  59.965  1.00  0.00     0.063 C 
HETATM   25  C19 UNL     1     -27.371 -21.578  59.747  1.00  0.00     0.046 C 
HETATM   26  C20 UNL     1     -26.461 -19.219  59.990  1.00  0.00     0.046 C 
HETATM   27  O7  UNL     1     -28.555 -19.907  61.025  1.00  0.00    -0.340 OA
ENDROOT
BRANCH  20  28
HETATM   28  O5  UNL     1     -31.926 -16.163  59.687  1.00  0.00    -0.394 OA
ATOM     29  H5  UNL     1     -32.394 -15.494  59.202  1.00  0.00     0.210 HD
ENDBRANCH  20  28
TORSDOF 1
ENDMDL
MODEL 3
REMARK VINA RESULT: -8.101737033      1.449      2.980
REMARK  1 active torsions:
REMARK  status: ('A' for Active; 'I' for Inactive)
REMARK    1  A    between atoms: C15_20  and  O5_21 
ROOT
HETATM    1  C1  UNL     1     -31.914 -18.207  58.272  1.00  0.00     0.020 C 
HETATM    2  C2  UNL     1     -31.953 -17.786  59.502  1.00  0.00    -0.016 C 
HETATM    3  C3  UNL     1     -33.004 -17.630  60.534  1.00  0.00     0.104 C 
HETATM    4  C4  UNL     1     -32.586 -16.353  61.184  1.00  0.00     0.277 C 
HETATM    5  O1  UNL     1     -33.266 -15.231  60.830  1.00  0.00    -0.330 OA
HETATM    6  C5  UNL     1     -33.929 -15.295  59.627  1.00  0.00     0.274 C 
HETATM    7  O2  UNL     1     -34.800 -14.219  59.475  1.00  0.00    -0.324 OA
HETATM    8  C6  UNL     1     -35.867 -14.638  58.693  1.00  0.00     0.183 C 
HETATM    9  C7  UNL     1     -35.761 -14.027  57.338  1.00  0.00     0.081 C 
HETATM   10  O3  UNL     1     -37.105 -14.333  59.247  1.00  0.00    -0.309 OA
HETATM   11  C8  UNL     1     -37.930 -15.436  59.173  1.00  0.00     0.127 A 
HETATM   12  C9  UNL     1     -39.243 -15.813  59.331  1.00  0.00     0.092 A 
HETATM   13 CL1  UNL     1     -40.603 -14.811  59.771  1.00  0.00    -0.079 Cl
HETATM   14  C10 UNL     1     -39.279 -17.159  59.069  1.00  0.00     0.169 A 
HETATM   15  O4  UNL     1     -38.091 -17.551  58.781  1.00  0.00    -0.321 OA
HETATM   16  C11 UNL     1     -37.243 -16.572  58.825  1.00  0.00     0.102 A 
HETATM   17  C12 UNL     1     -35.836 -16.164  58.657  1.00  0.00     0.075 C 
HETATM   18  C13 UNL     1     -35.321 -16.573  57.336  1.00  0.00     0.029 C 
HETATM   19  C14 UNL     1     -34.975 -16.407  59.829  1.00  0.00     0.091 C 
HETATM   20  C15 UNL     1     -34.409 -17.717  60.104  1.00  0.00     0.141 C 
HETATM   21  O6  UNL     1     -31.240 -16.159  60.911  1.00  0.00    -0.320 OA
HETATM   22  C16 UNL     1     -30.760 -17.279  60.297  1.00  0.00     0.195 C 
HETATM   23  C17 UNL     1     -30.307 -18.346  61.240  1.00  0.00     0.111 C 
HETATM   24  C18 UNL     1     -28.993 -18.033  60.568  1.00  0.00     0.063 C 
HETATM   25  C19 UNL     1     -28.039 -17.263  61.473  1.00  0.00     0.046 C 
HETATM   26  C20 UNL     1     -28.389 -19.302  60.000  1.00  0.00     0.046 C 
HETATM   27  O7  UNL     1     -29.594 -17.220  59.627  1.00  0.00    -0.340 OA
ENDROOT
BRANCH  20  28
HETATM   28  O5  UNL     1     -34.571 -18.696  59.160  1.00  0.00    -0.394 OA
ATOM     29  H5  UNL     1     -35.433 -19.091  59.227  1.00  0.00     0.210 HD
ENDBRANCH  20  28
TORSDOF 1
ENDMDL
MODEL 4
REMARK VINA RESULT: -7.830525401      2.909      7.458
REMARK  1 active torsions:
REMARK  status: ('A' for Active; 'I' for Inactive)
REMARK    1  A    between atoms: C15_20  and  O5_21 
ROOT
HETATM    1  C1  UNL     1     -37.593 -17.594  58.352  1.00  0.00     0.020 C 
HETATM    2  C2  UNL     1     -37.160 -16.413  58.023  1.00  0.00    -0.016 C 
HETATM    3  C3  UNL     1     -35.831 -15.800  57.792  1.00  0.00     0.104 C 
HETATM    4  C4  UNL     1     -36.030 -14.444  58.384  1.00  0.00     0.277 C 
HETATM    5  O1  UNL     1     -35.517 -14.233  59.625  1.00  0.00    -0.330 OA
HETATM    6  C5  UNL     1     -35.282 -15.365  60.370  1.00  0.00     0.274 C 
HETATM    7  O2  UNL     1     -34.522 -15.076  61.500  1.00  0.00    -0.324 OA
HETATM    8  C6  UNL     1     -33.764 -16.198  61.806  1.00  0.00     0.183 C 
HETATM    9  C7  UNL     1     -34.316 -16.852  63.026  1.00  0.00     0.081 C 
HETATM   10  O3  UNL     1     -32.418 -15.913  61.997  1.00  0.00    -0.309 OA
HETATM   11  C8  UNL     1     -31.648 -16.829  61.310  1.00  0.00     0.127 A 
HETATM   12  C9  UNL     1     -30.352 -17.268  61.182  1.00  0.00     0.092 A 
HETATM   13 CL1  UNL     1     -28.935 -16.693  62.025  1.00  0.00    -0.079 Cl
HETATM   14  C10 UNL     1     -30.387 -18.267  60.243  1.00  0.00     0.169 A 
HETATM   15  O4  UNL     1     -31.599 -18.412  59.846  1.00  0.00    -0.321 OA
HETATM   16  C11 UNL     1     -32.397 -17.585  60.443  1.00  0.00     0.102 A 
HETATM   17  C12 UNL     1     -33.786 -17.112  60.583  1.00  0.00     0.075 C 
HETATM   18  C13 UNL     1     -34.700 -18.233  60.876  1.00  0.00     0.029 C 
HETATM   19  C14 UNL     1     -34.214 -16.133  59.568  1.00  0.00     0.091 C 
HETATM   20  C15 UNL     1     -34.643 -16.543  58.242  1.00  0.00     0.141 C 
HETATM   21  O6  UNL     1     -37.393 -14.192  58.421  1.00  0.00    -0.320 OA
HETATM   22  C16 UNL     1     -38.034 -15.197  57.755  1.00  0.00     0.195 C 
HETATM   23  C17 UNL     1     -38.140 -14.982  56.281  1.00  0.00     0.111 C 
HETATM   24  C18 UNL     1     -39.605 -14.975  56.640  1.00  0.00     0.063 C 
HETATM   25  C19 UNL     1     -40.220 -13.582  56.573  1.00  0.00     0.046 C 
HETATM   26  C20 UNL     1     -40.346 -15.999  55.803  1.00  0.00     0.046 C 
HETATM   27  O7  UNL     1     -39.355 -15.376  57.939  1.00  0.00    -0.340 OA
ENDROOT
BRANCH  20  28
HETATM   28  O5  UNL     1     -34.787 -17.884  58.001  1.00  0.00    -0.394 OA
ATOM     29  H5  UNL     1     -34.119 -18.383  58.457  1.00  0.00     0.210 HD
ENDBRANCH  20  28
TORSDOF 1
ENDMDL
MODEL 5
REMARK VINA RESULT: -7.567279770      2.984      7.256
REMARK  1 active torsions:
REMARK  status: ('A' for Active; 'I' for Inactive)
REMARK    1  A    between atoms: C15_20  and  O5_21 
ROOT
HETATM    1  C1  UNL     1     -36.880 -18.662  58.294  1.00  0.00     0.020 C 
HETATM    2  C2  UNL     1     -36.966 -17.377  58.114  1.00  0.00    -0.016 C 
HETATM    3  C3  UNL     1     -36.006 -16.249  58.063  1.00  0.00     0.104 C 
HETATM    4  C4  UNL     1     -36.782 -15.176  58.753  1.00  0.00     0.277 C 
HETATM    5  O1  UNL     1     -36.463 -14.924  60.050  1.00  0.00    -0.330 OA
HETATM    6  C5  UNL     1     -35.811 -15.940  60.708  1.00  0.00     0.274 C 
HETATM    7  O2  UNL     1     -35.297 -15.502  61.926  1.00  0.00    -0.324 OA
HETATM    8  C6  UNL     1     -34.154 -16.241  62.199  1.00  0.00     0.183 C 
HETATM    9  C7  UNL     1     -34.437 -17.206  63.299  1.00  0.00     0.081 C 
HETATM   10  O3  UNL     1     -33.061 -15.454  62.538  1.00  0.00    -0.309 OA
HETATM   11  C8  UNL     1     -31.947 -15.883  61.847  1.00  0.00     0.127 A 
HETATM   12  C9  UNL     1     -30.581 -15.731  61.800  1.00  0.00     0.092 A 
HETATM   13 CL1  UNL     1     -29.577 -14.731  62.819  1.00  0.00    -0.079 Cl
HETATM   14  C10 UNL     1     -30.151 -16.536  60.776  1.00  0.00     0.169 A 
HETATM   15  O4  UNL     1     -31.171 -17.117  60.257  1.00  0.00    -0.321 OA
HETATM   16  C11 UNL     1     -32.269 -16.770  60.850  1.00  0.00     0.102 A 
HETATM   17  C12 UNL     1     -33.734 -16.930  60.902  1.00  0.00     0.075 C 
HETATM   18  C13 UNL     1     -34.107 -18.353  61.008  1.00  0.00     0.029 C 
HETATM   19  C14 UNL     1     -34.484 -16.099  59.943  1.00  0.00     0.091 C 
HETATM   20  C15 UNL     1     -34.639 -16.486  58.552  1.00  0.00     0.141 C 
HETATM   21  O6  UNL     1     -38.125 -15.514  58.686  1.00  0.00    -0.320 OA
HETATM   22  C16 UNL     1     -38.255 -16.605  57.876  1.00  0.00     0.195 C 
HETATM   23  C17 UNL     1     -38.372 -16.277  56.424  1.00  0.00     0.111 C 
HETATM   24  C18 UNL     1     -39.721 -16.916  56.645  1.00  0.00     0.063 C 
HETATM   25  C19 UNL     1     -40.859 -15.902  56.646  1.00  0.00     0.046 C 
HETATM   26  C20 UNL     1     -39.925 -18.046  55.654  1.00  0.00     0.046 C 
HETATM   27  O7  UNL     1     -39.387 -17.331  57.919  1.00  0.00    -0.340 OA
ENDROOT
BRANCH  20  28
HETATM   28  O5  UNL     1     -34.197 -17.728  58.180  1.00  0.00    -0.394 OA
ATOM     29  H5  UNL     1     -33.700 -17.682  57.371  1.00  0.00     0.210 HD
ENDBRANCH  20  28
TORSDOF 1
ENDMDL
