MODEL 1
REMARK VINA RESULT: -7.927933708      0.000      0.000
REMARK  1 active torsions:
REMARK  status: ('A' for Active; 'I' for Inactive)
REMARK    1  A    between atoms: C13_17  and  O4_18 
ROOT
HETATM    1  C1  UNL     1     -27.698 -17.594  60.233  1.00  0.00     0.025 C 
HETATM    2  C2  UNL     1     -28.885 -17.253  60.707  1.00  0.00     0.014 C 
HETATM    3  C3  UNL     1     -29.214 -16.807  62.054  1.00  0.00     0.289 C 
HETATM    4  O1  UNL     1     -28.387 -16.613  63.000  1.00  0.00    -0.260 OA
HETATM    5  O2  UNL     1     -30.612 -16.635  62.099  1.00  0.00    -0.311 OA
HETATM    6  C4  UNL     1     -30.988 -16.293  60.793  1.00  0.00     0.145 C 
HETATM    7  C5  UNL     1     -30.168 -17.249  59.957  1.00  0.00     0.054 C 
HETATM    8  C6  UNL     1     -30.695 -18.644  59.948  1.00  0.00     0.012 C 
HETATM    9  C7  UNL     1     -32.135 -18.749  60.332  1.00  0.00     0.006 C 
HETATM   10  C8  UNL     1     -32.846 -17.535  59.719  1.00  0.00     0.005 C 
HETATM   11  C9  UNL     1     -32.450 -16.345  60.527  1.00  0.00     0.026 C 
HETATM   12  C10 UNL     1     -32.856 -15.033  59.902  1.00  0.00     0.081 C 
HETATM   13  C11 UNL     1     -34.265 -14.646  60.148  1.00  0.00     0.205 C 
HETATM   14  C12 UNL     1     -34.414 -13.661  61.316  1.00  0.00     0.084 C 
HETATM   15  F1  UNL     1     -34.708 -13.933  59.025  1.00  0.00    -0.212 F 
HETATM   16  O3  UNL     1     -35.138 -15.676  60.377  1.00  0.00    -0.305 OA
HETATM   17  C13 UNL     1     -35.087 -16.641  59.424  1.00  0.00     0.226 C 
HETATM   18  S1  UNL     1     -36.735 -17.379  59.077  1.00  0.00    -0.067 SA
HETATM   19  C14 UNL     1     -36.022 -18.927  58.442  1.00  0.00     0.221 C 
HETATM   20  O5  UNL     1     -36.815 -20.021  58.726  1.00  0.00    -0.338 OA
HETATM   21  C15 UNL     1     -35.949 -20.847  59.425  1.00  0.00     0.159 C 
HETATM   22  C16 UNL     1     -35.137 -21.748  58.532  1.00  0.00     0.078 C 
HETATM   23  C17 UNL     1     -36.824 -21.665  60.384  1.00  0.00     0.078 C 
HETATM   24  O6  UNL     1     -35.082 -20.052  60.137  1.00  0.00    -0.347 OA
HETATM   25  C18 UNL     1     -34.759 -19.050  59.190  1.00  0.00     0.175 C 
HETATM   26  C19 UNL     1     -34.344 -17.842  59.870  1.00  0.00     0.097 C 
ENDROOT
BRANCH  17  27
HETATM   27  O4  UNL     1     -34.611 -16.221  58.188  1.00  0.00    -0.356 OA
ATOM     28  H4  UNL     1     -35.281 -16.057  57.534  1.00  0.00     0.214 HD
ENDBRANCH  17  27
TORSDOF 1
ENDMDL
MODEL 2
REMARK VINA RESULT: -7.897535520      3.962      6.870
REMARK  1 active torsions:
REMARK  status: ('A' for Active; 'I' for Inactive)
REMARK    1  A    between atoms: C13_17  and  O4_18 
ROOT
HETATM    1  C1  UNL     1     -35.682 -20.496  60.247  1.00  0.00     0.025 C 
HETATM    2  C2  UNL     1     -34.651 -19.742  59.903  1.00  0.00     0.014 C 
HETATM    3  C3  UNL     1     -34.646 -18.585  59.019  1.00  0.00     0.289 C 
HETATM    4  O1  UNL     1     -35.665 -18.063  58.467  1.00  0.00    -0.260 OA
HETATM    5  O2  UNL     1     -33.307 -18.164  58.900  1.00  0.00    -0.311 OA
HETATM    6  C4  UNL     1     -32.694 -18.526  60.109  1.00  0.00     0.145 C 
HETATM    7  C5  UNL     1     -33.245 -19.914  60.350  1.00  0.00     0.054 C 
HETATM    8  C6  UNL     1     -32.619 -20.965  59.497  1.00  0.00     0.012 C 
HETATM    9  C7  UNL     1     -31.288 -20.579  58.940  1.00  0.00     0.006 C 
HETATM   10  C8  UNL     1     -30.562 -19.789  60.037  1.00  0.00     0.005 C 
HETATM   11  C9  UNL     1     -31.209 -18.447  60.107  1.00  0.00     0.026 C 
HETATM   12  C10 UNL     1     -30.786 -17.638  61.309  1.00  0.00     0.081 C 
HETATM   13  C11 UNL     1     -29.494 -16.930  61.147  1.00  0.00     0.205 C 
HETATM   14  C12 UNL     1     -29.669 -15.461  60.739  1.00  0.00     0.084 C 
HETATM   15  F1  UNL     1     -28.883 -16.876  62.408  1.00  0.00    -0.212 F 
HETATM   16  O3  UNL     1     -28.611 -17.491  60.263  1.00  0.00    -0.305 OA
HETATM   17  C13 UNL     1     -28.385 -18.808  60.497  1.00  0.00     0.226 C 
HETATM   18  S1  UNL     1     -26.649 -19.301  60.148  1.00  0.00    -0.067 SA
HETATM   19  C14 UNL     1     -27.090 -21.045  59.876  1.00  0.00     0.221 C 
HETATM   20  O5  UNL     1     -26.290 -21.642  58.922  1.00  0.00    -0.338 OA
HETATM   21  C15 UNL     1     -27.216 -22.096  57.995  1.00  0.00     0.159 C 
HETATM   22  C16 UNL     1     -27.751 -23.468  58.314  1.00  0.00     0.078 C 
HETATM   23  C17 UNL     1     -26.499 -22.086  56.639  1.00  0.00     0.078 C 
HETATM   24  O6  UNL     1     -28.272 -21.216  57.980  1.00  0.00    -0.347 OA
HETATM   25  C18 UNL     1     -28.467 -20.969  59.360  1.00  0.00     0.175 C 
HETATM   26  C19 UNL     1     -29.109 -19.685  59.547  1.00  0.00     0.097 C 
ENDROOT
BRANCH  17  27
HETATM   27  O4  UNL     1     -28.624 -19.224  61.801  1.00  0.00    -0.356 OA
ATOM     28  H4  UNL     1     -29.136 -20.020  61.881  1.00  0.00     0.214 HD
ENDBRANCH  17  27
TORSDOF 1
ENDMDL
MODEL 3
REMARK VINA RESULT: -7.865650204      3.174      5.214
REMARK  1 active torsions:
REMARK  status: ('A' for Active; 'I' for Inactive)
REMARK    1  A    between atoms: C13_17  and  O4_18 
ROOT
HETATM    1  C1  UNL     1     -32.008 -23.168  56.687  1.00  0.00     0.025 C 
HETATM    2  C2  UNL     1     -31.564 -22.518  57.751  1.00  0.00     0.014 C 
HETATM    3  C3  UNL     1     -30.736 -23.034  58.832  1.00  0.00     0.289 C 
HETATM    4  O1  UNL     1     -30.245 -24.204  58.903  1.00  0.00    -0.260 OA
HETATM    5  O2  UNL     1     -30.590 -21.992  59.770  1.00  0.00    -0.311 OA
HETATM    6  C4  UNL     1     -30.671 -20.807  59.026  1.00  0.00     0.145 C 
HETATM    7  C5  UNL     1     -31.819 -21.093  58.083  1.00  0.00     0.054 C 
HETATM    8  C6  UNL     1     -33.161 -21.006  58.727  1.00  0.00     0.012 C 
HETATM    9  C7  UNL     1     -33.176 -20.211  59.992  1.00  0.00     0.006 C 
HETATM   10  C8  UNL     1     -32.223 -19.027  59.781  1.00  0.00     0.005 C 
HETATM   11  C9  UNL     1     -30.835 -19.570  59.834  1.00  0.00     0.026 C 
HETATM   12  C10 UNL     1     -29.785 -18.581  59.388  1.00  0.00     0.081 C 
HETATM   13  C11 UNL     1     -29.373 -17.611  60.430  1.00  0.00     0.205 C 
HETATM   14  C12 UNL     1     -28.082 -18.027  61.149  1.00  0.00     0.084 C 
HETATM   15  F1  UNL     1     -29.048 -16.411  59.783  1.00  0.00    -0.212 F 
HETATM   16  O3  UNL     1     -30.304 -17.342  61.398  1.00  0.00    -0.305 OA
HETATM   17  C13 UNL     1     -31.512 -16.985  60.893  1.00  0.00     0.226 C 
HETATM   18  S1  UNL     1     -32.357 -15.712  61.914  1.00  0.00    -0.067 SA
HETATM   19  C14 UNL     1     -34.009 -16.176  61.311  1.00  0.00     0.221 C 
HETATM   20  O5  UNL     1     -34.982 -16.014  62.278  1.00  0.00    -0.338 OA
HETATM   21  C15 UNL     1     -35.535 -17.282  62.363  1.00  0.00     0.159 C 
HETATM   22  C16 UNL     1     -36.647 -17.512  61.374  1.00  0.00     0.078 C 
HETATM   23  C17 UNL     1     -36.041 -17.427  63.805  1.00  0.00     0.078 C 
HETATM   24  O6  UNL     1     -34.541 -18.199  62.115  1.00  0.00    -0.347 OA
HETATM   25  C18 UNL     1     -33.869 -17.612  61.015  1.00  0.00     0.175 C 
HETATM   26  C19 UNL     1     -32.503 -18.085  60.962  1.00  0.00     0.097 C 
ENDROOT
BRANCH  17  27
HETATM   27  O4  UNL     1     -31.480 -16.457  59.609  1.00  0.00    -0.356 OA
ATOM     28  H4  UNL     1     -32.216 -15.899  59.385  1.00  0.00     0.214 HD
ENDBRANCH  17  27
TORSDOF 1
ENDMDL
MODEL 4
REMARK VINA RESULT: -7.813791286      3.853      5.390
REMARK  1 active torsions:
REMARK  status: ('A' for Active; 'I' for Inactive)
REMARK    1  A    between atoms: C13_17  and  O4_18 
ROOT
HETATM    1  C1  UNL     1     -31.027 -15.485  60.982  1.00  0.00     0.025 C 
HETATM    2  C2  UNL     1     -31.837 -16.523  60.843  1.00  0.00     0.014 C 
HETATM    3  C3  UNL     1     -32.979 -16.881  61.671  1.00  0.00     0.289 C 
HETATM    4  O1  UNL     1     -33.432 -16.209  62.651  1.00  0.00    -0.260 OA
HETATM    5  O2  UNL     1     -33.478 -18.104  61.177  1.00  0.00    -0.311 OA
HETATM    6  C4  UNL     1     -33.171 -18.105  59.810  1.00  0.00     0.145 C 
HETATM    7  C5  UNL     1     -31.756 -17.571  59.793  1.00  0.00     0.054 C 
HETATM    8  C6  UNL     1     -30.732 -18.567  60.219  1.00  0.00     0.012 C 
HETATM    9  C7  UNL     1     -31.188 -19.986  60.116  1.00  0.00     0.006 C 
HETATM   10  C8  UNL     1     -32.036 -20.086  58.842  1.00  0.00     0.005 C 
HETATM   11  C9  UNL     1     -33.338 -19.418  59.131  1.00  0.00     0.026 C 
HETATM   12  C10 UNL     1     -34.188 -19.201  57.903  1.00  0.00     0.081 C 
HETATM   13  C11 UNL     1     -34.970 -20.387  57.480  1.00  0.00     0.205 C 
HETATM   14  C12 UNL     1     -36.420 -20.352  57.983  1.00  0.00     0.084 C 
HETATM   15  F1  UNL     1     -35.078 -20.344  56.084  1.00  0.00    -0.212 F 
HETATM   16  O3  UNL     1     -34.450 -21.604  57.836  1.00  0.00    -0.305 OA
HETATM   17  C13 UNL     1     -33.152 -21.757  57.472  1.00  0.00     0.226 C 
HETATM   18  S1  UNL     1     -32.758 -23.479  56.963  1.00  0.00    -0.067 SA
HETATM   19  C14 UNL     1     -30.988 -23.294  57.336  1.00  0.00     0.221 C 
HETATM   20  O5  UNL     1     -30.425 -24.471  57.791  1.00  0.00    -0.338 OA
HETATM   21  C15 UNL     1     -29.904 -24.099  59.020  1.00  0.00     0.159 C 
HETATM   22  C16 UNL     1     -28.507 -23.542  58.928  1.00  0.00     0.078 C 
HETATM   23  C17 UNL     1     -29.937 -25.360  59.894  1.00  0.00     0.078 C 
HETATM   24  O6  UNL     1     -30.719 -23.130  59.555  1.00  0.00    -0.347 OA
HETATM   25  C18 UNL     1     -30.974 -22.308  58.430  1.00  0.00     0.175 C 
HETATM   26  C19 UNL     1     -32.219 -21.594  58.612  1.00  0.00     0.097 C 
ENDROOT
BRANCH  17  27
HETATM   27  O4  UNL     1     -32.742 -20.962  56.408  1.00  0.00    -0.356 OA
ATOM     28  H4  UNL     1     -31.888 -21.178  56.052  1.00  0.00     0.214 HD
ENDBRANCH  17  27
TORSDOF 1
ENDMDL
MODEL 5
REMARK VINA RESULT: -7.486271703      2.502      3.519
REMARK  1 active torsions:
REMARK  status: ('A' for Active; 'I' for Inactive)
REMARK    1  A    between atoms: C13_17  and  O4_18 
ROOT
HETATM    1  C1  UNL     1     -28.332 -20.816  57.987  1.00  0.00     0.025 C 
HETATM    2  C2  UNL     1     -28.723 -20.123  59.044  1.00  0.00     0.014 C 
HETATM    3  C3  UNL     1     -28.310 -20.298  60.429  1.00  0.00     0.289 C 
HETATM    4  O1  UNL     1     -27.442 -21.126  60.851  1.00  0.00    -0.260 OA
HETATM    5  O2  UNL     1     -29.053 -19.380  61.199  1.00  0.00    -0.311 OA
HETATM    6  C4  UNL     1     -29.313 -18.302  60.342  1.00  0.00     0.145 C 
HETATM    7  C5  UNL     1     -29.690 -18.994  59.052  1.00  0.00     0.054 C 
HETATM    8  C6  UNL     1     -31.065 -19.570  59.057  1.00  0.00     0.012 C 
HETATM    9  C7  UNL     1     -31.968 -18.970  60.085  1.00  0.00     0.006 C 
HETATM   10  C8  UNL     1     -31.641 -17.472  60.140  1.00  0.00     0.005 C 
HETATM   11  C9  UNL     1     -30.331 -17.338  60.840  1.00  0.00     0.026 C 
HETATM   12  C10 UNL     1     -29.741 -15.952  60.750  1.00  0.00     0.081 C 
HETATM   13  C11 UNL     1     -30.287 -14.987  61.734  1.00  0.00     0.205 C 
HETATM   14  C12 UNL     1     -29.396 -14.837  62.974  1.00  0.00     0.084 C 
HETATM   15  F1  UNL     1     -30.275 -13.721  61.133  1.00  0.00    -0.212 F 
HETATM   16  O3  UNL     1     -31.557 -15.242  62.179  1.00  0.00    -0.305 OA
HETATM   17  C13 UNL     1     -32.449 -15.425  61.174  1.00  0.00     0.226 C 
HETATM   18  S1  UNL     1     -34.112 -14.751  61.572  1.00  0.00    -0.067 SA
HETATM   19  C14 UNL     1     -34.955 -15.856  60.398  1.00  0.00     0.221 C 
HETATM   20  O5  UNL     1     -36.211 -16.225  60.839  1.00  0.00    -0.338 OA
HETATM   21  C15 UNL     1     -36.131 -17.609  60.849  1.00  0.00     0.159 C 
HETATM   22  C16 UNL     1     -36.484 -18.233  59.524  1.00  0.00     0.078 C 
HETATM   23  C17 UNL     1     -37.089 -18.080  61.952  1.00  0.00     0.078 C 
HETATM   24  O6  UNL     1     -34.839 -17.961  61.161  1.00  0.00    -0.347 OA
HETATM   25  C18 UNL     1     -34.091 -17.049  60.378  1.00  0.00     0.175 C 
HETATM   26  C19 UNL     1     -32.782 -16.853  60.963  1.00  0.00     0.097 C 
ENDROOT
BRANCH  17  27
HETATM   27  O4  UNL     1     -32.101 -14.837  59.964  1.00  0.00    -0.356 OA
ATOM     28  H4  UNL     1     -32.269 -15.369  59.195  1.00  0.00     0.214 HD
ENDBRANCH  17  27
TORSDOF 1
ENDMDL
