MODEL 1
REMARK VINA RESULT: -8.098159517      0.000      0.000
REMARK  2 active torsions:
REMARK  status: ('A' for Active; 'I' for Inactive)
REMARK    1  A    between atoms: C14_21  and  C15_22 
REMARK    2  A    between atoms: C15_22  and  O7_23 
ROOT
HETATM    1  C1  UNL     1     -31.878 -17.634  59.062  1.00  0.00     0.015 C 
HETATM    2  C2  UNL     1     -30.629 -18.413  58.952  1.00  0.00     0.043 C 
HETATM    3  C3  UNL     1     -30.980 -19.857  59.358  1.00  0.00     0.139 C 
HETATM    4  O1  UNL     1     -32.201 -20.231  58.869  1.00  0.00    -0.355 OA
HETATM    5  C4  UNL     1     -32.345 -21.613  58.747  1.00  0.00     0.262 C 
HETATM    6  C5  UNL     1     -32.371 -21.955  57.306  1.00  0.00     0.088 C 
HETATM    7  C6  UNL     1     -31.984 -23.332  56.945  1.00  0.00     0.067 C 
HETATM    8  C7  UNL     1     -33.235 -24.214  57.092  1.00  0.00     0.035 C 
HETATM    9 CL1  UNL     1     -31.623 -23.343  55.178  1.00  0.00    -0.117 Cl
HETATM   10  C8  UNL     1     -30.882 -23.966  57.640  1.00  0.00     0.189 C 
HETATM   11  O2  UNL     1     -31.184 -24.663  58.831  1.00  0.00    -0.288 OA
HETATM   12  C9  UNL     1     -29.923 -24.870  59.428  1.00  0.00     0.407 C 
HETATM   13  O3  UNL     1     -29.658 -25.611  60.421  1.00  0.00    -0.229 OA
HETATM   14  O4  UNL     1     -28.955 -24.115  58.748  1.00  0.00    -0.287 OA
HETATM   15  C10 UNL     1     -29.738 -23.093  58.094  1.00  0.00     0.195 C 
HETATM   16  C11 UNL     1     -30.120 -22.120  59.174  1.00  0.00     0.165 C 
HETATM   17  O5  UNL     1     -31.442 -22.332  59.499  1.00  0.00    -0.353 OA
HETATM   18  C12 UNL     1     -29.836 -20.687  58.784  1.00  0.00     0.071 C 
HETATM   19  C13 UNL     1     -28.571 -20.142  59.416  1.00  0.00     0.178 C 
HETATM   20  O6  UNL     1     -28.809 -19.089  60.281  1.00  0.00    -0.382 OA
HETATM   21  C14 UNL     1     -29.435 -17.994  59.640  1.00  0.00     0.161 C 
ENDROOT
BRANCH  21  22
HETATM   22  C15 UNL     1     -29.477 -16.918  60.664  1.00  0.00     0.084 C 
HETATM   23  C16 UNL     1     -30.747 -16.775  61.419  1.00  0.00     0.040 C 
HETATM   24  C17 UNL     1     -30.837 -15.304  61.868  1.00  0.00     0.003 C 
HETATM   25  C18 UNL     1     -29.599 -15.018  62.650  1.00  0.00     0.000 C 
HETATM   26  C19 UNL     1     -28.734 -16.226  62.895  1.00  0.00     0.003 C 
HETATM   27  C20 UNL     1     -28.302 -16.909  61.622  1.00  0.00     0.040 C 
BRANCH  22  28
HETATM   28  O7  UNL     1     -29.330 -15.703  59.935  1.00  0.00    -0.387 OA
ATOM     29  H7  UNL     1     -30.109 -15.641  59.396  1.00  0.00     0.210 HD
ENDBRANCH  22  28
ENDBRANCH  21  22
TORSDOF 2
ENDMDL
MODEL 2
REMARK VINA RESULT: -7.945541696      4.516      7.242
REMARK  2 active torsions:
REMARK  status: ('A' for Active; 'I' for Inactive)
REMARK    1  A    between atoms: C14_21  and  C15_22 
REMARK    2  A    between atoms: C15_22  and  O7_23 
ROOT
HETATM    1  C1  UNL     1     -32.229 -19.614  60.518  1.00  0.00     0.015 C 
HETATM    2  C2  UNL     1     -32.513 -18.177  60.705  1.00  0.00     0.043 C 
HETATM    3  C3  UNL     1     -33.384 -17.746  59.510  1.00  0.00     0.139 C 
HETATM    4  O1  UNL     1     -34.303 -18.706  59.189  1.00  0.00    -0.355 OA
HETATM    5  C4  UNL     1     -35.411 -18.202  58.508  1.00  0.00     0.262 C 
HETATM    6  C5  UNL     1     -36.586 -18.278  59.406  1.00  0.00     0.088 C 
HETATM    7  C6  UNL     1     -37.696 -17.348  59.123  1.00  0.00     0.067 C 
HETATM    8  C7  UNL     1     -38.580 -18.002  58.048  1.00  0.00     0.035 C 
HETATM    9 CL1  UNL     1     -38.737 -17.290  60.595  1.00  0.00    -0.117 Cl
HETATM   10  C8  UNL     1     -37.400 -15.989  58.720  1.00  0.00     0.189 C 
HETATM   11  O2  UNL     1     -37.220 -15.749  57.339  1.00  0.00    -0.288 OA
HETATM   12  C9  UNL     1     -36.637 -14.466  57.294  1.00  0.00     0.407 C 
HETATM   13  O3  UNL     1     -36.459 -13.741  56.271  1.00  0.00    -0.229 OA
HETATM   14  O4  UNL     1     -36.263 -14.077  58.590  1.00  0.00    -0.287 OA
HETATM   15  C10 UNL     1     -36.168 -15.334  59.293  1.00  0.00     0.195 C 
HETATM   16  C11 UNL     1     -34.885 -15.964  58.828  1.00  0.00     0.165 C 
HETATM   17  O5  UNL     1     -35.194 -16.968  57.937  1.00  0.00    -0.353 OA
HETATM   18  C12 UNL     1     -34.030 -16.445  59.978  1.00  0.00     0.071 C 
HETATM   19  C13 UNL     1     -32.884 -15.506  60.298  1.00  0.00     0.178 C 
HETATM   20  O6  UNL     1     -31.642 -16.078  60.093  1.00  0.00    -0.382 OA
HETATM   21  C14 UNL     1     -31.441 -17.232  60.889  1.00  0.00     0.161 C 
ENDROOT
BRANCH  21  22
HETATM   22  C15 UNL     1     -30.027 -17.621  60.656  1.00  0.00     0.084 C 
HETATM   23  C16 UNL     1     -29.254 -18.046  61.851  1.00  0.00     0.040 C 
HETATM   24  C17 UNL     1     -27.773 -17.742  61.557  1.00  0.00     0.003 C 
HETATM   25  C18 UNL     1     -27.430 -18.458  60.294  1.00  0.00     0.000 C 
HETATM   26  C19 UNL     1     -28.528 -19.349  59.776  1.00  0.00     0.003 C 
HETATM   27  C20 UNL     1     -29.819 -18.610  59.527  1.00  0.00     0.040 C 
BRANCH  22  28
HETATM   28  O7  UNL     1     -29.385 -16.436  60.192  1.00  0.00    -0.387 OA
ATOM     29  H7  UNL     1     -28.507 -16.707  59.953  1.00  0.00     0.210 HD
ENDBRANCH  22  28
ENDBRANCH  21  22
TORSDOF 2
ENDMDL
MODEL 3
REMARK VINA RESULT: -7.930216413      3.401      7.181
REMARK  2 active torsions:
REMARK  status: ('A' for Active; 'I' for Inactive)
REMARK    1  A    between atoms: C14_21  and  C15_22 
REMARK    2  A    between atoms: C15_22  and  O7_23 
ROOT
HETATM    1  C1  UNL     1     -29.509 -21.091  59.572  1.00  0.00     0.015 C 
HETATM    2  C2  UNL     1     -29.025 -20.013  60.459  1.00  0.00     0.043 C 
HETATM    3  C3  UNL     1     -29.609 -18.700  59.906  1.00  0.00     0.139 C 
HETATM    4  O1  UNL     1     -30.899 -18.866  59.480  1.00  0.00    -0.355 OA
HETATM    5  C4  UNL     1     -31.631 -17.679  59.464  1.00  0.00     0.262 C 
HETATM    6  C5  UNL     1     -32.647 -17.742  60.539  1.00  0.00     0.088 C 
HETATM    7  C6  UNL     1     -33.152 -16.452  61.049  1.00  0.00     0.067 C 
HETATM    8  C7  UNL     1     -34.287 -16.001  60.116  1.00  0.00     0.035 C 
HETATM    9 CL1  UNL     1     -33.962 -16.779  62.627  1.00  0.00    -0.117 Cl
HETATM   10  C8  UNL     1     -32.231 -15.350  61.229  1.00  0.00     0.189 C 
HETATM   11  O2  UNL     1     -32.010 -14.504  60.120  1.00  0.00    -0.288 OA
HETATM   12  C9  UNL     1     -30.864 -13.766  60.482  1.00  0.00     0.407 C 
HETATM   13  O3  UNL     1     -30.387 -12.751  59.891  1.00  0.00    -0.229 OA
HETATM   14  O4  UNL     1     -30.293 -14.325  61.636  1.00  0.00    -0.287 OA
HETATM   15  C10 UNL     1     -30.813 -15.672  61.637  1.00  0.00     0.195 C 
HETATM   16  C11 UNL     1     -30.040 -16.407  60.579  1.00  0.00     0.165 C 
HETATM   17  O5  UNL     1     -30.847 -16.546  59.471  1.00  0.00    -0.353 OA
HETATM   18  C12 UNL     1     -29.496 -17.727  61.076  1.00  0.00     0.071 C 
HETATM   19  C13 UNL     1     -28.022 -17.667  61.423  1.00  0.00     0.178 C 
HETATM   20  O6  UNL     1     -27.244 -18.484  60.622  1.00  0.00    -0.382 OA
HETATM   21  C14 UNL     1     -27.617 -19.846  60.716  1.00  0.00     0.161 C 
ENDROOT
BRANCH  21  22
HETATM   22  C15 UNL     1     -26.600 -20.582  59.922  1.00  0.00     0.084 C 
HETATM   23  C16 UNL     1     -26.949 -20.872  58.509  1.00  0.00     0.040 C 
HETATM   24  C17 UNL     1     -26.168 -22.138  58.107  1.00  0.00     0.003 C 
HETATM   25  C18 UNL     1     -24.726 -21.849  58.356  1.00  0.00     0.000 C 
HETATM   26  C19 UNL     1     -24.446 -20.427  58.764  1.00  0.00     0.003 C 
HETATM   27  C20 UNL     1     -25.199 -20.010  60.002  1.00  0.00     0.040 C 
BRANCH  22  28
HETATM   28  O7  UNL     1     -26.483 -21.854  60.553  1.00  0.00    -0.387 OA
ATOM     29  H7  UNL     1     -26.841 -22.475  59.930  1.00  0.00     0.210 HD
ENDBRANCH  22  28
ENDBRANCH  21  22
TORSDOF 2
ENDMDL
MODEL 4
REMARK VINA RESULT: -7.866946814      3.515      6.614
REMARK  2 active torsions:
REMARK  status: ('A' for Active; 'I' for Inactive)
REMARK    1  A    between atoms: C14_21  and  C15_22 
REMARK    2  A    between atoms: C15_22  and  O7_23 
ROOT
HETATM    1  C1  UNL     1     -28.818 -17.481  60.905  1.00  0.00     0.015 C 
HETATM    2  C2  UNL     1     -29.694 -17.889  59.788  1.00  0.00     0.043 C 
HETATM    3  C3  UNL     1     -31.103 -18.071  60.385  1.00  0.00     0.139 C 
HETATM    4  O1  UNL     1     -31.384 -17.101  61.308  1.00  0.00    -0.355 OA
HETATM    5  C4  UNL     1     -32.751 -16.893  61.488  1.00  0.00     0.262 C 
HETATM    6  C5  UNL     1     -33.100 -15.568  60.926  1.00  0.00     0.088 C 
HETATM    7  C6  UNL     1     -34.507 -15.369  60.526  1.00  0.00     0.067 C 
HETATM    8  C7  UNL     1     -35.287 -14.949  61.783  1.00  0.00     0.035 C 
HETATM    9 CL1  UNL     1     -34.559 -13.921  59.452  1.00  0.00    -0.117 Cl
HETATM   10  C8  UNL     1     -35.220 -16.447  59.873  1.00  0.00     0.189 C 
HETATM   11  O2  UNL     1     -35.882 -17.380  60.702  1.00  0.00    -0.288 OA
HETATM   12  C9  UNL     1     -36.183 -18.449  59.833  1.00  0.00     0.407 C 
HETATM   13  O3  UNL     1     -36.935 -19.440  60.070  1.00  0.00    -0.229 OA
HETATM   14  O4  UNL     1     -35.511 -18.263  58.614  1.00  0.00    -0.287 OA
HETATM   15  C10 UNL     1     -34.436 -17.366  58.968  1.00  0.00     0.195 C 
HETATM   16  C11 UNL     1     -33.427 -18.208  59.698  1.00  0.00     0.165 C 
HETATM   17  O5  UNL     1     -33.532 -17.937  61.045  1.00  0.00    -0.353 OA
HETATM   18  C12 UNL     1     -32.024 -18.013  59.170  1.00  0.00     0.071 C 
HETATM   19  C13 UNL     1     -31.575 -19.135  58.256  1.00  0.00     0.178 C 
HETATM   20  O6  UNL     1     -30.501 -19.846  58.759  1.00  0.00    -0.382 OA
HETATM   21  C14 UNL     1     -29.365 -19.029  58.971  1.00  0.00     0.161 C 
ENDROOT
BRANCH  21  22
HETATM   22  C15 UNL     1     -28.281 -19.967  59.363  1.00  0.00     0.084 C 
HETATM   23  C16 UNL     1     -27.903 -20.995  58.361  1.00  0.00     0.040 C 
HETATM   24  C17 UNL     1     -27.338 -22.196  59.144  1.00  0.00     0.003 C 
HETATM   25  C18 UNL     1     -26.212 -21.675  59.973  1.00  0.00     0.000 C 
HETATM   26  C19 UNL     1     -25.869 -20.233  59.708  1.00  0.00     0.003 C 
HETATM   27  C20 UNL     1     -27.037 -19.303  59.917  1.00  0.00     0.040 C 
BRANCH  22  28
HETATM   28  O7  UNL     1     -28.801 -20.694  60.474  1.00  0.00    -0.387 OA
ATOM     29  H7  UNL     1     -28.191 -20.531  61.184  1.00  0.00     0.210 HD
ENDBRANCH  22  28
ENDBRANCH  21  22
TORSDOF 2
ENDMDL
MODEL 5
REMARK VINA RESULT: -7.853644541      3.439      7.049
REMARK  2 active torsions:
REMARK  status: ('A' for Active; 'I' for Inactive)
REMARK    1  A    between atoms: C14_21  and  C15_22 
REMARK    2  A    between atoms: C15_22  and  O7_23 
ROOT
HETATM    1  C1  UNL     1     -30.284 -21.415  59.536  1.00  0.00     0.015 C 
HETATM    2  C2  UNL     1     -29.756 -20.273  60.310  1.00  0.00     0.043 C 
HETATM    3  C3  UNL     1     -30.495 -19.022  59.800  1.00  0.00     0.139 C 
HETATM    4  O1  UNL     1     -31.817 -19.284  59.563  1.00  0.00    -0.355 OA
HETATM    5  C4  UNL     1     -32.621 -18.146  59.608  1.00  0.00     0.262 C 
HETATM    6  C5  UNL     1     -33.475 -18.224  60.815  1.00  0.00     0.088 C 
HETATM    7  C6  UNL     1     -33.990 -16.947  61.347  1.00  0.00     0.067 C 
HETATM    8  C7  UNL     1     -35.269 -16.606  60.564  1.00  0.00     0.035 C 
HETATM    9 CL1  UNL     1     -34.554 -17.256  63.031  1.00  0.00    -0.117 Cl
HETATM   10  C8  UNL     1     -33.127 -15.784  61.360  1.00  0.00     0.189 C 
HETATM   11  O2  UNL     1     -33.116 -14.974  60.202  1.00  0.00    -0.288 OA
HETATM   12  C9  UNL     1     -31.983 -14.153  60.377  1.00  0.00     0.407 C 
HETATM   13  O3  UNL     1     -31.659 -13.138  59.692  1.00  0.00    -0.229 OA
HETATM   14  O4  UNL     1     -31.225 -14.628  61.459  1.00  0.00    -0.287 OA
HETATM   15  C10 UNL     1     -31.650 -16.002  61.577  1.00  0.00     0.195 C 
HETATM   16  C11 UNL     1     -30.980 -16.734  60.448  1.00  0.00     0.165 C 
HETATM   17  O5  UNL     1     -31.920 -16.968  59.467  1.00  0.00    -0.353 OA
HETATM   18  C12 UNL     1     -30.289 -17.996  60.909  1.00  0.00     0.071 C 
HETATM   19  C13 UNL     1     -28.788 -17.831  61.046  1.00  0.00     0.178 C 
HETATM   20  O6  UNL     1     -28.074 -18.633  60.174  1.00  0.00    -0.382 OA
HETATM   21  C14 UNL     1     -28.340 -20.010  60.364  1.00  0.00     0.161 C 
ENDROOT
BRANCH  21  22
HETATM   22  C15 UNL     1     -27.394 -20.715  59.462  1.00  0.00     0.084 C 
HETATM   23  C16 UNL     1     -26.760 -21.945  60.002  1.00  0.00     0.040 C 
HETATM   24  C17 UNL     1     -25.410 -22.107  59.277  1.00  0.00     0.003 C 
HETATM   25  C18 UNL     1     -25.709 -22.138  57.816  1.00  0.00     0.000 C 
HETATM   26  C19 UNL     1     -27.179 -22.155  57.490  1.00  0.00     0.003 C 
HETATM   27  C20 UNL     1     -27.924 -20.977  58.067  1.00  0.00     0.040 C 
BRANCH  22  28
HETATM   28  O7  UNL     1     -26.324 -19.798  59.252  1.00  0.00    -0.387 OA
ATOM     29  H7  UNL     1     -25.756 -20.219  58.618  1.00  0.00     0.210 HD
ENDBRANCH  22  28
ENDBRANCH  21  22
TORSDOF 2
ENDMDL
