MODEL 1
REMARK VINA RESULT: -7.749443368      0.000      0.000
REMARK  1 active torsions:
REMARK  status: ('A' for Active; 'I' for Inactive)
REMARK    1  A    between atoms: C3_6  and  O4_7 
ROOT
HETATM    1  O1  UNL     1     -38.102 -17.093  61.123  1.00  0.00    -0.263 OA
HETATM    2  C1  UNL     1     -37.214 -17.769  60.543  1.00  0.00     0.280 C 
HETATM    3  O2  UNL     1     -37.351 -18.899  59.748  1.00  0.00    -0.288 OA
HETATM    4  C2  UNL     1     -36.064 -19.441  59.552  1.00  0.00     0.280 C 
HETATM    5  O3  UNL     1     -35.559 -20.014  60.731  1.00  0.00    -0.330 OA
HETATM    6  C3  UNL     1     -34.199 -20.113  60.389  1.00  0.00     0.277 C 
HETATM    7  C4  UNL     1     -33.830 -18.763  59.781  1.00  0.00     0.091 C 
HETATM    8  C5  UNL     1     -32.983 -17.948  60.684  1.00  0.00     0.024 C 
HETATM    9  C6  UNL     1     -31.824 -17.262  60.022  1.00  0.00     0.007 C 
HETATM   10  C7  UNL     1     -30.784 -16.994  61.088  1.00  0.00    -0.002 C 
HETATM   11  C8  UNL     1     -30.595 -15.482  61.279  1.00  0.00     0.005 C 
HETATM   12  C9  UNL     1     -29.373 -15.279  62.109  1.00  0.00     0.000 C 
HETATM   13  C10 UNL     1     -29.054 -16.522  62.944  1.00  0.00     0.001 C 
HETATM   14  C11 UNL     1     -28.649 -17.675  62.057  1.00  0.00     0.013 C 
HETATM   15  C12 UNL     1     -29.437 -17.564  60.752  1.00  0.00     0.072 C 
HETATM   16  C13 UNL     1     -29.473 -18.821  60.014  1.00  0.00     0.201 C 
HETATM   17  O5  UNL     1     -28.630 -19.023  59.157  1.00  0.00    -0.284 OA
HETATM   18  S1  UNL     1     -30.682 -20.121  60.268  1.00  0.00    -0.011 SA
HETATM   19  S2  UNL     1     -31.861 -20.369  58.510  1.00  0.00    -0.011 SA
HETATM   20  C14 UNL     1     -33.090 -19.064  58.521  1.00  0.00     0.211 C 
HETATM   21  O6  UNL     1     -33.290 -18.460  57.498  1.00  0.00    -0.284 OA
HETATM   22  C15 UNL     1     -35.189 -18.180  59.502  1.00  0.00     0.091 C 
HETATM   23  C16 UNL     1     -35.761 -17.404  60.648  1.00  0.00     0.192 C 
HETATM   24 CL1  UNL     1     -35.642 -15.661  60.462  1.00  0.00    -0.114 Cl
ENDROOT
BRANCH   6  25
HETATM   25  O4  UNL     1     -34.172 -21.124  59.399  1.00  0.00    -0.370 OA
ATOM     26  H4  UNL     1     -34.687 -20.761  58.688  1.00  0.00     0.212 HD
ENDBRANCH   6  25
TORSDOF 1
ENDMDL
MODEL 2
REMARK VINA RESULT: -7.604055379      2.631      5.966
REMARK  1 active torsions:
REMARK  status: ('A' for Active; 'I' for Inactive)
REMARK    1  A    between atoms: C3_6  and  O4_7 
ROOT
HETATM    1  O1  UNL     1     -26.489 -18.797  60.629  1.00  0.00    -0.263 OA
HETATM    2  C1  UNL     1     -27.624 -19.212  60.280  1.00  0.00     0.280 C 
HETATM    3  O2  UNL     1     -27.964 -20.385  59.618  1.00  0.00    -0.288 OA
HETATM    4  C2  UNL     1     -29.311 -20.273  59.220  1.00  0.00     0.280 C 
HETATM    5  O3  UNL     1     -29.469 -19.338  58.184  1.00  0.00    -0.330 OA
HETATM    6  C3  UNL     1     -30.859 -19.139  58.248  1.00  0.00     0.277 C 
HETATM    7  C4  UNL     1     -31.180 -18.949  59.727  1.00  0.00     0.091 C 
HETATM    8  C5  UNL     1     -31.512 -17.543  60.058  1.00  0.00     0.024 C 
HETATM    9  C6  UNL     1     -32.693 -17.365  60.967  1.00  0.00     0.007 C 
HETATM   10  C7  UNL     1     -33.241 -15.974  60.736  1.00  0.00    -0.002 C 
HETATM   11  C8  UNL     1     -33.092 -15.125  62.007  1.00  0.00     0.005 C 
HETATM   12  C9  UNL     1     -33.900 -13.886  61.823  1.00  0.00     0.000 C 
HETATM   13  C10 UNL     1     -34.118 -13.580  60.339  1.00  0.00     0.001 C 
HETATM   14  C11 UNL     1     -34.994 -14.629  59.698  1.00  0.00     0.013 C 
HETATM   15  C12 UNL     1     -34.697 -15.967  60.374  1.00  0.00     0.072 C 
HETATM   16  C13 UNL     1     -35.132 -17.106  59.573  1.00  0.00     0.201 C 
HETATM   17  O5  UNL     1     -36.240 -17.574  59.772  1.00  0.00    -0.284 OA
HETATM   18  S1  UNL     1     -34.150 -17.891  58.295  1.00  0.00    -0.011 SA
HETATM   19  S2  UNL     1     -33.709 -19.901  58.850  1.00  0.00    -0.011 SA
HETATM   20  C14 UNL     1     -32.348 -19.831  60.015  1.00  0.00     0.211 C 
HETATM   21  O6  UNL     1     -32.413 -20.508  61.009  1.00  0.00    -0.284 OA
HETATM   22  C15 UNL     1     -29.921 -19.464  60.373  1.00  0.00     0.091 C 
HETATM   23  C16 UNL     1     -28.867 -18.418  60.561  1.00  0.00     0.192 C 
HETATM   24 CL1  UNL     1     -28.744 -17.815  62.207  1.00  0.00    -0.114 Cl
ENDROOT
BRANCH   6  25
HETATM   25  O4  UNL     1     -31.398 -20.361  57.779  1.00  0.00    -0.370 OA
ATOM     26  H4  UNL     1     -32.318 -20.307  58.008  1.00  0.00     0.212 HD
ENDBRANCH   6  25
TORSDOF 1
ENDMDL
MODEL 3
REMARK VINA RESULT: -7.430073058      2.943      4.108
REMARK  1 active torsions:
REMARK  status: ('A' for Active; 'I' for Inactive)
REMARK    1  A    between atoms: C3_6  and  O4_7 
ROOT
HETATM    1  O1  UNL     1     -38.689 -18.474  58.121  1.00  0.00    -0.263 OA
HETATM    2  C1  UNL     1     -38.003 -17.650  58.778  1.00  0.00     0.280 C 
HETATM    3  O2  UNL     1     -38.354 -16.389  59.243  1.00  0.00    -0.288 OA
HETATM    4  C2  UNL     1     -37.175 -15.755  59.684  1.00  0.00     0.280 C 
HETATM    5  O3  UNL     1     -36.338 -15.410  58.610  1.00  0.00    -0.330 OA
HETATM    6  C3  UNL     1     -35.138 -15.175  59.303  1.00  0.00     0.277 C 
HETATM    7  C4  UNL     1     -34.981 -16.352  60.262  1.00  0.00     0.091 C 
HETATM    8  C5  UNL     1     -33.916 -17.290  59.836  1.00  0.00     0.024 C 
HETATM    9  C6  UNL     1     -33.011 -17.766  60.935  1.00  0.00     0.007 C 
HETATM   10  C7  UNL     1     -31.708 -18.195  60.299  1.00  0.00    -0.002 C 
HETATM   11  C8  UNL     1     -31.489 -19.702  60.494  1.00  0.00     0.005 C 
HETATM   12  C9  UNL     1     -30.080 -20.009  60.117  1.00  0.00     0.000 C 
HETATM   13  C10 UNL     1     -29.514 -18.949  59.168  1.00  0.00     0.001 C 
HETATM   14  C11 UNL     1     -29.373 -17.620  59.871  1.00  0.00     0.013 C 
HETATM   15  C12 UNL     1     -30.512 -17.500  60.883  1.00  0.00     0.072 C 
HETATM   16  C13 UNL     1     -30.749 -16.122  61.297  1.00  0.00     0.201 C 
HETATM   17  O5  UNL     1     -30.192 -15.706  62.299  1.00  0.00    -0.284 OA
HETATM   18  S1  UNL     1     -31.812 -14.965  60.435  1.00  0.00    -0.011 SA
HETATM   19  S2  UNL     1     -33.454 -14.421  61.681  1.00  0.00    -0.011 SA
HETATM   20  C14 UNL     1     -34.642 -15.761  61.590  1.00  0.00     0.211 C 
HETATM   21  O6  UNL     1     -35.141 -16.152  62.614  1.00  0.00    -0.284 OA
HETATM   22  C15 UNL     1     -36.370 -16.933  60.251  1.00  0.00     0.091 C 
HETATM   23  C16 UNL     1     -36.588 -17.954  59.179  1.00  0.00     0.192 C 
HETATM   24 CL1  UNL     1     -36.551 -19.614  59.754  1.00  0.00    -0.114 Cl
ENDROOT
BRANCH   6  25
HETATM   25  O4  UNL     1     -35.391 -13.982  60.022  1.00  0.00    -0.370 OA
ATOM     26  H4  UNL     1     -36.069 -13.551  59.515  1.00  0.00     0.212 HD
ENDBRANCH   6  25
TORSDOF 1
ENDMDL
MODEL 4
REMARK VINA RESULT: -7.408370677      2.969      4.230
REMARK  1 active torsions:
REMARK  status: ('A' for Active; 'I' for Inactive)
REMARK    1  A    between atoms: C3_6  and  O4_7 
ROOT
HETATM    1  O1  UNL     1     -37.809 -16.425  58.126  1.00  0.00    -0.263 OA
HETATM    2  C1  UNL     1     -36.911 -16.023  58.909  1.00  0.00     0.280 C 
HETATM    3  O2  UNL     1     -36.843 -14.839  59.632  1.00  0.00    -0.288 OA
HETATM    4  C2  UNL     1     -35.535 -14.728  60.146  1.00  0.00     0.280 C 
HETATM    5  O3  UNL     1     -34.600 -14.464  59.131  1.00  0.00    -0.330 OA
HETATM    6  C3  UNL     1     -33.411 -14.780  59.811  1.00  0.00     0.277 C 
HETATM    7  C4  UNL     1     -33.676 -16.113  60.506  1.00  0.00     0.091 C 
HETATM    8  C5  UNL     1     -32.964 -17.240  59.858  1.00  0.00     0.024 C 
HETATM    9  C6  UNL     1     -32.299 -18.199  60.802  1.00  0.00     0.007 C 
HETATM   10  C7  UNL     1     -31.189 -18.890  60.043  1.00  0.00    -0.002 C 
HETATM   11  C8  UNL     1     -31.482 -20.393  59.920  1.00  0.00     0.005 C 
HETATM   12  C9  UNL     1     -30.241 -21.060  59.434  1.00  0.00     0.000 C 
HETATM   13  C10 UNL     1     -29.331 -20.073  58.698  1.00  0.00     0.001 C 
HETATM   14  C11 UNL     1     -28.784 -19.035  59.648  1.00  0.00     0.013 C 
HETATM   15  C12 UNL     1     -29.850 -18.759  60.707  1.00  0.00     0.072 C 
HETATM   16  C13 UNL     1     -29.635 -17.494  61.400  1.00  0.00     0.201 C 
HETATM   17  O5  UNL     1     -29.004 -17.495  62.443  1.00  0.00    -0.284 OA
HETATM   18  S1  UNL     1     -30.235 -15.902  60.831  1.00  0.00    -0.011 SA
HETATM   19  S2  UNL     1     -31.644 -15.119  62.225  1.00  0.00    -0.011 SA
HETATM   20  C14 UNL     1     -33.202 -15.949  61.911  1.00  0.00     0.211 C 
HETATM   21  O6  UNL     1     -33.832 -16.355  62.854  1.00  0.00    -0.284 OA
HETATM   22  C15 UNL     1     -35.177 -16.194  60.431  1.00  0.00     0.091 C 
HETATM   23  C16 UNL     1     -35.686 -16.847  59.185  1.00  0.00     0.192 C 
HETATM   24 CL1  UNL     1     -36.212 -18.508  59.411  1.00  0.00    -0.114 Cl
ENDROOT
BRANCH   6  25
HETATM   25  O4  UNL     1     -33.280 -13.743  60.765  1.00  0.00    -0.370 OA
ATOM     26  H4  UNL     1     -33.894 -13.985  61.449  1.00  0.00     0.212 HD
ENDBRANCH   6  25
TORSDOF 1
ENDMDL
MODEL 5
REMARK VINA RESULT: -7.347036015      3.269      4.409
REMARK  1 active torsions:
REMARK  status: ('A' for Active; 'I' for Inactive)
REMARK    1  A    between atoms: C3_6  and  O4_7 
ROOT
HETATM    1  O1  UNL     1     -36.139 -19.997  55.125  1.00  0.00    -0.263 OA
HETATM    2  C1  UNL     1     -36.267 -19.133  56.031  1.00  0.00     0.280 C 
HETATM    3  O2  UNL     1     -37.335 -18.283  56.289  1.00  0.00    -0.288 OA
HETATM    4  C2  UNL     1     -36.901 -17.328  57.230  1.00  0.00     0.280 C 
HETATM    5  O3  UNL     1     -35.983 -16.425  56.667  1.00  0.00    -0.330 OA
HETATM    6  C3  UNL     1     -35.442 -15.868  57.839  1.00  0.00     0.277 C 
HETATM    7  C4  UNL     1     -35.139 -17.051  58.754  1.00  0.00     0.091 C 
HETATM    8  C5  UNL     1     -33.686 -17.324  58.863  1.00  0.00     0.024 C 
HETATM    9  C6  UNL     1     -33.196 -17.608  60.253  1.00  0.00     0.007 C 
HETATM   10  C7  UNL     1     -31.719 -17.285  60.290  1.00  0.00    -0.002 C 
HETATM   11  C8  UNL     1     -30.900 -18.557  60.553  1.00  0.00     0.005 C 
HETATM   12  C9  UNL     1     -29.503 -18.142  60.870  1.00  0.00     0.000 C 
HETATM   13  C10 UNL     1     -29.193 -16.756  60.297  1.00  0.00     0.001 C 
HETATM   14  C11 UNL     1     -30.007 -15.692  60.994  1.00  0.00     0.013 C 
HETATM   15  C12 UNL     1     -31.358 -16.302  61.365  1.00  0.00     0.072 C 
HETATM   16  C13 UNL     1     -32.373 -15.289  61.631  1.00  0.00     0.201 C 
HETATM   17  O5  UNL     1     -32.544 -14.918  62.780  1.00  0.00    -0.284 OA
HETATM   18  S1  UNL     1     -33.411 -14.530  60.383  1.00  0.00    -0.011 SA
HETATM   19  S2  UNL     1     -35.452 -15.036  60.732  1.00  0.00    -0.011 SA
HETATM   20  C14 UNL     1     -35.694 -16.693  60.092  1.00  0.00     0.211 C 
HETATM   21  O6  UNL     1     -36.307 -17.481  60.766  1.00  0.00    -0.284 OA
HETATM   22  C15 UNL     1     -35.935 -18.147  58.097  1.00  0.00     0.091 C 
HETATM   23  C16 UNL     1     -35.181 -18.891  57.039  1.00  0.00     0.192 C 
HETATM   24 CL1  UNL     1     -34.583 -20.460  57.555  1.00  0.00    -0.114 Cl
ENDROOT
BRANCH   6  25
HETATM   25  O4  UNL     1     -36.504 -15.095  58.366  1.00  0.00    -0.370 OA
ATOM     26  H4  UNL     1     -36.482 -15.284  59.297  1.00  0.00     0.212 HD
ENDBRANCH   6  25
TORSDOF 1
ENDMDL
