MODEL 1
REMARK VINA RESULT: -7.643452123      0.000      0.000
REMARK  1 active torsions:
REMARK  status: ('A' for Active; 'I' for Inactive)
REMARK    1  A    between atoms: C19_24  and  O5_25 
ROOT
HETATM    1  C1  UNL     1     -37.382 -17.265  61.369  1.00  0.00     0.033 C 
HETATM    2  C2  UNL     1     -36.064 -16.548  61.016  1.00  0.00     0.038 C 
HETATM    3 CL1  UNL     1     -36.502 -15.169  60.049  1.00  0.00    -0.119 Cl
HETATM    4  C3  UNL     1     -35.357 -16.201  62.311  1.00  0.00     0.026 C 
HETATM    5  C4  UNL     1     -34.162 -17.049  62.595  1.00  0.00     0.003 C 
HETATM    6  C5  UNL     1     -33.156 -17.164  61.504  1.00  0.00     0.010 C 
HETATM    7  C6  UNL     1     -33.781 -17.199  60.144  1.00  0.00    -0.030 C 
HETATM    8  C7  UNL     1     -33.672 -15.749  59.625  1.00  0.00     0.016 C 
HETATM    9  C8  UNL     1     -35.227 -17.589  60.330  1.00  0.00     0.017 C 
HETATM   10  C9  UNL     1     -35.762 -18.060  59.029  1.00  0.00     0.010 C 
HETATM   11  C10 UNL     1     -35.137 -19.292  58.492  1.00  0.00     0.038 C 
HETATM   12  C11 UNL     1     -33.670 -19.470  58.958  1.00  0.00     0.065 C 
HETATM   13  C12 UNL     1     -33.747 -20.412  60.083  1.00  0.00     0.046 C 
HETATM   14  O1  UNL     1     -32.952 -20.062  57.944  1.00  0.00    -0.369 OA
HETATM   15  C13 UNL     1     -31.645 -19.888  57.801  1.00  0.00     0.188 C 
HETATM   16  C14 UNL     1     -31.331 -18.388  57.629  1.00  0.00     0.070 C 
HETATM   17  C15 UNL     1     -31.655 -18.035  59.091  1.00  0.00     0.135 C 
HETATM   18  O2  UNL     1     -31.236 -19.132  59.862  1.00  0.00    -0.346 OA
HETATM   19  C16 UNL     1     -30.747 -20.088  58.997  1.00  0.00     0.204 C 
HETATM   20  C17 UNL     1     -29.328 -19.624  58.642  1.00  0.00     0.182 C 
HETATM   21  C18 UNL     1     -28.306 -20.400  59.425  1.00  0.00     0.268 C 
HETATM   22  O3  UNL     1     -27.402 -19.879  60.099  1.00  0.00    -0.265 OA
HETATM   23  O4  UNL     1     -28.450 -21.795  59.335  1.00  0.00    -0.265 OA
HETATM   24  C19 UNL     1     -29.767 -22.190  58.920  1.00  0.00     0.421 C 
HETATM   25  O6  UNL     1     -30.648 -21.333  59.492  1.00  0.00    -0.298 OA
HETATM   26  C20 UNL     1     -33.178 -18.081  59.132  1.00  0.00     0.057 C 
ENDROOT
BRANCH  24  27
HETATM   27  O5  UNL     1     -29.796 -22.299  57.556  1.00  0.00    -0.349 OA
ATOM     28  H5  UNL     1     -28.932 -22.539  57.244  1.00  0.00     0.215 HD
ENDBRANCH  24  27
TORSDOF 1
ENDMDL
MODEL 2
REMARK VINA RESULT: -7.544966471      3.524      6.657
REMARK  1 active torsions:
REMARK  status: ('A' for Active; 'I' for Inactive)
REMARK    1  A    between atoms: C19_24  and  O5_25 
ROOT
HETATM    1  C1  UNL     1     -28.989 -17.699  62.147  1.00  0.00     0.033 C 
HETATM    2  C2  UNL     1     -29.605 -18.028  60.773  1.00  0.00     0.038 C 
HETATM    3 CL1  UNL     1     -28.614 -17.225  59.589  1.00  0.00    -0.119 Cl
HETATM    4  C3  UNL     1     -29.648 -19.536  60.628  1.00  0.00     0.026 C 
HETATM    5  C4  UNL     1     -31.017 -20.118  60.750  1.00  0.00     0.003 C 
HETATM    6  C5  UNL     1     -32.073 -19.513  59.892  1.00  0.00     0.010 C 
HETATM    7  C6  UNL     1     -31.909 -18.033  59.731  1.00  0.00    -0.030 C 
HETATM    8  C7  UNL     1     -31.191 -17.863  58.375  1.00  0.00     0.016 C 
HETATM    9  C8  UNL     1     -31.028 -17.559  60.862  1.00  0.00     0.017 C 
HETATM   10  C9  UNL     1     -31.193 -16.092  61.008  1.00  0.00     0.010 C 
HETATM   11  C10 UNL     1     -32.546 -15.640  61.410  1.00  0.00     0.038 C 
HETATM   12  C11 UNL     1     -33.662 -16.611  60.948  1.00  0.00     0.065 C 
HETATM   13  C12 UNL     1     -33.959 -17.430  62.132  1.00  0.00     0.046 C 
HETATM   14  O1  UNL     1     -34.784 -15.879  60.634  1.00  0.00    -0.369 OA
HETATM   15  C13 UNL     1     -35.687 -16.299  59.758  1.00  0.00     0.188 C 
HETATM   16  C14 UNL     1     -35.019 -16.530  58.387  1.00  0.00     0.070 C 
HETATM   17  C15 UNL     1     -34.250 -17.781  58.845  1.00  0.00     0.135 C 
HETATM   18  O2  UNL     1     -35.090 -18.450  59.750  1.00  0.00    -0.346 OA
HETATM   19  C16 UNL     1     -36.237 -17.697  59.890  1.00  0.00     0.204 C 
HETATM   20  C17 UNL     1     -37.086 -18.021  58.654  1.00  0.00     0.182 C 
HETATM   21  C18 UNL     1     -38.177 -18.995  59.001  1.00  0.00     0.268 C 
HETATM   22  O3  UNL     1     -38.388 -20.053  58.385  1.00  0.00    -0.265 OA
HETATM   23  O4  UNL     1     -38.961 -18.613  60.103  1.00  0.00    -0.265 OA
HETATM   24  C19 UNL     1     -38.305 -17.648  60.941  1.00  0.00     0.421 C 
HETATM   25  O6  UNL     1     -36.987 -17.964  60.972  1.00  0.00    -0.298 OA
HETATM   26  C20 UNL     1     -33.126 -17.206  59.700  1.00  0.00     0.057 C 
ENDROOT
BRANCH  24  27
HETATM   27  O5  UNL     1     -38.637 -16.388  60.521  1.00  0.00    -0.349 OA
ATOM     28  H5  UNL     1     -39.009 -15.904  61.248  1.00  0.00     0.215 HD
ENDBRANCH  24  27
TORSDOF 1
ENDMDL
MODEL 3
REMARK VINA RESULT: -7.454874470      3.906      6.672
REMARK  1 active torsions:
REMARK  status: ('A' for Active; 'I' for Inactive)
REMARK    1  A    between atoms: C19_24  and  O5_25 
ROOT
HETATM    1  C1  UNL     1     -30.089 -16.959  61.887  1.00  0.00     0.033 C 
HETATM    2  C2  UNL     1     -30.974 -16.338  60.787  1.00  0.00     0.038 C 
HETATM    3 CL1  UNL     1     -30.710 -14.619  60.860  1.00  0.00    -0.119 Cl
HETATM    4  C3  UNL     1     -30.591 -16.971  59.465  1.00  0.00     0.026 C 
HETATM    5  C4  UNL     1     -31.601 -17.939  58.941  1.00  0.00     0.003 C 
HETATM    6  C5  UNL     1     -33.006 -17.454  58.863  1.00  0.00     0.010 C 
HETATM    7  C6  UNL     1     -33.369 -16.550  60.001  1.00  0.00    -0.030 C 
HETATM    8  C7  UNL     1     -33.207 -15.123  59.434  1.00  0.00     0.016 C 
HETATM    9  C8  UNL     1     -32.367 -16.800  61.103  1.00  0.00     0.017 C 
HETATM   10  C9  UNL     1     -32.924 -16.278  62.375  1.00  0.00     0.010 C 
HETATM   11  C10 UNL     1     -34.149 -16.956  62.860  1.00  0.00     0.038 C 
HETATM   12  C11 UNL     1     -34.995 -17.556  61.709  1.00  0.00     0.065 C 
HETATM   13  C12 UNL     1     -34.633 -18.980  61.682  1.00  0.00     0.046 C 
HETATM   14  O1  UNL     1     -36.328 -17.452  62.038  1.00  0.00    -0.369 OA
HETATM   15  C13 UNL     1     -37.284 -17.380  61.122  1.00  0.00     0.188 C 
HETATM   16  C14 UNL     1     -37.048 -16.157  60.213  1.00  0.00     0.070 C 
HETATM   17  C15 UNL     1     -35.826 -16.771  59.511  1.00  0.00     0.135 C 
HETATM   18  O2  UNL     1     -36.085 -18.147  59.403  1.00  0.00    -0.346 OA
HETATM   19  C16 UNL     1     -37.302 -18.391  60.004  1.00  0.00     0.204 C 
HETATM   20  C17 UNL     1     -38.355 -17.975  58.968  1.00  0.00     0.182 C 
HETATM   21  C18 UNL     1     -38.920 -19.182  58.273  1.00  0.00     0.268 C 
HETATM   22  O3  UNL     1     -38.978 -19.312  57.039  1.00  0.00    -0.265 OA
HETATM   23  O4  UNL     1     -39.393 -20.179  59.144  1.00  0.00    -0.265 OA
HETATM   24  C19 UNL     1     -38.839 -20.068  60.465  1.00  0.00     0.421 C 
HETATM   25  O6  UNL     1     -37.549 -19.669  60.333  1.00  0.00    -0.298 OA
HETATM   26  C20 UNL     1     -34.725 -16.657  60.560  1.00  0.00     0.057 C 
ENDROOT
BRANCH  24  27
HETATM   27  O5  UNL     1     -39.659 -19.287  61.233  1.00  0.00    -0.349 OA
ATOM     28  H5  UNL     1     -39.181 -18.988  61.996  1.00  0.00     0.215 HD
ENDBRANCH  24  27
TORSDOF 1
ENDMDL
MODEL 4
REMARK VINA RESULT: -7.413926161      5.762      8.920
REMARK  1 active torsions:
REMARK  status: ('A' for Active; 'I' for Inactive)
REMARK    1  A    between atoms: C19_24  and  O5_25 
ROOT
HETATM    1  C1  UNL     1     -32.496 -17.370  58.846  1.00  0.00     0.033 C 
HETATM    2  C2  UNL     1     -33.816 -17.464  59.636  1.00  0.00     0.038 C 
HETATM    3 CL1  UNL     1     -34.154 -19.161  59.822  1.00  0.00    -0.119 Cl
HETATM    4  C3  UNL     1     -33.634 -16.719  60.943  1.00  0.00     0.026 C 
HETATM    5  C4  UNL     1     -34.350 -15.410  61.000  1.00  0.00     0.003 C 
HETATM    6  C5  UNL     1     -35.796 -15.430  60.645  1.00  0.00     0.010 C 
HETATM    7  C6  UNL     1     -36.107 -16.396  59.544  1.00  0.00    -0.030 C 
HETATM    8  C7  UNL     1     -36.619 -17.661  60.267  1.00  0.00     0.016 C 
HETATM    9  C8  UNL     1     -34.810 -16.683  58.826  1.00  0.00     0.017 C 
HETATM   10  C9  UNL     1     -35.124 -17.262  57.497  1.00  0.00     0.010 C 
HETATM   11  C10 UNL     1     -35.845 -16.365  56.565  1.00  0.00     0.038 C 
HETATM   12  C11 UNL     1     -36.723 -15.321  57.300  1.00  0.00     0.065 C 
HETATM   13  C12 UNL     1     -35.914 -14.094  57.311  1.00  0.00     0.046 C 
HETATM   14  O1  UNL     1     -37.855 -15.088  56.552  1.00  0.00    -0.369 OA
HETATM   15  C13 UNL     1     -38.997 -14.687  57.093  1.00  0.00     0.188 C 
HETATM   16  C14 UNL     1     -39.469 -15.714  58.142  1.00  0.00     0.070 C 
HETATM   17  C15 UNL     1     -38.366 -15.361  59.153  1.00  0.00     0.135 C 
HETATM   18  O2  UNL     1     -38.152 -13.978  59.035  1.00  0.00    -0.346 OA
HETATM   19  C16 UNL     1     -38.983 -13.511  58.038  1.00  0.00     0.204 C 
HETATM   20  C17 UNL     1     -40.364 -13.378  58.693  1.00  0.00     0.182 C 
HETATM   21  C18 UNL     1     -40.650 -11.942  59.037  1.00  0.00     0.268 C 
HETATM   22  O3  UNL     1     -41.010 -11.554  60.161  1.00  0.00    -0.265 OA
HETATM   23  O4  UNL     1     -40.478 -11.048  57.966  1.00  0.00    -0.265 OA
HETATM   24  C19 UNL     1     -39.644 -11.584  56.927  1.00  0.00     0.421 C 
HETATM   25  O6  UNL     1     -38.667 -12.311  57.524  1.00  0.00    -0.298 OA
HETATM   26  C20 UNL     1     -37.122 -16.007  58.553  1.00  0.00     0.057 C 
ENDROOT
BRANCH  24  27
HETATM   27  O5  UNL     1     -40.427 -12.225  56.006  1.00  0.00    -0.349 OA
ATOM     28  H5  UNL     1     -41.317 -11.901  56.074  1.00  0.00     0.215 HD
ENDBRANCH  24  27
TORSDOF 1
ENDMDL
MODEL 5
REMARK VINA RESULT: -7.336060741      3.378      5.952
REMARK  1 active torsions:
REMARK  status: ('A' for Active; 'I' for Inactive)
REMARK    1  A    between atoms: C19_24  and  O5_25 
ROOT
HETATM    1  C1  UNL     1     -32.125 -13.698  60.046  1.00  0.00     0.033 C 
HETATM    2  C2  UNL     1     -32.871 -14.584  61.063  1.00  0.00     0.038 C 
HETATM    3 CL1  UNL     1     -31.722 -14.970  62.311  1.00  0.00    -0.119 Cl
HETATM    4  C3  UNL     1     -34.085 -13.819  61.550  1.00  0.00     0.026 C 
HETATM    5  C4  UNL     1     -35.380 -14.328  61.009  1.00  0.00     0.003 C 
HETATM    6  C5  UNL     1     -35.632 -15.787  61.155  1.00  0.00     0.010 C 
HETATM    7  C6  UNL     1     -34.389 -16.607  60.992  1.00  0.00    -0.030 C 
HETATM    8  C7  UNL     1     -33.915 -16.893  62.433  1.00  0.00     0.016 C 
HETATM    9  C8  UNL     1     -33.383 -15.747  60.264  1.00  0.00     0.017 C 
HETATM   10  C9  UNL     1     -32.331 -16.626  59.697  1.00  0.00     0.010 C 
HETATM   11  C10 UNL     1     -32.788 -17.580  58.659  1.00  0.00     0.038 C 
HETATM   12  C11 UNL     1     -34.274 -17.983  58.831  1.00  0.00     0.065 C 
HETATM   13  C12 UNL     1     -35.005 -17.132  57.882  1.00  0.00     0.046 C 
HETATM   14  O1  UNL     1     -34.425 -19.295  58.444  1.00  0.00    -0.369 OA
HETATM   15  C13 UNL     1     -35.382 -20.076  58.928  1.00  0.00     0.188 C 
HETATM   16  C14 UNL     1     -35.254 -20.171  60.462  1.00  0.00     0.070 C 
HETATM   17  C15 UNL     1     -35.715 -18.725  60.705  1.00  0.00     0.135 C 
HETATM   18  O2  UNL     1     -36.688 -18.453  59.730  1.00  0.00    -0.346 OA
HETATM   19  C16 UNL     1     -36.803 -19.572  58.932  1.00  0.00     0.204 C 
HETATM   20  C17 UNL     1     -37.680 -20.548  59.727  1.00  0.00     0.182 C 
HETATM   21  C18 UNL     1     -39.090 -20.537  59.207  1.00  0.00     0.268 C 
HETATM   22  O3  UNL     1     -40.094 -20.371  59.919  1.00  0.00    -0.265 OA
HETATM   23  O4  UNL     1     -39.194 -20.736  57.820  1.00  0.00    -0.265 OA
HETATM   24  C19 UNL     1     -37.968 -20.450  57.126  1.00  0.00     0.421 C 
HETATM   25  O6  UNL     1     -37.394 -19.385  57.740  1.00  0.00    -0.298 OA
HETATM   26  C20 UNL     1     -34.502 -17.897  60.294  1.00  0.00     0.057 C 
ENDROOT
BRANCH  24  27
HETATM   27  O5  UNL     1     -37.225 -21.594  57.034  1.00  0.00    -0.349 OA
ATOM     28  H5  UNL     1     -36.565 -21.485  56.360  1.00  0.00     0.215 HD
ENDBRANCH  24  27
TORSDOF 1
ENDMDL
