MODEL 1
REMARK VINA RESULT: -5.585284412      0.000      0.000
REMARK  3 active torsions:
REMARK  status: ('A' for Active; 'I' for Inactive)
REMARK    1  A    between atoms: O1_1  and  C1_3 
REMARK    2  A    between atoms: C4_6  and  O2_7 
REMARK    3  A    between atoms: C8_12  and  O3_13 
ROOT
HETATM    1  C1  UNL     1      -5.305   9.435  11.873  1.00  0.00     0.122 C 
HETATM    2  C2  UNL     1      -4.061  10.283  11.992  1.00  0.00     0.041 C 
HETATM    3  C3  UNL     1      -4.377  11.757  12.110  1.00  0.00     0.045 C 
HETATM    4  C4  UNL     1      -4.971  12.208  10.784  1.00  0.00     0.125 C 
HETATM    5  C5  UNL     1      -6.075  11.248  10.445  1.00  0.00     0.039 C 
HETATM    6  C6  UNL     1      -6.467  10.382  11.646  1.00  0.00     0.019 C 
HETATM    7  C7  UNL     1      -6.685  11.273  12.838  1.00  0.00     0.039 C 
HETATM    8  C8  UNL     1      -5.437  12.026  13.161  1.00  0.00     0.125 C 
ENDROOT
BRANCH   1   9
HETATM    9  O1  UNL     1      -5.484   8.610  12.962  1.00  0.00    -0.395 OA
ATOM     10  H1  UNL     1      -6.136   8.946  13.567  1.00  0.00     0.210 HD
ENDBRANCH   1   9
BRANCH   4  11
HETATM   11  O2  UNL     1      -4.003  12.314   9.812  1.00  0.00    -0.395 OA
ATOM     12  H2  UNL     1      -3.947  11.521   9.292  1.00  0.00     0.210 HD
ENDBRANCH   4  11
BRANCH   8  13
HETATM   13  O3  UNL     1      -4.983  11.842  14.448  1.00  0.00    -0.395 OA
ATOM     14  H3  UNL     1      -5.494  12.314  15.096  1.00  0.00     0.210 HD
ENDBRANCH   8  13
TORSDOF 3
ENDMDL
MODEL 2
REMARK VINA RESULT: -5.582787574      3.092      4.371
REMARK  3 active torsions:
REMARK  status: ('A' for Active; 'I' for Inactive)
REMARK    1  A    between atoms: O1_1  and  C1_3 
REMARK    2  A    between atoms: C4_6  and  O2_7 
REMARK    3  A    between atoms: C8_12  and  O3_13 
ROOT
HETATM    1  C1  UNL     1      -6.951   8.284  11.725  1.00  0.00     0.122 C 
HETATM    2  C2  UNL     1      -8.204   9.016  12.142  1.00  0.00     0.041 C 
HETATM    3  C3  UNL     1      -8.892   9.692  10.978  1.00  0.00     0.045 C 
HETATM    4  C4  UNL     1      -7.985  10.816  10.498  1.00  0.00     0.125 C 
HETATM    5  C5  UNL     1      -6.619  10.225  10.298  1.00  0.00     0.039 C 
HETATM    6  C6  UNL     1      -6.653   8.695  10.296  1.00  0.00     0.019 C 
HETATM    7  C7  UNL     1      -7.735   8.233   9.359  1.00  0.00     0.039 C 
HETATM    8  C8  UNL     1      -9.063   8.754   9.799  1.00  0.00     0.125 C 
ENDROOT
BRANCH   1   9
HETATM    9  O1  UNL     1      -7.063   6.919  11.883  1.00  0.00    -0.395 OA
ATOM     10  H1  UNL     1      -6.295   6.539  12.294  1.00  0.00     0.210 HD
ENDBRANCH   1   9
BRANCH   4  11
HETATM   11  O2  UNL     1      -8.012  11.885  11.363  1.00  0.00    -0.395 OA
ATOM     12  H2  UNL     1      -8.441  12.637  10.970  1.00  0.00     0.210 HD
ENDBRANCH   4  11
BRANCH   8  13
HETATM   13  O3  UNL     1     -10.009   7.778  10.016  1.00  0.00    -0.395 OA
ATOM     14  H3  UNL     1      -9.661   6.896   9.945  1.00  0.00     0.210 HD
ENDBRANCH   8  13
TORSDOF 3
ENDMDL
MODEL 3
REMARK VINA RESULT: -5.539923500      2.857      3.960
REMARK  3 active torsions:
REMARK  status: ('A' for Active; 'I' for Inactive)
REMARK    1  A    between atoms: O1_1  and  C1_3 
REMARK    2  A    between atoms: C4_6  and  O2_7 
REMARK    3  A    between atoms: C8_12  and  O3_13 
ROOT
HETATM    1  C1  UNL     1      -8.970   8.773   9.747  1.00  0.00     0.122 C 
HETATM    2  C2  UNL     1      -7.544   8.412   9.404  1.00  0.00     0.041 C 
HETATM    3  C3  UNL     1      -6.581   8.740  10.522  1.00  0.00     0.045 C 
HETATM    4  C4  UNL     1      -6.527  10.255  10.652  1.00  0.00     0.125 C 
HETATM    5  C5  UNL     1      -7.945  10.742  10.742  1.00  0.00     0.039 C 
HETATM    6  C6  UNL     1      -8.924   9.598  11.019  1.00  0.00     0.019 C 
HETATM    7  C7  UNL     1      -8.411   8.787  12.177  1.00  0.00     0.039 C 
HETATM    8  C8  UNL     1      -7.067   8.218  11.860  1.00  0.00     0.125 C 
ENDROOT
BRANCH   1   9
HETATM    9  O1  UNL     1      -9.781   7.664   9.851  1.00  0.00    -0.395 OA
ATOM     10  H1  UNL     1     -10.702   7.892   9.898  1.00  0.00     0.210 HD
ENDBRANCH   1   9
BRANCH   4  11
HETATM   11  O2  UNL     1      -5.804  10.821   9.627  1.00  0.00    -0.395 OA
ATOM     12  H2  UNL     1      -5.903  11.766   9.615  1.00  0.00     0.210 HD
ENDBRANCH   4  11
BRANCH   8  13
HETATM   13  O3  UNL     1      -6.994   6.848  11.966  1.00  0.00    -0.395 OA
ATOM     14  H3  UNL     1      -7.091   6.535  12.858  1.00  0.00     0.210 HD
ENDBRANCH   8  13
TORSDOF 3
ENDMDL
MODEL 4
REMARK VINA RESULT: -5.402293511      6.448      7.535
REMARK  3 active torsions:
REMARK  status: ('A' for Active; 'I' for Inactive)
REMARK    1  A    between atoms: O1_1  and  C1_3 
REMARK    2  A    between atoms: C4_6  and  O2_7 
REMARK    3  A    between atoms: C8_12  and  O3_13 
ROOT
HETATM    1  C1  UNL     1     -12.888   9.599  10.898  1.00  0.00     0.122 C 
HETATM    2  C2  UNL     1     -13.241  10.734   9.967  1.00  0.00     0.041 C 
HETATM    3  C3  UNL     1     -12.048  11.227   9.180  1.00  0.00     0.045 C 
HETATM    4  C4  UNL     1     -11.087  11.879  10.162  1.00  0.00     0.125 C 
HETATM    5  C5  UNL     1     -10.871  10.903  11.283  1.00  0.00     0.039 C 
HETATM    6  C6  UNL     1     -11.375   9.503  10.925  1.00  0.00     0.019 C 
HETATM    7  C7  UNL     1     -10.829   9.119   9.577  1.00  0.00     0.039 C 
HETATM    8  C8  UNL     1     -11.285  10.086   8.535  1.00  0.00     0.125 C 
ENDROOT
BRANCH   1   9
HETATM    9  O1  UNL     1     -13.499   8.417  10.540  1.00  0.00    -0.395 OA
ATOM     10  H1  UNL     1     -12.905   7.676  10.580  1.00  0.00     0.210 HD
ENDBRANCH   1   9
BRANCH   4  11
HETATM   11  O2  UNL     1     -11.547  13.110  10.571  1.00  0.00    -0.395 OA
ATOM     12  H2  UNL     1     -11.912  13.068  11.448  1.00  0.00     0.210 HD
ENDBRANCH   4  11
BRANCH   8  13
HETATM   13  O3  UNL     1     -11.959   9.508   7.484  1.00  0.00    -0.395 OA
ATOM     14  H3  UNL     1     -11.463   8.822   7.052  1.00  0.00     0.210 HD
ENDBRANCH   8  13
TORSDOF 3
ENDMDL
MODEL 5
REMARK VINA RESULT: -5.361543696      6.877      7.861
REMARK  3 active torsions:
REMARK  status: ('A' for Active; 'I' for Inactive)
REMARK    1  A    between atoms: O1_1  and  C1_3 
REMARK    2  A    between atoms: C4_6  and  O2_7 
REMARK    3  A    between atoms: C8_12  and  O3_13 
ROOT
HETATM    1  C1  UNL     1     -12.889  10.716   8.009  1.00  0.00     0.122 C 
HETATM    2  C2  UNL     1     -11.456  10.998   8.394  1.00  0.00     0.041 C 
HETATM    3  C3  UNL     1     -11.195  10.757   9.863  1.00  0.00     0.045 C 
HETATM    4  C4  UNL     1     -11.971  11.806  10.646  1.00  0.00     0.125 C 
HETATM    5  C5  UNL     1     -13.385  11.779  10.140  1.00  0.00     0.039 C 
HETATM    6  C6  UNL     1     -13.666  10.532   9.298  1.00  0.00     0.019 C 
HETATM    7  C7  UNL     1     -13.192   9.319  10.051  1.00  0.00     0.039 C 
HETATM    8  C8  UNL     1     -11.726   9.411  10.319  1.00  0.00     0.125 C 
ENDROOT
BRANCH   1   9
HETATM    9  O1  UNL     1     -13.000   9.643   7.152  1.00  0.00    -0.395 OA
ATOM     10  H1  UNL     1     -12.426   8.926   7.394  1.00  0.00     0.210 HD
ENDBRANCH   1   9
BRANCH   4  11
HETATM   11  O2  UNL     1     -11.369  13.040  10.562  1.00  0.00    -0.395 OA
ATOM     12  H2  UNL     1     -11.142  13.254   9.664  1.00  0.00     0.210 HD
ENDBRANCH   4  11
BRANCH   8  13
HETATM   13  O3  UNL     1     -10.995   8.349   9.836  1.00  0.00    -0.395 OA
ATOM     14  H3  UNL     1     -11.521   7.720   9.356  1.00  0.00     0.210 HD
ENDBRANCH   8  13
TORSDOF 3
ENDMDL
