MODEL 1
REMARK VINA RESULT: -6.080917736      0.000      0.000
REMARK  4 active torsions:
REMARK  status: ('A' for Active; 'I' for Inactive)
REMARK    1  A    between atoms: C3_4  and  O1_5 
REMARK    2  A    between atoms: C4_7  and  C5_8 
REMARK       I    between atoms: C5_8  and  N2_10 
REMARK    3  A    between atoms: N2_10  and  C6_12 
REMARK    4  A    between atoms: C9_16  and  O3_17 
ROOT
HETATM    1  C1  UNL     1     -22.494  12.252  -3.468  1.00  0.00     0.158 C 
HETATM    2  N1  UNL     1     -21.033  12.302  -3.299  1.00  0.00    -0.339 N 
HETATM    3  C2  UNL     1     -20.124  12.541  -4.243  1.00  0.00     0.130 A 
HETATM    4  C3  UNL     1     -18.845  12.502  -3.677  1.00  0.00     0.101 A 
HETATM    5  C4  UNL     1     -19.000  12.225  -2.336  1.00  0.00     0.117 A 
HETATM    6  C9  UNL     1     -20.377  12.110  -2.154  1.00  0.00     0.160 A 
ENDROOT
BRANCH   5   7
HETATM    7  C5  UNL     1     -17.988  12.077  -1.306  1.00  0.00     0.260 C 
HETATM    8  O2  UNL     1     -16.967  12.817  -1.374  1.00  0.00    -0.267 OA
HETATM    9  N2  UNL     1     -18.062  11.161  -0.231  1.00  0.00    -0.335 N 
ATOM     10  H2  UNL     1     -18.873  10.547  -0.146  1.00  0.00     0.164 HD
BRANCH   9  11
HETATM   11  C6  UNL     1     -16.994  11.083   0.758  1.00  0.00     0.103 C 
HETATM   12  C7  UNL     1     -17.311  10.031   1.775  1.00  0.00     0.056 C 
HETATM   13  C8  UNL     1     -16.779  12.394   1.469  1.00  0.00     0.056 C 
HETATM   14 CL1  UNL     1     -15.501  10.589  -0.085  1.00  0.00    -0.096 Cl
ENDBRANCH   9  11
ENDBRANCH   5   7
BRANCH   4  15
HETATM   15  O1  UNL     1     -17.685  12.707  -4.372  1.00  0.00    -0.358 OA
ATOM     16  H1  UNL     1     -17.247  12.044  -4.892  1.00  0.00     0.217 HD
ENDBRANCH   4  15
BRANCH   6  17
HETATM   17  O3  UNL     1     -20.979  11.830  -0.927  1.00  0.00    -0.345 OA
ATOM     18  H3  UNL     1     -20.996  12.421  -0.183  1.00  0.00     0.219 HD
ENDBRANCH   6  17
TORSDOF 4
ENDMDL
MODEL 2
REMARK VINA RESULT: -6.006084808      6.375      8.716
REMARK  4 active torsions:
REMARK  status: ('A' for Active; 'I' for Inactive)
REMARK    1  A    between atoms: C3_4  and  O1_5 
REMARK    2  A    between atoms: C4_7  and  C5_8 
REMARK       I    between atoms: C5_8  and  N2_10 
REMARK    3  A    between atoms: N2_10  and  C6_12 
REMARK    4  A    between atoms: C9_16  and  O3_17 
ROOT
HETATM    1  C1  UNL     1     -15.848  11.047   2.785  1.00  0.00     0.158 C 
HETATM    2  N1  UNL     1     -15.340  12.175   3.581  1.00  0.00    -0.339 N 
HETATM    3  C2  UNL     1     -14.568  12.108   4.666  1.00  0.00     0.130 A 
HETATM    4  C3  UNL     1     -14.306  13.402   5.129  1.00  0.00     0.101 A 
HETATM    5  C4  UNL     1     -14.951  14.278   4.283  1.00  0.00     0.117 A 
HETATM    6  C9  UNL     1     -15.579  13.464   3.341  1.00  0.00     0.160 A 
ENDROOT
BRANCH   5   7
HETATM    7  C5  UNL     1     -14.998  15.729   4.324  1.00  0.00     0.260 C 
HETATM    8  O2  UNL     1     -15.743  16.316   3.491  1.00  0.00    -0.267 OA
HETATM    9  N2  UNL     1     -14.268  16.532   5.230  1.00  0.00    -0.335 N 
ATOM     10  H2  UNL     1     -13.656  16.089   5.916  1.00  0.00     0.164 HD
BRANCH   9  11
HETATM   11  C6  UNL     1     -14.378  17.984   5.196  1.00  0.00     0.103 C 
HETATM   12  C7  UNL     1     -13.555  18.589   6.290  1.00  0.00     0.056 C 
HETATM   13  C8  UNL     1     -15.803  18.451   5.349  1.00  0.00     0.056 C 
HETATM   14 CL1  UNL     1     -13.710  18.549   3.641  1.00  0.00    -0.096 Cl
ENDBRANCH   9  11
ENDBRANCH   5   7
BRANCH   4  15
HETATM   15  O1  UNL     1     -13.542  13.690   6.226  1.00  0.00    -0.358 OA
ATOM     16  H1  UNL     1     -12.987  14.457   6.308  1.00  0.00     0.217 HD
ENDBRANCH   4  15
BRANCH   6  17
HETATM   17  O3  UNL     1     -16.352  13.949   2.286  1.00  0.00    -0.345 OA
ATOM     18  H3  UNL     1     -16.051  14.569   1.632  1.00  0.00     0.219 HD
ENDBRANCH   6  17
TORSDOF 4
ENDMDL
MODEL 3
REMARK VINA RESULT: -5.842282202      7.314      9.276
REMARK  4 active torsions:
REMARK  status: ('A' for Active; 'I' for Inactive)
REMARK    1  A    between atoms: C3_4  and  O1_5 
REMARK    2  A    between atoms: C4_7  and  C5_8 
REMARK       I    between atoms: C5_8  and  N2_10 
REMARK    3  A    between atoms: N2_10  and  C6_12 
REMARK    4  A    between atoms: C9_16  and  O3_17 
ROOT
HETATM    1  C1  UNL     1     -15.243  11.898   3.154  1.00  0.00     0.158 C 
HETATM    2  N1  UNL     1     -14.937  13.317   3.394  1.00  0.00    -0.339 N 
HETATM    3  C2  UNL     1     -14.357  14.167   2.547  1.00  0.00     0.130 A 
HETATM    4  C3  UNL     1     -14.244  15.423   3.153  1.00  0.00     0.101 A 
HETATM    5  C4  UNL     1     -14.779  15.314   4.418  1.00  0.00     0.117 A 
HETATM    6  C9  UNL     1     -15.194  13.987   4.517  1.00  0.00     0.160 A 
ENDROOT
BRANCH   5   7
HETATM    7  C5  UNL     1     -14.905  16.326   5.453  1.00  0.00     0.260 C 
HETATM    8  O2  UNL     1     -15.760  16.135   6.361  1.00  0.00    -0.267 OA
HETATM    9  N2  UNL     1     -14.137  17.513   5.515  1.00  0.00    -0.335 N 
ATOM     10  H2  UNL     1     -13.437  17.698   4.796  1.00  0.00     0.164 HD
BRANCH   9  11
HETATM   11  C6  UNL     1     -14.334  18.473   6.593  1.00  0.00     0.103 C 
HETATM   12  C7  UNL     1     -13.592  19.738   6.296  1.00  0.00     0.056 C 
HETATM   13  C8  UNL     1     -13.866  17.939   7.923  1.00  0.00     0.056 C 
HETATM   14 CL1  UNL     1     -16.072  18.868   6.666  1.00  0.00    -0.096 Cl
ENDBRANCH   9  11
ENDBRANCH   5   7
BRANCH   4  15
HETATM   15  O1  UNL     1     -13.694  16.523   2.556  1.00  0.00    -0.358 OA
ATOM     16  H1  UNL     1     -14.191  17.187   2.093  1.00  0.00     0.217 HD
ENDBRANCH   4  15
BRANCH   6  17
HETATM   17  O3  UNL     1     -15.800  13.444   5.649  1.00  0.00    -0.345 OA
ATOM     18  H3  UNL     1     -15.625  13.715   6.543  1.00  0.00     0.219 HD
ENDBRANCH   6  17
TORSDOF 4
ENDMDL
MODEL 4
REMARK VINA RESULT: -5.823539443      7.423      9.238
REMARK  4 active torsions:
REMARK  status: ('A' for Active; 'I' for Inactive)
REMARK    1  A    between atoms: C3_4  and  O1_5 
REMARK    2  A    between atoms: C4_7  and  C5_8 
REMARK       I    between atoms: C5_8  and  N2_10 
REMARK    3  A    between atoms: N2_10  and  C6_12 
REMARK    4  A    between atoms: C9_16  and  O3_17 
ROOT
HETATM    1  C1  UNL     1     -15.323  12.082   3.458  1.00  0.00     0.158 C 
HETATM    2  N1  UNL     1     -15.022  13.521   3.519  1.00  0.00    -0.339 N 
HETATM    3  C2  UNL     1     -14.531  14.280   2.540  1.00  0.00     0.130 A 
HETATM    4  C3  UNL     1     -14.388  15.594   2.998  1.00  0.00     0.101 A 
HETATM    5  C4  UNL     1     -14.811  15.618   4.309  1.00  0.00     0.117 A 
HETATM    6  C9  UNL     1     -15.193  14.305   4.582  1.00  0.00     0.160 A 
ENDROOT
BRANCH   5   7
HETATM    7  C5  UNL     1     -14.865  16.734   5.237  1.00  0.00     0.260 C 
HETATM    8  O2  UNL     1     -15.320  17.831   4.810  1.00  0.00    -0.267 OA
HETATM    9  N2  UNL     1     -14.443  16.680   6.585  1.00  0.00    -0.335 N 
ATOM     10  H2  UNL     1     -14.070  15.809   6.963  1.00  0.00     0.164 HD
BRANCH   9  11
HETATM   11  C6  UNL     1     -14.535  17.854   7.443  1.00  0.00     0.103 C 
HETATM   12  C7  UNL     1     -13.959  17.552   8.792  1.00  0.00     0.056 C 
HETATM   13  C8  UNL     1     -15.957  18.322   7.618  1.00  0.00     0.056 C 
HETATM   14 CL1  UNL     1     -13.548  19.148   6.711  1.00  0.00    -0.096 Cl
ENDBRANCH   9  11
ENDBRANCH   5   7
BRANCH   4  15
HETATM   15  O1  UNL     1     -13.909  16.628   2.242  1.00  0.00    -0.358 OA
ATOM     16  H1  UNL     1     -13.296  17.283   2.555  1.00  0.00     0.217 HD
ENDBRANCH   4  15
BRANCH   6  17
HETATM   17  O3  UNL     1     -15.692  13.881   5.815  1.00  0.00    -0.345 OA
ATOM     18  H3  UNL     1     -15.537  13.026   6.198  1.00  0.00     0.219 HD
ENDBRANCH   6  17
TORSDOF 4
ENDMDL
MODEL 5
REMARK VINA RESULT: -5.811381269      7.696      9.584
REMARK  4 active torsions:
REMARK  status: ('A' for Active; 'I' for Inactive)
REMARK    1  A    between atoms: C3_4  and  O1_5 
REMARK    2  A    between atoms: C4_7  and  C5_8 
REMARK       I    between atoms: C5_8  and  N2_10 
REMARK    3  A    between atoms: N2_10  and  C6_12 
REMARK    4  A    between atoms: C9_16  and  O3_17 
ROOT
HETATM    1  C1  UNL     1     -19.152  15.620   2.468  1.00  0.00     0.158 C 
HETATM    2  N1  UNL     1     -18.205  15.665   3.594  1.00  0.00    -0.339 N 
HETATM    3  C2  UNL     1     -17.851  14.653   4.385  1.00  0.00     0.130 A 
HETATM    4  C3  UNL     1     -16.929  15.106   5.334  1.00  0.00     0.101 A 
HETATM    5  C4  UNL     1     -16.726  16.449   5.097  1.00  0.00     0.117 A 
HETATM    6  C9  UNL     1     -17.542  16.745   4.007  1.00  0.00     0.160 A 
ENDROOT
BRANCH   5   7
HETATM    7  C5  UNL     1     -15.865  17.386   5.799  1.00  0.00     0.260 C 
HETATM    8  O2  UNL     1     -14.950  16.910   6.526  1.00  0.00    -0.267 OA
HETATM    9  N2  UNL     1     -15.980  18.793   5.727  1.00  0.00    -0.335 N 
ATOM     10  H2  UNL     1     -16.710  19.210   5.148  1.00  0.00     0.164 HD
BRANCH   9  11
HETATM   11  C6  UNL     1     -15.070  19.655   6.468  1.00  0.00     0.103 C 
HETATM   12  C7  UNL     1     -15.463  21.089   6.295  1.00  0.00     0.056 C 
HETATM   13  C8  UNL     1     -13.639  19.489   6.024  1.00  0.00     0.056 C 
HETATM   14 CL1  UNL     1     -15.225  19.256   8.201  1.00  0.00    -0.096 Cl
ENDBRANCH   9  11
ENDBRANCH   5   7
BRANCH   4  15
HETATM   15  O1  UNL     1     -16.363  14.320   6.299  1.00  0.00    -0.358 OA
ATOM     16  H1  UNL     1     -15.993  14.648   7.110  1.00  0.00     0.217 HD
ENDBRANCH   4  15
BRANCH   6  17
HETATM   17  O3  UNL     1     -17.642  18.012   3.431  1.00  0.00    -0.345 OA
ATOM     18  H3  UNL     1     -17.020  18.718   3.561  1.00  0.00     0.219 HD
ENDBRANCH   6  17
TORSDOF 4
ENDMDL
