MODEL 1
REMARK VINA RESULT: -5.556922714      0.000      0.000
REMARK  4 active torsions:
REMARK  status: ('A' for Active; 'I' for Inactive)
REMARK       I    between atoms: C2_2  and  N1_4 
REMARK    1  A    between atoms: N1_4  and  C3_6 
REMARK    2  A    between atoms: C7_11  and  C8_12 
REMARK    3  A    between atoms: C8_12  and  N2_14 
REMARK    4  A    between atoms: N2_14  and  N3_16 
ROOT
HETATM    1  C3  UNL     1     -15.234  17.424   5.308  1.00  0.00     0.090 A 
HETATM    2  S1  UNL     1     -15.829  18.723   4.373  1.00  0.00    -0.083 SA
HETATM    3  C4  UNL     1     -17.179  17.961   3.671  1.00  0.00     0.059 A 
HETATM    4  C5  UNL     1     -17.133  16.699   4.187  1.00  0.00    -0.039 A 
HETATM    5  C6  UNL     1     -18.206  15.691   3.784  1.00  0.00     0.050 C 
HETATM    6  C7  UNL     1     -16.118  16.415   5.042  1.00  0.00     0.043 A 
ENDROOT
BRANCH   6   7
HETATM    7  C8  UNL     1     -15.923  15.079   5.697  1.00  0.00     0.128 C 
HETATM    8  S2  UNL     1     -14.819  14.020   5.137  1.00  0.00    -0.058 SA
BRANCH   7   9
HETATM    9  N2  UNL     1     -16.707  14.722   6.825  1.00  0.00    -0.296 N 
ATOM     10  H2  UNL     1     -17.474  14.058   6.716  1.00  0.00     0.187 HD
BRANCH   9  11
HETATM   11  N3  UNL     1     -16.439  15.268   8.082  1.00  0.00    -0.344 N 
ATOM     12  H32 UNL     1     -16.199  14.640   8.849  1.00  0.00     0.176 HD
ATOM     13  H31 UNL     1     -16.483  16.277   8.231  1.00  0.00     0.176 HD
ENDBRANCH   9  11
ENDBRANCH   7   9
ENDBRANCH   6   7
BRANCH   1  14
HETATM   14  N1  UNL     1     -14.081  17.408   6.162  1.00  0.00    -0.321 N 
HETATM   15  C2  UNL     1     -14.245  17.820   7.496  1.00  0.00     0.218 C 
HETATM   16  C1  UNL     1     -13.063  17.819   8.426  1.00  0.00     0.117 C 
HETATM   17  O1  UNL     1     -15.372  18.194   7.937  1.00  0.00    -0.274 OA
ATOM     18  H1  UNL     1     -13.171  17.108   5.812  1.00  0.00     0.169 HD
ENDBRANCH   1  14
TORSDOF 4
ENDMDL
MODEL 2
REMARK VINA RESULT: -5.543459434      1.695      1.848
REMARK  4 active torsions:
REMARK  status: ('A' for Active; 'I' for Inactive)
REMARK       I    between atoms: C2_2  and  N1_4 
REMARK    1  A    between atoms: N1_4  and  C3_6 
REMARK    2  A    between atoms: C7_11  and  C8_12 
REMARK    3  A    between atoms: C8_12  and  N2_14 
REMARK    4  A    between atoms: N2_14  and  N3_16 
ROOT
HETATM    1  C3  UNL     1     -16.649  17.253   4.909  1.00  0.00     0.090 A 
HETATM    2  S1  UNL     1     -17.621  17.863   3.645  1.00  0.00    -0.083 SA
HETATM    3  C4  UNL     1     -18.374  16.417   3.157  1.00  0.00     0.059 A 
HETATM    4  C5  UNL     1     -17.845  15.484   4.000  1.00  0.00    -0.039 A 
HETATM    5  C6  UNL     1     -18.286  14.029   3.871  1.00  0.00     0.050 C 
HETATM    6  C7  UNL     1     -16.943  15.918   4.916  1.00  0.00     0.043 A 
ENDROOT
BRANCH   6   7
HETATM    7  C8  UNL     1     -16.267  15.025   5.915  1.00  0.00     0.128 C 
HETATM    8  S2  UNL     1     -14.907  14.213   5.535  1.00  0.00    -0.058 SA
BRANCH   7   9
HETATM    9  N2  UNL     1     -16.814  14.877   7.217  1.00  0.00    -0.296 N 
ATOM     10  H2  UNL     1     -17.642  14.296   7.353  1.00  0.00     0.187 HD
BRANCH   9  11
HETATM   11  N3  UNL     1     -16.230  15.517   8.312  1.00  0.00    -0.344 N 
ATOM     12  H32 UNL     1     -16.030  16.515   8.246  1.00  0.00     0.176 HD
ATOM     13  H31 UNL     1     -16.009  14.997   9.162  1.00  0.00     0.176 HD
ENDBRANCH   9  11
ENDBRANCH   7   9
ENDBRANCH   6   7
BRANCH   1  14
HETATM   14  N1  UNL     1     -15.743  17.980   5.754  1.00  0.00    -0.321 N 
HETATM   15  C2  UNL     1     -14.419  18.144   5.311  1.00  0.00     0.218 C 
HETATM   16  C1  UNL     1     -13.438  18.899   6.164  1.00  0.00     0.117 C 
HETATM   17  O1  UNL     1     -14.030  17.668   4.204  1.00  0.00    -0.274 OA
ATOM     18  H1  UNL     1     -16.052  18.365   6.647  1.00  0.00     0.169 HD
ENDBRANCH   1  14
TORSDOF 4
ENDMDL
MODEL 3
REMARK VINA RESULT: -5.524874529      1.682      3.391
REMARK  4 active torsions:
REMARK  status: ('A' for Active; 'I' for Inactive)
REMARK       I    between atoms: C2_2  and  N1_4 
REMARK    1  A    between atoms: N1_4  and  C3_6 
REMARK    2  A    between atoms: C7_11  and  C8_12 
REMARK    3  A    between atoms: C8_12  and  N2_14 
REMARK    4  A    between atoms: N2_14  and  N3_16 
ROOT
HETATM    1  C3  UNL     1     -15.683  16.538   5.372  1.00  0.00     0.090 A 
HETATM    2  S1  UNL     1     -16.483  15.030   5.413  1.00  0.00    -0.083 SA
HETATM    3  C4  UNL     1     -17.728  15.350   4.299  1.00  0.00     0.059 A 
HETATM    4  C5  UNL     1     -17.488  16.638   3.917  1.00  0.00    -0.039 A 
HETATM    5  C6  UNL     1     -18.416  17.298   2.901  1.00  0.00     0.050 C 
HETATM    6  C7  UNL     1     -16.421  17.261   4.476  1.00  0.00     0.043 A 
ENDROOT
BRANCH   6   7
HETATM    7  C8  UNL     1     -16.017  18.673   4.167  1.00  0.00     0.128 C 
HETATM    8  S2  UNL     1     -16.485  19.910   5.119  1.00  0.00    -0.058 SA
BRANCH   7   9
HETATM    9  N2  UNL     1     -15.215  18.948   3.029  1.00  0.00    -0.296 N 
ATOM     10  H2  UNL     1     -15.636  19.385   2.209  1.00  0.00     0.187 HD
BRANCH   9  11
HETATM   11  N3  UNL     1     -13.856  18.626   3.020  1.00  0.00    -0.344 N 
ATOM     12  H32 UNL     1     -13.552  17.798   2.509  1.00  0.00     0.176 HD
ATOM     13  H31 UNL     1     -13.180  19.208   3.515  1.00  0.00     0.176 HD
ENDBRANCH   9  11
ENDBRANCH   7   9
ENDBRANCH   6   7
BRANCH   1  14
HETATM   14  N1  UNL     1     -14.516  16.937   6.107  1.00  0.00    -0.321 N 
HETATM   15  C2  UNL     1     -14.695  17.412   7.418  1.00  0.00     0.218 C 
HETATM   16  C1  UNL     1     -13.501  17.840   8.225  1.00  0.00     0.117 C 
HETATM   17  O1  UNL     1     -15.847  17.488   7.940  1.00  0.00    -0.274 OA
ATOM     18  H1  UNL     1     -13.587  16.877   5.692  1.00  0.00     0.169 HD
ENDBRANCH   1  14
TORSDOF 4
ENDMDL
MODEL 4
REMARK VINA RESULT: -5.498929363      4.056      5.636
REMARK  4 active torsions:
REMARK  status: ('A' for Active; 'I' for Inactive)
REMARK       I    between atoms: C2_2  and  N1_4 
REMARK    1  A    between atoms: N1_4  and  C3_6 
REMARK    2  A    between atoms: C7_11  and  C8_12 
REMARK    3  A    between atoms: C8_12  and  N2_14 
REMARK    4  A    between atoms: N2_14  and  N3_16 
ROOT
HETATM    1  C3  UNL     1     -17.574  13.806   2.369  1.00  0.00     0.090 A 
HETATM    2  S1  UNL     1     -18.844  14.870   1.954  1.00  0.00    -0.083 SA
HETATM    3  C4  UNL     1     -18.582  16.079   3.122  1.00  0.00     0.059 A 
HETATM    4  C5  UNL     1     -17.500  15.620   3.815  1.00  0.00    -0.039 A 
HETATM    5  C6  UNL     1     -16.951  16.450   4.972  1.00  0.00     0.050 C 
HETATM    6  C7  UNL     1     -16.972  14.433   3.424  1.00  0.00     0.043 A 
ENDROOT
BRANCH   6   7
HETATM    7  C8  UNL     1     -15.784  13.788   4.077  1.00  0.00     0.128 C 
HETATM    8  S2  UNL     1     -14.271  14.080   3.547  1.00  0.00    -0.058 SA
BRANCH   7   9
HETATM    9  N2  UNL     1     -15.970  12.907   5.174  1.00  0.00    -0.296 N 
ATOM     10  H2  UNL     1     -16.312  13.272   6.062  1.00  0.00     0.187 HD
BRANCH   9  11
HETATM   11  N3  UNL     1     -15.689  11.544   5.048  1.00  0.00    -0.344 N 
ATOM     12  H32 UNL     1     -15.415  11.182   4.135  1.00  0.00     0.176 HD
ATOM     13  H31 UNL     1     -15.757  10.922   5.855  1.00  0.00     0.176 HD
ENDBRANCH   9  11
ENDBRANCH   7   9
ENDBRANCH   6   7
BRANCH   1  14
HETATM   14  N1  UNL     1     -17.233  12.557   1.749  1.00  0.00    -0.321 N 
HETATM   15  C2  UNL     1     -17.698  11.375   2.353  1.00  0.00     0.218 C 
HETATM   16  C1  UNL     1     -17.365  10.044   1.738  1.00  0.00     0.117 C 
HETATM   17  O1  UNL     1     -18.396  11.405   3.410  1.00  0.00    -0.274 OA
ATOM     18  H1  UNL     1     -16.672  12.527   0.899  1.00  0.00     0.169 HD
ENDBRANCH   1  14
TORSDOF 4
ENDMDL
MODEL 5
REMARK VINA RESULT: -5.494451209      2.444      3.532
REMARK  4 active torsions:
REMARK  status: ('A' for Active; 'I' for Inactive)
REMARK       I    between atoms: C2_2  and  N1_4 
REMARK    1  A    between atoms: N1_4  and  C3_6 
REMARK    2  A    between atoms: C7_11  and  C8_12 
REMARK    3  A    between atoms: C8_12  and  N2_14 
REMARK    4  A    between atoms: N2_14  and  N3_16 
ROOT
HETATM    1  C3  UNL     1     -15.100  16.545   5.435  1.00  0.00     0.090 A 
HETATM    2  S1  UNL     1     -15.939  17.489   4.285  1.00  0.00    -0.083 SA
HETATM    3  C4  UNL     1     -16.531  18.709   5.312  1.00  0.00     0.059 A 
HETATM    4  C5  UNL     1     -16.057  18.349   6.539  1.00  0.00    -0.039 A 
HETATM    5  C6  UNL     1     -16.386  19.218   7.749  1.00  0.00     0.050 C 
HETATM    6  C7  UNL     1     -15.309  17.218   6.607  1.00  0.00     0.043 A 
ENDROOT
BRANCH   6   7
HETATM    7  C8  UNL     1     -14.712  16.682   7.875  1.00  0.00     0.128 C 
HETATM    8  S2  UNL     1     -13.409  17.385   8.555  1.00  0.00    -0.058 SA
BRANCH   7   9
HETATM    9  N2  UNL     1     -15.284  15.544   8.502  1.00  0.00    -0.296 N 
ATOM     10  H2  UNL     1     -14.681  14.877   8.984  1.00  0.00     0.187 HD
BRANCH   9  11
HETATM   11  N3  UNL     1     -16.663  15.328   8.465  1.00  0.00    -0.344 N 
ATOM     12  H32 UNL     1     -17.202  15.453   9.322  1.00  0.00     0.176 HD
ATOM     13  H31 UNL     1     -17.124  15.050   7.597  1.00  0.00     0.176 HD
ENDBRANCH   9  11
ENDBRANCH   7   9
ENDBRANCH   6   7
BRANCH   1  14
HETATM   14  N1  UNL     1     -14.358  15.336   5.211  1.00  0.00    -0.321 N 
HETATM   15  C2  UNL     1     -15.036  14.113   5.354  1.00  0.00     0.218 C 
HETATM   16  C1  UNL     1     -14.298  12.823   5.128  1.00  0.00     0.117 C 
HETATM   17  O1  UNL     1     -16.262  14.071   5.670  1.00  0.00    -0.274 OA
ATOM     18  H1  UNL     1     -13.371  15.365   4.956  1.00  0.00     0.169 HD
ENDBRANCH   1  14
TORSDOF 4
ENDMDL
