MODEL 1
REMARK VINA RESULT: -6.722476645      0.000      0.000
REMARK  3 active torsions:
REMARK  status: ('A' for Active; 'I' for Inactive)
REMARK    1  A    between atoms: N2_5  and  C4_6 
REMARK    2  A    between atoms: C7_9  and  O1_10 
REMARK    3  A    between atoms: C10_17  and  N4_18 
ROOT
HETATM    1  N1  UNL     1     -14.195  17.772   4.464  1.00  0.00    -0.191 NA
HETATM    2  C1  UNL     1     -14.569  16.683   4.573  1.00  0.00     0.104 C 
HETATM    3  C2  UNL     1     -15.019  15.343   4.723  1.00  0.00     0.106 A 
HETATM    4  C3  UNL     1     -15.534  14.553   3.728  1.00  0.00     0.137 A 
HETATM    5  N2  UNL     1     -15.857  13.329   4.250  1.00  0.00    -0.294 N 
HETATM    6  N3  UNL     1     -15.537  13.399   5.520  1.00  0.00    -0.282 N 
ATOM      7  H3  UNL     1     -15.663  12.630   6.177  1.00  0.00     0.189 HD
HETATM    8  C10 UNL     1     -15.026  14.596   5.861  1.00  0.00     0.136 A 
ENDROOT
BRANCH   8   9
HETATM    9  N4  UNL     1     -14.626  14.930   7.064  1.00  0.00    -0.383 N 
ATOM     10  H42 UNL     1     -13.714  15.326   7.290  1.00  0.00     0.157 HD
ATOM     11  H41 UNL     1     -15.131  14.858   7.947  1.00  0.00     0.157 HD
ENDBRANCH   8   9
BRANCH   5  12
HETATM   12  C4  UNL     1     -16.429  12.239   3.480  1.00  0.00     0.126 C 
HETATM   13  C5  UNL     1     -15.339  11.632   2.662  1.00  0.00     0.031 C 
HETATM   14  C6  UNL     1     -15.797  10.950   1.423  1.00  0.00     0.034 C 
HETATM   15  C7  UNL     1     -17.250  10.631   1.385  1.00  0.00     0.119 C 
HETATM   16  C8  UNL     1     -18.158  11.739   1.760  1.00  0.00     0.054 C 
HETATM   17  C9  UNL     1     -17.560  12.780   2.647  1.00  0.00     0.109 C 
HETATM   18 CL1  UNL     1     -18.848  13.308   3.787  1.00  0.00    -0.123 Cl
BRANCH  15  19
HETATM   19  O1  UNL     1     -17.482   9.517   2.196  1.00  0.00    -0.396 OA
ATOM     20  H1  UNL     1     -17.944   8.863   1.686  1.00  0.00     0.210 HD
ENDBRANCH  15  19
ENDBRANCH   5  12
TORSDOF 3
ENDMDL
MODEL 2
REMARK VINA RESULT: -6.631050365      4.333      6.425
REMARK  3 active torsions:
REMARK  status: ('A' for Active; 'I' for Inactive)
REMARK    1  A    between atoms: N2_5  and  C4_6 
REMARK    2  A    between atoms: C7_9  and  O1_10 
REMARK    3  A    between atoms: C10_17  and  N4_18 
ROOT
HETATM    1  N1  UNL     1     -17.850  12.194  -3.899  1.00  0.00    -0.191 NA
HETATM    2  C1  UNL     1     -17.581  12.500  -2.816  1.00  0.00     0.104 C 
HETATM    3  C2  UNL     1     -17.257  12.860  -1.480  1.00  0.00     0.106 A 
HETATM    4  C3  UNL     1     -17.037  14.134  -1.022  1.00  0.00     0.137 A 
HETATM    5  N2  UNL     1     -16.751  14.085   0.316  1.00  0.00    -0.294 N 
HETATM    6  N3  UNL     1     -16.803  12.814   0.635  1.00  0.00    -0.282 N 
ATOM      7  H3  UNL     1     -16.632  12.461   1.576  1.00  0.00     0.189 HD
HETATM    8  C10 UNL     1     -17.105  12.027  -0.414  1.00  0.00     0.136 A 
ENDROOT
BRANCH   8   9
HETATM    9  N4  UNL     1     -17.220  10.723  -0.369  1.00  0.00    -0.383 N 
ATOM     10  H42 UNL     1     -17.909  10.213   0.183  1.00  0.00     0.157 HD
ATOM     11  H41 UNL     1     -16.667  10.016  -0.856  1.00  0.00     0.157 HD
ENDBRANCH   8   9
BRANCH   5  12
HETATM   12  C4  UNL     1     -16.463  15.251   1.131  1.00  0.00     0.126 C 
HETATM   13  C5  UNL     1     -14.981  15.415   1.194  1.00  0.00     0.031 C 
HETATM   14  C6  UNL     1     -14.485  16.129   2.399  1.00  0.00     0.034 C 
HETATM   15  C7  UNL     1     -15.519  16.904   3.138  1.00  0.00     0.119 C 
HETATM   16  C8  UNL     1     -16.780  16.180   3.419  1.00  0.00     0.054 C 
HETATM   17  C9  UNL     1     -17.094  15.059   2.485  1.00  0.00     0.109 C 
HETATM   18 CL1  UNL     1     -18.876  15.056   2.240  1.00  0.00    -0.123 Cl
BRANCH  15  19
HETATM   19  O1  UNL     1     -15.781  18.081   2.433  1.00  0.00    -0.396 OA
ATOM     20  H1  UNL     1     -16.478  18.550   2.877  1.00  0.00     0.210 HD
ENDBRANCH  15  19
ENDBRANCH   5  12
TORSDOF 3
ENDMDL
MODEL 3
REMARK VINA RESULT: -6.542693922      3.828      5.998
REMARK  3 active torsions:
REMARK  status: ('A' for Active; 'I' for Inactive)
REMARK    1  A    between atoms: N2_5  and  C4_6 
REMARK    2  A    between atoms: C7_9  and  O1_10 
REMARK    3  A    between atoms: C10_17  and  N4_18 
ROOT
HETATM    1  N1  UNL     1     -17.576  12.184  -3.528  1.00  0.00    -0.191 NA
HETATM    2  C1  UNL     1     -17.754  12.259  -2.387  1.00  0.00     0.104 C 
HETATM    3  C2  UNL     1     -17.990  12.356  -0.989  1.00  0.00     0.106 A 
HETATM    4  C3  UNL     1     -17.029  12.503  -0.021  1.00  0.00     0.137 A 
HETATM    5  N2  UNL     1     -17.635  12.559   1.205  1.00  0.00    -0.294 N 
HETATM    6  N3  UNL     1     -18.919  12.448   0.963  1.00  0.00    -0.282 N 
ATOM      7  H3  UNL     1     -19.634  12.456   1.690  1.00  0.00     0.189 HD
HETATM    8  C10 UNL     1     -19.191  12.322  -0.349  1.00  0.00     0.136 A 
ENDROOT
BRANCH   8   9
HETATM    9  N4  UNL     1     -20.390  12.196  -0.862  1.00  0.00    -0.383 N 
ATOM     10  H42 UNL     1     -20.628  12.350  -1.842  1.00  0.00     0.157 HD
ATOM     11  H41 UNL     1     -21.259  11.932  -0.397  1.00  0.00     0.157 HD
ENDBRANCH   8   9
BRANCH   5  12
HETATM   12  C4  UNL     1     -16.922  12.711   2.460  1.00  0.00     0.126 C 
HETATM   13  C5  UNL     1     -16.513  14.141   2.587  1.00  0.00     0.031 C 
HETATM   14  C6  UNL     1     -15.319  14.373   3.440  1.00  0.00     0.034 C 
HETATM   15  C7  UNL     1     -14.960  13.241   4.338  1.00  0.00     0.119 C 
HETATM   16  C8  UNL     1     -14.915  11.907   3.695  1.00  0.00     0.054 C 
HETATM   17  C9  UNL     1     -15.755  11.761   2.470  1.00  0.00     0.109 C 
HETATM   18 CL1  UNL     1     -16.432  10.094   2.487  1.00  0.00    -0.123 Cl
BRANCH  15  19
HETATM   19  O1  UNL     1     -15.847  13.231   5.417  1.00  0.00    -0.396 OA
ATOM     20  H1  UNL     1     -15.943  12.336   5.721  1.00  0.00     0.210 HD
ENDBRANCH  15  19
ENDBRANCH   5  12
TORSDOF 3
ENDMDL
MODEL 4
REMARK VINA RESULT: -6.510081582      2.708      3.399
REMARK  3 active torsions:
REMARK  status: ('A' for Active; 'I' for Inactive)
REMARK    1  A    between atoms: N2_5  and  C4_6 
REMARK    2  A    between atoms: C7_9  and  O1_10 
REMARK    3  A    between atoms: C10_17  and  N4_18 
ROOT
HETATM    1  N1  UNL     1     -13.172  15.127   3.260  1.00  0.00    -0.191 NA
HETATM    2  C1  UNL     1     -13.984  14.360   2.957  1.00  0.00     0.104 C 
HETATM    3  C2  UNL     1     -14.972  13.405   2.594  1.00  0.00     0.106 A 
HETATM    4  C3  UNL     1     -15.790  13.474   1.496  1.00  0.00     0.137 A 
HETATM    5  N2  UNL     1     -16.610  12.378   1.479  1.00  0.00    -0.294 N 
HETATM    6  N3  UNL     1     -16.280  11.683   2.542  1.00  0.00    -0.282 N 
ATOM      7  H3  UNL     1     -16.724  10.802   2.800  1.00  0.00     0.189 HD
HETATM    8  C10 UNL     1     -15.294  12.259   3.254  1.00  0.00     0.136 A 
ENDROOT
BRANCH   8   9
HETATM    9  N4  UNL     1     -14.779  11.774   4.356  1.00  0.00    -0.383 N 
ATOM     10  H42 UNL     1     -13.846  11.986   4.711  1.00  0.00     0.157 HD
ATOM     11  H41 UNL     1     -15.197  11.130   5.028  1.00  0.00     0.157 HD
ENDBRANCH   8   9
BRANCH   5  12
HETATM   12  C4  UNL     1     -17.607  12.121   0.456  1.00  0.00     0.126 C 
HETATM   13  C5  UNL     1     -16.895  11.901  -0.837  1.00  0.00     0.031 C 
HETATM   14  C6  UNL     1     -17.695  12.214  -2.049  1.00  0.00     0.034 C 
HETATM   15  C7  UNL     1     -19.163  12.308  -1.823  1.00  0.00     0.119 C 
HETATM   16  C8  UNL     1     -19.580  13.140  -0.670  1.00  0.00     0.054 C 
HETATM   17  C9  UNL     1     -18.563  13.283   0.413  1.00  0.00     0.109 C 
HETATM   18 CL1  UNL     1     -19.452  13.292   1.977  1.00  0.00    -0.123 Cl
BRANCH  15  19
HETATM   19  O1  UNL     1     -19.679  11.016  -1.702  1.00  0.00    -0.396 OA
ATOM     20  H1  UNL     1     -20.583  11.022  -1.989  1.00  0.00     0.210 HD
ENDBRANCH  15  19
ENDBRANCH   5  12
TORSDOF 3
ENDMDL
MODEL 5
REMARK VINA RESULT: -6.492424276      3.441      5.558
REMARK  3 active torsions:
REMARK  status: ('A' for Active; 'I' for Inactive)
REMARK    1  A    between atoms: N2_5  and  C4_6 
REMARK    2  A    between atoms: C7_9  and  O1_10 
REMARK    3  A    between atoms: C10_17  and  N4_18 
ROOT
HETATM    1  N1  UNL     1     -17.103  14.496  -2.054  1.00  0.00    -0.191 NA
HETATM    2  C1  UNL     1     -17.190  14.126  -0.961  1.00  0.00     0.104 C 
HETATM    3  C2  UNL     1     -17.310  13.660   0.376  1.00  0.00     0.106 A 
HETATM    4  C3  UNL     1     -16.905  14.332   1.501  1.00  0.00     0.137 A 
HETATM    5  N2  UNL     1     -17.183  13.569   2.603  1.00  0.00    -0.294 N 
HETATM    6  N3  UNL     1     -17.738  12.477   2.137  1.00  0.00    -0.282 N 
ATOM      7  H3  UNL     1     -18.058  11.709   2.727  1.00  0.00     0.189 HD
HETATM    8  C10 UNL     1     -17.840  12.478   0.795  1.00  0.00     0.136 A 
ENDROOT
BRANCH   8   9
HETATM    9  N4  UNL     1     -18.355  11.510   0.077  1.00  0.00    -0.383 N 
ATOM     10  H42 UNL     1     -18.785  11.625  -0.841  1.00  0.00     0.157 HD
ATOM     11  H41 UNL     1     -18.415  10.515   0.295  1.00  0.00     0.157 HD
ENDBRANCH   8   9
BRANCH   5  12
HETATM   12  C4  UNL     1     -16.889  13.969   3.967  1.00  0.00     0.126 C 
HETATM   13  C5  UNL     1     -17.468  15.328   4.183  1.00  0.00     0.031 C 
HETATM   14  C6  UNL     1     -16.795  16.130   5.238  1.00  0.00     0.034 C 
HETATM   15  C7  UNL     1     -15.938  15.346   6.170  1.00  0.00     0.119 C 
HETATM   16  C8  UNL     1     -14.998  14.399   5.528  1.00  0.00     0.054 C 
HETATM   17  C9  UNL     1     -15.398  13.924   4.171  1.00  0.00     0.109 C 
HETATM   18 CL1  UNL     1     -14.902  12.199   4.045  1.00  0.00    -0.123 Cl
BRANCH  15  19
HETATM   19  O1  UNL     1     -16.764  14.674   7.074  1.00  0.00    -0.396 OA
ATOM     20  H1  UNL     1     -17.361  15.301   7.464  1.00  0.00     0.210 HD
ENDBRANCH  15  19
ENDBRANCH   5  12
TORSDOF 3
ENDMDL
