MODEL 1
REMARK VINA RESULT: -6.302743642      0.000      0.000
REMARK  2 active torsions:
REMARK  status: ('A' for Active; 'I' for Inactive)
REMARK    1  A    between atoms: O1_2  and  C2_3 
REMARK    2  A    between atoms: C9_15  and  N3_16 
ROOT
HETATM    1  C2  UNL     1     -18.165  11.953   2.269  1.00  0.00     0.249 C 
HETATM    2  C3  UNL     1     -18.086  13.290   2.981  1.00  0.00     0.085 C 
HETATM    3  C4  UNL     1     -18.747  14.349   2.130  1.00  0.00     0.028 C 
HETATM    4  C5  UNL     1     -18.679  15.667   2.865  1.00  0.00     0.038 C 
HETATM    5  C6  UNL     1     -20.207  14.042   1.864  1.00  0.00     0.038 C 
HETATM    6  N1  UNL     1     -18.020  14.468   0.891  1.00  0.00    -0.364 N 
ATOM      7  H1  UNL     1     -17.814  15.378   0.479  1.00  0.00     0.162 HD
HETATM    8  C7  UNL     1     -17.598  13.243   0.265  1.00  0.00     0.162 A 
HETATM    9  C8  UNL     1     -17.081  12.980  -0.986  1.00  0.00     0.163 A 
HETATM   10 CL1  UNL     1     -16.796  14.202  -2.223  1.00  0.00    -0.060 Cl
HETATM   11  N2  UNL     1     -16.843  11.664  -1.093  1.00  0.00    -0.177 N 
ATOM     12  H2  UNL     1     -16.460  11.178  -1.904  1.00  0.00     0.185 HD
HETATM   13  C9  UNL     1     -17.205  11.109   0.079  1.00  0.00     0.683 A 
HETATM   14  N4  UNL     1     -17.664  12.063   0.908  1.00  0.00    -0.138 N 
ENDROOT
BRANCH  13  15
HETATM   15  N3  UNL     1     -17.107   9.827   0.335  1.00  0.00    -0.234 N 
ATOM     16  H32 UNL     1     -17.567   9.067  -0.168  1.00  0.00     0.174 HD
ATOM     17  H31 UNL     1     -16.541   9.444   1.092  1.00  0.00     0.174 HD
ENDBRANCH  13  15
BRANCH   1  18
HETATM   18  O1  UNL     1     -17.613  10.944   3.004  1.00  0.00    -0.370 OA
HETATM   19  C1  UNL     1     -16.498  11.274   3.728  1.00  0.00     0.204 C 
ENDBRANCH   1  18
TORSDOF 2
ENDMDL
MODEL 2
REMARK VINA RESULT: -6.276034236      7.384      8.844
REMARK  2 active torsions:
REMARK  status: ('A' for Active; 'I' for Inactive)
REMARK    1  A    between atoms: O1_2  and  C2_3 
REMARK    2  A    between atoms: C9_15  and  N3_16 
ROOT
HETATM    1  C2  UNL     1     -15.503  17.309   5.840  1.00  0.00     0.249 C 
HETATM    2  C3  UNL     1     -16.237  18.602   6.139  1.00  0.00     0.085 C 
HETATM    3  C4  UNL     1     -15.302  19.553   6.851  1.00  0.00     0.028 C 
HETATM    4  C5  UNL     1     -16.043  20.842   7.120  1.00  0.00     0.038 C 
HETATM    5  C6  UNL     1     -14.081  19.886   6.019  1.00  0.00     0.038 C 
HETATM    6  N1  UNL     1     -14.915  18.967   8.109  1.00  0.00    -0.364 N 
ATOM      7  H1  UNL     1     -14.868  19.521   8.964  1.00  0.00     0.162 HD
HETATM    8  C7  UNL     1     -14.597  17.564   8.101  1.00  0.00     0.162 A 
HETATM    9  C8  UNL     1     -14.010  16.748   9.046  1.00  0.00     0.163 A 
HETATM   10 CL1  UNL     1     -13.459  17.293  10.628  1.00  0.00    -0.060 Cl
HETATM   11  N2  UNL     1     -13.933  15.500   8.559  1.00  0.00    -0.177 N 
ATOM     12  H2  UNL     1     -13.545  14.685   9.033  1.00  0.00     0.185 HD
HETATM   13  C9  UNL     1     -14.466  15.533   7.324  1.00  0.00     0.683 A 
HETATM   14  N4  UNL     1     -14.872  16.783   7.040  1.00  0.00    -0.138 N 
ENDROOT
BRANCH  13  15
HETATM   15  N3  UNL     1     -14.560  14.482   6.546  1.00  0.00    -0.234 N 
ATOM     16  H32 UNL     1     -14.472  13.505   6.826  1.00  0.00     0.174 HD
ATOM     17  H31 UNL     1     -14.736  14.536   5.543  1.00  0.00     0.174 HD
ENDBRANCH  13  15
BRANCH   1  18
HETATM   18  O1  UNL     1     -16.285  16.417   5.166  1.00  0.00    -0.370 OA
HETATM   19  C1  UNL     1     -17.209  16.959   4.311  1.00  0.00     0.204 C 
ENDBRANCH   1  18
TORSDOF 2
ENDMDL
MODEL 3
REMARK VINA RESULT: -6.242157872      6.854      8.237
REMARK  2 active torsions:
REMARK  status: ('A' for Active; 'I' for Inactive)
REMARK    1  A    between atoms: O1_2  and  C2_3 
REMARK    2  A    between atoms: C9_15  and  N3_16 
ROOT
HETATM    1  C2  UNL     1     -14.415  18.129   7.715  1.00  0.00     0.249 C 
HETATM    2  C3  UNL     1     -14.339  19.524   7.124  1.00  0.00     0.085 C 
HETATM    3  C4  UNL     1     -15.731  19.992   6.766  1.00  0.00     0.028 C 
HETATM    4  C5  UNL     1     -15.637  21.390   6.202  1.00  0.00     0.038 C 
HETATM    5  C6  UNL     1     -16.648  20.039   7.971  1.00  0.00     0.038 C 
HETATM    6  N1  UNL     1     -16.267  19.116   5.755  1.00  0.00    -0.364 N 
ATOM      7  H1  UNL     1     -16.787  19.479   4.955  1.00  0.00     0.162 HD
HETATM    8  C7  UNL     1     -16.035  17.707   5.926  1.00  0.00     0.162 A 
HETATM    9  C8  UNL     1     -16.561  16.603   5.287  1.00  0.00     0.163 A 
HETATM   10 CL1  UNL     1     -17.754  16.677   3.993  1.00  0.00    -0.060 Cl
HETATM   11  N2  UNL     1     -16.019  15.494   5.813  1.00  0.00    -0.177 N 
ATOM     12  H2  UNL     1     -16.217  14.532   5.540  1.00  0.00     0.185 HD
HETATM   13  C9  UNL     1     -15.163  15.898   6.769  1.00  0.00     0.683 A 
HETATM   14  N4  UNL     1     -15.168  17.240   6.843  1.00  0.00    -0.138 N 
ENDROOT
BRANCH  13  15
HETATM   15  N3  UNL     1     -14.448  15.074   7.498  1.00  0.00    -0.234 N 
ATOM     16  H32 UNL     1     -13.465  14.835   7.363  1.00  0.00     0.174 HD
ATOM     17  H31 UNL     1     -14.816  14.569   8.303  1.00  0.00     0.174 HD
ENDBRANCH  13  15
BRANCH   1  18
HETATM   18  O1  UNL     1     -13.190  17.661   8.091  1.00  0.00    -0.370 OA
HETATM   19  C1  UNL     1     -13.002  17.494   9.438  1.00  0.00     0.204 C 
ENDBRANCH   1  18
TORSDOF 2
ENDMDL
MODEL 4
REMARK VINA RESULT: -6.224570586      3.863      4.777
REMARK  2 active torsions:
REMARK  status: ('A' for Active; 'I' for Inactive)
REMARK    1  A    between atoms: O1_2  and  C2_3 
REMARK    2  A    between atoms: C9_15  and  N3_16 
ROOT
HETATM    1  C2  UNL     1     -15.629  15.184   4.172  1.00  0.00     0.249 C 
HETATM    2  C3  UNL     1     -16.230  15.636   2.855  1.00  0.00     0.085 C 
HETATM    3  C4  UNL     1     -17.390  14.735   2.500  1.00  0.00     0.028 C 
HETATM    4  C5  UNL     1     -17.989  15.214   1.199  1.00  0.00     0.038 C 
HETATM    5  C6  UNL     1     -18.481  14.764   3.550  1.00  0.00     0.038 C 
HETATM    6  N1  UNL     1     -16.895  13.393   2.319  1.00  0.00    -0.364 N 
ATOM      7  H1  UNL     1     -17.219  12.804   1.552  1.00  0.00     0.162 HD
HETATM    8  C7  UNL     1     -15.923  12.925   3.271  1.00  0.00     0.162 A 
HETATM    9  C8  UNL     1     -15.407  11.670   3.518  1.00  0.00     0.163 A 
HETATM   10 CL1  UNL     1     -15.868  10.214   2.640  1.00  0.00    -0.060 Cl
HETATM   11  N2  UNL     1     -14.519  11.752   4.519  1.00  0.00    -0.177 N 
ATOM     12  H2  UNL     1     -13.978  10.985   4.918  1.00  0.00     0.185 HD
HETATM   13  C9  UNL     1     -14.477  13.044   4.895  1.00  0.00     0.683 A 
HETATM   14  N4  UNL     1     -15.328  13.761   4.141  1.00  0.00    -0.138 N 
ENDROOT
BRANCH  13  15
HETATM   15  N3  UNL     1     -13.708  13.495   5.856  1.00  0.00    -0.234 N 
ATOM     16  H32 UNL     1     -13.087  12.946   6.451  1.00  0.00     0.174 HD
ATOM     17  H31 UNL     1     -13.650  14.479   6.118  1.00  0.00     0.174 HD
ENDBRANCH  13  15
BRANCH   1  18
HETATM   18  O1  UNL     1     -14.594  15.981   4.567  1.00  0.00    -0.370 OA
HETATM   19  C1  UNL     1     -14.125  16.860   3.627  1.00  0.00     0.204 C 
ENDBRANCH   1  18
TORSDOF 2
ENDMDL
MODEL 5
REMARK VINA RESULT: -6.205771411      1.897      2.166
REMARK  2 active torsions:
REMARK  status: ('A' for Active; 'I' for Inactive)
REMARK    1  A    between atoms: O1_2  and  C2_3 
REMARK    2  A    between atoms: C9_15  and  N3_16 
ROOT
HETATM    1  C2  UNL     1     -16.519  12.302   4.063  1.00  0.00     0.249 C 
HETATM    2  C3  UNL     1     -16.726  13.800   4.185  1.00  0.00     0.085 C 
HETATM    3  C4  UNL     1     -17.863  14.222   3.283  1.00  0.00     0.028 C 
HETATM    4  C5  UNL     1     -18.068  15.711   3.436  1.00  0.00     0.038 C 
HETATM    5  C6  UNL     1     -19.165  13.536   3.644  1.00  0.00     0.038 C 
HETATM    6  N1  UNL     1     -17.501  13.939   1.917  1.00  0.00    -0.364 N 
ATOM      7  H1  UNL     1     -17.696  14.600   1.165  1.00  0.00     0.162 HD
HETATM    8  C7  UNL     1     -16.851  12.680   1.665  1.00  0.00     0.162 A 
HETATM    9  C8  UNL     1     -16.561  12.012   0.493  1.00  0.00     0.163 A 
HETATM   10 CL1  UNL     1     -16.964  12.606  -1.116  1.00  0.00    -0.060 Cl
HETATM   11  N2  UNL     1     -15.938  10.862   0.789  1.00  0.00    -0.177 N 
ATOM     12  H2  UNL     1     -15.605  10.163   0.125  1.00  0.00     0.185 HD
HETATM   13  C9  UNL     1     -15.837  10.810   2.130  1.00  0.00     0.683 A 
HETATM   14  N4  UNL     1     -16.389  11.911   2.668  1.00  0.00    -0.138 N 
ENDROOT
BRANCH  13  15
HETATM   15  N3  UNL     1     -15.275   9.817   2.776  1.00  0.00    -0.234 N 
ATOM     16  H32 UNL     1     -14.576   9.169   2.413  1.00  0.00     0.174 HD
ATOM     17  H31 UNL     1     -15.489   9.582   3.745  1.00  0.00     0.174 HD
ENDBRANCH  13  15
BRANCH   1  18
HETATM   18  O1  UNL     1     -15.524  11.851   4.880  1.00  0.00    -0.370 OA
HETATM   19  C1  UNL     1     -14.428  12.667   4.994  1.00  0.00     0.204 C 
ENDBRANCH   1  18
TORSDOF 2
ENDMDL
