MODEL 1
REMARK VINA RESULT: -8.266714551      0.000      0.000
REMARK  5 active torsions:
REMARK  status: ('A' for Active; 'I' for Inactive)
REMARK    1  A    between atoms: C4_4  and  C5_5 
REMARK    2  A    between atoms: C5_5  and  C6_6 
REMARK    3  A    between atoms: C8_8  and  O1_9 
REMARK    4  A    between atoms: C17_19  and  O2_20 
REMARK    5  A    between atoms: C18_22  and  O3_24 
ROOT
HETATM    1  C6  UNL     1      17.574 -13.212   4.057  1.00  0.00     0.034 A 
HETATM    2  C7  UNL     1      17.802 -13.272   5.485  1.00  0.00     0.064 A 
HETATM    3  C8  UNL     1      18.872 -14.085   6.080  1.00  0.00     0.126 C 
HETATM    4  C9  UNL     1      19.840 -14.726   5.182  1.00  0.00     0.040 C 
HETATM    5  C10 UNL     1      19.792 -14.432   3.751  1.00  0.00     0.031 C 
HETATM    6  C11 UNL     1      21.055 -13.685   3.354  1.00  0.00    -0.041 C 
HETATM    7  C12 UNL     1      21.306 -12.422   4.067  1.00  0.00     0.015 C 
HETATM    8  C13 UNL     1      22.206 -14.645   3.738  1.00  0.00     0.015 C 
HETATM    9  C14 UNL     1      21.097 -13.590   1.862  1.00  0.00     0.009 C 
HETATM   10  C15 UNL     1      19.956 -12.612   1.552  1.00  0.00     0.004 C 
HETATM   11  C16 UNL     1      18.701 -13.399   1.770  1.00  0.00     0.039 C 
HETATM   12  C17 UNL     1      18.511 -13.925   3.160  1.00  0.00     0.073 C 
HETATM   13  C18 UNL     1      16.629 -14.028   4.912  1.00  0.00     0.072 A 
HETATM   14  C19 UNL     1      16.619 -15.481   5.072  1.00  0.00     0.047 C 
ENDROOT
BRANCH   1  15
HETATM   15  C5  UNL     1      16.884 -11.909   3.611  1.00  0.00     0.043 C 
BRANCH  15  16
HETATM   16  C4  UNL     1      17.565 -10.686   4.103  1.00  0.00    -0.024 C 
HETATM   17  C2  UNL     1      17.936  -9.694   3.311  1.00  0.00    -0.091 C 
HETATM   18  C1  UNL     1      17.674  -9.763   1.861  1.00  0.00     0.042 C 
HETATM   19  C3  UNL     1      18.629  -8.477   3.853  1.00  0.00     0.042 C 
ENDBRANCH  15  16
ENDBRANCH   1  15
BRANCH  12  20
HETATM   20  O2  UNL     1      17.767 -15.136   2.859  1.00  0.00    -0.388 OA
ATOM     21  H2  UNL     1      17.695 -15.088   1.913  1.00  0.00     0.210 HD
ENDBRANCH  12  20
BRANCH  13  22
HETATM   22  O3  UNL     1      15.327 -13.511   5.149  1.00  0.00    -0.389 OA
ATOM     23  H3  UNL     1      14.601 -14.123   5.175  1.00  0.00     0.210 HD
ENDBRANCH  13  22
BRANCH   3  24
HETATM   24  O1  UNL     1      19.530 -13.328   7.092  1.00  0.00    -0.395 OA
ATOM     25  H1  UNL     1      18.979 -13.293   7.865  1.00  0.00     0.210 HD
ENDBRANCH   3  24
TORSDOF 5
ENDMDL
MODEL 2
REMARK VINA RESULT: -8.223882452      1.872      4.729
REMARK  5 active torsions:
REMARK  status: ('A' for Active; 'I' for Inactive)
REMARK    1  A    between atoms: C4_4  and  C5_5 
REMARK    2  A    between atoms: C5_5  and  C6_6 
REMARK    3  A    between atoms: C8_8  and  O1_9 
REMARK    4  A    between atoms: C17_19  and  O2_20 
REMARK    5  A    between atoms: C18_22  and  O3_24 
ROOT
HETATM    1  C6  UNL     1      18.614 -12.387   6.010  1.00  0.00     0.034 A 
HETATM    2  C7  UNL     1      17.292 -12.797   5.586  1.00  0.00     0.064 A 
HETATM    3  C8  UNL     1      16.691 -12.343   4.324  1.00  0.00     0.126 C 
HETATM    4  C9  UNL     1      17.527 -11.579   3.391  1.00  0.00     0.040 C 
HETATM    5  C10 UNL     1      18.950 -11.410   3.679  1.00  0.00     0.031 C 
HETATM    6  C11 UNL     1      19.762 -12.146   2.624  1.00  0.00    -0.041 C 
HETATM    7  C12 UNL     1      19.494 -13.588   2.498  1.00  0.00     0.015 C 
HETATM    8  C13 UNL     1      19.331 -11.498   1.287  1.00  0.00     0.015 C 
HETATM    9  C14 UNL     1      21.202 -11.781   2.798  1.00  0.00     0.009 C 
HETATM   10  C15 UNL     1      21.568 -12.471   4.120  1.00  0.00     0.004 C 
HETATM   11  C16 UNL     1      20.916 -11.643   5.183  1.00  0.00     0.039 C 
HETATM   12  C17 UNL     1      19.423 -11.551   5.094  1.00  0.00     0.073 C 
HETATM   13  C18 UNL     1      17.409 -11.766   6.680  1.00  0.00     0.072 A 
HETATM   14  C19 UNL     1      16.842 -10.443   6.424  1.00  0.00     0.047 C 
ENDROOT
BRANCH   1  15
HETATM   15  C5  UNL     1      19.282 -13.396   6.963  1.00  0.00     0.043 C 
BRANCH  15  16
HETATM   16  C4  UNL     1      19.102 -14.808   6.545  1.00  0.00    -0.024 C 
HETATM   17  C2  UNL     1      18.583 -15.737   7.331  1.00  0.00    -0.091 C 
HETATM   18  C1  UNL     1      18.143 -15.393   8.697  1.00  0.00     0.042 C 
HETATM   19  C3  UNL     1      18.427 -17.156   6.867  1.00  0.00     0.042 C 
ENDBRANCH  15  16
ENDBRANCH   1  15
BRANCH  12  20
HETATM   20  O2  UNL     1      19.230 -10.226   5.656  1.00  0.00    -0.388 OA
ATOM     21  H2  UNL     1      18.591  -9.855   5.060  1.00  0.00     0.210 HD
ENDBRANCH  12  20
BRANCH  13  22
HETATM   22  O3  UNL     1      17.101 -12.169   8.007  1.00  0.00    -0.389 OA
ATOM     23  H3  UNL     1      16.215 -12.034   8.321  1.00  0.00     0.210 HD
ENDBRANCH  13  22
BRANCH   3  24
HETATM   24  O1  UNL     1      16.071 -13.449   3.675  1.00  0.00    -0.395 OA
ATOM     25  H1  UNL     1      15.197 -13.199   3.397  1.00  0.00     0.210 HD
ENDBRANCH   3  24
TORSDOF 5
ENDMDL
MODEL 3
REMARK VINA RESULT: -7.876284717      1.727      4.594
REMARK  5 active torsions:
REMARK  status: ('A' for Active; 'I' for Inactive)
REMARK    1  A    between atoms: C4_4  and  C5_5 
REMARK    2  A    between atoms: C5_5  and  C6_6 
REMARK    3  A    between atoms: C8_8  and  O1_9 
REMARK    4  A    between atoms: C17_19  and  O2_20 
REMARK    5  A    between atoms: C18_22  and  O3_24 
ROOT
HETATM    1  C6  UNL     1      18.673 -12.188   5.735  1.00  0.00     0.034 A 
HETATM    2  C7  UNL     1      17.369 -12.727   5.411  1.00  0.00     0.064 A 
HETATM    3  C8  UNL     1      16.533 -12.179   4.334  1.00  0.00     0.126 C 
HETATM    4  C9  UNL     1      17.113 -11.156   3.455  1.00  0.00     0.040 C 
HETATM    5  C10 UNL     1      18.528 -10.815   3.591  1.00  0.00     0.031 C 
HETATM    6  C11 UNL     1      19.265 -11.240   2.331  1.00  0.00    -0.041 C 
HETATM    7  C12 UNL     1      19.175 -12.668   1.984  1.00  0.00     0.015 C 
HETATM    8  C13 UNL     1      18.559 -10.464   1.193  1.00  0.00     0.015 C 
HETATM    9  C14 UNL     1      20.654 -10.687   2.389  1.00  0.00     0.009 C 
HETATM   10  C15 UNL     1      21.300 -11.511   3.511  1.00  0.00     0.004 C 
HETATM   11  C16 UNL     1      20.708 -10.974   4.776  1.00  0.00     0.039 C 
HETATM   12  C17 UNL     1      19.220 -11.103   4.890  1.00  0.00     0.073 C 
HETATM   13  C18 UNL     1      17.508 -11.876   6.648  1.00  0.00     0.072 A 
HETATM   14  C19 UNL     1      16.739 -10.634   6.703  1.00  0.00     0.047 C 
ENDROOT
BRANCH   1  15
HETATM   15  C5  UNL     1      19.602 -13.219   6.404  1.00  0.00     0.043 C 
BRANCH  15  16
HETATM   16  C4  UNL     1      20.373 -14.033   5.432  1.00  0.00    -0.024 C 
HETATM   17  C2  UNL     1      20.103 -15.302   5.173  1.00  0.00    -0.091 C 
HETATM   18  C1  UNL     1      18.984 -15.978   5.857  1.00  0.00     0.042 C 
HETATM   19  C3  UNL     1      20.916 -16.089   4.186  1.00  0.00     0.042 C 
ENDBRANCH  15  16
ENDBRANCH   1  15
BRANCH  12  20
HETATM   20  O2  UNL     1      18.937  -9.929   5.698  1.00  0.00    -0.388 OA
ATOM     21  H2  UNL     1      19.397  -9.250   5.220  1.00  0.00     0.210 HD
ENDBRANCH  12  20
BRANCH  13  22
HETATM   22  O3  UNL     1      17.456 -12.527   7.910  1.00  0.00    -0.389 OA
ATOM     23  H3  UNL     1      18.120 -12.309   8.554  1.00  0.00     0.210 HD
ENDBRANCH  13  22
BRANCH   3  24
HETATM   24  O1  UNL     1      15.975 -13.251   3.580  1.00  0.00    -0.395 OA
ATOM     25  H1  UNL     1      15.116 -12.998   3.264  1.00  0.00     0.210 HD
ENDBRANCH   3  24
TORSDOF 5
ENDMDL
MODEL 4
REMARK VINA RESULT: -7.845876040      1.822      5.026
REMARK  5 active torsions:
REMARK  status: ('A' for Active; 'I' for Inactive)
REMARK    1  A    between atoms: C4_4  and  C5_5 
REMARK    2  A    between atoms: C5_5  and  C6_6 
REMARK    3  A    between atoms: C8_8  and  O1_9 
REMARK    4  A    between atoms: C17_19  and  O2_20 
REMARK    5  A    between atoms: C18_22  and  O3_24 
ROOT
HETATM    1  C6  UNL     1      20.140 -14.242   4.016  1.00  0.00     0.034 A 
HETATM    2  C7  UNL     1      21.162 -13.347   4.515  1.00  0.00     0.064 A 
HETATM    3  C8  UNL     1      21.160 -11.906   4.226  1.00  0.00     0.126 C 
HETATM    4  C9  UNL     1      19.992 -11.336   3.544  1.00  0.00     0.040 C 
HETATM    5  C10 UNL     1      18.825 -12.180   3.296  1.00  0.00     0.031 C 
HETATM    6  C11 UNL     1      17.654 -11.664   4.118  1.00  0.00    -0.041 C 
HETATM    7  C12 UNL     1      17.869 -11.603   5.574  1.00  0.00     0.015 C 
HETATM    8  C13 UNL     1      17.462 -10.205   3.639  1.00  0.00     0.015 C 
HETATM    9  C14 UNL     1      16.420 -12.391   3.689  1.00  0.00     0.009 C 
HETATM   10  C15 UNL     1      16.664 -13.812   4.213  1.00  0.00     0.004 C 
HETATM   11  C16 UNL     1      17.692 -14.394   3.294  1.00  0.00     0.039 C 
HETATM   12  C17 UNL     1      19.003 -13.668   3.262  1.00  0.00     0.073 C 
HETATM   13  C18 UNL     1      21.505 -14.260   3.364  1.00  0.00     0.072 A 
HETATM   14  C19 UNL     1      21.884 -13.635   2.098  1.00  0.00     0.047 C 
ENDROOT
BRANCH   1  15
HETATM   15  C5  UNL     1      19.960 -15.499   4.889  1.00  0.00     0.043 C 
BRANCH  15  16
HETATM   16  C4  UNL     1      19.518 -15.195   6.273  1.00  0.00    -0.024 C 
HETATM   17  C2  UNL     1      18.509 -15.812   6.864  1.00  0.00    -0.091 C 
HETATM   18  C1  UNL     1      17.762 -16.866   6.151  1.00  0.00     0.042 C 
HETATM   19  C3  UNL     1      18.092 -15.466   8.265  1.00  0.00     0.042 C 
ENDBRANCH  15  16
ENDBRANCH   1  15
BRANCH  12  20
HETATM   20  O2  UNL     1      19.394 -13.937   1.889  1.00  0.00    -0.388 OA
ATOM     21  H2  UNL     1      18.713 -13.488   1.404  1.00  0.00     0.210 HD
ENDBRANCH  12  20
BRANCH  13  22
HETATM   22  O3  UNL     1      22.356 -15.366   3.626  1.00  0.00    -0.389 OA
ATOM     23  H3  UNL     1      22.394 -15.701   4.514  1.00  0.00     0.210 HD
ENDBRANCH  13  22
BRANCH   3  24
HETATM   24  O1  UNL     1      21.464 -11.187   5.418  1.00  0.00    -0.395 OA
ATOM     25  H1  UNL     1      21.385 -10.255   5.250  1.00  0.00     0.210 HD
ENDBRANCH   3  24
TORSDOF 5
ENDMDL
MODEL 5
REMARK VINA RESULT: -7.699748791      1.731      4.614
REMARK  5 active torsions:
REMARK  status: ('A' for Active; 'I' for Inactive)
REMARK    1  A    between atoms: C4_4  and  C5_5 
REMARK    2  A    between atoms: C5_5  and  C6_6 
REMARK    3  A    between atoms: C8_8  and  O1_9 
REMARK    4  A    between atoms: C17_19  and  O2_20 
REMARK    5  A    between atoms: C18_22  and  O3_24 
ROOT
HETATM    1  C6  UNL     1      18.822 -12.082   5.628  1.00  0.00     0.034 A 
HETATM    2  C7  UNL     1      17.731 -12.970   5.290  1.00  0.00     0.064 A 
HETATM    3  C8  UNL     1      16.642 -12.575   4.384  1.00  0.00     0.126 C 
HETATM    4  C9  UNL     1      16.758 -11.294   3.676  1.00  0.00     0.040 C 
HETATM    5  C10 UNL     1      17.996 -10.524   3.787  1.00  0.00     0.031 C 
HETATM    6  C11 UNL     1      18.676 -10.478   2.428  1.00  0.00    -0.041 C 
HETATM    7  C12 UNL     1      19.006 -11.782   1.830  1.00  0.00     0.015 C 
HETATM    8  C13 UNL     1      17.631  -9.818   1.497  1.00  0.00     0.015 C 
HETATM    9  C14 UNL     1      19.812  -9.508   2.503  1.00  0.00     0.009 C 
HETATM   10  C15 UNL     1      20.815 -10.231   3.413  1.00  0.00     0.004 C 
HETATM   11  C16 UNL     1      20.236 -10.124   4.789  1.00  0.00     0.039 C 
HETATM   12  C17 UNL     1      18.891 -10.760   4.966  1.00  0.00     0.073 C 
HETATM   13  C18 UNL     1      17.735 -12.323   6.652  1.00  0.00     0.072 A 
HETATM   14  C19 UNL     1      16.622 -11.434   6.981  1.00  0.00     0.047 C 
ENDROOT
BRANCH   1  15
HETATM   15  C5  UNL     1      20.104 -12.832   6.039  1.00  0.00     0.043 C 
BRANCH  15  16
HETATM   16  C4  UNL     1      20.205 -14.189   5.449  1.00  0.00    -0.024 C 
HETATM   17  C2  UNL     1      21.002 -14.483   4.435  1.00  0.00    -0.091 C 
HETATM   18  C1  UNL     1      21.856 -13.439   3.835  1.00  0.00     0.042 C 
HETATM   19  C3  UNL     1      21.066 -15.871   3.866  1.00  0.00     0.042 C 
ENDBRANCH  15  16
ENDBRANCH   1  15
BRANCH  12  20
HETATM   20  O2  UNL     1      18.346  -9.888   5.993  1.00  0.00    -0.388 OA
ATOM     21  H2  UNL     1      18.465  -9.031   5.601  1.00  0.00     0.210 HD
ENDBRANCH  12  20
BRANCH  13  22
HETATM   22  O3  UNL     1      18.042 -13.139   7.773  1.00  0.00    -0.389 OA
ATOM     23  H3  UNL     1      17.761 -12.845   8.631  1.00  0.00     0.210 HD
ENDBRANCH  13  22
BRANCH   3  24
HETATM   24  O1  UNL     1      16.372 -13.642   3.480  1.00  0.00    -0.395 OA
ATOM     25  H1  UNL     1      16.079 -14.401   3.971  1.00  0.00     0.210 HD
ENDBRANCH   3  24
TORSDOF 5
ENDMDL
