MODEL 1
REMARK VINA RESULT: -7.937488598      0.000      0.000
REMARK  4 active torsions:
REMARK  status: ('A' for Active; 'I' for Inactive)
REMARK    1  A    between atoms: C3_3  and  C4_4 
REMARK    2  A    between atoms: C12_15  and  C14_17 
REMARK    3  A    between atoms: C14_17  and  O1_18 
REMARK    4  A    between atoms: C15_20  and  O2_21 
ROOT
HETATM    1  C4  UNL     1      18.693 -15.144   4.979  1.00  0.00    -0.012 C 
HETATM    2  C5  UNL     1      18.322 -16.459   4.292  1.00  0.00     0.021 C 
HETATM    3  C6  UNL     1      17.913 -14.085   4.286  1.00  0.00    -0.000 C 
HETATM    4  C7  UNL     1      17.475 -14.379   2.876  1.00  0.00     0.011 C 
HETATM    5  C8  UNL     1      18.728 -12.825   4.257  1.00  0.00     0.061 C 
HETATM    6  C9  UNL     1      19.375 -12.504   5.526  1.00  0.00     0.003 C 
HETATM    7  N1  UNL     1      20.005 -11.366   5.398  1.00  0.00    -0.402 N 
ATOM      8  H11 UNL     1      20.457 -11.142   6.284  1.00  0.00     0.156 HD
ATOM      9  H12 UNL     1      19.876 -11.009   4.451  1.00  0.00     0.156 HD
HETATM   10  C10 UNL     1      19.559 -13.013   6.873  1.00  0.00     0.029 C 
HETATM   11  C11 UNL     1      18.907 -14.229   7.357  1.00  0.00    -0.056 C 
HETATM   12  C12 UNL     1      17.962 -13.856   8.519  1.00  0.00     0.027 C 
HETATM   13  C13 UNL     1      17.212 -12.576   8.216  1.00  0.00     0.025 C 
HETATM   14  C15 UNL     1      17.061 -14.918   8.982  1.00  0.00     0.132 C 
HETATM   15  C16 UNL     1      16.657 -15.972   8.025  1.00  0.00     0.034 C 
HETATM   16  C17 UNL     1      16.882 -15.412   6.612  1.00  0.00     0.017 C 
HETATM   17  C18 UNL     1      18.362 -15.251   6.454  1.00  0.00    -0.009 C 
HETATM   18  C19 UNL     1      18.894 -16.653   6.838  1.00  0.00     0.021 C 
ENDROOT
BRANCH   1  19
HETATM   19  C3  UNL     1      20.155 -15.044   4.758  1.00  0.00    -0.020 C 
HETATM   20  C2  UNL     1      20.838 -15.786   3.915  1.00  0.00    -0.034 C 
HETATM   21  C1  UNL     1      22.333 -15.625   3.745  1.00  0.00     0.036 C 
ENDBRANCH   1  19
BRANCH  12  22
HETATM   22  C14 UNL     1      18.862 -13.483   9.709  1.00  0.00     0.180 C 
BRANCH  22  23
HETATM   23  O1  UNL     1      18.206 -12.711  10.636  1.00  0.00    -0.400 OA
ATOM     24  H1  UNL     1      18.692 -12.630  11.448  1.00  0.00     0.209 HD
ENDBRANCH  22  23
ENDBRANCH  12  22
BRANCH  14  25
HETATM   25  O2  UNL     1      17.512 -15.592  10.140  1.00  0.00    -0.394 OA
ATOM     26  H2  UNL     1      17.571 -16.535  10.040  1.00  0.00     0.210 HD
ENDBRANCH  14  25
TORSDOF 4
ENDMDL
MODEL 2
REMARK VINA RESULT: -7.721775767      2.213      3.279
REMARK  4 active torsions:
REMARK  status: ('A' for Active; 'I' for Inactive)
REMARK    1  A    between atoms: C3_3  and  C4_4 
REMARK    2  A    between atoms: C12_15  and  C14_17 
REMARK    3  A    between atoms: C14_17  and  O1_18 
REMARK    4  A    between atoms: C15_20  and  O2_21 
ROOT
HETATM    1  C4  UNL     1      17.959 -13.862   5.625  1.00  0.00    -0.012 C 
HETATM    2  C5  UNL     1      17.771 -13.754   4.112  1.00  0.00     0.021 C 
HETATM    3  C6  UNL     1      16.912 -13.000   6.232  1.00  0.00    -0.000 C 
HETATM    4  C7  UNL     1      16.373 -11.884   5.376  1.00  0.00     0.011 C 
HETATM    5  C8  UNL     1      17.457 -12.388   7.489  1.00  0.00     0.061 C 
HETATM    6  C9  UNL     1      18.177 -13.327   8.345  1.00  0.00     0.003 C 
HETATM    7  N1  UNL     1      18.554 -12.700   9.428  1.00  0.00    -0.402 N 
ATOM      8  H11 UNL     1      19.057 -13.355  10.026  1.00  0.00     0.156 HD
ATOM      9  H12 UNL     1      18.246 -11.728   9.385  1.00  0.00     0.156 HD
HETATM   10  C10 UNL     1      18.616 -14.709   8.406  1.00  0.00     0.029 C 
HETATM   11  C11 UNL     1      18.274 -15.694   7.381  1.00  0.00    -0.056 C 
HETATM   12  C12 UNL     1      17.421 -16.807   8.027  1.00  0.00     0.027 C 
HETATM   13  C13 UNL     1      16.406 -16.220   8.986  1.00  0.00     0.025 C 
HETATM   14  C15 UNL     1      16.804 -17.765   7.102  1.00  0.00     0.132 C 
HETATM   15  C16 UNL     1      16.501 -17.323   5.722  1.00  0.00     0.034 C 
HETATM   16  C17 UNL     1      16.443 -15.788   5.740  1.00  0.00     0.017 C 
HETATM   17  C18 UNL     1      17.833 -15.317   6.032  1.00  0.00    -0.009 C 
HETATM   18  C19 UNL     1      18.670 -16.059   4.961  1.00  0.00     0.021 C 
ENDROOT
BRANCH   1  19
HETATM   19  C3  UNL     1      19.337 -13.359   5.835  1.00  0.00    -0.020 C 
HETATM   20  C2  UNL     1      19.987 -12.583   4.997  1.00  0.00    -0.034 C 
HETATM   21  C1  UNL     1      21.395 -12.109   5.280  1.00  0.00     0.036 C 
ENDBRANCH   1  19
BRANCH  12  22
HETATM   22  C14 UNL     1      18.367 -17.608   8.936  1.00  0.00     0.180 C 
BRANCH  22  23
HETATM   23  O1  UNL     1      17.705 -18.578   9.650  1.00  0.00    -0.400 OA
ATOM     24  H1  UNL     1      17.417 -19.297   9.099  1.00  0.00     0.209 HD
ENDBRANCH  22  23
ENDBRANCH  12  22
BRANCH  14  25
HETATM   25  O2  UNL     1      17.512 -18.982   6.976  1.00  0.00    -0.394 OA
ATOM     26  H2  UNL     1      17.417 -19.399   6.128  1.00  0.00     0.210 HD
ENDBRANCH  14  25
TORSDOF 4
ENDMDL
MODEL 3
REMARK VINA RESULT: -7.514359672      4.048      6.367
REMARK  4 active torsions:
REMARK  status: ('A' for Active; 'I' for Inactive)
REMARK    1  A    between atoms: C3_3  and  C4_4 
REMARK    2  A    between atoms: C12_15  and  C14_17 
REMARK    3  A    between atoms: C14_17  and  O1_18 
REMARK    4  A    between atoms: C15_20  and  O2_21 
ROOT
HETATM    1  C4  UNL     1      17.564 -12.157   4.851  1.00  0.00    -0.012 C 
HETATM    2  C5  UNL     1      16.426 -11.474   5.609  1.00  0.00     0.021 C 
HETATM    3  C6  UNL     1      16.943 -13.281   4.104  1.00  0.00    -0.000 C 
HETATM    4  C7  UNL     1      15.647 -13.823   4.648  1.00  0.00     0.011 C 
HETATM    5  C8  UNL     1      17.920 -14.418   4.040  1.00  0.00     0.061 C 
HETATM    6  C9  UNL     1      19.282 -14.015   3.697  1.00  0.00     0.003 C 
HETATM    7  N1  UNL     1      20.027 -15.085   3.615  1.00  0.00    -0.402 N 
ATOM      8  H11 UNL     1      20.977 -14.803   3.376  1.00  0.00     0.156 HD
ATOM      9  H12 UNL     1      19.460 -15.911   3.811  1.00  0.00     0.156 HD
HETATM   10  C10 UNL     1      20.087 -12.840   3.420  1.00  0.00     0.029 C 
HETATM   11  C11 UNL     1      19.524 -11.492   3.349  1.00  0.00    -0.056 C 
HETATM   12  C12 UNL     1      19.725 -10.944   1.921  1.00  0.00     0.027 C 
HETATM   13  C13 UNL     1      19.445 -12.015   0.888  1.00  0.00     0.025 C 
HETATM   14  C15 UNL     1      19.028  -9.691   1.608  1.00  0.00     0.132 C 
HETATM   15  C16 UNL     1      17.784  -9.369   2.343  1.00  0.00     0.034 C 
HETATM   16  C17 UNL     1      17.240 -10.688   2.913  1.00  0.00     0.017 C 
HETATM   17  C18 UNL     1      18.227 -11.141   3.943  1.00  0.00    -0.009 C 
HETATM   18  C19 UNL     1      18.365  -9.892   4.846  1.00  0.00     0.021 C 
ENDROOT
BRANCH   1  19
HETATM   19  C3  UNL     1      18.479 -12.596   5.931  1.00  0.00    -0.020 C 
HETATM   20  C2  UNL     1      18.101 -12.920   7.147  1.00  0.00    -0.034 C 
HETATM   21  C1  UNL     1      19.096 -13.359   8.199  1.00  0.00     0.036 C 
ENDBRANCH   1  19
BRANCH  12  22
HETATM   22  C14 UNL     1      21.230 -10.669   1.768  1.00  0.00     0.180 C 
BRANCH  22  23
HETATM   23  O1  UNL     1      21.566 -10.315   0.483  1.00  0.00    -0.400 OA
ATOM     24  H1  UNL     1      21.929 -11.043  -0.007  1.00  0.00     0.209 HD
ENDBRANCH  22  23
ENDBRANCH  12  22
BRANCH  14  25
HETATM   25  O2  UNL     1      19.844  -8.540   1.696  1.00  0.00    -0.394 OA
ATOM     26  H2  UNL     1      20.128  -8.334   2.578  1.00  0.00     0.210 HD
ENDBRANCH  14  25
TORSDOF 4
ENDMDL
MODEL 4
REMARK VINA RESULT: -7.469005501      5.271      7.702
REMARK  4 active torsions:
REMARK  status: ('A' for Active; 'I' for Inactive)
REMARK    1  A    between atoms: C3_3  and  C4_4 
REMARK    2  A    between atoms: C12_15  and  C14_17 
REMARK    3  A    between atoms: C14_17  and  O1_18 
REMARK    4  A    between atoms: C15_20  and  O2_21 
ROOT
HETATM    1  C4  UNL     1      19.989 -12.005   3.214  1.00  0.00    -0.012 C 
HETATM    2  C5  UNL     1      20.436 -12.738   4.479  1.00  0.00     0.021 C 
HETATM    3  C6  UNL     1      20.305 -10.571   3.438  1.00  0.00    -0.000 C 
HETATM    4  C7  UNL     1      20.399 -10.112   4.869  1.00  0.00     0.011 C 
HETATM    5  C8  UNL     1      19.261  -9.733   2.759  1.00  0.00     0.061 C 
HETATM    6  C9  UNL     1      18.927 -10.177   1.408  1.00  0.00     0.003 C 
HETATM    7  N1  UNL     1      18.056  -9.346   0.898  1.00  0.00    -0.402 N 
ATOM      8  H11 UNL     1      17.823  -9.656  -0.045  1.00  0.00     0.156 HD
ATOM      9  H12 UNL     1      17.844  -8.615   1.577  1.00  0.00     0.156 HD
HETATM   10  C10 UNL     1      19.228 -11.218   0.442  1.00  0.00     0.029 C 
HETATM   11  C11 UNL     1      20.234 -12.252   0.680  1.00  0.00    -0.056 C 
HETATM   12  C12 UNL     1      21.354 -12.108  -0.372  1.00  0.00     0.027 C 
HETATM   13  C13 UNL     1      21.699 -10.650  -0.595  1.00  0.00     0.025 C 
HETATM   14  C15 UNL     1      22.554 -12.923  -0.152  1.00  0.00     0.132 C 
HETATM   15  C16 UNL     1      22.902 -13.312   1.234  1.00  0.00     0.034 C 
HETATM   16  C17 UNL     1      22.188 -12.329   2.174  1.00  0.00     0.017 C 
HETATM   17  C18 UNL     1      20.722 -12.591   2.023  1.00  0.00    -0.009 C 
HETATM   18  C19 UNL     1      20.629 -14.118   2.264  1.00  0.00     0.021 C 
ENDROOT
BRANCH   1  19
HETATM   19  C3  UNL     1      18.537 -12.290   3.148  1.00  0.00    -0.020 C 
HETATM   20  C2  UNL     1      17.837 -12.841   4.115  1.00  0.00    -0.034 C 
HETATM   21  C1  UNL     1      16.354 -13.102   3.975  1.00  0.00     0.036 C 
ENDBRANCH   1  19
BRANCH  12  22
HETATM   22  C14 UNL     1      20.750 -12.553  -1.714  1.00  0.00     0.180 C 
BRANCH  22  23
HETATM   23  O1  UNL     1      20.621 -11.510  -2.598  1.00  0.00    -0.400 OA
ATOM     24  H1  UNL     1      21.405 -10.976  -2.643  1.00  0.00     0.209 HD
ENDBRANCH  22  23
ENDBRANCH  12  22
BRANCH  14  25
HETATM   25  O2  UNL     1      22.590 -14.113  -0.913  1.00  0.00    -0.394 OA
ATOM     26  H2  UNL     1      22.681 -14.903  -0.393  1.00  0.00     0.210 HD
ENDBRANCH  14  25
TORSDOF 4
ENDMDL
MODEL 5
REMARK VINA RESULT: -7.453635343      2.825      4.220
REMARK  4 active torsions:
REMARK  status: ('A' for Active; 'I' for Inactive)
REMARK    1  A    between atoms: C3_3  and  C4_4 
REMARK    2  A    between atoms: C12_15  and  C14_17 
REMARK    3  A    between atoms: C14_17  and  O1_18 
REMARK    4  A    between atoms: C15_20  and  O2_21 
ROOT
HETATM    1  C4  UNL     1      18.492 -14.229   4.716  1.00  0.00    -0.012 C 
HETATM    2  C5  UNL     1      18.246 -15.194   5.876  1.00  0.00     0.021 C 
HETATM    3  C6  UNL     1      17.427 -14.508   3.718  1.00  0.00    -0.000 C 
HETATM    4  C7  UNL     1      16.808 -15.879   3.752  1.00  0.00     0.011 C 
HETATM    5  C8  UNL     1      17.988 -14.295   2.341  1.00  0.00     0.061 C 
HETATM    6  C9  UNL     1      18.780 -13.076   2.202  1.00  0.00     0.003 C 
HETATM    7  N1  UNL     1      19.166 -12.968   0.958  1.00  0.00    -0.402 N 
ATOM      8  H11 UNL     1      19.719 -12.117   0.861  1.00  0.00     0.156 HD
ATOM      9  H12 UNL     1      18.811 -13.760   0.421  1.00  0.00     0.156 HD
HETATM   10  C10 UNL     1      19.285 -11.950   2.967  1.00  0.00     0.029 C 
HETATM   11  C11 UNL     1      18.953 -11.737   4.375  1.00  0.00    -0.056 C 
HETATM   12  C12 UNL     1      18.176 -10.410   4.506  1.00  0.00     0.027 C 
HETATM   13  C13 UNL     1      17.169 -10.261   3.384  1.00  0.00     0.025 C 
HETATM   14  C15 UNL     1      17.573 -10.144   5.817  1.00  0.00     0.132 C 
HETATM   15  C16 UNL     1      17.201 -11.293   6.672  1.00  0.00     0.034 C 
HETATM   16  C17 UNL     1      17.072 -12.518   5.755  1.00  0.00     0.017 C 
HETATM   17  C18 UNL     1      18.449 -12.808   5.243  1.00  0.00    -0.009 C 
HETATM   18  C19 UNL     1      19.280 -12.886   6.547  1.00  0.00     0.021 C 
ENDROOT
BRANCH   1  19
HETATM   19  C3  UNL     1      19.851 -14.592   4.252  1.00  0.00    -0.020 C 
HETATM   20  C2  UNL     1      20.439 -15.744   4.485  1.00  0.00    -0.034 C 
HETATM   21  C1  UNL     1      21.833 -16.043   3.977  1.00  0.00     0.036 C 
ENDBRANCH   1  19
BRANCH  12  22
HETATM   22  C14 UNL     1      19.190  -9.284   4.243  1.00  0.00     0.180 C 
BRANCH  22  23
HETATM   23  O1  UNL     1      18.599  -8.044   4.227  1.00  0.00    -0.400 OA
ATOM     24  H1  UNL     1      17.770  -8.047   3.763  1.00  0.00     0.209 HD
ENDBRANCH  22  23
ENDBRANCH  12  22
BRANCH  14  25
HETATM   25  O2  UNL     1      18.332  -9.276   6.635  1.00  0.00    -0.394 OA
ATOM     26  H2  UNL     1      18.036  -9.238   7.538  1.00  0.00     0.210 HD
ENDBRANCH  14  25
TORSDOF 4
ENDMDL
