MODEL 1
REMARK VINA RESULT: -8.201798910      0.000      0.000
REMARK  4 active torsions:
REMARK  status: ('A' for Active; 'I' for Inactive)
REMARK    1  A    between atoms: C2_2  and  C4_4 
REMARK    2  A    between atoms: C4_4  and  C5_5 
REMARK    3  A    between atoms: C9_9  and  O1_10 
REMARK    4  A    between atoms: C14_16  and  O2_17 
ROOT
HETATM    1  C5  UNL     1      18.664 -14.851   7.792  1.00  0.00    -0.005 C 
HETATM    2  C6  UNL     1      18.254 -14.015   8.998  1.00  0.00     0.006 C 
HETATM    3  C7  UNL     1      17.309 -13.014   8.288  1.00  0.00     0.008 C 
HETATM    4  C8  UNL     1      18.112 -12.650   7.101  1.00  0.00     0.020 C 
HETATM    5  C9  UNL     1      17.402 -12.539   5.819  1.00  0.00     0.128 C 
HETATM    6  C10 UNL     1      18.377 -13.081   4.796  1.00  0.00     0.033 C 
HETATM    7  C11 UNL     1      18.872 -12.066   3.835  1.00  0.00    -0.015 C 
HETATM    8  C12 UNL     1      18.934 -12.686   2.427  1.00  0.00     0.018 C 
HETATM    9  C13 UNL     1      17.880 -10.916   3.643  1.00  0.00     0.018 C 
HETATM   10  C14 UNL     1      20.185 -11.439   4.085  1.00  0.00     0.126 C 
HETATM   11  C15 UNL     1      20.957 -12.005   5.242  1.00  0.00     0.033 C 
HETATM   12  C16 UNL     1      20.836 -13.470   5.186  1.00  0.00     0.012 C 
HETATM   13  C17 UNL     1      19.393 -13.921   5.491  1.00  0.00    -0.033 C 
HETATM   14  C18 UNL     1      19.408 -15.359   4.941  1.00  0.00     0.016 C 
HETATM   15  C19 UNL     1      19.105 -13.795   6.902  1.00  0.00     0.005 C 
ENDROOT
BRANCH   1  16
HETATM   16  C4  UNL     1      17.677 -15.850   7.551  1.00  0.00     0.037 C 
BRANCH  16  17
HETATM   17  C2  UNL     1      17.964 -17.148   8.226  1.00  0.00    -0.093 C 
HETATM   18  C1  UNL     1      18.953 -17.972   7.944  1.00  0.00     0.014 C 
HETATM   19  C3  UNL     1      17.051 -17.597   9.366  1.00  0.00     0.042 C 
ENDBRANCH  16  17
ENDBRANCH   1  16
BRANCH   5  20
HETATM   20  O1  UNL     1      16.153 -13.158   5.776  1.00  0.00    -0.395 OA
ATOM     21  H1  UNL     1      15.430 -12.594   5.526  1.00  0.00     0.210 HD
ENDBRANCH   5  20
BRANCH  10  22
HETATM   22  O2  UNL     1      21.056 -11.517   2.975  1.00  0.00    -0.395 OA
ATOM     23  H2  UNL     1      21.066 -10.724   2.452  1.00  0.00     0.210 HD
ENDBRANCH  10  22
TORSDOF 4
ENDMDL
MODEL 2
REMARK VINA RESULT: -8.128980133      2.236      6.260
REMARK  4 active torsions:
REMARK  status: ('A' for Active; 'I' for Inactive)
REMARK    1  A    between atoms: C2_2  and  C4_4 
REMARK    2  A    between atoms: C4_4  and  C5_5 
REMARK    3  A    between atoms: C9_9  and  O1_10 
REMARK    4  A    between atoms: C14_16  and  O2_17 
ROOT
HETATM    1  C5  UNL     1      18.738 -10.700   1.933  1.00  0.00    -0.005 C 
HETATM    2  C6  UNL     1      17.975  -9.382   1.897  1.00  0.00     0.006 C 
HETATM    3  C7  UNL     1      17.977  -9.060   3.412  1.00  0.00     0.008 C 
HETATM    4  C8  UNL     1      17.597 -10.369   3.986  1.00  0.00     0.020 C 
HETATM    5  C9  UNL     1      18.312 -10.803   5.195  1.00  0.00     0.128 C 
HETATM    6  C10 UNL     1      18.471 -12.298   5.025  1.00  0.00     0.033 C 
HETATM    7  C11 UNL     1      17.708 -13.103   6.010  1.00  0.00    -0.015 C 
HETATM    8  C12 UNL     1      18.570 -14.292   6.472  1.00  0.00     0.018 C 
HETATM    9  C13 UNL     1      17.467 -12.345   7.317  1.00  0.00     0.018 C 
HETATM   10  C14 UNL     1      16.399 -13.654   5.607  1.00  0.00     0.126 C 
HETATM   11  C15 UNL     1      16.032 -13.448   4.165  1.00  0.00     0.033 C 
HETATM   12  C16 UNL     1      17.229 -13.719   3.355  1.00  0.00     0.012 C 
HETATM   13  C17 UNL     1      18.311 -12.645   3.585  1.00  0.00    -0.033 C 
HETATM   14  C18 UNL     1      19.559 -13.356   3.032  1.00  0.00     0.016 C 
HETATM   15  C19 UNL     1      17.953 -11.409   2.924  1.00  0.00     0.005 C 
ENDROOT
BRANCH   1  16
HETATM   16  C4  UNL     1      20.138 -10.436   1.943  1.00  0.00     0.037 C 
BRANCH  16  17
HETATM   17  C2  UNL     1      20.838 -10.871   0.701  1.00  0.00    -0.093 C 
HETATM   18  C1  UNL     1      22.141 -10.890   0.505  1.00  0.00     0.014 C 
HETATM   19  C3  UNL     1      19.998 -11.357  -0.479  1.00  0.00     0.042 C 
ENDBRANCH  16  17
ENDBRANCH   1  16
BRANCH   5  20
HETATM   20  O1  UNL     1      19.516 -10.143   5.444  1.00  0.00    -0.395 OA
ATOM     21  H1  UNL     1      20.123 -10.606   6.008  1.00  0.00     0.210 HD
ENDBRANCH   5  20
BRANCH  10  22
HETATM   22  O2  UNL     1      16.293 -15.047   5.828  1.00  0.00    -0.395 OA
ATOM     23  H2  UNL     1      15.996 -15.524   5.061  1.00  0.00     0.210 HD
ENDBRANCH  10  22
TORSDOF 4
ENDMDL
MODEL 3
REMARK VINA RESULT: -8.120880460      1.828      3.661
REMARK  4 active torsions:
REMARK  status: ('A' for Active; 'I' for Inactive)
REMARK    1  A    between atoms: C2_2  and  C4_4 
REMARK    2  A    between atoms: C4_4  and  C5_5 
REMARK    3  A    between atoms: C9_9  and  O1_10 
REMARK    4  A    between atoms: C14_16  and  O2_17 
ROOT
HETATM    1  C5  UNL     1      17.830 -13.124   5.571  1.00  0.00    -0.005 C 
HETATM    2  C6  UNL     1      16.560 -13.905   5.261  1.00  0.00     0.006 C 
HETATM    3  C7  UNL     1      16.927 -14.410   3.844  1.00  0.00     0.008 C 
HETATM    4  C8  UNL     1      17.465 -13.178   3.228  1.00  0.00     0.020 C 
HETATM    5  C9  UNL     1      18.667 -13.316   2.394  1.00  0.00     0.128 C 
HETATM    6  C10 UNL     1      19.470 -12.065   2.677  1.00  0.00     0.033 C 
HETATM    7  C11 UNL     1      19.595 -11.151   1.515  1.00  0.00    -0.015 C 
HETATM    8  C12 UNL     1      21.028 -10.591   1.461  1.00  0.00     0.018 C 
HETATM    9  C13 UNL     1      19.482 -11.891   0.180  1.00  0.00     0.018 C 
HETATM   10  C14 UNL     1      18.681  -9.996   1.425  1.00  0.00     0.126 C 
HETATM   11  C15 UNL     1      17.787  -9.790   2.615  1.00  0.00     0.033 C 
HETATM   12  C16 UNL     1      18.598  -9.998   3.824  1.00  0.00     0.012 C 
HETATM   13  C17 UNL     1      19.014 -11.475   3.967  1.00  0.00    -0.033 C 
HETATM   14  C18 UNL     1      20.171 -11.362   4.977  1.00  0.00     0.016 C 
HETATM   15  C19 UNL     1      17.893 -12.284   4.391  1.00  0.00     0.005 C 
ENDROOT
BRANCH   1  16
HETATM   16  C4  UNL     1      18.823 -14.014   6.073  1.00  0.00     0.037 C 
BRANCH  16  17
HETATM   17  C2  UNL     1      18.633 -14.375   7.507  1.00  0.00    -0.093 C 
HETATM   18  C1  UNL     1      18.667 -13.546   8.531  1.00  0.00     0.014 C 
HETATM   19  C3  UNL     1      18.363 -15.835   7.863  1.00  0.00     0.042 C 
ENDBRANCH  16  17
ENDBRANCH   1  16
BRANCH   5  20
HETATM   20  O1  UNL     1      19.391 -14.493   2.583  1.00  0.00    -0.395 OA
ATOM     21  H1  UNL     1      20.258 -14.381   2.955  1.00  0.00     0.210 HD
ENDBRANCH   5  20
BRANCH  10  22
HETATM   22  O2  UNL     1      19.356  -8.767   1.242  1.00  0.00    -0.395 OA
ATOM     23  H2  UNL     1      18.776  -8.058   0.990  1.00  0.00     0.210 HD
ENDBRANCH  10  22
TORSDOF 4
ENDMDL
MODEL 4
REMARK VINA RESULT: -8.107737529      1.209      1.358
REMARK  4 active torsions:
REMARK  status: ('A' for Active; 'I' for Inactive)
REMARK    1  A    between atoms: C2_2  and  C4_4 
REMARK    2  A    between atoms: C4_4  and  C5_5 
REMARK    3  A    between atoms: C9_9  and  O1_10 
REMARK    4  A    between atoms: C14_16  and  O2_17 
ROOT
HETATM    1  C5  UNL     1      18.106 -15.267   7.392  1.00  0.00    -0.005 C 
HETATM    2  C6  UNL     1      18.094 -14.895   8.869  1.00  0.00     0.006 C 
HETATM    3  C7  UNL     1      17.508 -13.466   8.754  1.00  0.00     0.008 C 
HETATM    4  C8  UNL     1      18.305 -12.916   7.636  1.00  0.00     0.020 C 
HETATM    5  C9  UNL     1      17.591 -12.104   6.640  1.00  0.00     0.128 C 
HETATM    6  C10 UNL     1      18.246 -12.459   5.322  1.00  0.00     0.033 C 
HETATM    7  C11 UNL     1      18.995 -11.341   4.699  1.00  0.00    -0.015 C 
HETATM    8  C12 UNL     1      18.743 -11.344   3.180  1.00  0.00     0.018 C 
HETATM    9  C13 UNL     1      18.452  -9.973   5.120  1.00  0.00     0.018 C 
HETATM   10  C14 UNL     1      20.458 -11.279   4.890  1.00  0.00     0.126 C 
HETATM   11  C15 UNL     1      21.063 -12.456   5.601  1.00  0.00     0.033 C 
HETATM   12  C16 UNL     1      20.439 -13.673   5.062  1.00  0.00     0.012 C 
HETATM   13  C17 UNL     1      18.954 -13.763   5.466  1.00  0.00    -0.033 C 
HETATM   14  C18 UNL     1      18.433 -14.802   4.457  1.00  0.00     0.016 C 
HETATM   15  C19 UNL     1      18.824 -14.126   6.859  1.00  0.00     0.005 C 
ENDROOT
BRANCH   1  16
HETATM   16  C4  UNL     1      16.820 -15.753   7.016  1.00  0.00     0.037 C 
BRANCH  16  17
HETATM   17  C2  UNL     1      16.829 -17.169   6.551  1.00  0.00    -0.093 C 
HETATM   18  C1  UNL     1      16.409 -17.608   5.381  1.00  0.00     0.014 C 
HETATM   19  C3  UNL     1      17.378 -18.243   7.488  1.00  0.00     0.042 C 
ENDBRANCH  16  17
ENDBRANCH   1  16
BRANCH   5  20
HETATM   20  O1  UNL     1      16.205 -12.260   6.628  1.00  0.00    -0.395 OA
ATOM     21  H1  UNL     1      15.764 -11.903   5.867  1.00  0.00     0.210 HD
ENDBRANCH   5  20
BRANCH  10  22
HETATM   22  O2  UNL     1      21.171 -11.165   3.675  1.00  0.00    -0.395 OA
ATOM     23  H2  UNL     1      21.665 -11.947   3.458  1.00  0.00     0.210 HD
ENDBRANCH  10  22
TORSDOF 4
ENDMDL
MODEL 5
REMARK VINA RESULT: -8.081871734      1.688      5.837
REMARK  4 active torsions:
REMARK  status: ('A' for Active; 'I' for Inactive)
REMARK    1  A    between atoms: C2_2  and  C4_4 
REMARK    2  A    between atoms: C4_4  and  C5_5 
REMARK    3  A    between atoms: C9_9  and  O1_10 
REMARK    4  A    between atoms: C14_16  and  O2_17 
ROOT
HETATM    1  C5  UNL     1      19.350 -11.097   4.660  1.00  0.00    -0.005 C 
HETATM    2  C6  UNL     1      20.829 -10.871   4.947  1.00  0.00     0.006 C 
HETATM    3  C7  UNL     1      21.301 -12.346   4.959  1.00  0.00     0.008 C 
HETATM    4  C8  UNL     1      20.252 -12.979   5.788  1.00  0.00     0.020 C 
HETATM    5  C9  UNL     1      19.753 -14.290   5.350  1.00  0.00     0.128 C 
HETATM    6  C10 UNL     1      18.275 -14.260   5.674  1.00  0.00     0.033 C 
HETATM    7  C11 UNL     1      17.868 -15.216   6.733  1.00  0.00    -0.015 C 
HETATM    8  C12 UNL     1      16.527 -15.865   6.344  1.00  0.00     0.018 C 
HETATM    9  C13 UNL     1      18.806 -16.423   6.815  1.00  0.00     0.018 C 
HETATM   10  C14 UNL     1      17.718 -14.717   8.114  1.00  0.00     0.126 C 
HETATM   11  C15 UNL     1      17.867 -13.232   8.280  1.00  0.00     0.033 C 
HETATM   12  C16 UNL     1      17.143 -12.583   7.176  1.00  0.00     0.012 C 
HETATM   13  C17 UNL     1      17.838 -12.844   5.825  1.00  0.00    -0.033 C 
HETATM   14  C18 UNL     1      16.711 -12.491   4.837  1.00  0.00     0.016 C 
HETATM   15  C19 UNL     1      19.041 -12.050   5.708  1.00  0.00     0.005 C 
ENDROOT
BRANCH   1  16
HETATM   16  C4  UNL     1      19.157 -11.240   3.255  1.00  0.00     0.037 C 
BRANCH  16  17
HETATM   17  C2  UNL     1      18.432 -10.097   2.631  1.00  0.00    -0.093 C 
HETATM   18  C1  UNL     1      18.312  -9.860   1.340  1.00  0.00     0.014 C 
HETATM   19  C3  UNL     1      17.742  -9.085   3.543  1.00  0.00     0.042 C 
ENDBRANCH  16  17
ENDBRANCH   1  16
BRANCH   5  20
HETATM   20  O1  UNL     1      20.022 -14.616   4.021  1.00  0.00    -0.395 OA
ATOM     21  H1  UNL     1      19.441 -15.261   3.636  1.00  0.00     0.210 HD
ENDBRANCH   5  20
BRANCH  10  22
HETATM   22  O2  UNL     1      16.465 -15.037   8.685  1.00  0.00    -0.395 OA
ATOM     23  H2  UNL     1      16.449 -14.936   9.629  1.00  0.00     0.210 HD
ENDBRANCH  10  22
TORSDOF 4
ENDMDL
