MODEL 1
REMARK VINA RESULT: -8.899843906      0.000      0.000
REMARK  5 active torsions:
REMARK  status: ('A' for Active; 'I' for Inactive)
REMARK    1  A    between atoms: C2_2  and  C3_3 
REMARK    2  A    between atoms: C9_9  and  O1_10 
REMARK    3  A    between atoms: C9_9  and  C10_12 
REMARK    4  A    between atoms: C13_15  and  O2_16 
REMARK    5  A    between atoms: C19_23  and  O3_24 
ROOT
HETATM    1  C3  UNL     1      17.197 -16.687   6.792  1.00  0.00     0.014 C 
HETATM    2  C4  UNL     1      18.284 -15.958   7.524  1.00  0.00     0.008 C 
HETATM    3  C5  UNL     1      18.613 -14.619   6.978  1.00  0.00     0.010 C 
HETATM    4  C6  UNL     1      18.760 -14.686   5.476  1.00  0.00    -0.035 C 
HETATM    5  C7  UNL     1      19.813 -15.714   5.090  1.00  0.00     0.016 C 
HETATM    6  C8  UNL     1      19.211 -13.359   4.986  1.00  0.00     0.048 C 
HETATM    7  C9  UNL     1      18.223 -12.672   4.072  1.00  0.00     0.062 C 
HETATM    8  C16 UNL     1      17.878 -13.638   2.965  1.00  0.00     0.038 C 
HETATM    9  C17 UNL     1      17.373 -14.943   3.448  1.00  0.00     0.011 C 
HETATM   10  C18 UNL     1      17.422 -15.122   4.931  1.00  0.00     0.023 C 
HETATM   11  C19 UNL     1      17.272 -16.585   5.309  1.00  0.00     0.127 C 
ENDROOT
BRANCH   7  12
HETATM   12  O1  UNL     1      17.058 -12.293   4.732  1.00  0.00    -0.389 OA
ATOM     13  H1  UNL     1      16.302 -12.800   4.459  1.00  0.00     0.210 HD
ENDBRANCH   7  12
BRANCH   7  14
HETATM   14  C10 UNL     1      18.886 -11.441   3.557  1.00  0.00     0.020 C 
HETATM   15  C11 UNL     1      18.061 -10.231   3.863  1.00  0.00     0.010 C 
HETATM   16  C12 UNL     1      18.031  -9.234   2.729  1.00  0.00     0.032 C 
HETATM   17  C13 UNL     1      19.377  -9.003   2.109  1.00  0.00     0.118 C 
HETATM   18  C14 UNL     1      20.107 -10.289   1.803  1.00  0.00     0.032 C 
HETATM   19  C15 UNL     1      19.182 -11.480   2.083  1.00  0.00     0.010 C 
BRANCH  17  20
HETATM   20  O2  UNL     1      20.137  -8.160   2.936  1.00  0.00    -0.396 OA
ATOM     21  H2  UNL     1      21.062  -8.317   2.786  1.00  0.00     0.210 HD
ENDBRANCH  17  20
ENDBRANCH   7  14
BRANCH  11  22
HETATM   22  O3  UNL     1      16.011 -16.978   4.800  1.00  0.00    -0.395 OA
ATOM     23  H3  UNL     1      15.891 -16.529   3.972  1.00  0.00     0.210 HD
ENDBRANCH  11  22
BRANCH   1  24
HETATM   24  C2  UNL     1      17.330 -18.161   7.179  1.00  0.00     0.002 C 
HETATM   25  C1  UNL     1      16.821 -18.370   8.603  1.00  0.00     0.005 C 
ENDBRANCH   1  24
TORSDOF 5
ENDMDL
MODEL 2
REMARK VINA RESULT: -8.884229602      1.732      7.155
REMARK  5 active torsions:
REMARK  status: ('A' for Active; 'I' for Inactive)
REMARK    1  A    between atoms: C2_2  and  C3_3 
REMARK    2  A    between atoms: C9_9  and  O1_10 
REMARK    3  A    between atoms: C9_9  and  C10_12 
REMARK    4  A    between atoms: C13_15  and  O2_16 
REMARK    5  A    between atoms: C19_23  and  O3_24 
ROOT
HETATM    1  C3  UNL     1      18.851  -9.909   4.210  1.00  0.00     0.014 C 
HETATM    2  C4  UNL     1      17.525 -10.421   3.734  1.00  0.00     0.008 C 
HETATM    3  C5  UNL     1      17.032 -11.627   4.443  1.00  0.00     0.010 C 
HETATM    4  C6  UNL     1      18.134 -12.655   4.558  1.00  0.00    -0.035 C 
HETATM    5  C7  UNL     1      18.679 -13.007   3.183  1.00  0.00     0.016 C 
HETATM    6  C8  UNL     1      17.567 -13.889   5.159  1.00  0.00     0.048 C 
HETATM    7  C9  UNL     1      18.161 -14.250   6.500  1.00  0.00     0.062 C 
HETATM    8  C16 UNL     1      19.661 -14.293   6.338  1.00  0.00     0.038 C 
HETATM    9  C17 UNL     1      20.238 -13.043   5.794  1.00  0.00     0.011 C 
HETATM   10  C18 UNL     1      19.231 -12.020   5.377  1.00  0.00     0.023 C 
HETATM   11  C19 UNL     1      19.863 -10.965   4.485  1.00  0.00     0.127 C 
ENDROOT
BRANCH   7  12
HETATM   12  O1  UNL     1      17.832 -13.335   7.495  1.00  0.00    -0.389 OA
ATOM     13  H1  UNL     1      16.904 -13.336   7.700  1.00  0.00     0.210 HD
ENDBRANCH   7  12
BRANCH   7  14
HETATM   14  C10 UNL     1      17.600 -15.576   6.885  1.00  0.00     0.020 C 
HETATM   15  C11 UNL     1      18.445 -16.220   7.939  1.00  0.00     0.010 C 
HETATM   16  C12 UNL     1      18.620 -17.705   7.730  1.00  0.00     0.032 C 
HETATM   17  C13 UNL     1      17.346 -18.403   7.357  1.00  0.00     0.118 C 
HETATM   18  C14 UNL     1      16.592 -17.693   6.258  1.00  0.00     0.032 C 
HETATM   19  C15 UNL     1      17.436 -16.526   5.731  1.00  0.00     0.010 C 
BRANCH  17  20
HETATM   20  O2  UNL     1      16.551 -18.576   8.502  1.00  0.00    -0.396 OA
ATOM     21  H2  UNL     1      15.849 -19.186   8.312  1.00  0.00     0.210 HD
ENDBRANCH  17  20
ENDBRANCH   7  14
BRANCH  11  22
HETATM   22  O3  UNL     1      20.883 -10.373   5.266  1.00  0.00    -0.395 OA
ATOM     23  H3  UNL     1      21.649 -10.294   4.711  1.00  0.00     0.210 HD
ENDBRANCH  11  22
BRANCH   1  24
HETATM   24  C2  UNL     1      19.390  -9.007   3.097  1.00  0.00     0.002 C 
HETATM   25  C1  UNL     1      18.697  -9.343   1.779  1.00  0.00     0.005 C 
ENDBRANCH   1  24
TORSDOF 5
ENDMDL
MODEL 3
REMARK VINA RESULT: -8.824705206      2.571      3.918
REMARK  5 active torsions:
REMARK  status: ('A' for Active; 'I' for Inactive)
REMARK    1  A    between atoms: C2_2  and  C3_3 
REMARK    2  A    between atoms: C9_9  and  O1_10 
REMARK    3  A    between atoms: C9_9  and  C10_12 
REMARK    4  A    between atoms: C13_15  and  O2_16 
REMARK    5  A    between atoms: C19_23  and  O3_24 
ROOT
HETATM    1  C3  UNL     1      18.885 -13.156   7.232  1.00  0.00     0.014 C 
HETATM    2  C4  UNL     1      19.682 -14.190   6.495  1.00  0.00     0.008 C 
HETATM    3  C5  UNL     1      20.172 -13.764   5.162  1.00  0.00     0.010 C 
HETATM    4  C6  UNL     1      19.059 -13.106   4.379  1.00  0.00    -0.035 C 
HETATM    5  C7  UNL     1      17.869 -14.045   4.255  1.00  0.00     0.016 C 
HETATM    6  C8  UNL     1      19.556 -12.811   3.011  1.00  0.00     0.048 C 
HETATM    7  C9  UNL     1      19.600 -11.337   2.677  1.00  0.00     0.062 C 
HETATM    8  C16 UNL     1      18.232 -10.765   2.959  1.00  0.00     0.038 C 
HETATM    9  C17 UNL     1      17.756 -11.007   4.340  1.00  0.00     0.011 C 
HETATM   10  C18 UNL     1      18.646 -11.885   5.162  1.00  0.00     0.023 C 
HETATM   11  C19 UNL     1      17.917 -12.401   6.390  1.00  0.00     0.127 C 
ENDROOT
BRANCH   7  12
HETATM   12  O1  UNL     1      20.550 -10.648   3.424  1.00  0.00    -0.389 OA
ATOM     13  H1  UNL     1      21.237 -10.274   2.885  1.00  0.00     0.210 HD
ENDBRANCH   7  12
BRANCH   7  14
HETATM   14  C10 UNL     1      19.969 -11.225   1.238  1.00  0.00     0.020 C 
HETATM   15  C11 UNL     1      19.269 -12.273   0.431  1.00  0.00     0.010 C 
HETATM   16  C12 UNL     1      20.147 -12.883  -0.635  1.00  0.00     0.032 C 
HETATM   17  C13 UNL     1      20.953 -11.868  -1.389  1.00  0.00     0.118 C 
HETATM   18  C14 UNL     1      21.651 -10.885  -0.479  1.00  0.00     0.032 C 
HETATM   19  C15 UNL     1      21.449 -11.308   0.981  1.00  0.00     0.010 C 
BRANCH  17  20
HETATM   20  O2  UNL     1      20.133 -11.216  -2.324  1.00  0.00    -0.396 OA
ATOM     21  H2  UNL     1      19.782 -10.422  -1.939  1.00  0.00     0.210 HD
ENDBRANCH  17  20
ENDBRANCH   7  14
BRANCH  11  22
HETATM   22  O3  UNL     1      17.543 -11.247   7.119  1.00  0.00    -0.395 OA
ATOM     23  H3  UNL     1      16.695 -10.972   6.791  1.00  0.00     0.210 HD
ENDBRANCH  11  22
BRANCH   1  24
HETATM   24  C2  UNL     1      18.099 -13.905   8.311  1.00  0.00     0.002 C 
HETATM   25  C1  UNL     1      18.603 -13.500   9.694  1.00  0.00     0.005 C 
ENDBRANCH   1  24
TORSDOF 5
ENDMDL
MODEL 4
REMARK VINA RESULT: -8.804282243      0.708      1.253
REMARK  5 active torsions:
REMARK  status: ('A' for Active; 'I' for Inactive)
REMARK    1  A    between atoms: C2_2  and  C3_3 
REMARK    2  A    between atoms: C9_9  and  O1_10 
REMARK    3  A    between atoms: C9_9  and  C10_12 
REMARK    4  A    between atoms: C13_15  and  O2_16 
REMARK    5  A    between atoms: C19_23  and  O3_24 
ROOT
HETATM    1  C3  UNL     1      17.251 -16.741   6.838  1.00  0.00     0.014 C 
HETATM    2  C4  UNL     1      18.299 -15.866   7.458  1.00  0.00     0.008 C 
HETATM    3  C5  UNL     1      18.404 -14.509   6.869  1.00  0.00     0.010 C 
HETATM    4  C6  UNL     1      18.421 -14.591   5.360  1.00  0.00    -0.035 C 
HETATM    5  C7  UNL     1      19.556 -15.486   4.889  1.00  0.00     0.016 C 
HETATM    6  C8  UNL     1      18.653 -13.228   4.816  1.00  0.00     0.048 C 
HETATM    7  C9  UNL     1      17.506 -12.692   3.991  1.00  0.00     0.062 C 
HETATM    8  C16 UNL     1      17.187 -13.717   2.932  1.00  0.00     0.038 C 
HETATM    9  C17 UNL     1      16.897 -15.065   3.474  1.00  0.00     0.011 C 
HETATM   10  C18 UNL     1      17.104 -15.203   4.948  1.00  0.00     0.023 C 
HETATM   11  C19 UNL     1      17.176 -16.664   5.354  1.00  0.00     0.127 C 
ENDROOT
BRANCH   7  12
HETATM   12  O1  UNL     1      16.368 -12.447   4.753  1.00  0.00    -0.389 OA
ATOM     13  H1  UNL     1      15.571 -12.472   4.237  1.00  0.00     0.210 HD
ENDBRANCH   7  12
BRANCH   7  14
HETATM   14  C10 UNL     1      17.958 -11.399   3.403  1.00  0.00     0.020 C 
HETATM   15  C11 UNL     1      19.409 -11.463   3.042  1.00  0.00     0.010 C 
HETATM   16  C12 UNL     1      20.155 -10.191   3.366  1.00  0.00     0.032 C 
HETATM   17  C13 UNL     1      19.408  -8.951   2.972  1.00  0.00     0.118 C 
HETATM   18  C14 UNL     1      17.966  -8.971   3.419  1.00  0.00     0.032 C 
HETATM   19  C15 UNL     1      17.719 -10.210   4.291  1.00  0.00     0.010 C 
BRANCH  17  20
HETATM   20  O2  UNL     1      19.517  -8.758   1.585  1.00  0.00    -0.396 OA
ATOM     21  H2  UNL     1      19.592  -7.830   1.399  1.00  0.00     0.210 HD
ENDBRANCH  17  20
ENDBRANCH   7  14
BRANCH  11  22
HETATM   22  O3  UNL     1      15.935 -17.224   4.969  1.00  0.00    -0.395 OA
ATOM     23  H3  UNL     1      15.933 -18.127   5.261  1.00  0.00     0.210 HD
ENDBRANCH  11  22
BRANCH   1  24
HETATM   24  C2  UNL     1      17.605 -18.178   7.227  1.00  0.00     0.002 C 
HETATM   25  C1  UNL     1      16.726 -18.631   8.390  1.00  0.00     0.005 C 
ENDBRANCH   1  24
TORSDOF 5
ENDMDL
MODEL 5
REMARK VINA RESULT: -8.685047210      2.116      7.231
REMARK  5 active torsions:
REMARK  status: ('A' for Active; 'I' for Inactive)
REMARK    1  A    between atoms: C2_2  and  C3_3 
REMARK    2  A    between atoms: C9_9  and  O1_10 
REMARK    3  A    between atoms: C9_9  and  C10_12 
REMARK    4  A    between atoms: C13_15  and  O2_16 
REMARK    5  A    between atoms: C19_23  and  O3_24 
ROOT
HETATM    1  C3  UNL     1      18.562  -9.883   4.768  1.00  0.00     0.014 C 
HETATM    2  C4  UNL     1      17.151 -10.154   5.196  1.00  0.00     0.008 C 
HETATM    3  C5  UNL     1      16.995 -11.278   6.151  1.00  0.00     0.010 C 
HETATM    4  C6  UNL     1      17.784 -12.478   5.683  1.00  0.00    -0.035 C 
HETATM    5  C7  UNL     1      17.356 -12.882   4.281  1.00  0.00     0.016 C 
HETATM    6  C8  UNL     1      17.501 -13.615   6.596  1.00  0.00     0.048 C 
HETATM    7  C9  UNL     1      18.708 -14.104   7.363  1.00  0.00     0.062 C 
HETATM    8  C16 UNL     1      19.798 -14.393   6.361  1.00  0.00     0.038 C 
HETATM    9  C17 UNL     1      20.125 -13.244   5.485  1.00  0.00     0.011 C 
HETATM   10  C18 UNL     1      19.233 -12.056   5.655  1.00  0.00     0.023 C 
HETATM   11  C19 UNL     1      19.369 -11.101   4.483  1.00  0.00     0.127 C 
ENDROOT
BRANCH   7  12
HETATM   12  O1  UNL     1      19.168 -13.171   8.287  1.00  0.00    -0.389 OA
ATOM     13  H1  UNL     1      19.411 -13.568   9.115  1.00  0.00     0.210 HD
ENDBRANCH   7  12
BRANCH   7  14
HETATM   14  C10 UNL     1      18.289 -15.326   8.105  1.00  0.00     0.020 C 
HETATM   15  C11 UNL     1      18.362 -16.531   7.220  1.00  0.00     0.010 C 
HETATM   16  C12 UNL     1      17.204 -17.480   7.417  1.00  0.00     0.032 C 
HETATM   17  C13 UNL     1      16.869 -17.713   8.860  1.00  0.00     0.118 C 
HETATM   18  C14 UNL     1      16.779 -16.431   9.653  1.00  0.00     0.032 C 
HETATM   19  C15 UNL     1      16.912 -15.233   8.703  1.00  0.00     0.010 C 
BRANCH  17  20
HETATM   20  O2  UNL     1      17.799 -18.604   9.420  1.00  0.00    -0.396 OA
ATOM     21  H2  UNL     1      18.640 -18.172   9.507  1.00  0.00     0.210 HD
ENDBRANCH  17  20
ENDBRANCH   7  14
BRANCH  11  22
HETATM   22  O3  UNL     1      20.728 -10.707   4.473  1.00  0.00    -0.395 OA
ATOM     23  H3  UNL     1      21.212 -11.383   4.014  1.00  0.00     0.210 HD
ENDBRANCH  11  22
BRANCH   1  24
HETATM   24  C2  UNL     1      18.472  -9.057   3.483  1.00  0.00     0.002 C 
HETATM   25  C1  UNL     1      17.548  -9.751   2.485  1.00  0.00     0.005 C 
ENDBRANCH   1  24
TORSDOF 5
ENDMDL
