MODEL 1
REMARK VINA RESULT: -6.306356269      0.000      0.000
REMARK  7 active torsions:
REMARK  status: ('A' for Active; 'I' for Inactive)
REMARK    1  A    between atoms: C2_2  and  C3_3 
REMARK    2  A    between atoms: C3_3  and  N1_4 
REMARK    3  A    between atoms: N1_4  and  C4_6 
REMARK    4  A    between atoms: C6_11  and  C7_12 
REMARK    5  A    between atoms: C7_12  and  S2_13 
REMARK    6  A    between atoms: S2_13  and  C8_14 
REMARK    7  A    between atoms: C13_20  and  N4_21 
ROOT
HETATM    1  C4  UNL     1      28.736  46.997   8.077  1.00  0.00     0.680 A 
HETATM    2  N2  UNL     1      28.901  45.733   8.496  1.00  0.00    -0.184 N 
ATOM      3  H2  UNL     1      28.157  45.278   9.026  1.00  0.00     0.185 HD
HETATM    4  C5  UNL     1      30.053  45.042   8.221  1.00  0.00     0.106 A 
HETATM    5  S1  UNL     1      30.586  43.464   8.590  1.00  0.00    -0.073 SA
HETATM    6  C6  UNL     1      32.106  43.515   7.851  1.00  0.00     0.016 A 
HETATM    7  C10 UNL     1      32.174  44.779   7.320  1.00  0.00     0.075 A 
HETATM    8  C11 UNL     1      33.411  45.137   6.594  1.00  0.00     0.101 C 
HETATM    9  N3  UNL     1      34.412  45.389   6.017  1.00  0.00    -0.191 NA
HETATM   10  C12 UNL     1      31.096  45.583   7.513  1.00  0.00     0.065 A 
HETATM   11  C13 UNL     1      30.888  46.898   7.096  1.00  0.00     0.134 A 
HETATM   12  N6  UNL     1      29.731  47.539   7.392  1.00  0.00    -0.176 N 
ATOM     13  H6  UNL     1      29.620  48.500   7.066  1.00  0.00     0.186 HD
ENDROOT
BRANCH   6  14
HETATM   14  C7  UNL     1      33.130  42.402   7.815  1.00  0.00     0.121 C 
BRANCH  14  15
HETATM   15  S2  UNL     1      34.052  42.348   9.352  1.00  0.00    -0.164 SA
BRANCH  15  16
HETATM   16  C8  UNL     1      34.968  43.876   9.575  1.00  0.00     0.069 C 
HETATM   17  C9  UNL     1      34.246  44.908  10.400  1.00  0.00     0.016 C 
ENDBRANCH  15  16
ENDBRANCH  14  15
ENDBRANCH   6  14
BRANCH  11  18
HETATM   18  N4  UNL     1      31.795  47.688   6.362  1.00  0.00    -0.363 N 
HETATM   19  C14 UNL     1      32.661  48.623   7.034  1.00  0.00     0.152 C 
HETATM   20  C15 UNL     1      32.441  49.973   6.351  1.00  0.00     0.252 C 
HETATM   21  N5  UNL     1      32.784  49.897   4.953  1.00  0.00    -0.072 N 
HETATM   22  C16 UNL     1      32.970  48.551   4.477  1.00  0.00     0.252 C 
ATOM     23  H52 UNL     1      32.093  50.387   4.386  1.00  0.00     0.277 HD
ATOM     24  H51 UNL     1      33.605  50.467   4.752  1.00  0.00     0.277 HD
HETATM   25  C17 UNL     1      31.833  47.621   4.924  1.00  0.00     0.152 C 
ENDBRANCH  11  18
BRANCH   1  26
HETATM   26  N1  UNL     1      27.668  47.665   8.324  1.00  0.00    -0.226 N 
ATOM     27  H1  UNL     1      27.240  47.513   9.238  1.00  0.00     0.177 HD
BRANCH  26  28
HETATM   28  C3  UNL     1      27.013  48.594   7.465  1.00  0.00     0.137 C 
BRANCH  28  29
HETATM   29  C2  UNL     1      25.532  48.253   7.340  1.00  0.00     0.016 C 
HETATM   30  C1  UNL     1      24.694  49.447   7.011  1.00  0.00     0.006 C 
ENDBRANCH  28  29
ENDBRANCH  26  28
ENDBRANCH   1  26
TORSDOF 7
ENDMDL
MODEL 2
REMARK VINA RESULT: -6.186853432      2.725      4.746
REMARK  7 active torsions:
REMARK  status: ('A' for Active; 'I' for Inactive)
REMARK    1  A    between atoms: C2_2  and  C3_3 
REMARK    2  A    between atoms: C3_3  and  N1_4 
REMARK    3  A    between atoms: N1_4  and  C4_6 
REMARK    4  A    between atoms: C6_11  and  C7_12 
REMARK    5  A    between atoms: C7_12  and  S2_13 
REMARK    6  A    between atoms: S2_13  and  C8_14 
REMARK    7  A    between atoms: C13_20  and  N4_21 
ROOT
HETATM    1  C4  UNL     1      29.898  45.527   7.650  1.00  0.00     0.680 A 
HETATM    2  N2  UNL     1      30.262  46.165   6.526  1.00  0.00    -0.184 N 
ATOM      3  H2  UNL     1      29.583  46.748   6.037  1.00  0.00     0.185 HD
HETATM    4  C5  UNL     1      31.533  46.045   6.025  1.00  0.00     0.106 A 
HETATM    5  S1  UNL     1      32.317  46.697   4.658  1.00  0.00    -0.073 SA
HETATM    6  C6  UNL     1      33.842  45.997   4.864  1.00  0.00     0.016 A 
HETATM    7  C10 UNL     1      33.715  45.257   6.013  1.00  0.00     0.075 A 
HETATM    8  C11 UNL     1      34.906  44.510   6.468  1.00  0.00     0.101 C 
HETATM    9  N3  UNL     1      35.879  43.928   6.804  1.00  0.00    -0.191 NA
HETATM   10  C12 UNL     1      32.502  45.281   6.626  1.00  0.00     0.065 A 
HETATM   11  C13 UNL     1      32.086  44.634   7.789  1.00  0.00     0.134 A 
HETATM   12  N6  UNL     1      30.818  44.784   8.245  1.00  0.00    -0.176 N 
ATOM     13  H6  UNL     1      30.556  44.293   9.101  1.00  0.00     0.186 HD
ENDROOT
BRANCH   6  14
HETATM   14  C7  UNL     1      35.043  46.167   3.961  1.00  0.00     0.121 C 
BRANCH  14  15
HETATM   15  S2  UNL     1      35.813  47.763   4.232  1.00  0.00    -0.164 SA
BRANCH  15  16
HETATM   16  C8  UNL     1      36.464  47.856   5.903  1.00  0.00     0.069 C 
HETATM   17  C9  UNL     1      35.550  48.548   6.879  1.00  0.00     0.016 C 
ENDBRANCH  15  16
ENDBRANCH  14  15
ENDBRANCH   6  14
BRANCH  11  18
HETATM   18  N4  UNL     1      32.874  43.788   8.594  1.00  0.00    -0.363 N 
HETATM   19  C14 UNL     1      33.396  44.254   9.853  1.00  0.00     0.152 C 
HETATM   20  C15 UNL     1      34.903  44.001   9.810  1.00  0.00     0.252 C 
HETATM   21  N5  UNL     1      35.178  42.596   9.650  1.00  0.00    -0.072 N 
HETATM   22  C16 UNL     1      34.021  41.818   9.291  1.00  0.00     0.252 C 
ATOM     23  H52 UNL     1      35.932  42.451   8.978  1.00  0.00     0.277 HD
ATOM     24  H51 UNL     1      35.621  42.218  10.487  1.00  0.00     0.277 HD
HETATM   25  C17 UNL     1      33.226  42.465   8.148  1.00  0.00     0.152 C 
ENDBRANCH  11  18
BRANCH   1  26
HETATM   26  N1  UNL     1      28.714  45.622   8.136  1.00  0.00    -0.226 N 
ATOM     27  H1  UNL     1      28.114  44.803   8.030  1.00  0.00     0.177 HD
BRANCH  26  28
HETATM   28  C3  UNL     1      28.144  46.742   8.806  1.00  0.00     0.137 C 
BRANCH  28  29
HETATM   29  C2  UNL     1      27.096  47.414   7.926  1.00  0.00     0.016 C 
HETATM   30  C1  UNL     1      27.632  48.611   7.208  1.00  0.00     0.006 C 
ENDBRANCH  28  29
ENDBRANCH  26  28
ENDBRANCH   1  26
TORSDOF 7
ENDMDL
MODEL 3
REMARK VINA RESULT: -6.185770225      1.518      1.844
REMARK  7 active torsions:
REMARK  status: ('A' for Active; 'I' for Inactive)
REMARK    1  A    between atoms: C2_2  and  C3_3 
REMARK    2  A    between atoms: C3_3  and  N1_4 
REMARK    3  A    between atoms: N1_4  and  C4_6 
REMARK    4  A    between atoms: C6_11  and  C7_12 
REMARK    5  A    between atoms: C7_12  and  S2_13 
REMARK    6  A    between atoms: S2_13  and  C8_14 
REMARK    7  A    between atoms: C13_20  and  N4_21 
ROOT
HETATM    1  C4  UNL     1      27.202  47.721   8.004  1.00  0.00     0.680 A 
HETATM    2  N2  UNL     1      27.352  46.576   8.688  1.00  0.00    -0.184 N 
ATOM      3  H2  UNL     1      26.539  46.141   9.125  1.00  0.00     0.185 HD
HETATM    4  C5  UNL     1      28.582  45.980   8.807  1.00  0.00     0.106 A 
HETATM    5  S1  UNL     1      29.122  44.560   9.582  1.00  0.00    -0.073 SA
HETATM    6  C6  UNL     1      30.765  44.651   9.191  1.00  0.00     0.016 A 
HETATM    7  C10 UNL     1      30.867  45.802   8.452  1.00  0.00     0.075 A 
HETATM    8  C11 UNL     1      32.209  46.164   7.951  1.00  0.00     0.101 C 
HETATM    9  N3  UNL     1      33.298  46.421   7.565  1.00  0.00    -0.191 NA
HETATM   10  C12 UNL     1      29.720  46.503   8.248  1.00  0.00     0.065 A 
HETATM   11  C13 UNL     1      29.523  47.693   7.547  1.00  0.00     0.134 A 
HETATM   12  N6  UNL     1      28.288  48.243   7.456  1.00  0.00    -0.176 N 
ATOM     13  H6  UNL     1      28.189  49.113   6.933  1.00  0.00     0.186 HD
ENDROOT
BRANCH   6  14
HETATM   14  C7  UNL     1      31.843  43.670   9.594  1.00  0.00     0.121 C 
BRANCH  14  15
HETATM   15  S2  UNL     1      32.363  42.695   8.182  1.00  0.00    -0.164 SA
BRANCH  15  16
HETATM   16  C8  UNL     1      34.141  42.823   7.965  1.00  0.00     0.069 C 
HETATM   17  C9  UNL     1      34.875  43.298   9.192  1.00  0.00     0.016 C 
ENDBRANCH  15  16
ENDBRANCH  14  15
ENDBRANCH   6  14
BRANCH  11  18
HETATM   18  N4  UNL     1      30.519  48.438   6.884  1.00  0.00    -0.363 N 
HETATM   19  C14 UNL     1      31.178  49.533   7.551  1.00  0.00     0.152 C 
HETATM   20  C15 UNL     1      31.033  50.742   6.628  1.00  0.00     0.252 C 
HETATM   21  N5  UNL     1      31.658  50.489   5.355  1.00  0.00    -0.072 N 
HETATM   22  C16 UNL     1      32.008  49.107   5.149  1.00  0.00     0.252 C 
ATOM     23  H52 UNL     1      31.073  50.829   4.592  1.00  0.00     0.277 HD
ATOM     24  H51 UNL     1      32.472  51.090   5.227  1.00  0.00     0.277 HD
HETATM   25  C17 UNL     1      30.855  48.162   5.512  1.00  0.00     0.152 C 
ENDBRANCH  11  18
BRANCH   1  26
HETATM   26  N1  UNL     1      26.062  48.298   7.881  1.00  0.00    -0.226 N 
ATOM     27  H1  UNL     1      25.256  47.794   8.254  1.00  0.00     0.177 HD
BRANCH  26  28
HETATM   28  C3  UNL     1      25.795  49.564   7.284  1.00  0.00     0.137 C 
BRANCH  28  29
HETATM   29  C2  UNL     1      24.342  49.644   6.828  1.00  0.00     0.016 C 
HETATM   30  C1  UNL     1      23.772  48.304   6.490  1.00  0.00     0.006 C 
ENDBRANCH  28  29
ENDBRANCH  26  28
ENDBRANCH   1  26
TORSDOF 7
ENDMDL
MODEL 4
REMARK VINA RESULT: -6.174410625      2.925      7.147
REMARK  7 active torsions:
REMARK  status: ('A' for Active; 'I' for Inactive)
REMARK    1  A    between atoms: C2_2  and  C3_3 
REMARK    2  A    between atoms: C3_3  and  N1_4 
REMARK    3  A    between atoms: N1_4  and  C4_6 
REMARK    4  A    between atoms: C6_11  and  C7_12 
REMARK    5  A    between atoms: C7_12  and  S2_13 
REMARK    6  A    between atoms: S2_13  and  C8_14 
REMARK    7  A    between atoms: C13_20  and  N4_21 
ROOT
HETATM    1  C4  UNL     1      34.786  42.339   9.357  1.00  0.00     0.680 A 
HETATM    2  N2  UNL     1      33.472  42.336   9.630  1.00  0.00    -0.184 N 
ATOM      3  H2  UNL     1      33.103  41.679  10.318  1.00  0.00     0.185 HD
HETATM    4  C5  UNL     1      32.617  43.203   8.998  1.00  0.00     0.106 A 
HETATM    5  S1  UNL     1      30.935  43.466   9.098  1.00  0.00    -0.073 SA
HETATM    6  C6  UNL     1      30.791  44.713   7.965  1.00  0.00     0.016 A 
HETATM    7  C10 UNL     1      32.075  44.907   7.521  1.00  0.00     0.075 A 
HETATM    8  C11 UNL     1      32.283  45.955   6.500  1.00  0.00     0.101 C 
HETATM    9  N3  UNL     1      32.413  46.804   5.686  1.00  0.00    -0.191 NA
HETATM   10  C12 UNL     1      33.037  44.114   8.063  1.00  0.00     0.065 A 
HETATM   11  C13 UNL     1      34.408  44.086   7.807  1.00  0.00     0.134 A 
HETATM   12  N6  UNL     1      35.213  43.211   8.457  1.00  0.00    -0.176 N 
ATOM     13  H6  UNL     1      36.210  43.225   8.240  1.00  0.00     0.186 HD
ENDROOT
BRANCH   6  14
HETATM   14  C7  UNL     1      29.518  45.418   7.556  1.00  0.00     0.121 C 
BRANCH  14  15
HETATM   15  S2  UNL     1      29.182  46.794   8.654  1.00  0.00    -0.164 SA
BRANCH  15  16
HETATM   16  C8  UNL     1      29.666  48.337   7.875  1.00  0.00     0.069 C 
HETATM   17  C9  UNL     1      29.198  48.477   6.450  1.00  0.00     0.016 C 
ENDBRANCH  15  16
ENDBRANCH  14  15
ENDBRANCH   6  14
BRANCH  11  18
HETATM   18  N4  UNL     1      35.097  44.908   6.892  1.00  0.00    -0.363 N 
HETATM   19  C14 UNL     1      35.312  44.472   5.536  1.00  0.00     0.152 C 
HETATM   20  C15 UNL     1      36.814  44.596   5.282  1.00  0.00     0.252 C 
HETATM   21  N5  UNL     1      37.245  45.962   5.438  1.00  0.00    -0.072 N 
HETATM   22  C16 UNL     1      36.259  46.812   6.054  1.00  0.00     0.252 C 
ATOM     23  H52 UNL     1      38.127  46.006   5.948  1.00  0.00     0.277 HD
ATOM     24  H51 UNL     1      37.546  46.349   4.544  1.00  0.00     0.277 HD
HETATM   25  C17 UNL     1      35.651  46.170   7.309  1.00  0.00     0.152 C 
ENDBRANCH  11  18
BRANCH   1  26
HETATM   26  N1  UNL     1      35.605  41.535   9.934  1.00  0.00    -0.226 N 
ATOM     27  H1  UNL     1      36.498  41.932  10.227  1.00  0.00     0.177 HD
BRANCH  26  28
HETATM   28  C3  UNL     1      35.405  40.152  10.210  1.00  0.00     0.137 C 
BRANCH  28  29
HETATM   29  C2  UNL     1      36.424  39.660  11.232  1.00  0.00     0.016 C 
HETATM   30  C1  UNL     1      37.779  39.450  10.637  1.00  0.00     0.006 C 
ENDBRANCH  28  29
ENDBRANCH  26  28
ENDBRANCH   1  26
TORSDOF 7
ENDMDL
MODEL 5
REMARK VINA RESULT: -6.149078089      2.404      6.593
REMARK  7 active torsions:
REMARK  status: ('A' for Active; 'I' for Inactive)
REMARK    1  A    between atoms: C2_2  and  C3_3 
REMARK    2  A    between atoms: C3_3  and  N1_4 
REMARK    3  A    between atoms: N1_4  and  C4_6 
REMARK    4  A    between atoms: C6_11  and  C7_12 
REMARK    5  A    between atoms: C7_12  and  S2_13 
REMARK    6  A    between atoms: S2_13  and  C8_14 
REMARK    7  A    between atoms: C13_20  and  N4_21 
ROOT
HETATM    1  C4  UNL     1      31.173  44.176   8.268  1.00  0.00     0.680 A 
HETATM    2  N2  UNL     1      29.957  44.563   8.686  1.00  0.00    -0.184 N 
ATOM      3  H2  UNL     1      29.445  43.980   9.349  1.00  0.00     0.185 HD
HETATM    4  C5  UNL     1      29.394  45.729   8.237  1.00  0.00     0.106 A 
HETATM    5  S1  UNL     1      27.907  46.506   8.549  1.00  0.00    -0.073 SA
HETATM    6  C6  UNL     1      28.100  47.862   7.558  1.00  0.00     0.016 A 
HETATM    7  C10 UNL     1      29.337  47.686   6.992  1.00  0.00     0.075 A 
HETATM    8  C11 UNL     1      29.803  48.729   6.054  1.00  0.00     0.101 C 
HETATM    9  N3  UNL     1      30.145  49.584   5.312  1.00  0.00    -0.191 NA
HETATM   10  C12 UNL     1      30.020  46.565   7.347  1.00  0.00     0.065 A 
HETATM   11  C13 UNL     1      31.280  46.129   6.936  1.00  0.00     0.134 A 
HETATM   12  N6  UNL     1      31.795  44.968   7.409  1.00  0.00    -0.176 N 
ATOM     13  H6  UNL     1      32.720  44.688   7.083  1.00  0.00     0.186 HD
ENDROOT
BRANCH   6  14
HETATM   14  C7  UNL     1      27.106  48.984   7.361  1.00  0.00     0.121 C 
BRANCH  14  15
HETATM   15  S2  UNL     1      25.429  48.351   7.396  1.00  0.00    -0.164 SA
BRANCH  15  16
HETATM   16  C8  UNL     1      24.266  49.662   7.008  1.00  0.00     0.069 C 
HETATM   17  C9  UNL     1      22.822  49.238   7.064  1.00  0.00     0.016 C 
ENDBRANCH  15  16
ENDBRANCH  14  15
ENDBRANCH   6  14
BRANCH  11  18
HETATM   18  N4  UNL     1      32.130  46.792   6.029  1.00  0.00    -0.363 N 
HETATM   19  C14 UNL     1      32.076  46.489   4.621  1.00  0.00     0.152 C 
HETATM   20  C15 UNL     1      33.506  46.147   4.204  1.00  0.00     0.252 C 
HETATM   21  N5  UNL     1      34.384  47.265   4.437  1.00  0.00    -0.072 N 
HETATM   22  C16 UNL     1      33.797  48.303   5.244  1.00  0.00     0.252 C 
ATOM     23  H52 UNL     1      35.267  46.951   4.840  1.00  0.00     0.277 HD
ATOM     24  H51 UNL     1      34.726  47.645   3.554  1.00  0.00     0.277 HD
HETATM   25  C17 UNL     1      33.110  47.738   6.495  1.00  0.00     0.152 C 
ENDBRANCH  11  18
BRANCH   1  26
HETATM   26  N1  UNL     1      31.719  43.087   8.673  1.00  0.00    -0.226 N 
ATOM     27  H1  UNL     1      31.405  42.731   9.576  1.00  0.00     0.177 HD
BRANCH  26  28
HETATM   28  C3  UNL     1      32.716  42.321   8.002  1.00  0.00     0.137 C 
BRANCH  28  29
HETATM   29  C2  UNL     1      33.853  41.973   8.956  1.00  0.00     0.016 C 
HETATM   30  C1  UNL     1      34.837  43.089   9.107  1.00  0.00     0.006 C 
ENDBRANCH  28  29
ENDBRANCH  26  28
ENDBRANCH   1  26
TORSDOF 7
ENDMDL
