MODEL 1
REMARK VINA RESULT: -5.530262890      0.000      0.000
REMARK  11 active torsions:
REMARK  status: ('A' for Active; 'I' for Inactive)
REMARK    1  A    between atoms: C2_2  and  C16_26 
REMARK    2  A    between atoms: N1_3  and  O1_5 
REMARK    3  A    between atoms: O1_5  and  C3_6 
REMARK    4  A    between atoms: C3_6  and  C4_8 
REMARK    5  A    between atoms: C4_8  and  C5_9 
REMARK    6  A    between atoms: C4_8  and  N2_17 
REMARK    7  A    between atoms: C5_9  and  O2_10 
REMARK    8  A    between atoms: O2_10  and  C6_11 
REMARK    9  A    between atoms: C6_11  and  C7_13 
REMARK       I    between atoms: N2_17  and  C11_19 
REMARK   10  A    between atoms: C11_19  and  O5_21 
REMARK   11  A    between atoms: O5_21  and  C12_22 
ROOT
HETATM    1  C4  UNL     1      31.464  43.975   8.891  1.00  0.00     0.061 C 
ENDROOT
BRANCH   1   2
HETATM    2  C3  UNL     1      31.854  43.421   7.588  1.00  0.00     0.295 C 
HETATM    3 CL1  UNL     1      33.031  42.056   7.951  1.00  0.00    -0.086 Cl
BRANCH   2   4
HETATM    4  O1  UNL     1      32.636  44.357   6.849  1.00  0.00    -0.253 OA
BRANCH   4   5
HETATM    5  N1  UNL     1      33.969  44.194   6.845  1.00  0.00    -0.263 N 
HETATM    6  C2  UNL     1      34.828  44.799   6.118  1.00  0.00     0.104 C 
HETATM    7  C1  UNL     1      36.265  44.416   6.324  1.00  0.00     0.078 C 
ATOM      8  H1  UNL     1      34.339  43.506   7.501  1.00  0.00     0.194 HD
BRANCH   6   9
HETATM    9  C16 UNL     1      34.444  45.805   5.150  1.00  0.00     0.224 C 
HETATM   10  O6  UNL     1      34.433  45.538   3.937  1.00  0.00    -0.643 OA
HETATM   11  O7  UNL     1      34.087  47.073   5.616  1.00  0.00    -0.643 OA
ENDBRANCH   6   9
ENDBRANCH   4   5
ENDBRANCH   2   4
ENDBRANCH   1   2
BRANCH   1  12
HETATM   12  C5  UNL     1      32.214  43.615  10.121  1.00  0.00     0.235 C 
BRANCH  12  13
HETATM   13  O2  UNL     1      33.237  44.367  10.569  1.00  0.00    -0.315 OA
BRANCH  13  14
HETATM   14  C6  UNL     1      34.449  44.698  10.089  1.00  0.00     0.266 C 
HETATM   15  O3  UNL     1      35.171  43.780   9.635  1.00  0.00    -0.264 OA
BRANCH  14  16
HETATM   16  C7  UNL     1      34.973  46.111  10.074  1.00  0.00     0.037 C 
HETATM   17  C8  UNL     1      34.884  46.665  11.479  1.00  0.00     0.025 C 
HETATM   18  C9  UNL     1      34.200  46.997   9.152  1.00  0.00     0.025 C 
HETATM   19  C10 UNL     1      36.443  46.117   9.690  1.00  0.00     0.025 C 
ENDBRANCH  14  16
ENDBRANCH  13  14
ENDBRANCH  12  13
ENDBRANCH   1  12
BRANCH   1  20
HETATM   20  N2  UNL     1      31.171  45.410   8.840  1.00  0.00    -0.304 N 
HETATM   21  C11 UNL     1      29.920  45.947   8.455  1.00  0.00     0.365 C 
HETATM   22  O4  UNL     1      29.006  45.144   8.137  1.00  0.00    -0.238 OA
ATOM     23  H2  UNL     1      31.913  46.060   9.097  1.00  0.00     0.171 HD
BRANCH  21  24
HETATM   24  O5  UNL     1      29.635  47.282   8.403  1.00  0.00    -0.294 OA
BRANCH  24  25
HETATM   25  C12 UNL     1      29.878  48.152   7.347  1.00  0.00     0.061 C 
HETATM   26  C13 UNL     1      30.931  49.172   7.800  1.00  0.00     0.046 C 
HETATM   27  C14 UNL     1      30.457  47.471   6.126  1.00  0.00     0.046 C 
HETATM   28  C15 UNL     1      28.667  48.917   6.916  1.00  0.00     0.046 C 
ENDBRANCH  24  25
ENDBRANCH  21  24
ENDBRANCH   1  20
TORSDOF 11
ENDMDL
MODEL 2
REMARK VINA RESULT: -5.477506833      2.577      6.081
REMARK  11 active torsions:
REMARK  status: ('A' for Active; 'I' for Inactive)
REMARK    1  A    between atoms: C2_2  and  C16_26 
REMARK    2  A    between atoms: N1_3  and  O1_5 
REMARK    3  A    between atoms: O1_5  and  C3_6 
REMARK    4  A    between atoms: C3_6  and  C4_8 
REMARK    5  A    between atoms: C4_8  and  C5_9 
REMARK    6  A    between atoms: C4_8  and  N2_17 
REMARK    7  A    between atoms: C5_9  and  O2_10 
REMARK    8  A    between atoms: O2_10  and  C6_11 
REMARK    9  A    between atoms: C6_11  and  C7_13 
REMARK       I    between atoms: N2_17  and  C11_19 
REMARK   10  A    between atoms: C11_19  and  O5_21 
REMARK   11  A    between atoms: O5_21  and  C12_22 
ROOT
HETATM    1  C4  UNL     1      30.140  45.961   8.212  1.00  0.00     0.061 C 
ENDROOT
BRANCH   1   2
HETATM    2  C3  UNL     1      29.241  46.623   9.166  1.00  0.00     0.295 C 
HETATM    3 CL1  UNL     1      27.749  45.555   9.279  1.00  0.00    -0.086 Cl
BRANCH   2   4
HETATM    4  O1  UNL     1      28.744  47.848   8.633  1.00  0.00    -0.253 OA
BRANCH   4   5
HETATM    5  N1  UNL     1      27.444  47.903   8.298  1.00  0.00    -0.263 N 
HETATM    6  C2  UNL     1      26.890  48.672   7.441  1.00  0.00     0.104 C 
HETATM    7  C1  UNL     1      25.407  48.519   7.267  1.00  0.00     0.078 C 
ATOM      8  H1  UNL     1      26.827  47.253   8.785  1.00  0.00     0.194 HD
BRANCH   6   9
HETATM    9  C16 UNL     1      27.646  49.639   6.673  1.00  0.00     0.224 C 
HETATM   10  O6  UNL     1      27.424  50.854   6.798  1.00  0.00    -0.643 OA
HETATM   11  O7  UNL     1      28.627  49.168   5.796  1.00  0.00    -0.643 OA
ENDBRANCH   6   9
ENDBRANCH   4   5
ENDBRANCH   2   4
ENDBRANCH   1   2
BRANCH   1  12
HETATM   12  C5  UNL     1      30.505  46.622   6.933  1.00  0.00     0.235 C 
BRANCH  12  13
HETATM   13  O2  UNL     1      31.655  47.309   6.797  1.00  0.00    -0.315 OA
BRANCH  13  14
HETATM   14  C6  UNL     1      32.358  48.143   7.585  1.00  0.00     0.266 C 
HETATM   15  O3  UNL     1      31.740  49.075   8.149  1.00  0.00    -0.264 OA
BRANCH  14  16
HETATM   16  C7  UNL     1      33.841  48.007   7.815  1.00  0.00     0.037 C 
HETATM   17  C8  UNL     1      34.348  46.852   6.979  1.00  0.00     0.025 C 
HETATM   18  C9  UNL     1      34.175  47.752   9.250  1.00  0.00     0.025 C 
HETATM   19  C10 UNL     1      34.559  49.253   7.328  1.00  0.00     0.025 C 
ENDBRANCH  14  16
ENDBRANCH  13  14
ENDBRANCH  12  13
ENDBRANCH   1  12
BRANCH   1  20
HETATM   20  N2  UNL     1      31.307  45.348   8.854  1.00  0.00    -0.304 N 
HETATM   21  C11 UNL     1      31.429  43.962   9.111  1.00  0.00     0.365 C 
HETATM   22  O4  UNL     1      30.480  43.212   8.769  1.00  0.00    -0.238 OA
ATOM     23  H2  UNL     1      32.076  45.957   9.131  1.00  0.00     0.171 HD
BRANCH  21  24
HETATM   24  O5  UNL     1      32.511  43.380   9.707  1.00  0.00    -0.294 OA
BRANCH  24  25
HETATM   25  C12 UNL     1      33.731  43.071   9.116  1.00  0.00     0.061 C 
HETATM   26  C13 UNL     1      34.779  44.062   9.637  1.00  0.00     0.046 C 
HETATM   27  C14 UNL     1      34.244  41.694   9.478  1.00  0.00     0.046 C 
HETATM   28  C15 UNL     1      33.713  43.177   7.625  1.00  0.00     0.046 C 
ENDBRANCH  24  25
ENDBRANCH  21  24
ENDBRANCH   1  20
TORSDOF 11
ENDMDL
MODEL 3
REMARK VINA RESULT: -5.371833445      2.375      4.376
REMARK  11 active torsions:
REMARK  status: ('A' for Active; 'I' for Inactive)
REMARK    1  A    between atoms: C2_2  and  C16_26 
REMARK    2  A    between atoms: N1_3  and  O1_5 
REMARK    3  A    between atoms: O1_5  and  C3_6 
REMARK    4  A    between atoms: C3_6  and  C4_8 
REMARK    5  A    between atoms: C4_8  and  C5_9 
REMARK    6  A    between atoms: C4_8  and  N2_17 
REMARK    7  A    between atoms: C5_9  and  O2_10 
REMARK    8  A    between atoms: O2_10  and  C6_11 
REMARK    9  A    between atoms: C6_11  and  C7_13 
REMARK       I    between atoms: N2_17  and  C11_19 
REMARK   10  A    between atoms: C11_19  and  O5_21 
REMARK   11  A    between atoms: O5_21  and  C12_22 
ROOT
HETATM    1  C4  UNL     1      33.048  47.332   6.741  1.00  0.00     0.061 C 
ENDROOT
BRANCH   1   2
HETATM    2  C3  UNL     1      33.973  48.438   7.021  1.00  0.00     0.295 C 
HETATM    3 CL1  UNL     1      35.453  48.137   5.973  1.00  0.00    -0.086 Cl
BRANCH   2   4
HETATM    4  O1  UNL     1      34.475  48.358   8.353  1.00  0.00    -0.253 OA
BRANCH   4   5
HETATM    5  N1  UNL     1      35.575  47.616   8.563  1.00  0.00    -0.263 N 
HETATM    6  C2  UNL     1      35.743  46.695   9.433  1.00  0.00     0.104 C 
HETATM    7  C1  UNL     1      37.086  46.024   9.446  1.00  0.00     0.078 C 
ATOM      8  H1  UNL     1      36.371  47.810   7.955  1.00  0.00     0.194 HD
BRANCH   6   9
HETATM    9  C16 UNL     1      34.696  46.311  10.357  1.00  0.00     0.224 C 
HETATM   10  O6  UNL     1      33.621  45.854   9.934  1.00  0.00    -0.643 OA
HETATM   11  O7  UNL     1      34.929  46.466  11.726  1.00  0.00    -0.643 OA
ENDBRANCH   6   9
ENDBRANCH   4   5
ENDBRANCH   2   4
ENDBRANCH   1   2
BRANCH   1  12
HETATM   12  C5  UNL     1      33.565  45.991   6.364  1.00  0.00     0.235 C 
BRANCH  12  13
HETATM   13  O2  UNL     1      33.031  44.862   6.866  1.00  0.00    -0.315 OA
BRANCH  13  14
HETATM   14  C6  UNL     1      33.533  43.704   7.333  1.00  0.00     0.266 C 
HETATM   15  O3  UNL     1      34.673  43.361   6.942  1.00  0.00    -0.264 OA
BRANCH  14  16
HETATM   16  C7  UNL     1      32.793  42.811   8.295  1.00  0.00     0.037 C 
HETATM   17  C8  UNL     1      32.219  41.647   7.516  1.00  0.00     0.025 C 
HETATM   18  C9  UNL     1      31.680  43.523   8.995  1.00  0.00     0.025 C 
HETATM   19  C10 UNL     1      33.758  42.229   9.312  1.00  0.00     0.025 C 
ENDBRANCH  14  16
ENDBRANCH  13  14
ENDBRANCH  12  13
ENDBRANCH   1  12
BRANCH   1  20
HETATM   20  N2  UNL     1      31.958  47.233   7.716  1.00  0.00    -0.304 N 
HETATM   21  C11 UNL     1      30.649  47.719   7.487  1.00  0.00     0.365 C 
HETATM   22  O4  UNL     1      30.407  48.268   6.382  1.00  0.00    -0.238 OA
ATOM     23  H2  UNL     1      32.155  46.789   8.612  1.00  0.00     0.171 HD
BRANCH  21  24
HETATM   24  O5  UNL     1      29.626  47.634   8.388  1.00  0.00    -0.294 OA
BRANCH  24  25
HETATM   25  C12 UNL     1      28.696  46.607   8.507  1.00  0.00     0.061 C 
HETATM   26  C13 UNL     1      27.330  47.145   8.061  1.00  0.00     0.046 C 
HETATM   27  C14 UNL     1      28.989  45.422   7.612  1.00  0.00     0.046 C 
HETATM   28  C15 UNL     1      28.545  46.100   9.906  1.00  0.00     0.046 C 
ENDBRANCH  24  25
ENDBRANCH  21  24
ENDBRANCH   1  20
TORSDOF 11
ENDMDL
MODEL 4
REMARK VINA RESULT: -5.358790266      2.554      6.458
REMARK  11 active torsions:
REMARK  status: ('A' for Active; 'I' for Inactive)
REMARK    1  A    between atoms: C2_2  and  C16_26 
REMARK    2  A    between atoms: N1_3  and  O1_5 
REMARK    3  A    between atoms: O1_5  and  C3_6 
REMARK    4  A    between atoms: C3_6  and  C4_8 
REMARK    5  A    between atoms: C4_8  and  C5_9 
REMARK    6  A    between atoms: C4_8  and  N2_17 
REMARK    7  A    between atoms: C5_9  and  O2_10 
REMARK    8  A    between atoms: O2_10  and  C6_11 
REMARK    9  A    between atoms: C6_11  and  C7_13 
REMARK       I    between atoms: N2_17  and  C11_19 
REMARK   10  A    between atoms: C11_19  and  O5_21 
REMARK   11  A    between atoms: O5_21  and  C12_22 
ROOT
HETATM    1  C4  UNL     1      34.537  46.760   8.818  1.00  0.00     0.061 C 
ENDROOT
BRANCH   1   2
HETATM    2  C3  UNL     1      33.778  46.292   9.984  1.00  0.00     0.295 C 
HETATM    3 CL1  UNL     1      34.848  46.613  11.445  1.00  0.00    -0.086 Cl
BRANCH   2   4
HETATM    4  O1  UNL     1      33.641  44.873   9.968  1.00  0.00    -0.253 OA
BRANCH   4   5
HETATM    5  N1  UNL     1      32.502  44.361   9.472  1.00  0.00    -0.263 N 
HETATM    6  C2  UNL     1      32.363  43.310   8.758  1.00  0.00     0.104 C 
HETATM    7  C1  UNL     1      30.964  42.967   8.338  1.00  0.00     0.078 C 
ATOM      8  H1  UNL     1      31.647  44.871   9.692  1.00  0.00     0.194 HD
BRANCH   6   9
HETATM    9  C16 UNL     1      33.491  42.485   8.377  1.00  0.00     0.224 C 
HETATM   10  O6  UNL     1      34.009  42.609   7.254  1.00  0.00    -0.643 OA
HETATM   11  O7  UNL     1      33.977  41.556   9.300  1.00  0.00    -0.643 OA
ENDBRANCH   6   9
ENDBRANCH   4   5
ENDBRANCH   2   4
ENDBRANCH   1   2
BRANCH   1  12
HETATM   12  C5  UNL     1      34.066  47.924   8.026  1.00  0.00     0.235 C 
BRANCH  12  13
HETATM   13  O2  UNL     1      32.902  47.893   7.350  1.00  0.00    -0.315 OA
BRANCH  13  14
HETATM   14  C6  UNL     1      31.617  48.139   7.665  1.00  0.00     0.266 C 
HETATM   15  O3  UNL     1      31.364  49.179   8.318  1.00  0.00    -0.264 OA
BRANCH  14  16
HETATM   16  C7  UNL     1      30.481  47.230   7.273  1.00  0.00     0.037 C 
HETATM   17  C8  UNL     1      29.447  48.054   6.537  1.00  0.00     0.025 C 
HETATM   18  C9  UNL     1      29.835  46.581   8.454  1.00  0.00     0.025 C 
HETATM   19  C10 UNL     1      30.974  46.171   6.302  1.00  0.00     0.025 C 
ENDBRANCH  14  16
ENDBRANCH  13  14
ENDBRANCH  12  13
ENDBRANCH   1  12
BRANCH   1  20
HETATM   20  N2  UNL     1      35.982  46.825   9.061  1.00  0.00    -0.304 N 
HETATM   21  C11 UNL     1      36.889  45.802   8.697  1.00  0.00     0.365 C 
HETATM   22  O4  UNL     1      36.430  44.778   8.132  1.00  0.00    -0.238 OA
ATOM     23  H2  UNL     1      36.354  47.656   9.520  1.00  0.00     0.171 HD
BRANCH  21  24
HETATM   24  O5  UNL     1      38.237  45.851   8.918  1.00  0.00    -0.294 OA
BRANCH  24  25
HETATM   25  C12 UNL     1      39.195  46.474   8.128  1.00  0.00     0.061 C 
HETATM   26  C13 UNL     1      40.553  45.822   8.419  1.00  0.00     0.046 C 
HETATM   27  C14 UNL     1      38.959  46.299   6.643  1.00  0.00     0.046 C 
HETATM   28  C15 UNL     1      39.332  47.938   8.401  1.00  0.00     0.046 C 
ENDBRANCH  24  25
ENDBRANCH  21  24
ENDBRANCH   1  20
TORSDOF 11
ENDMDL
MODEL 5
REMARK VINA RESULT: -5.355398099      2.830      4.605
REMARK  11 active torsions:
REMARK  status: ('A' for Active; 'I' for Inactive)
REMARK    1  A    between atoms: C2_2  and  C16_26 
REMARK    2  A    between atoms: N1_3  and  O1_5 
REMARK    3  A    between atoms: O1_5  and  C3_6 
REMARK    4  A    between atoms: C3_6  and  C4_8 
REMARK    5  A    between atoms: C4_8  and  C5_9 
REMARK    6  A    between atoms: C4_8  and  N2_17 
REMARK    7  A    between atoms: C5_9  and  O2_10 
REMARK    8  A    between atoms: O2_10  and  C6_11 
REMARK    9  A    between atoms: C6_11  and  C7_13 
REMARK       I    between atoms: N2_17  and  C11_19 
REMARK   10  A    between atoms: C11_19  and  O5_21 
REMARK   11  A    between atoms: O5_21  and  C12_22 
ROOT
HETATM    1  C4  UNL     1      35.053  45.655   9.106  1.00  0.00     0.061 C 
ENDROOT
BRANCH   1   2
HETATM    2  C3  UNL     1      36.045  44.699   8.596  1.00  0.00     0.295 C 
HETATM    3 CL1  UNL     1      37.481  45.707   8.046  1.00  0.00    -0.086 Cl
BRANCH   2   4
HETATM    4  O1  UNL     1      35.586  44.077   7.399  1.00  0.00    -0.253 OA
BRANCH   4   5
HETATM    5  N1  UNL     1      34.770  44.784   6.600  1.00  0.00    -0.263 N 
HETATM    6  C2  UNL     1      34.985  45.156   5.396  1.00  0.00     0.104 C 
HETATM    7  C1  UNL     1      33.892  45.944   4.735  1.00  0.00     0.078 C 
ATOM      8  H1  UNL     1      33.873  45.056   7.001  1.00  0.00     0.194 HD
BRANCH   6   9
HETATM    9  C16 UNL     1      36.214  44.834   4.700  1.00  0.00     0.224 C 
HETATM   10  O6  UNL     1      37.096  45.696   4.550  1.00  0.00    -0.643 OA
HETATM   11  O7  UNL     1      36.376  43.537   4.207  1.00  0.00    -0.643 OA
ENDBRANCH   6   9
ENDBRANCH   4   5
ENDBRANCH   2   4
ENDBRANCH   1   2
BRANCH   1  12
HETATM   12  C5  UNL     1      34.303  45.372  10.356  1.00  0.00     0.235 C 
BRANCH  12  13
HETATM   13  O2  UNL     1      33.217  44.576  10.363  1.00  0.00    -0.315 OA
BRANCH  13  14
HETATM   14  C6  UNL     1      32.794  43.545   9.609  1.00  0.00     0.266 C 
HETATM   15  O3  UNL     1      33.473  42.492   9.625  1.00  0.00    -0.264 OA
BRANCH  14  16
HETATM   16  C7  UNL     1      31.554  43.600   8.756  1.00  0.00     0.037 C 
HETATM   17  C8  UNL     1      31.539  42.379   7.862  1.00  0.00     0.025 C 
HETATM   18  C9  UNL     1      31.501  44.827   7.903  1.00  0.00     0.025 C 
HETATM   19  C10 UNL     1      30.316  43.521   9.631  1.00  0.00     0.025 C 
ENDBRANCH  14  16
ENDBRANCH  13  14
ENDBRANCH  12  13
ENDBRANCH   1  12
BRANCH   1  20
HETATM   20  N2  UNL     1      35.519  47.044   9.061  1.00  0.00    -0.304 N 
HETATM   21  C11 UNL     1      34.896  48.060   8.298  1.00  0.00     0.365 C 
HETATM   22  O4  UNL     1      33.884  47.752   7.618  1.00  0.00    -0.238 OA
ATOM     23  H2  UNL     1      36.340  47.293   9.611  1.00  0.00     0.171 HD
BRANCH  21  24
HETATM   24  O5  UNL     1      35.320  49.357   8.247  1.00  0.00    -0.294 OA
BRANCH  24  25
HETATM   25  C12 UNL     1      36.085  49.953   7.251  1.00  0.00     0.061 C 
HETATM   26  C13 UNL     1      37.010  50.984   7.911  1.00  0.00     0.046 C 
HETATM   27  C14 UNL     1      36.993  48.982   6.527  1.00  0.00     0.046 C 
HETATM   28  C15 UNL     1      35.270  50.672   6.224  1.00  0.00     0.046 C 
ENDBRANCH  24  25
ENDBRANCH  21  24
ENDBRANCH   1  20
TORSDOF 11
ENDMDL
