MODEL 1
REMARK VINA RESULT: -6.353823874      0.000      0.000
REMARK  9 active torsions:
REMARK  status: ('A' for Active; 'I' for Inactive)
REMARK    1  A    between atoms: C2_2  and  C3_3 
REMARK    2  A    between atoms: C3_3  and  N1_4 
REMARK    3  A    between atoms: C6_7  and  C7_8 
REMARK    4  A    between atoms: C8_9  and  O1_10 
REMARK    5  A    between atoms: C11_14  and  O2_15 
REMARK    6  A    between atoms: N2_17  and  C12_18 
REMARK    7  A    between atoms: C13_20  and  C14_21 
REMARK    8  A    between atoms: C14_21  and  O4_23 
REMARK    9  A    between atoms: O4_23  and  C15_24 
ROOT
HETATM    1  C7  UNL     1      30.692  47.628   7.607  1.00  0.00     0.069 A 
HETATM    2  C8  UNL     1      29.423  47.258   8.022  1.00  0.00     0.091 A 
HETATM    3  C9  UNL     1      29.207  46.090   8.681  1.00  0.00     0.024 A 
HETATM    4  C10 UNL     1      27.824  45.753   9.117  1.00  0.00     0.056 C 
HETATM    5  C11 UNL     1      30.243  45.211   8.971  1.00  0.00     0.159 A 
HETATM    6  N2  UNL     1      31.475  45.542   8.580  1.00  0.00    -0.247 N 
HETATM    7  C17 UNL     1      31.686  46.719   7.923  1.00  0.00     0.268 A 
HETATM    8  O5  UNL     1      32.856  47.011   7.572  1.00  0.00    -0.267 OA
ENDROOT
BRANCH   1   9
HETATM    9  C6  UNL     1      30.885  48.795   6.712  1.00  0.00    -0.055 C 
HETATM   10  C5  UNL     1      30.938  50.056   7.455  1.00  0.00     0.079 C 
HETATM   11  C4  UNL     1      30.406  51.255   6.736  1.00  0.00     0.062 C 
HETATM   12  N1  UNL     1      29.738  51.117   5.534  1.00  0.00    -0.389 N 
HETATM   13  C19 UNL     1      29.324  49.847   5.050  1.00  0.00     0.126 C 
HETATM   14  C18 UNL     1      30.195  48.693   5.422  1.00  0.00     0.055 C 
BRANCH  12  15
HETATM   15  C3  UNL     1      30.146  52.013   4.463  1.00  0.00     0.148 C 
BRANCH  15  16
HETATM   16  C2  UNL     1      31.609  52.196   4.454  1.00  0.00    -0.018 C 
HETATM   17  C1  UNL     1      32.418  51.460   3.663  1.00  0.00     0.008 C 
ENDBRANCH  15  16
ENDBRANCH  12  15
ENDBRANCH   1   9
BRANCH   2  18
HETATM   18  O1  UNL     1      28.357  48.085   7.767  1.00  0.00    -0.359 OA
ATOM     19  H1  UNL     1      27.597  48.062   8.336  1.00  0.00     0.217 HD
ENDBRANCH   2  18
BRANCH   6  20
HETATM   20  C12 UNL     1      32.556  44.626   8.721  1.00  0.00     0.120 C 
HETATM   21 CL1  UNL     1      33.579  44.854  10.163  1.00  0.00    -0.064 Cl
HETATM   22  C13 UNL     1      32.916  43.666   7.938  1.00  0.00     0.125 C 
BRANCH  22  23
HETATM   23  C14 UNL     1      34.031  42.790   8.178  1.00  0.00     0.285 C 
HETATM   24  O3  UNL     1      35.157  42.965   7.588  1.00  0.00    -0.260 OA
BRANCH  23  25
HETATM   25  O4  UNL     1      33.955  41.731   9.060  1.00  0.00    -0.318 OA
BRANCH  25  26
HETATM   26  C15 UNL     1      35.070  41.293   9.801  1.00  0.00     0.174 C 
HETATM   27  C16 UNL     1      34.816  39.891  10.331  1.00  0.00     0.034 C 
ENDBRANCH  25  26
ENDBRANCH  23  25
ENDBRANCH  22  23
ENDBRANCH   6  20
BRANCH   5  28
HETATM   28  O2  UNL     1      29.911  44.056   9.652  1.00  0.00    -0.345 OA
ATOM     29  H2  UNL     1      29.515  43.358   9.144  1.00  0.00     0.219 HD
ENDBRANCH   5  28
TORSDOF 9
ENDMDL
MODEL 2
REMARK VINA RESULT: -6.339564376      2.521      7.434
REMARK  9 active torsions:
REMARK  status: ('A' for Active; 'I' for Inactive)
REMARK    1  A    between atoms: C2_2  and  C3_3 
REMARK    2  A    between atoms: C3_3  and  N1_4 
REMARK    3  A    between atoms: C6_7  and  C7_8 
REMARK    4  A    between atoms: C8_9  and  O1_10 
REMARK    5  A    between atoms: C11_14  and  O2_15 
REMARK    6  A    between atoms: N2_17  and  C12_18 
REMARK    7  A    between atoms: C13_20  and  C14_21 
REMARK    8  A    between atoms: C14_21  and  O4_23 
REMARK    9  A    between atoms: O4_23  and  C15_24 
ROOT
HETATM    1  C7  UNL     1      31.076  44.658   8.754  1.00  0.00     0.069 A 
HETATM    2  C8  UNL     1      29.832  44.501   9.344  1.00  0.00     0.091 A 
HETATM    3  C9  UNL     1      28.864  45.444   9.213  1.00  0.00     0.024 A 
HETATM    4  C10 UNL     1      27.541  45.213   9.856  1.00  0.00     0.056 C 
HETATM    5  C11 UNL     1      29.071  46.609   8.485  1.00  0.00     0.159 A 
HETATM    6  N2  UNL     1      30.262  46.786   7.909  1.00  0.00    -0.247 N 
HETATM    7  C17 UNL     1      31.228  45.833   8.040  1.00  0.00     0.268 A 
HETATM    8  O5  UNL     1      32.337  46.020   7.482  1.00  0.00    -0.267 OA
ENDROOT
BRANCH   1   9
HETATM    9  C6  UNL     1      32.187  43.728   9.074  1.00  0.00    -0.055 C 
HETATM   10  C5  UNL     1      33.189  44.346   9.946  1.00  0.00     0.079 C 
HETATM   11  C4  UNL     1      34.596  43.873   9.755  1.00  0.00     0.062 C 
HETATM   12  N1  UNL     1      34.926  43.056   8.691  1.00  0.00    -0.389 N 
HETATM   13  C19 UNL     1      34.023  42.822   7.620  1.00  0.00     0.126 C 
HETATM   14  C18 UNL     1      32.573  42.838   7.975  1.00  0.00     0.055 C 
BRANCH  12  15
HETATM   15  C3  UNL     1      35.731  41.886   9.003  1.00  0.00     0.148 C 
BRANCH  15  16
HETATM   16  C2  UNL     1      35.043  41.011   9.971  1.00  0.00    -0.018 C 
HETATM   17  C1  UNL     1      35.706  40.086  10.696  1.00  0.00     0.008 C 
ENDBRANCH  15  16
ENDBRANCH  12  15
ENDBRANCH   1   9
BRANCH   2  18
HETATM   18  O1  UNL     1      29.566  43.370  10.076  1.00  0.00    -0.359 OA
ATOM     19  H1  UNL     1      28.695  43.235  10.431  1.00  0.00     0.217 HD
ENDBRANCH   2  18
BRANCH   6  20
HETATM   20  C12 UNL     1      30.586  48.016   7.268  1.00  0.00     0.120 C 
HETATM   21 CL1  UNL     1      30.240  48.089   5.520  1.00  0.00    -0.064 Cl
HETATM   22  C13 UNL     1      31.118  49.078   7.768  1.00  0.00     0.125 C 
BRANCH  22  23
HETATM   23  C14 UNL     1      31.403  50.277   7.026  1.00  0.00     0.285 C 
HETATM   24  O3  UNL     1      30.669  51.323   7.140  1.00  0.00    -0.260 OA
BRANCH  23  25
HETATM   25  O4  UNL     1      32.481  50.370   6.168  1.00  0.00    -0.318 OA
BRANCH  25  26
HETATM   26  C15 UNL     1      33.706  49.729   6.434  1.00  0.00     0.174 C 
HETATM   27  C16 UNL     1      33.975  48.673   5.375  1.00  0.00     0.034 C 
ENDBRANCH  25  26
ENDBRANCH  23  25
ENDBRANCH  22  23
ENDBRANCH   6  20
BRANCH   5  28
HETATM   28  O2  UNL     1      28.015  47.495   8.412  1.00  0.00    -0.345 OA
ATOM     29  H2  UNL     1      28.228  48.421   8.442  1.00  0.00     0.219 HD
ENDBRANCH   5  28
TORSDOF 9
ENDMDL
MODEL 3
REMARK VINA RESULT: -6.332543770      2.528      8.156
REMARK  9 active torsions:
REMARK  status: ('A' for Active; 'I' for Inactive)
REMARK    1  A    between atoms: C2_2  and  C3_3 
REMARK    2  A    between atoms: C3_3  and  N1_4 
REMARK    3  A    between atoms: C6_7  and  C7_8 
REMARK    4  A    between atoms: C8_9  and  O1_10 
REMARK    5  A    between atoms: C11_14  and  O2_15 
REMARK    6  A    between atoms: N2_17  and  C12_18 
REMARK    7  A    between atoms: C13_20  and  C14_21 
REMARK    8  A    between atoms: C14_21  and  O4_23 
REMARK    9  A    between atoms: O4_23  and  C15_24 
ROOT
HETATM    1  C7  UNL     1      31.083  45.596   8.020  1.00  0.00     0.069 A 
HETATM    2  C8  UNL     1      29.928  45.274   8.715  1.00  0.00     0.091 A 
HETATM    3  C9  UNL     1      28.864  46.118   8.745  1.00  0.00     0.024 A 
HETATM    4  C10 UNL     1      27.643  45.712   9.494  1.00  0.00     0.056 C 
HETATM    5  C11 UNL     1      28.880  47.340   8.084  1.00  0.00     0.159 A 
HETATM    6  N2  UNL     1      29.982  47.675   7.411  1.00  0.00    -0.247 N 
HETATM    7  C17 UNL     1      31.046  46.821   7.380  1.00  0.00     0.268 A 
HETATM    8  O5  UNL     1      32.068  47.156   6.732  1.00  0.00    -0.267 OA
ENDROOT
BRANCH   1   9
HETATM    9  C6  UNL     1      32.307  44.769   8.165  1.00  0.00    -0.055 C 
HETATM   10  C5  UNL     1      32.150  43.443   7.562  1.00  0.00     0.079 C 
HETATM   11  C4  UNL     1      32.912  42.337   8.222  1.00  0.00     0.062 C 
HETATM   12  N1  UNL     1      33.551  42.544   9.429  1.00  0.00    -0.389 N 
HETATM   13  C19 UNL     1      33.328  43.715  10.203  1.00  0.00     0.126 C 
HETATM   14  C18 UNL     1      33.022  44.956   9.431  1.00  0.00     0.055 C 
BRANCH  12  15
HETATM   15  C3  UNL     1      34.924  42.073   9.521  1.00  0.00     0.148 C 
BRANCH  15  16
HETATM   16  C2  UNL     1      34.974  40.664   9.952  1.00  0.00    -0.018 C 
HETATM   17  C1  UNL     1      36.002  40.172  10.674  1.00  0.00     0.008 C 
ENDBRANCH  15  16
ENDBRANCH  12  15
ENDBRANCH   1   9
BRANCH   2  18
HETATM   18  O1  UNL     1      29.850  44.080   9.387  1.00  0.00    -0.359 OA
ATOM     19  H1  UNL     1      29.664  44.076  10.319  1.00  0.00     0.217 HD
ENDBRANCH   2  18
BRANCH   6  20
HETATM   20  C12 UNL     1      30.117  48.968   6.830  1.00  0.00     0.120 C 
HETATM   21 CL1  UNL     1      29.275  49.209   5.277  1.00  0.00    -0.064 Cl
HETATM   22  C13 UNL     1      30.785  49.985   7.256  1.00  0.00     0.125 C 
BRANCH  22  23
HETATM   23  C14 UNL     1      30.852  51.257   6.588  1.00  0.00     0.285 C 
HETATM   24  O3  UNL     1      31.674  51.463   5.625  1.00  0.00    -0.260 OA
BRANCH  23  25
HETATM   25  O4  UNL     1      30.033  52.313   6.937  1.00  0.00    -0.318 OA
BRANCH  25  26
HETATM   26  C15 UNL     1      29.000  52.768   6.094  1.00  0.00     0.174 C 
HETATM   27  C16 UNL     1      27.666  52.223   6.576  1.00  0.00     0.034 C 
ENDBRANCH  25  26
ENDBRANCH  23  25
ENDBRANCH  22  23
ENDBRANCH   6  20
BRANCH   5  28
HETATM   28  O2  UNL     1      27.740  48.115   8.176  1.00  0.00    -0.345 OA
ATOM     29  H2  UNL     1      27.752  48.951   7.725  1.00  0.00     0.219 HD
ENDBRANCH   5  28
TORSDOF 9
ENDMDL
MODEL 4
REMARK VINA RESULT: -6.316058938      2.461      7.827
REMARK  9 active torsions:
REMARK  status: ('A' for Active; 'I' for Inactive)
REMARK    1  A    between atoms: C2_2  and  C3_3 
REMARK    2  A    between atoms: C3_3  and  N1_4 
REMARK    3  A    between atoms: C6_7  and  C7_8 
REMARK    4  A    between atoms: C8_9  and  O1_10 
REMARK    5  A    between atoms: C11_14  and  O2_15 
REMARK    6  A    between atoms: N2_17  and  C12_18 
REMARK    7  A    between atoms: C13_20  and  C14_21 
REMARK    8  A    between atoms: C14_21  and  O4_23 
REMARK    9  A    between atoms: O4_23  and  C15_24 
ROOT
HETATM    1  C7  UNL     1      31.115  45.581   8.005  1.00  0.00     0.069 A 
HETATM    2  C8  UNL     1      29.968  45.278   8.720  1.00  0.00     0.091 A 
HETATM    3  C9  UNL     1      28.912  46.132   8.757  1.00  0.00     0.024 A 
HETATM    4  C10 UNL     1      27.699  45.745   9.529  1.00  0.00     0.056 C 
HETATM    5  C11 UNL     1      28.929  47.347   8.082  1.00  0.00     0.159 A 
HETATM    6  N2  UNL     1      30.024  47.664   7.389  1.00  0.00    -0.247 N 
HETATM    7  C17 UNL     1      31.079  46.800   7.352  1.00  0.00     0.268 A 
HETATM    8  O5  UNL     1      32.095  47.118   6.686  1.00  0.00    -0.267 OA
ENDROOT
BRANCH   1   9
HETATM    9  C6  UNL     1      32.333  44.745   8.141  1.00  0.00    -0.055 C 
HETATM   10  C5  UNL     1      32.156  43.414   7.556  1.00  0.00     0.079 C 
HETATM   11  C4  UNL     1      32.917  42.308   8.217  1.00  0.00     0.062 C 
HETATM   12  N1  UNL     1      33.576  42.523   9.412  1.00  0.00    -0.389 N 
HETATM   13  C19 UNL     1      33.376  43.705  10.175  1.00  0.00     0.126 C 
HETATM   14  C18 UNL     1      33.069  44.940   9.394  1.00  0.00     0.055 C 
BRANCH  12  15
HETATM   15  C3  UNL     1      34.946  42.040   9.488  1.00  0.00     0.148 C 
BRANCH  15  16
HETATM   16  C2  UNL     1      34.991  40.644   9.962  1.00  0.00    -0.018 C 
HETATM   17  C1  UNL     1      36.016  40.172  10.701  1.00  0.00     0.008 C 
ENDBRANCH  15  16
ENDBRANCH  12  15
ENDBRANCH   1   9
BRANCH   2  18
HETATM   18  O1  UNL     1      29.889  44.092   9.407  1.00  0.00    -0.359 OA
ATOM     19  H1  UNL     1      29.113  43.896   9.919  1.00  0.00     0.217 HD
ENDBRANCH   2  18
BRANCH   6  20
HETATM   20  C12 UNL     1      30.162  48.949   6.792  1.00  0.00     0.120 C 
HETATM   21 CL1  UNL     1      29.303  49.179   5.246  1.00  0.00    -0.064 Cl
HETATM   22  C13 UNL     1      30.843  49.965   7.199  1.00  0.00     0.125 C 
BRANCH  22  23
HETATM   23  C14 UNL     1      30.912  51.229   6.516  1.00  0.00     0.285 C 
HETATM   24  O3  UNL     1      30.182  52.222   6.872  1.00  0.00    -0.260 OA
BRANCH  23  25
HETATM   25  O4  UNL     1      31.771  51.444   5.456  1.00  0.00    -0.318 OA
BRANCH  25  26
HETATM   26  C15 UNL     1      33.043  50.844   5.390  1.00  0.00     0.174 C 
HETATM   27  C16 UNL     1      33.068  49.813   4.274  1.00  0.00     0.034 C 
ENDBRANCH  25  26
ENDBRANCH  23  25
ENDBRANCH  22  23
ENDBRANCH   6  20
BRANCH   5  28
HETATM   28  O2  UNL     1      27.798  48.132   8.183  1.00  0.00    -0.345 OA
ATOM     29  H2  UNL     1      27.898  48.975   8.609  1.00  0.00     0.219 HD
ENDBRANCH   5  28
TORSDOF 9
ENDMDL
MODEL 5
REMARK VINA RESULT: -6.263676435      2.244      7.389
REMARK  9 active torsions:
REMARK  status: ('A' for Active; 'I' for Inactive)
REMARK    1  A    between atoms: C2_2  and  C3_3 
REMARK    2  A    between atoms: C3_3  and  N1_4 
REMARK    3  A    between atoms: C6_7  and  C7_8 
REMARK    4  A    between atoms: C8_9  and  O1_10 
REMARK    5  A    between atoms: C11_14  and  O2_15 
REMARK    6  A    between atoms: N2_17  and  C12_18 
REMARK    7  A    between atoms: C13_20  and  C14_21 
REMARK    8  A    between atoms: C14_21  and  O4_23 
REMARK    9  A    between atoms: O4_23  and  C15_24 
ROOT
HETATM    1  C7  UNL     1      31.110  44.931   8.546  1.00  0.00     0.069 A 
HETATM    2  C8  UNL     1      29.816  44.896   9.041  1.00  0.00     0.091 A 
HETATM    3  C9  UNL     1      28.930  45.891   8.774  1.00  0.00     0.024 A 
HETATM    4  C10 UNL     1      27.549  45.791   9.319  1.00  0.00     0.056 C 
HETATM    5  C11 UNL     1      29.276  46.989   7.996  1.00  0.00     0.159 A 
HETATM    6  N2  UNL     1      30.517  47.049   7.510  1.00  0.00    -0.247 N 
HETATM    7  C17 UNL     1      31.400  46.044   7.777  1.00  0.00     0.268 A 
HETATM    8  O5  UNL     1      32.560  46.119   7.302  1.00  0.00    -0.267 OA
ENDROOT
BRANCH   1   9
HETATM    9  C6  UNL     1      32.123  43.953   9.012  1.00  0.00    -0.055 C 
HETATM   10  C5  UNL     1      33.141  44.576   9.860  1.00  0.00     0.079 C 
HETATM   11  C4  UNL     1      34.508  43.971   9.784  1.00  0.00     0.062 C 
HETATM   12  N1  UNL     1      34.805  43.020   8.827  1.00  0.00    -0.389 N 
HETATM   13  C19 UNL     1      33.926  42.747   7.745  1.00  0.00     0.126 C 
HETATM   14  C18 UNL     1      32.470  42.921   8.030  1.00  0.00     0.055 C 
BRANCH  12  15
HETATM   15  C3  UNL     1      35.494  41.828   9.295  1.00  0.00     0.148 C 
BRANCH  15  16
HETATM   16  C2  UNL     1      34.568  40.923  10.002  1.00  0.00    -0.018 C 
HETATM   17  C1  UNL     1      34.937  39.686  10.395  1.00  0.00     0.008 C 
ENDBRANCH  15  16
ENDBRANCH  12  15
ENDBRANCH   1   9
BRANCH   2  18
HETATM   18  O1  UNL     1      29.413  43.836   9.815  1.00  0.00    -0.359 OA
ATOM     19  H1  UNL     1      28.535  43.825  10.177  1.00  0.00     0.217 HD
ENDBRANCH   2  18
BRANCH   6  20
HETATM   20  C12 UNL     1      30.977  48.209   6.825  1.00  0.00     0.120 C 
HETATM   21 CL1  UNL     1      31.816  49.418   7.830  1.00  0.00    -0.064 Cl
HETATM   22  C13 UNL     1      30.850  48.521   5.580  1.00  0.00     0.125 C 
BRANCH  22  23
HETATM   23  C14 UNL     1      31.359  49.727   4.984  1.00  0.00     0.285 C 
HETATM   24  O3  UNL     1      30.626  50.772   4.860  1.00  0.00    -0.260 OA
BRANCH  23  25
HETATM   25  O4  UNL     1      32.659  49.828   4.529  1.00  0.00    -0.318 OA
BRANCH  25  26
HETATM   26  C15 UNL     1      33.401  48.700   4.128  1.00  0.00     0.174 C 
HETATM   27  C16 UNL     1      34.533  48.453   5.111  1.00  0.00     0.034 C 
ENDBRANCH  25  26
ENDBRANCH  23  25
ENDBRANCH  22  23
ENDBRANCH   6  20
BRANCH   5  28
HETATM   28  O2  UNL     1      28.294  47.937   7.784  1.00  0.00    -0.345 OA
ATOM     29  H2  UNL     1      28.546  48.713   7.297  1.00  0.00     0.219 HD
ENDBRANCH   5  28
TORSDOF 9
ENDMDL
