MODEL 1
REMARK VINA RESULT: -7.711236877      0.000      0.000
REMARK  7 active torsions:
REMARK  status: ('A' for Active; 'I' for Inactive)
REMARK    1  A    between atoms: O1_1  and  C1_3 
REMARK    2  A    between atoms: C1_3  and  C2_4 
REMARK    3  A    between atoms: N1_6  and  C4_7 
REMARK    4  A    between atoms: C4_7  and  C5_8 
REMARK    5  A    between atoms: C9_15  and  C10_16 
REMARK    6  A    between atoms: N3_21  and  C15_22 
REMARK    7  A    between atoms: C15_22  and  C16_23 
ROOT
HETATM    1  C5  UNL     1      27.161  48.751   7.413  1.00  0.00     0.104 A 
HETATM    2  N2  UNL     1      27.010  47.764   8.316  1.00  0.00    -0.342 N 
ATOM      3  H2  UNL     1      26.213  47.660   8.944  1.00  0.00     0.167 HD
HETATM    4  C6  UNL     1      28.060  46.943   8.264  1.00  0.00     0.062 A 
HETATM    5  C7  UNL     1      28.382  45.795   8.996  1.00  0.00     0.056 A 
HETATM    6  C8  UNL     1      29.563  45.164   8.721  1.00  0.00     0.043 A 
HETATM    7 CL1  UNL     1      29.972  43.716   9.639  1.00  0.00    -0.084 Cl
HETATM    8  C9  UNL     1      30.426  45.651   7.737  1.00  0.00    -0.030 A 
HETATM    9  C13 UNL     1      30.117  46.754   7.034  1.00  0.00     0.041 A 
HETATM   10  C14 UNL     1      28.912  47.417   7.297  1.00  0.00     0.063 A 
HETATM   11  N3  UNL     1      28.324  48.536   6.788  1.00  0.00    -0.333 N 
ENDROOT
BRANCH   1  12
HETATM   12  C4  UNL     1      26.160  49.879   7.228  1.00  0.00     0.222 C 
BRANCH  12  13
HETATM   13  N1  UNL     1      24.871  49.263   6.886  1.00  0.00    -0.278 N 
HETATM   14  C3  UNL     1      23.702  49.898   6.951  1.00  0.00     0.136 A 
HETATM   15  C2  UNL     1      22.690  49.048   6.558  1.00  0.00     0.064 A 
HETATM   16  N6  UNL     1      23.314  47.892   6.261  1.00  0.00    -0.285 N 
HETATM   17  N5  UNL     1      24.623  48.035   6.462  1.00  0.00    -0.020 NA
ATOM     18  H6  UNL     1      22.856  47.042   5.934  1.00  0.00     0.184 HD
BRANCH  15  19
HETATM   19  C1  UNL     1      21.235  49.329   6.473  1.00  0.00     0.223 C 
BRANCH  19  20
HETATM   20  O1  UNL     1      20.811  49.405   5.144  1.00  0.00    -0.395 OA
ATOM     21  H1  UNL     1      20.637  50.303   4.889  1.00  0.00     0.209 HD
ENDBRANCH  19  20
ENDBRANCH  15  19
ENDBRANCH  12  13
ENDBRANCH   1  12
BRANCH  11  22
HETATM   22  C15 UNL     1      28.868  49.328   5.725  1.00  0.00     0.137 C 
BRANCH  22  23
HETATM   23  C16 UNL     1      29.200  50.746   6.008  1.00  0.00     0.030 C 
HETATM   24  C17 UNL     1      28.697  51.765   5.043  1.00  0.00     0.009 C 
HETATM   25  C18 UNL     1      28.948  53.149   5.588  1.00  0.00     0.028 C 
HETATM   26  C19 UNL     1      29.583  53.128   6.957  1.00  0.00     0.232 C 
HETATM   27  N4  UNL     1      30.776  52.334   6.966  1.00  0.00    -0.075 N 
HETATM   28  C20 UNL     1      30.627  51.047   6.342  1.00  0.00     0.238 C 
ATOM     29  H42 UNL     1      31.551  52.847   6.546  1.00  0.00     0.277 HD
ATOM     30  H41 UNL     1      31.131  52.231   7.917  1.00  0.00     0.277 HD
ENDBRANCH  22  23
ENDBRANCH  11  22
BRANCH   8  31
HETATM   31  C10 UNL     1      31.691  44.923   7.497  1.00  0.00     0.020 A 
HETATM   32  C11 UNL     1      32.759  45.611   6.717  1.00  0.00     0.010 A 
HETATM   33  C12 UNL     1      32.935  45.423   8.155  1.00  0.00     0.010 A 
ENDBRANCH   8  31
TORSDOF 7
ENDMDL
MODEL 2
REMARK VINA RESULT: -7.707390139      5.823      8.972
REMARK  7 active torsions:
REMARK  status: ('A' for Active; 'I' for Inactive)
REMARK    1  A    between atoms: O1_1  and  C1_3 
REMARK    2  A    between atoms: C1_3  and  C2_4 
REMARK    3  A    between atoms: N1_6  and  C4_7 
REMARK    4  A    between atoms: C4_7  and  C5_8 
REMARK    5  A    between atoms: C9_15  and  C10_16 
REMARK    6  A    between atoms: N3_21  and  C15_22 
REMARK    7  A    between atoms: C15_22  and  C16_23 
ROOT
HETATM    1  C5  UNL     1      33.822  44.972   6.401  1.00  0.00     0.104 A 
HETATM    2  N2  UNL     1      33.510  43.938   7.204  1.00  0.00    -0.342 N 
ATOM      3  H2  UNL     1      34.050  43.076   7.288  1.00  0.00     0.167 HD
HETATM    4  C6  UNL     1      32.389  44.210   7.874  1.00  0.00     0.062 A 
HETATM    5  C7  UNL     1      31.656  43.466   8.805  1.00  0.00     0.056 A 
HETATM    6  C8  UNL     1      30.515  44.018   9.316  1.00  0.00     0.043 A 
HETATM    7 CL1  UNL     1      29.588  43.085  10.492  1.00  0.00    -0.084 Cl
HETATM    8  C9  UNL     1      30.090  45.287   8.921  1.00  0.00    -0.030 A 
HETATM    9  C13 UNL     1      30.795  46.002   8.026  1.00  0.00     0.041 A 
HETATM   10  C14 UNL     1      31.968  45.459   7.490  1.00  0.00     0.063 A 
HETATM   11  N3  UNL     1      32.879  45.904   6.579  1.00  0.00    -0.333 N 
ENDROOT
BRANCH   1  12
HETATM   12  C4  UNL     1      35.024  44.980   5.472  1.00  0.00     0.222 C 
BRANCH  12  13
HETATM   13  N1  UNL     1      36.220  44.821   6.310  1.00  0.00    -0.278 N 
HETATM   14  C3  UNL     1      36.838  45.828   6.924  1.00  0.00     0.136 A 
HETATM   15  C2  UNL     1      37.917  45.347   7.635  1.00  0.00     0.064 A 
HETATM   16  N6  UNL     1      37.904  44.019   7.412  1.00  0.00    -0.285 N 
HETATM   17  N5  UNL     1      36.880  43.716   6.616  1.00  0.00    -0.020 NA
ATOM     18  H6  UNL     1      38.573  43.351   7.793  1.00  0.00     0.184 HD
BRANCH  15  19
HETATM   19  C1  UNL     1      38.883  46.107   8.466  1.00  0.00     0.223 C 
BRANCH  19  20
HETATM   20  O1  UNL     1      38.224  46.934   9.380  1.00  0.00    -0.395 OA
ATOM     21  H1  UNL     1      38.469  46.724  10.273  1.00  0.00     0.209 HD
ENDBRANCH  19  20
ENDBRANCH  15  19
ENDBRANCH  12  13
ENDBRANCH   1  12
BRANCH  11  22
HETATM   22  C15 UNL     1      32.832  47.188   5.943  1.00  0.00     0.137 C 
BRANCH  22  23
HETATM   23  C16 UNL     1      33.756  48.243   6.428  1.00  0.00     0.030 C 
HETATM   24  C17 UNL     1      34.262  48.111   7.824  1.00  0.00     0.009 C 
HETATM   25  C18 UNL     1      35.333  49.143   8.075  1.00  0.00     0.028 C 
HETATM   26  C19 UNL     1      35.632  49.981   6.855  1.00  0.00     0.232 C 
HETATM   27  N4  UNL     1      34.440  50.576   6.328  1.00  0.00    -0.075 N 
HETATM   28  C20 UNL     1      33.341  49.659   6.185  1.00  0.00     0.238 C 
ATOM     29  H42 UNL     1      34.163  51.381   6.890  1.00  0.00     0.277 HD
ATOM     30  H41 UNL     1      34.634  51.042   5.442  1.00  0.00     0.277 HD
ENDBRANCH  22  23
ENDBRANCH  11  22
BRANCH   8  31
HETATM   31  C10 UNL     1      28.841  45.819   9.508  1.00  0.00     0.020 A 
HETATM   32  C11 UNL     1      28.379  47.168   9.072  1.00  0.00     0.010 A 
HETATM   33  C12 UNL     1      27.652  45.984   8.620  1.00  0.00     0.010 A 
ENDBRANCH   8  31
TORSDOF 7
ENDMDL
MODEL 3
REMARK VINA RESULT: -7.614043155      2.005      2.643
REMARK  7 active torsions:
REMARK  status: ('A' for Active; 'I' for Inactive)
REMARK    1  A    between atoms: O1_1  and  C1_3 
REMARK    2  A    between atoms: C1_3  and  C2_4 
REMARK    3  A    between atoms: N1_6  and  C4_7 
REMARK    4  A    between atoms: C4_7  and  C5_8 
REMARK    5  A    between atoms: C9_15  and  C10_16 
REMARK    6  A    between atoms: N3_21  and  C15_22 
REMARK    7  A    between atoms: C15_22  and  C16_23 
ROOT
HETATM    1  C5  UNL     1      28.227  48.198   7.622  1.00  0.00     0.104 A 
HETATM    2  N2  UNL     1      27.829  47.521   8.714  1.00  0.00    -0.342 N 
ATOM      3  H2  UNL     1      27.088  47.815   9.351  1.00  0.00     0.167 HD
HETATM    4  C6  UNL     1      28.550  46.405   8.840  1.00  0.00     0.062 A 
HETATM    5  C7  UNL     1      28.534  45.388   9.800  1.00  0.00     0.056 A 
HETATM    6  C8  UNL     1      29.425  44.360   9.666  1.00  0.00     0.043 A 
HETATM    7 CL1  UNL     1      29.407  43.074  10.873  1.00  0.00    -0.084 Cl
HETATM    8  C9  UNL     1      30.328  44.324   8.602  1.00  0.00    -0.030 A 
HETATM    9  C13 UNL     1      30.343  45.303   7.679  1.00  0.00     0.041 A 
HETATM   10  C14 UNL     1      29.440  46.365   7.794  1.00  0.00     0.063 A 
HETATM   11  N3  UNL     1      29.211  47.489   7.057  1.00  0.00    -0.333 N 
ENDROOT
BRANCH   1  12
HETATM   12  C4  UNL     1      27.635  49.533   7.200  1.00  0.00     0.222 C 
BRANCH  12  13
HETATM   13  N1  UNL     1      26.183  49.345   7.087  1.00  0.00    -0.278 N 
HETATM   14  C3  UNL     1      25.321  50.333   6.854  1.00  0.00     0.136 A 
HETATM   15  C2  UNL     1      24.039  49.827   6.796  1.00  0.00     0.064 A 
HETATM   16  N6  UNL     1      24.187  48.505   7.004  1.00  0.00    -0.285 N 
HETATM   17  N5  UNL     1      25.478  48.229   7.177  1.00  0.00    -0.020 NA
ATOM     18  H6  UNL     1      23.429  47.824   7.026  1.00  0.00     0.184 HD
BRANCH  15  19
HETATM   19  C1  UNL     1      22.772  50.561   6.556  1.00  0.00     0.223 C 
BRANCH  19  20
HETATM   20  O1  UNL     1      22.312  51.173   7.725  1.00  0.00    -0.395 OA
ATOM     21  H1  UNL     1      21.701  51.873   7.530  1.00  0.00     0.209 HD
ENDBRANCH  19  20
ENDBRANCH  15  19
ENDBRANCH  12  13
ENDBRANCH   1  12
BRANCH  11  22
HETATM   22  C15 UNL     1      29.906  47.825   5.850  1.00  0.00     0.137 C 
BRANCH  22  23
HETATM   23  C16 UNL     1      31.271  48.394   5.963  1.00  0.00     0.030 C 
HETATM   24  C17 UNL     1      32.414  47.465   5.734  1.00  0.00     0.009 C 
HETATM   25  C18 UNL     1      33.704  48.247   5.687  1.00  0.00     0.028 C 
HETATM   26  C19 UNL     1      33.487  49.734   5.834  1.00  0.00     0.232 C 
HETATM   27  N4  UNL     1      32.730  50.036   7.012  1.00  0.00    -0.075 N 
HETATM   28  C20 UNL     1      31.551  49.229   7.173  1.00  0.00     0.238 C 
ATOM     29  H42 UNL     1      33.320  49.977   7.842  1.00  0.00     0.277 HD
ATOM     30  H41 UNL     1      32.491  51.027   7.040  1.00  0.00     0.277 HD
ENDBRANCH  22  23
ENDBRANCH  11  22
BRANCH   8  31
HETATM   31  C10 UNL     1      31.269  43.187   8.523  1.00  0.00     0.020 A 
HETATM   32  C11 UNL     1      32.542  43.379   7.770  1.00  0.00     0.010 A 
HETATM   33  C12 UNL     1      32.580  43.298   9.229  1.00  0.00     0.010 A 
ENDBRANCH   8  31
TORSDOF 7
ENDMDL
MODEL 4
REMARK VINA RESULT: -7.502212307      5.053      8.171
REMARK  7 active torsions:
REMARK  status: ('A' for Active; 'I' for Inactive)
REMARK    1  A    between atoms: O1_1  and  C1_3 
REMARK    2  A    between atoms: C1_3  and  C2_4 
REMARK    3  A    between atoms: N1_6  and  C4_7 
REMARK    4  A    between atoms: C4_7  and  C5_8 
REMARK    5  A    between atoms: C9_15  and  C10_16 
REMARK    6  A    between atoms: N3_21  and  C15_22 
REMARK    7  A    between atoms: C15_22  and  C16_23 
ROOT
HETATM    1  C5  UNL     1      32.554  48.686   5.044  1.00  0.00     0.104 A 
HETATM    2  N2  UNL     1      31.397  49.370   4.977  1.00  0.00    -0.342 N 
ATOM      3  H2  UNL     1      31.246  50.217   4.429  1.00  0.00     0.167 HD
HETATM    4  C6  UNL     1      30.477  48.773   5.736  1.00  0.00     0.062 A 
HETATM    5  C7  UNL     1      29.143  49.095   6.011  1.00  0.00     0.056 A 
HETATM    6  C8  UNL     1      28.445  48.282   6.861  1.00  0.00     0.043 A 
HETATM    7 CL1  UNL     1      26.764  48.683   7.208  1.00  0.00    -0.084 Cl
HETATM    8  C9  UNL     1      29.045  47.163   7.441  1.00  0.00    -0.030 A 
HETATM    9  C13 UNL     1      30.327  46.854   7.177  1.00  0.00     0.041 A 
HETATM   10  C14 UNL     1      31.062  47.669   6.308  1.00  0.00     0.063 A 
HETATM   11  N3  UNL     1      32.347  47.644   5.856  1.00  0.00    -0.333 N 
ENDROOT
BRANCH   1  12
HETATM   12  C4  UNL     1      33.822  49.109   4.322  1.00  0.00     0.222 C 
BRANCH  12  13
HETATM   13  N1  UNL     1      34.294  50.344   4.964  1.00  0.00    -0.278 N 
HETATM   14  C3  UNL     1      35.456  50.451   5.605  1.00  0.00     0.136 A 
HETATM   15  C2  UNL     1      35.605  51.735   6.084  1.00  0.00     0.064 A 
HETATM   16  N6  UNL     1      34.484  52.373   5.698  1.00  0.00    -0.285 N 
HETATM   17  N5  UNL     1      33.706  51.527   5.026  1.00  0.00    -0.020 NA
ATOM     18  H6  UNL     1      34.266  53.351   5.889  1.00  0.00     0.184 HD
BRANCH  15  19
HETATM   19  C1  UNL     1      36.741  52.304   6.853  1.00  0.00     0.223 C 
BRANCH  19  20
HETATM   20  O1  UNL     1      36.452  53.594   7.303  1.00  0.00    -0.395 OA
ATOM     21  H1  UNL     1      36.760  54.250   6.689  1.00  0.00     0.209 HD
ENDBRANCH  19  20
ENDBRANCH  15  19
ENDBRANCH  12  13
ENDBRANCH   1  12
BRANCH  11  22
HETATM   22  C15 UNL     1      33.305  46.630   6.188  1.00  0.00     0.137 C 
BRANCH  22  23
HETATM   23  C16 UNL     1      33.871  46.623   7.558  1.00  0.00     0.030 C 
HETATM   24  C17 UNL     1      33.259  45.683   8.540  1.00  0.00     0.009 C 
HETATM   25  C18 UNL     1      34.081  45.662   9.805  1.00  0.00     0.028 C 
HETATM   26  C19 UNL     1      35.303  46.544   9.718  1.00  0.00     0.232 C 
HETATM   27  N4  UNL     1      34.954  47.880   9.338  1.00  0.00    -0.075 N 
HETATM   28  C20 UNL     1      34.067  47.955   8.210  1.00  0.00     0.238 C 
ATOM     29  H42 UNL     1      34.567  48.389  10.132  1.00  0.00     0.277 HD
ATOM     30  H41 UNL     1      35.794  48.435   9.170  1.00  0.00     0.277 HD
ENDBRANCH  22  23
ENDBRANCH  11  22
BRANCH   8  31
HETATM   31  C10 UNL     1      28.234  46.333   8.356  1.00  0.00     0.020 A 
HETATM   32  C11 UNL     1      28.910  45.218   9.079  1.00  0.00     0.010 A 
HETATM   33  C12 UNL     1      28.512  46.411   9.822  1.00  0.00     0.010 A 
ENDBRANCH   8  31
TORSDOF 7
ENDMDL
MODEL 5
REMARK VINA RESULT: -7.463022523      6.414      9.547
REMARK  7 active torsions:
REMARK  status: ('A' for Active; 'I' for Inactive)
REMARK    1  A    between atoms: O1_1  and  C1_3 
REMARK    2  A    between atoms: C1_3  and  C2_4 
REMARK    3  A    between atoms: N1_6  and  C4_7 
REMARK    4  A    between atoms: C4_7  and  C5_8 
REMARK    5  A    between atoms: C9_15  and  C10_16 
REMARK    6  A    between atoms: N3_21  and  C15_22 
REMARK    7  A    between atoms: C15_22  and  C16_23 
ROOT
HETATM    1  C5  UNL     1      34.122  44.611   6.929  1.00  0.00     0.104 A 
HETATM    2  N2  UNL     1      33.626  43.637   7.714  1.00  0.00    -0.342 N 
ATOM      3  H2  UNL     1      34.072  42.735   7.884  1.00  0.00     0.167 HD
HETATM    4  C6  UNL     1      32.462  44.028   8.236  1.00  0.00     0.062 A 
HETATM    5  C7  UNL     1      31.560  43.384   9.089  1.00  0.00     0.056 A 
HETATM    6  C8  UNL     1      30.420  44.050   9.444  1.00  0.00     0.043 A 
HETATM    7 CL1  UNL     1      29.280  43.243  10.521  1.00  0.00    -0.084 Cl
HETATM    8  C9  UNL     1      30.161  45.337   8.969  1.00  0.00    -0.030 A 
HETATM    9  C13 UNL     1      31.029  45.956   8.148  1.00  0.00     0.041 A 
HETATM   10  C14 UNL     1      32.204  45.295   7.772  1.00  0.00     0.063 A 
HETATM   11  N3  UNL     1      33.253  45.626   6.968  1.00  0.00    -0.333 N 
ENDROOT
BRANCH   1  12
HETATM   12  C4  UNL     1      35.422  44.482   6.153  1.00  0.00     0.222 C 
BRANCH  12  13
HETATM   13  N1  UNL     1      36.512  44.839   7.072  1.00  0.00    -0.278 N 
HETATM   14  C3  UNL     1      37.803  44.793   6.749  1.00  0.00     0.136 A 
HETATM   15  C2  UNL     1      38.565  45.195   7.825  1.00  0.00     0.064 A 
HETATM   16  N6  UNL     1      37.669  45.478   8.789  1.00  0.00    -0.285 N 
HETATM   17  N5  UNL     1      36.440  45.261   8.324  1.00  0.00    -0.020 NA
ATOM     18  H6  UNL     1      37.896  45.807   9.727  1.00  0.00     0.184 HD
BRANCH  15  19
HETATM   19  C1  UNL     1      40.043  45.301   7.916  1.00  0.00     0.223 C 
BRANCH  19  20
HETATM   20  O1  UNL     1      40.495  44.987   9.200  1.00  0.00    -0.395 OA
ATOM     21  H1  UNL     1      41.215  44.369   9.170  1.00  0.00     0.209 HD
ENDBRANCH  19  20
ENDBRANCH  15  19
ENDBRANCH  12  13
ENDBRANCH   1  12
BRANCH  11  22
HETATM   22  C15 UNL     1      33.398  46.886   6.300  1.00  0.00     0.137 C 
BRANCH  22  23
HETATM   23  C16 UNL     1      34.578  47.722   6.630  1.00  0.00     0.030 C 
HETATM   24  C17 UNL     1      34.332  48.956   7.429  1.00  0.00     0.009 C 
HETATM   25  C18 UNL     1      35.649  49.566   7.841  1.00  0.00     0.028 C 
HETATM   26  C19 UNL     1      36.835  48.751   7.384  1.00  0.00     0.232 C 
HETATM   27  N4  UNL     1      36.786  48.507   5.973  1.00  0.00    -0.075 N 
HETATM   28  C20 UNL     1      35.509  48.042   5.503  1.00  0.00     0.238 C 
ATOM     29  H42 UNL     1      37.077  49.336   5.455  1.00  0.00     0.277 HD
ATOM     30  H41 UNL     1      37.525  47.861   5.695  1.00  0.00     0.277 HD
ENDBRANCH  22  23
ENDBRANCH  11  22
BRANCH   8  31
HETATM   31  C10 UNL     1      28.905  45.995   9.386  1.00  0.00     0.020 A 
HETATM   32  C11 UNL     1      28.432  47.170   8.598  1.00  0.00     0.010 A 
HETATM   33  C12 UNL     1      27.718  45.899   8.485  1.00  0.00     0.010 A 
ENDBRANCH   8  31
TORSDOF 7
ENDMDL
