MODEL 1
REMARK VINA RESULT: -7.108773227      0.000      0.000
REMARK  8 active torsions:
REMARK  status: ('A' for Active; 'I' for Inactive)
REMARK    1  A    between atoms: O1_1  and  N1_3 
REMARK    2  A    between atoms: C1_5  and  N2_6 
REMARK    3  A    between atoms: C1_5  and  C14_26 
REMARK    4  A    between atoms: N2_6  and  C2_8 
REMARK    5  A    between atoms: N3_11  and  C5_12 
REMARK    6  A    between atoms: C5_12  and  C6_13 
REMARK    7  A    between atoms: C6_13  and  N4_14 
REMARK    8  A    between atoms: C8_20  and  C9_21 
ROOT
HETATM    1  C2  UNL     1      33.891  46.663   4.947  1.00  0.00     0.086 C 
HETATM    2  C3  UNL     1      32.772  46.168   5.799  1.00  0.00     0.045 C 
HETATM    3  C4  UNL     1      31.447  46.674   5.226  1.00  0.00     0.124 C 
HETATM    4  N3  UNL     1      31.391  48.063   5.307  1.00  0.00    -0.388 N 
HETATM    5  C12 UNL     1      32.584  48.788   5.030  1.00  0.00     0.124 C 
HETATM    6  C13 UNL     1      33.602  47.982   4.254  1.00  0.00     0.045 C 
ENDROOT
BRANCH   1   7
HETATM    7  N2  UNL     1      34.272  45.717   3.948  1.00  0.00    -0.369 N 
ATOM      8  H2  UNL     1      33.671  45.601   3.132  1.00  0.00     0.161 HD
BRANCH   7   9
HETATM    9  C1  UNL     1      35.429  44.945   4.037  1.00  0.00     0.138 C 
HETATM   10  N1  UNL     1      35.639  43.937   3.294  1.00  0.00    -0.252 N 
ATOM     11  H1  UNL     1      34.934  43.681   2.602  1.00  0.00     0.196 HD
BRANCH  10  12
HETATM   12  O1  UNL     1      36.784  43.177   3.386  1.00  0.00    -0.288 OA
ATOM     13  H1  UNL     1      36.776  42.232   3.298  1.00  0.00     0.244 HD
ENDBRANCH  10  12
BRANCH   9  14
HETATM   14  C14 UNL     1      36.460  45.333   5.030  1.00  0.00     0.052 A 
HETATM   15  C15 UNL     1      37.395  46.325   4.898  1.00  0.00     0.025 A 
HETATM   16  C16 UNL     1      38.246  46.498   5.928  1.00  0.00     0.033 A 
HETATM   17  C17 UNL     1      38.103  45.673   7.009  1.00  0.00     0.075 A 
HETATM   18 CL1  UNL     1      39.080  45.679   8.490  1.00  0.00    -0.076 Cl
HETATM   19  S1  UNL     1      36.790  44.684   6.564  1.00  0.00    -0.074 SA
ENDBRANCH   9  14
ENDBRANCH   7   9
ENDBRANCH   1   7
BRANCH   4  20
HETATM   20  C5  UNL     1      30.280  48.794   5.677  1.00  0.00     0.103 C 
BRANCH  20  21
HETATM   21  C6  UNL     1      29.828  48.912   7.084  1.00  0.00     0.116 C 
BRANCH  21  22
HETATM   22  N4  UNL     1      28.578  48.426   7.509  1.00  0.00    -0.304 N 
HETATM   23  C7  UNL     1      27.356  48.953   7.141  1.00  0.00     0.206 A 
HETATM   24  N5  UNL     1      26.395  48.234   7.699  1.00  0.00    -0.294 N 
HETATM   25  N6  UNL     1      26.954  47.291   8.393  1.00  0.00    -0.287 N 
ATOM     26  H5  UNL     1      25.392  48.393   7.600  1.00  0.00     0.187 HD
HETATM   27  C8  UNL     1      28.325  47.387   8.292  1.00  0.00     0.107 A 
ATOM     28  H6  UNL     1      26.454  46.585   8.933  1.00  0.00     0.188 HD
BRANCH  27  29
HETATM   29  C9  UNL     1      29.183  46.438   8.961  1.00  0.00     0.055 A 
HETATM   30  C10 UNL     1      29.557  45.215   8.064  1.00  0.00     0.013 A 
HETATM   31  C11 UNL     1      28.921  45.129   9.478  1.00  0.00     0.013 A 
ENDBRANCH  27  29
ENDBRANCH  21  22
ENDBRANCH  20  21
ENDBRANCH   4  20
TORSDOF 8
ENDMDL
MODEL 2
REMARK VINA RESULT: -7.030574040      5.066      8.325
REMARK  8 active torsions:
REMARK  status: ('A' for Active; 'I' for Inactive)
REMARK    1  A    between atoms: O1_1  and  N1_3 
REMARK    2  A    between atoms: C1_5  and  N2_6 
REMARK    3  A    between atoms: C1_5  and  C14_26 
REMARK    4  A    between atoms: N2_6  and  C2_8 
REMARK    5  A    between atoms: N3_11  and  C5_12 
REMARK    6  A    between atoms: C5_12  and  C6_13 
REMARK    7  A    between atoms: C6_13  and  N4_14 
REMARK    8  A    between atoms: C8_20  and  C9_21 
ROOT
HETATM    1  C2  UNL     1      28.676  47.121   8.500  1.00  0.00     0.086 C 
HETATM    2  C3  UNL     1      30.054  46.809   8.026  1.00  0.00     0.045 C 
HETATM    3  C4  UNL     1      30.137  45.323   7.673  1.00  0.00     0.124 C 
HETATM    4  N3  UNL     1      29.952  44.551   8.817  1.00  0.00    -0.388 N 
HETATM    5  C12 UNL     1      28.973  44.984   9.755  1.00  0.00     0.124 C 
HETATM    6  C13 UNL     1      27.972  45.952   9.163  1.00  0.00     0.045 C 
ENDROOT
BRANCH   1   7
HETATM    7  N2  UNL     1      27.835  47.600   7.449  1.00  0.00    -0.369 N 
ATOM      8  H2  UNL     1      27.456  46.926   6.783  1.00  0.00     0.161 HD
BRANCH   7   9
HETATM    9  C1  UNL     1      27.508  48.946   7.294  1.00  0.00     0.138 C 
HETATM   10  N1  UNL     1      26.518  49.482   7.881  1.00  0.00    -0.252 N 
ATOM     11  H1  UNL     1      25.938  48.907   8.492  1.00  0.00     0.196 HD
BRANCH  10  12
HETATM   12  O1  UNL     1      26.200  50.813   7.724  1.00  0.00    -0.288 OA
ATOM     13  H1  UNL     1      26.195  51.424   8.450  1.00  0.00     0.244 HD
ENDBRANCH  10  12
BRANCH   9  14
HETATM   14  C14 UNL     1      28.366  49.783   6.421  1.00  0.00     0.052 A 
HETATM   15  C15 UNL     1      28.100  50.168   5.134  1.00  0.00     0.025 A 
HETATM   16  C16 UNL     1      29.032  50.925   4.522  1.00  0.00     0.033 A 
HETATM   17  C17 UNL     1      30.155  51.241   5.235  1.00  0.00     0.075 A 
HETATM   18 CL1  UNL     1      31.531  52.213   4.680  1.00  0.00    -0.076 Cl
HETATM   19  S1  UNL     1      29.883  50.480   6.734  1.00  0.00    -0.074 SA
ENDBRANCH   9  14
ENDBRANCH   7   9
ENDBRANCH   1   7
BRANCH   4  20
HETATM   20  C5  UNL     1      30.675  43.418   9.137  1.00  0.00     0.103 C 
BRANCH  20  21
HETATM   21  C6  UNL     1      31.905  43.020   8.413  1.00  0.00     0.116 C 
BRANCH  21  22
HETATM   22  N4  UNL     1      33.167  43.009   9.036  1.00  0.00    -0.304 N 
HETATM   23  C7  UNL     1      33.971  41.896   9.179  1.00  0.00     0.206 A 
HETATM   24  N5  UNL     1      35.093  42.255   9.783  1.00  0.00    -0.294 N 
HETATM   25  N6  UNL     1      35.028  43.528  10.022  1.00  0.00    -0.287 N 
ATOM     26  H5  UNL     1      35.871  41.639  10.018  1.00  0.00     0.187 HD
HETATM   27  C8  UNL     1      33.829  44.029   9.563  1.00  0.00     0.107 A 
ATOM     28  H6  UNL     1      35.755  44.076  10.481  1.00  0.00     0.188 HD
BRANCH  27  29
HETATM   29  C9  UNL     1      33.517  45.432   9.693  1.00  0.00     0.055 A 
HETATM   30  C10 UNL     1      33.790  46.241   8.384  1.00  0.00     0.013 A 
HETATM   31  C11 UNL     1      34.364  46.583   9.786  1.00  0.00     0.013 A 
ENDBRANCH  27  29
ENDBRANCH  21  22
ENDBRANCH  20  21
ENDBRANCH   4  20
TORSDOF 8
ENDMDL
MODEL 3
REMARK VINA RESULT: -6.968623864      4.564      8.164
REMARK  8 active torsions:
REMARK  status: ('A' for Active; 'I' for Inactive)
REMARK    1  A    between atoms: O1_1  and  N1_3 
REMARK    2  A    between atoms: C1_5  and  N2_6 
REMARK    3  A    between atoms: C1_5  and  C14_26 
REMARK    4  A    between atoms: N2_6  and  C2_8 
REMARK    5  A    between atoms: N3_11  and  C5_12 
REMARK    6  A    between atoms: C5_12  and  C6_13 
REMARK    7  A    between atoms: C6_13  and  N4_14 
REMARK    8  A    between atoms: C8_20  and  C9_21 
ROOT
HETATM    1  C2  UNL     1      32.060  43.196   8.957  1.00  0.00     0.086 C 
HETATM    2  C3  UNL     1      32.672  44.383   9.618  1.00  0.00     0.045 C 
HETATM    3  C4  UNL     1      33.538  45.131   8.602  1.00  0.00     0.124 C 
HETATM    4  N3  UNL     1      34.607  44.331   8.207  1.00  0.00    -0.388 N 
HETATM    5  C12 UNL     1      34.358  42.943   8.013  1.00  0.00     0.124 C 
HETATM    6  C13 UNL     1      32.891  42.626   7.822  1.00  0.00     0.045 C 
ENDROOT
BRANCH   1   7
HETATM    7  N2  UNL     1      30.754  43.470   8.449  1.00  0.00    -0.369 N 
ATOM      8  H2  UNL     1      30.523  43.162   7.504  1.00  0.00     0.161 HD
BRANCH   7   9
HETATM    9  C1  UNL     1      29.779  44.139   9.188  1.00  0.00     0.138 C 
HETATM   10  N1  UNL     1      29.286  43.666  10.258  1.00  0.00    -0.252 N 
ATOM     11  H1  UNL     1      29.615  42.760  10.592  1.00  0.00     0.196 HD
BRANCH  10  12
HETATM   12  O1  UNL     1      28.323  44.331  10.983  1.00  0.00    -0.288 OA
ATOM     13  H1  UNL     1      28.037  44.037  11.840  1.00  0.00     0.244 HD
ENDBRANCH  10  12
BRANCH   9  14
HETATM   14  C14 UNL     1      29.318  45.464   8.708  1.00  0.00     0.052 A 
HETATM   15  C15 UNL     1      30.104  46.516   8.318  1.00  0.00     0.025 A 
HETATM   16  C16 UNL     1      29.468  47.637   7.925  1.00  0.00     0.033 A 
HETATM   17  C17 UNL     1      28.101  47.626   7.950  1.00  0.00     0.075 A 
HETATM   18 CL1  UNL     1      27.017  48.955   7.493  1.00  0.00    -0.076 Cl
HETATM   19  S1  UNL     1      27.740  46.061   8.516  1.00  0.00    -0.074 SA
ENDBRANCH   9  14
ENDBRANCH   7   9
ENDBRANCH   1   7
BRANCH   4  20
HETATM   20  C5  UNL     1      35.905  44.770   8.030  1.00  0.00     0.103 C 
BRANCH  20  21
HETATM   21  C6  UNL     1      36.339  45.535   6.837  1.00  0.00     0.116 C 
BRANCH  21  22
HETATM   22  N4  UNL     1      35.974  45.153   5.533  1.00  0.00    -0.304 N 
HETATM   23  C7  UNL     1      36.615  44.190   4.781  1.00  0.00     0.206 A 
HETATM   24  N5  UNL     1      35.990  44.068   3.620  1.00  0.00    -0.294 N 
HETATM   25  N6  UNL     1      34.996  44.902   3.613  1.00  0.00    -0.287 N 
ATOM     26  H5  UNL     1      36.244  43.430   2.866  1.00  0.00     0.187 HD
HETATM   27  C8  UNL     1      34.961  45.597   4.802  1.00  0.00     0.107 A 
ATOM     28  H6  UNL     1      34.340  45.025   2.842  1.00  0.00     0.188 HD
BRANCH  27  29
HETATM   29  C9  UNL     1      33.933  46.579   5.054  1.00  0.00     0.055 A 
HETATM   30  C10 UNL     1      32.605  45.949   5.582  1.00  0.00     0.013 A 
HETATM   31  C11 UNL     1      32.725  46.883   4.347  1.00  0.00     0.013 A 
ENDBRANCH  27  29
ENDBRANCH  21  22
ENDBRANCH  20  21
ENDBRANCH   4  20
TORSDOF 8
ENDMDL
MODEL 4
REMARK VINA RESULT: -6.863015704      4.844      7.298
REMARK  8 active torsions:
REMARK  status: ('A' for Active; 'I' for Inactive)
REMARK    1  A    between atoms: O1_1  and  N1_3 
REMARK    2  A    between atoms: C1_5  and  N2_6 
REMARK    3  A    between atoms: C1_5  and  C14_26 
REMARK    4  A    between atoms: N2_6  and  C2_8 
REMARK    5  A    between atoms: N3_11  and  C5_12 
REMARK    6  A    between atoms: C5_12  and  C6_13 
REMARK    7  A    between atoms: C6_13  and  N4_14 
REMARK    8  A    between atoms: C8_20  and  C9_21 
ROOT
HETATM    1  C2  UNL     1      33.056  48.615   5.314  1.00  0.00     0.086 C 
HETATM    2  C3  UNL     1      33.507  47.651   4.271  1.00  0.00     0.045 C 
HETATM    3  C4  UNL     1      33.319  46.225   4.793  1.00  0.00     0.124 C 
HETATM    4  N3  UNL     1      34.149  46.005   5.889  1.00  0.00    -0.388 N 
HETATM    5  C12 UNL     1      34.305  47.067   6.823  1.00  0.00     0.124 C 
HETATM    6  C13 UNL     1      33.203  48.101   6.734  1.00  0.00     0.045 C 
ENDROOT
BRANCH   1   7
HETATM    7  N2  UNL     1      31.697  49.016   5.132  1.00  0.00    -0.369 N 
ATOM      8  H2  UNL     1      31.204  48.700   4.297  1.00  0.00     0.161 HD
BRANCH   7   9
HETATM    9  C1  UNL     1      31.015  49.819   6.045  1.00  0.00     0.138 C 
HETATM   10  N1  UNL     1      31.447  50.953   6.416  1.00  0.00    -0.252 N 
ATOM     11  H1  UNL     1      32.329  51.293   6.031  1.00  0.00     0.196 HD
BRANCH  10  12
HETATM   12  O1  UNL     1      30.769  51.742   7.318  1.00  0.00    -0.288 OA
ATOM     13  H1  UNL     1      29.820  51.773   7.355  1.00  0.00     0.244 HD
ENDBRANCH  10  12
BRANCH   9  14
HETATM   14  C14 UNL     1      29.724  49.329   6.586  1.00  0.00     0.052 A 
HETATM   15  C15 UNL     1      29.548  48.379   7.556  1.00  0.00     0.025 A 
HETATM   16  C16 UNL     1      28.276  48.080   7.889  1.00  0.00     0.033 A 
HETATM   17  C17 UNL     1      27.280  48.747   7.233  1.00  0.00     0.075 A 
HETATM   18 CL1  UNL     1      25.532  48.549   7.467  1.00  0.00    -0.076 Cl
HETATM   19  S1  UNL     1      28.136  49.770   6.175  1.00  0.00    -0.074 SA
ENDBRANCH   9  14
ENDBRANCH   7   9
ENDBRANCH   1   7
BRANCH   4  20
HETATM   20  C5  UNL     1      34.871  44.851   6.120  1.00  0.00     0.103 C 
BRANCH  20  21
HETATM   21  C6  UNL     1      34.391  43.769   7.014  1.00  0.00     0.116 C 
BRANCH  21  22
HETATM   22  N4  UNL     1      34.131  43.990   8.379  1.00  0.00    -0.304 N 
HETATM   23  C7  UNL     1      35.090  44.260   9.334  1.00  0.00     0.206 A 
HETATM   24  N5  UNL     1      34.491  44.442  10.501  1.00  0.00    -0.294 N 
HETATM   25  N6  UNL     1      33.214  44.299  10.320  1.00  0.00    -0.287 N 
ATOM     26  H5  UNL     1      34.951  44.657  11.385  1.00  0.00     0.187 HD
HETATM   27  C8  UNL     1      32.959  44.015   8.995  1.00  0.00     0.107 A 
ATOM     28  H6  UNL     1      32.505  44.384  11.049  1.00  0.00     0.188 HD
BRANCH  27  29
HETATM   29  C9  UNL     1      31.606  43.828   8.528  1.00  0.00     0.055 A 
HETATM   30  C10 UNL     1      31.067  45.048   7.715  1.00  0.00     0.013 A 
HETATM   31  C11 UNL     1      30.371  44.416   8.951  1.00  0.00     0.013 A 
ENDBRANCH  27  29
ENDBRANCH  21  22
ENDBRANCH  20  21
ENDBRANCH   4  20
TORSDOF 8
ENDMDL
MODEL 5
REMARK VINA RESULT: -6.819901848      3.610      4.616
REMARK  8 active torsions:
REMARK  status: ('A' for Active; 'I' for Inactive)
REMARK    1  A    between atoms: O1_1  and  N1_3 
REMARK    2  A    between atoms: C1_5  and  N2_6 
REMARK    3  A    between atoms: C1_5  and  C14_26 
REMARK    4  A    between atoms: N2_6  and  C2_8 
REMARK    5  A    between atoms: N3_11  and  C5_12 
REMARK    6  A    between atoms: C5_12  and  C6_13 
REMARK    7  A    between atoms: C6_13  and  N4_14 
REMARK    8  A    between atoms: C8_20  and  C9_21 
ROOT
HETATM    1  C2  UNL     1      35.209  45.548   6.917  1.00  0.00     0.086 C 
HETATM    2  C3  UNL     1      34.699  46.236   8.138  1.00  0.00     0.045 C 
HETATM    3  C4  UNL     1      33.360  46.901   7.814  1.00  0.00     0.124 C 
HETATM    4  N3  UNL     1      33.543  47.906   6.869  1.00  0.00    -0.388 N 
HETATM    5  C12 UNL     1      34.464  47.658   5.812  1.00  0.00     0.124 C 
HETATM    6  C13 UNL     1      34.761  46.188   5.617  1.00  0.00     0.045 C 
ENDROOT
BRANCH   1   7
HETATM    7  N2  UNL     1      34.840  44.168   6.877  1.00  0.00    -0.369 N 
ATOM      8  H2  UNL     1      34.753  43.714   5.968  1.00  0.00     0.161 HD
BRANCH   7   9
HETATM    9  C1  UNL     1      34.596  43.416   8.025  1.00  0.00     0.138 C 
HETATM   10  N1  UNL     1      35.528  42.903   8.718  1.00  0.00    -0.252 N 
ATOM     11  H1  UNL     1      36.495  43.047   8.426  1.00  0.00     0.196 HD
BRANCH  10  12
HETATM   12  O1  UNL     1      35.280  42.160   9.851  1.00  0.00    -0.288 OA
ATOM     13  H1  UNL     1      35.905  41.532  10.194  1.00  0.00     0.244 HD
ENDBRANCH  10  12
BRANCH   9  14
HETATM   14  C14 UNL     1      33.190  43.226   8.457  1.00  0.00     0.052 A 
HETATM   15  C15 UNL     1      32.211  42.542   7.787  1.00  0.00     0.025 A 
HETATM   16  C16 UNL     1      30.993  42.506   8.364  1.00  0.00     0.033 A 
HETATM   17  C17 UNL     1      30.843  43.151   9.560  1.00  0.00     0.075 A 
HETATM   18 CL1  UNL     1      29.362  43.265  10.531  1.00  0.00    -0.076 Cl
HETATM   19  S1  UNL     1      32.396  43.787   9.849  1.00  0.00    -0.074 SA
ENDBRANCH   9  14
ENDBRANCH   7   9
ENDBRANCH   1   7
BRANCH   4  20
HETATM   20  C5  UNL     1      32.933  49.145   6.897  1.00  0.00     0.103 C 
BRANCH  20  21
HETATM   21  C6  UNL     1      31.720  49.424   7.701  1.00  0.00     0.116 C 
BRANCH  21  22
HETATM   22  N4  UNL     1      30.424  49.284   7.169  1.00  0.00    -0.304 N 
HETATM   23  C7  UNL     1      29.810  50.191   6.330  1.00  0.00     0.206 A 
HETATM   24  N5  UNL     1      28.614  49.728   6.002  1.00  0.00    -0.294 N 
HETATM   25  N6  UNL     1      28.454  48.583   6.592  1.00  0.00    -0.287 N 
ATOM     26  H5  UNL     1      27.938  50.188   5.392  1.00  0.00     0.187 HD
HETATM   27  C8  UNL     1      29.577  48.279   7.332  1.00  0.00     0.107 A 
ATOM     28  H6  UNL     1      27.623  47.997   6.519  1.00  0.00     0.188 HD
BRANCH  27  29
HETATM   29  C9  UNL     1      29.659  47.043   8.073  1.00  0.00     0.055 A 
HETATM   30  C10 UNL     1      29.976  45.809   7.170  1.00  0.00     0.013 A 
HETATM   31  C11 UNL     1      28.771  45.922   8.142  1.00  0.00     0.013 A 
ENDBRANCH  27  29
ENDBRANCH  21  22
ENDBRANCH  20  21
ENDBRANCH   4  20
TORSDOF 8
ENDMDL
