MODEL 1
REMARK VINA RESULT: -6.077145179      0.000      0.000
REMARK  14 active torsions:
REMARK  status: ('A' for Active; 'I' for Inactive)
REMARK    1  A    between atoms: C3_3  and  C4_4 
REMARK    2  A    between atoms: C4_4  and  O1_5 
REMARK    3  A    between atoms: C4_4  and  N1_7 
REMARK    4  A    between atoms: N1_7  and  N2_8 
REMARK       I    between atoms: N2_8  and  C5_10 
REMARK    5  A    between atoms: C5_10  and  C6_12 
REMARK    6  A    between atoms: C6_12  and  S1_13 
REMARK    7  A    between atoms: S1_13  and  C7_14 
REMARK    8  A    between atoms: C8_17  and  C9_18 
REMARK    9  A    between atoms: C9_18  and  N5_22 
REMARK   10  A    between atoms: N5_22  and  N6_24 
REMARK   11  A    between atoms: N7_28  and  C11_29 
REMARK   12  A    between atoms: C11_29  and  C12_30 
REMARK   13  A    between atoms: N10_39  and  N11_40 
REMARK   14  A    between atoms: N11_40  and  C18_42 
ROOT
HETATM    1  N2  UNL     1     -10.766   9.048  34.697  1.00  0.00    -0.200 N 
ATOM      2  H2  UNL     1      -9.932   8.464  34.637  1.00  0.00     0.205 HD
HETATM    3  C5  UNL     1     -10.715  10.497  34.498  1.00  0.00     0.256 C 
HETATM    4  O2  UNL     1     -11.728  11.133  34.638  1.00  0.00    -0.270 OA
ENDROOT
BRANCH   3   5
HETATM    5  C6  UNL     1      -9.418  11.138  34.113  1.00  0.00     0.187 C 
BRANCH   5   6
HETATM    6  S1  UNL     1      -9.012  11.078  32.463  1.00  0.00    -0.084 SA
BRANCH   6   7
HETATM    7  C7  UNL     1      -8.963   9.575  31.591  1.00  0.00     0.147 A 
HETATM    8  N3  UNL     1     -10.198   8.928  31.314  1.00  0.00    -0.332 N 
HETATM    9  C8  UNL     1      -9.947   7.804  30.651  1.00  0.00     0.095 A 
ATOM     10  H3  UNL     1     -11.121   9.269  31.580  1.00  0.00     0.168 HD
HETATM   11  C10 UNL     1      -8.594   7.726  30.507  1.00  0.00     0.127 A 
HETATM   12  N7  UNL     1      -8.004   8.831  31.088  1.00  0.00    -0.331 N 
BRANCH   9  13
HETATM   13  C9  UNL     1     -10.977   6.879  30.164  1.00  0.00     0.141 C 
HETATM   14  N4  UNL     1     -10.763   6.218  29.095  1.00  0.00    -0.383 N 
ATOM     15  H42 UNL     1      -9.869   6.293  28.609  1.00  0.00     0.157 HD
ATOM     16  H41 UNL     1     -11.479   5.575  28.756  1.00  0.00     0.157 HD
BRANCH  13  17
HETATM   17  N5  UNL     1     -12.218   6.776  30.839  1.00  0.00    -0.291 N 
ATOM     18  H5  UNL     1     -12.219   6.225  31.697  1.00  0.00     0.188 HD
BRANCH  17  19
HETATM   19  N6  UNL     1     -13.435   7.337  30.468  1.00  0.00    -0.344 N 
ATOM     20  H62 UNL     1     -13.639   7.305  29.470  1.00  0.00     0.176 HD
ATOM     21  H61 UNL     1     -14.131   7.770  31.075  1.00  0.00     0.176 HD
ENDBRANCH  17  19
ENDBRANCH  13  17
ENDBRANCH   9  13
BRANCH  12  22
HETATM   22  C11 UNL     1      -6.559   9.027  30.961  1.00  0.00     0.169 C 
BRANCH  22  23
HETATM   23  C12 UNL     1      -5.793   8.233  31.969  1.00  0.00    -0.040 A 
HETATM   24  C13 UNL     1      -5.268   6.984  31.566  1.00  0.00     0.009 A 
HETATM   25  C14 UNL     1      -4.565   6.221  32.462  1.00  0.00     0.001 A 
HETATM   26  C15 UNL     1      -4.376   6.677  33.750  1.00  0.00     0.000 A 
HETATM   27  C16 UNL     1      -4.878   7.881  34.162  1.00  0.00     0.001 A 
HETATM   28  C17 UNL     1      -5.597   8.660  33.241  1.00  0.00     0.009 A 
ENDBRANCH  22  23
ENDBRANCH  12  22
ENDBRANCH   6   7
ENDBRANCH   5   6
ENDBRANCH   3   5
BRANCH   1  29
HETATM   29  N1  UNL     1     -11.998   8.528  34.967  1.00  0.00    -0.295 NA
BRANCH  29  30
HETATM   30  C4  UNL     1     -13.196   7.973  35.147  1.00  0.00     0.268 C 
BRANCH  30  31
HETATM   31  C3  UNL     1     -14.227   7.610  34.154  1.00  0.00     0.139 A 
HETATM   32  C2  UNL     1     -15.176   8.527  33.642  1.00  0.00     0.080 A 
HETATM   33  C1  UNL     1     -15.053   9.974  33.898  1.00  0.00     0.074 C 
HETATM   34  N10 UNL     1     -16.074   7.917  32.881  1.00  0.00    -0.180 N 
HETATM   35  N9  UNL     1     -15.695   6.596  32.902  1.00  0.00     0.002 NA
HETATM   36  N8  UNL     1     -14.617   6.453  33.654  1.00  0.00    -0.276 N 
ATOM     37  H8  UNL     1     -14.147   5.565  33.825  1.00  0.00     0.184 HD
BRANCH  34  38
HETATM   38  N11 UNL     1     -17.182   8.391  32.196  1.00  0.00    -0.251 N 
ATOM     39  H11 UNL     1     -18.084   8.250  32.652  1.00  0.00     0.192 HD
BRANCH  38  40
HETATM   40  C18 UNL     1     -17.215   9.044  30.951  1.00  0.00     0.195 A 
HETATM   41  N12 UNL     1     -18.302   9.199  30.274  1.00  0.00    -0.339 N 
HETATM   42  C19 UNL     1     -18.145   9.888  29.057  1.00  0.00     0.083 A 
ATOM     43  H12 UNL     1     -19.205   8.850  30.595  1.00  0.00     0.168 HD
HETATM   44  C20 UNL     1     -16.687  10.218  29.021  1.00  0.00     0.167 A 
HETATM   45  N13 UNL     1     -16.137   9.631  30.232  1.00  0.00    -0.356 N 
ATOM     46  H13 UNL     1     -15.157   9.640  30.515  1.00  0.00     0.162 HD
ENDBRANCH  38  40
ENDBRANCH  34  38
ENDBRANCH  30  31
BRANCH  30  47
HETATM   47  O1  UNL     1     -13.627   7.674  36.356  1.00  0.00    -0.332 OA
ATOM     48  H1  UNL     1     -13.152   6.918  36.682  1.00  0.00     0.220 HD
ENDBRANCH  30  47
ENDBRANCH  29  30
ENDBRANCH   1  29
TORSDOF 14
ENDMDL
MODEL 2
REMARK VINA RESULT: -6.018684716      2.327      3.816
REMARK  14 active torsions:
REMARK  status: ('A' for Active; 'I' for Inactive)
REMARK    1  A    between atoms: C3_3  and  C4_4 
REMARK    2  A    between atoms: C4_4  and  O1_5 
REMARK    3  A    between atoms: C4_4  and  N1_7 
REMARK    4  A    between atoms: N1_7  and  N2_8 
REMARK       I    between atoms: N2_8  and  C5_10 
REMARK    5  A    between atoms: C5_10  and  C6_12 
REMARK    6  A    between atoms: C6_12  and  S1_13 
REMARK    7  A    between atoms: S1_13  and  C7_14 
REMARK    8  A    between atoms: C8_17  and  C9_18 
REMARK    9  A    between atoms: C9_18  and  N5_22 
REMARK   10  A    between atoms: N5_22  and  N6_24 
REMARK   11  A    between atoms: N7_28  and  C11_29 
REMARK   12  A    between atoms: C11_29  and  C12_30 
REMARK   13  A    between atoms: N10_39  and  N11_40 
REMARK   14  A    between atoms: N11_40  and  C18_42 
ROOT
HETATM    1  N2  UNL     1      -8.910  12.615  31.752  1.00  0.00    -0.200 N 
ATOM      2  H2  UNL     1      -7.928  12.624  31.474  1.00  0.00     0.205 HD
HETATM    3  C5  UNL     1      -9.992  12.807  30.786  1.00  0.00     0.256 C 
HETATM    4  O2  UNL     1     -11.126  12.841  31.191  1.00  0.00    -0.270 OA
ENDROOT
BRANCH   3   5
HETATM    5  C6  UNL     1      -9.661  12.940  29.332  1.00  0.00     0.187 C 
BRANCH   5   6
HETATM    6  S1  UNL     1      -8.962  11.576  28.595  1.00  0.00    -0.084 SA
BRANCH   6   7
HETATM    7  C7  UNL     1      -8.932  10.028  29.385  1.00  0.00     0.147 A 
HETATM    8  N3  UNL     1     -10.004   9.131  29.128  1.00  0.00    -0.332 N 
HETATM    9  C8  UNL     1      -9.800   8.018  29.823  1.00  0.00     0.095 A 
ATOM     10  H3  UNL     1     -10.797   9.312  28.512  1.00  0.00     0.168 HD
HETATM   11  C10 UNL     1      -8.635   8.191  30.509  1.00  0.00     0.127 A 
HETATM   12  N7  UNL     1      -8.111   9.435  30.222  1.00  0.00    -0.331 N 
BRANCH   9  13
HETATM   13  C9  UNL     1     -10.681   6.844  29.791  1.00  0.00     0.141 C 
HETATM   14  N4  UNL     1     -10.418   5.892  28.985  1.00  0.00    -0.383 N 
ATOM     15  H42 UNL     1      -9.580   5.920  28.404  1.00  0.00     0.157 HD
ATOM     16  H41 UNL     1     -11.030   5.076  28.963  1.00  0.00     0.157 HD
BRANCH  13  17
HETATM   17  N5  UNL     1     -11.845   6.805  30.598  1.00  0.00    -0.291 N 
ATOM     18  H5  UNL     1     -11.855   6.104  31.338  1.00  0.00     0.188 HD
BRANCH  17  19
HETATM   19  N6  UNL     1     -12.974   7.611  30.498  1.00  0.00    -0.344 N 
ATOM     20  H62 UNL     1     -13.105   8.267  31.267  1.00  0.00     0.176 HD
ATOM     21  H61 UNL     1     -13.671   7.616  29.754  1.00  0.00     0.176 HD
ENDBRANCH  17  19
ENDBRANCH  13  17
ENDBRANCH   9  13
BRANCH  12  22
HETATM   22  C11 UNL     1      -6.800   9.806  30.756  1.00  0.00     0.169 C 
BRANCH  22  23
HETATM   23  C12 UNL     1      -6.220   8.734  31.620  1.00  0.00    -0.040 A 
HETATM   24  C13 UNL     1      -5.575   7.648  30.984  1.00  0.00     0.009 A 
HETATM   25  C14 UNL     1      -5.037   6.640  31.740  1.00  0.00     0.001 A 
HETATM   26  C15 UNL     1      -5.127   6.692  33.115  1.00  0.00     0.000 A 
HETATM   27  C16 UNL     1      -5.749   7.730  33.752  1.00  0.00     0.001 A 
HETATM   28  C17 UNL     1      -6.300   8.762  32.974  1.00  0.00     0.009 A 
ENDBRANCH  22  23
ENDBRANCH  12  22
ENDBRANCH   6   7
ENDBRANCH   5   6
ENDBRANCH   3   5
BRANCH   1  29
HETATM   29  N1  UNL     1      -9.295  12.423  33.047  1.00  0.00    -0.295 NA
BRANCH  29  30
HETATM   30  C4  UNL     1      -9.710  12.152  34.284  1.00  0.00     0.268 C 
BRANCH  30  31
HETATM   31  C3  UNL     1     -10.858  11.343  34.738  1.00  0.00     0.139 A 
HETATM   32  C2  UNL     1     -11.035   9.980  34.404  1.00  0.00     0.080 A 
HETATM   33  C1  UNL     1      -9.957   9.206  33.760  1.00  0.00     0.074 C 
HETATM   34  N10 UNL     1     -12.213   9.531  34.814  1.00  0.00    -0.180 N 
HETATM   35  N9  UNL     1     -12.796  10.616  35.422  1.00  0.00     0.002 NA
HETATM   36  N8  UNL     1     -11.980  11.655  35.358  1.00  0.00    -0.276 N 
ATOM     37  H8  UNL     1     -12.191  12.577  35.739  1.00  0.00     0.184 HD
BRANCH  34  38
HETATM   38  N11 UNL     1     -12.824   8.292  34.696  1.00  0.00    -0.251 N 
ATOM     39  H11 UNL     1     -12.368   7.520  35.183  1.00  0.00     0.192 HD
BRANCH  38  40
HETATM   40  C18 UNL     1     -13.995   7.969  33.988  1.00  0.00     0.195 A 
HETATM   41  N12 UNL     1     -14.808   8.865  33.540  1.00  0.00    -0.339 N 
HETATM   42  C19 UNL     1     -15.920   8.357  32.844  1.00  0.00     0.083 A 
ATOM     43  H12 UNL     1     -14.657   9.864  33.681  1.00  0.00     0.168 HD
HETATM   44  C20 UNL     1     -15.709   6.877  32.870  1.00  0.00     0.167 A 
HETATM   45  N13 UNL     1     -14.489   6.682  33.636  1.00  0.00    -0.356 N 
ATOM     46  H13 UNL     1     -14.065   5.786  33.876  1.00  0.00     0.162 HD
ENDBRANCH  38  40
ENDBRANCH  34  38
ENDBRANCH  30  31
BRANCH  30  47
HETATM   47  O1  UNL     1      -9.075  12.640  35.330  1.00  0.00    -0.332 OA
ATOM     48  H1  UNL     1      -8.240  12.999  35.055  1.00  0.00     0.220 HD
ENDBRANCH  30  47
ENDBRANCH  29  30
ENDBRANCH   1  29
TORSDOF 14
ENDMDL
MODEL 3
REMARK VINA RESULT: -5.860831667      2.585      4.325
REMARK  14 active torsions:
REMARK  status: ('A' for Active; 'I' for Inactive)
REMARK    1  A    between atoms: C3_3  and  C4_4 
REMARK    2  A    between atoms: C4_4  and  O1_5 
REMARK    3  A    between atoms: C4_4  and  N1_7 
REMARK    4  A    between atoms: N1_7  and  N2_8 
REMARK       I    between atoms: N2_8  and  C5_10 
REMARK    5  A    between atoms: C5_10  and  C6_12 
REMARK    6  A    between atoms: C6_12  and  S1_13 
REMARK    7  A    between atoms: S1_13  and  C7_14 
REMARK    8  A    between atoms: C8_17  and  C9_18 
REMARK    9  A    between atoms: C9_18  and  N5_22 
REMARK   10  A    between atoms: N5_22  and  N6_24 
REMARK   11  A    between atoms: N7_28  and  C11_29 
REMARK   12  A    between atoms: C11_29  and  C12_30 
REMARK   13  A    between atoms: N10_39  and  N11_40 
REMARK   14  A    between atoms: N11_40  and  C18_42 
ROOT
HETATM    1  N2  UNL     1      -6.924  11.184  31.121  1.00  0.00    -0.200 N 
ATOM      2  H2  UNL     1      -6.091  11.272  31.702  1.00  0.00     0.205 HD
HETATM    3  C5  UNL     1      -6.847  10.854  29.698  1.00  0.00     0.256 C 
HETATM    4  O2  UNL     1      -7.867  10.821  29.058  1.00  0.00    -0.270 OA
ENDROOT
BRANCH   3   5
HETATM    5  C6  UNL     1      -5.513  10.554  29.087  1.00  0.00     0.187 C 
BRANCH   5   6
HETATM    6  S1  UNL     1      -5.224   8.930  28.676  1.00  0.00    -0.084 SA
BRANCH   6   7
HETATM    7  C7  UNL     1      -6.244   7.647  29.258  1.00  0.00     0.147 A 
HETATM    8  N3  UNL     1      -7.635   7.728  28.977  1.00  0.00    -0.332 N 
HETATM    9  C8  UNL     1      -8.235   6.666  29.505  1.00  0.00     0.095 A 
ATOM     10  H3  UNL     1      -8.096   8.474  28.456  1.00  0.00     0.168 HD
HETATM   11  C10 UNL     1      -7.263   5.927  30.111  1.00  0.00     0.127 A 
HETATM   12  N7  UNL     1      -6.041   6.545  29.942  1.00  0.00    -0.331 N 
BRANCH   9  13
HETATM   13  C9  UNL     1      -9.671   6.382  29.396  1.00  0.00     0.141 C 
HETATM   14  N4  UNL     1     -10.074   5.544  28.523  1.00  0.00    -0.383 N 
ATOM     15  H42 UNL     1      -9.405   5.040  27.940  1.00  0.00     0.157 HD
ATOM     16  H41 UNL     1     -11.072   5.347  28.447  1.00  0.00     0.157 HD
BRANCH  13  17
HETATM   17  N5  UNL     1     -10.599   7.083  30.205  1.00  0.00    -0.291 N 
ATOM     18  H5  UNL     1     -10.288   7.983  30.570  1.00  0.00     0.188 HD
BRANCH  17  19
HETATM   19  N6  UNL     1     -11.884   6.687  30.560  1.00  0.00    -0.344 N 
ATOM     20  H62 UNL     1     -12.096   6.751  31.555  1.00  0.00     0.176 HD
ATOM     21  H61 UNL     1     -12.622   6.347  29.944  1.00  0.00     0.176 HD
ENDBRANCH  17  19
ENDBRANCH  13  17
ENDBRANCH   9  13
BRANCH  12  22
HETATM   22  C11 UNL     1      -4.825   5.879  30.411  1.00  0.00     0.169 C 
BRANCH  22  23
HETATM   23  C12 UNL     1      -4.492   6.243  31.821  1.00  0.00    -0.040 A 
HETATM   24  C13 UNL     1      -3.599   5.404  32.528  1.00  0.00     0.009 A 
HETATM   25  C14 UNL     1      -3.274   5.699  33.827  1.00  0.00     0.001 A 
HETATM   26  C15 UNL     1      -3.819   6.811  34.434  1.00  0.00     0.000 A 
HETATM   27  C16 UNL     1      -4.686   7.635  33.770  1.00  0.00     0.001 A 
HETATM   28  C17 UNL     1      -5.017   7.330  32.440  1.00  0.00     0.009 A 
ENDBRANCH  22  23
ENDBRANCH  12  22
ENDBRANCH   6   7
ENDBRANCH   5   6
ENDBRANCH   3   5
BRANCH   1  29
HETATM   29  N1  UNL     1      -8.180  11.366  31.623  1.00  0.00    -0.295 NA
BRANCH  29  30
HETATM   30  C4  UNL     1      -9.386  11.637  32.120  1.00  0.00     0.268 C 
BRANCH  30  31
HETATM   31  C3  UNL     1     -10.626  10.837  32.079  1.00  0.00     0.139 A 
HETATM   32  C2  UNL     1     -11.055  10.005  33.140  1.00  0.00     0.080 A 
HETATM   33  C1  UNL     1     -10.402  10.056  34.461  1.00  0.00     0.074 C 
HETATM   34  N10 UNL     1     -12.116   9.289  32.793  1.00  0.00    -0.180 N 
HETATM   35  N9  UNL     1     -12.373   9.670  31.498  1.00  0.00     0.002 NA
HETATM   36  N8  UNL     1     -11.486  10.571  31.113  1.00  0.00    -0.276 N 
ATOM     37  H8  UNL     1     -11.467  11.005  30.191  1.00  0.00     0.184 HD
BRANCH  34  38
HETATM   38  N11 UNL     1     -12.858   8.341  33.481  1.00  0.00    -0.251 N 
ATOM     39  H11 UNL     1     -12.365   7.835  34.217  1.00  0.00     0.192 HD
BRANCH  38  40
HETATM   40  C18 UNL     1     -14.207   7.992  33.288  1.00  0.00     0.195 A 
HETATM   41  N12 UNL     1     -15.132   8.869  33.090  1.00  0.00    -0.339 N 
HETATM   42  C19 UNL     1     -16.420   8.335  32.904  1.00  0.00     0.083 A 
ATOM     43  H12 UNL     1     -14.944   9.872  33.071  1.00  0.00     0.168 HD
HETATM   44  C20 UNL     1     -16.207   6.857  32.989  1.00  0.00     0.167 A 
HETATM   45  N13 UNL     1     -14.790   6.695  33.266  1.00  0.00    -0.356 N 
ATOM     46  H13 UNL     1     -14.302   5.811  33.416  1.00  0.00     0.162 HD
ENDBRANCH  38  40
ENDBRANCH  34  38
ENDBRANCH  30  31
BRANCH  30  47
HETATM   47  O1  UNL     1      -9.615  12.770  32.753  1.00  0.00    -0.332 OA
ATOM     48  H1  UNL     1      -9.192  12.748  33.603  1.00  0.00     0.220 HD
ENDBRANCH  30  47
ENDBRANCH  29  30
ENDBRANCH   1  29
TORSDOF 14
ENDMDL
MODEL 4
REMARK VINA RESULT: -5.850663534      4.468      6.547
REMARK  14 active torsions:
REMARK  status: ('A' for Active; 'I' for Inactive)
REMARK    1  A    between atoms: C3_3  and  C4_4 
REMARK    2  A    between atoms: C4_4  and  O1_5 
REMARK    3  A    between atoms: C4_4  and  N1_7 
REMARK    4  A    between atoms: N1_7  and  N2_8 
REMARK       I    between atoms: N2_8  and  C5_10 
REMARK    5  A    between atoms: C5_10  and  C6_12 
REMARK    6  A    between atoms: C6_12  and  S1_13 
REMARK    7  A    between atoms: S1_13  and  C7_14 
REMARK    8  A    between atoms: C8_17  and  C9_18 
REMARK    9  A    between atoms: C9_18  and  N5_22 
REMARK   10  A    between atoms: N5_22  and  N6_24 
REMARK   11  A    between atoms: N7_28  and  C11_29 
REMARK   12  A    between atoms: C11_29  and  C12_30 
REMARK   13  A    between atoms: N10_39  and  N11_40 
REMARK   14  A    between atoms: N11_40  and  C18_42 
ROOT
HETATM    1  N2  UNL     1      -8.593   5.522  28.502  1.00  0.00    -0.200 N 
ATOM      2  H2  UNL     1      -8.647   5.261  27.517  1.00  0.00     0.205 HD
HETATM    3  C5  UNL     1      -7.390   5.293  29.302  1.00  0.00     0.256 C 
HETATM    4  O2  UNL     1      -7.415   5.574  30.473  1.00  0.00    -0.270 OA
ENDROOT
BRANCH   3   5
HETATM    5  C6  UNL     1      -6.168   4.734  28.642  1.00  0.00     0.187 C 
BRANCH   5   6
HETATM    6  S1  UNL     1      -5.142   5.860  27.887  1.00  0.00    -0.084 SA
BRANCH   6   7
HETATM    7  C7  UNL     1      -5.392   7.573  28.049  1.00  0.00     0.147 A 
HETATM    8  N3  UNL     1      -6.403   8.174  27.251  1.00  0.00    -0.332 N 
HETATM    9  C8  UNL     1      -6.432   9.476  27.516  1.00  0.00     0.095 A 
ATOM     10  H3  UNL     1      -7.005   7.688  26.587  1.00  0.00     0.168 HD
HETATM   11  C10 UNL     1      -5.469   9.708  28.452  1.00  0.00     0.127 A 
HETATM   12  N7  UNL     1      -4.842   8.521  28.773  1.00  0.00    -0.331 N 
BRANCH   9  13
HETATM   13  C9  UNL     1      -7.370  10.427  26.908  1.00  0.00     0.141 C 
HETATM   14  N4  UNL     1      -6.912  11.390  26.208  1.00  0.00    -0.383 N 
ATOM     15  H42 UNL     1      -5.911  11.472  26.031  1.00  0.00     0.157 HD
ATOM     16  H41 UNL     1      -7.564  12.051  25.785  1.00  0.00     0.157 HD
BRANCH  13  17
HETATM   17  N5  UNL     1      -8.760  10.313  27.154  1.00  0.00    -0.291 N 
ATOM     18  H5  UNL     1      -9.161  10.997  27.795  1.00  0.00     0.188 HD
BRANCH  17  19
HETATM   19  N6  UNL     1      -9.641   9.377  26.625  1.00  0.00    -0.344 N 
ATOM     20  H62 UNL     1     -10.000   8.695  27.294  1.00  0.00     0.176 HD
ATOM     21  H61 UNL     1      -9.961   9.299  25.660  1.00  0.00     0.176 HD
ENDBRANCH  17  19
ENDBRANCH  13  17
ENDBRANCH   9  13
BRANCH  12  22
HETATM   22  C11 UNL     1      -3.843   8.499  29.843  1.00  0.00     0.169 C 
BRANCH  22  23
HETATM   23  C12 UNL     1      -4.425   8.059  31.147  1.00  0.00    -0.040 A 
HETATM   24  C13 UNL     1      -5.049   9.036  31.956  1.00  0.00     0.009 A 
HETATM   25  C14 UNL     1      -5.588   8.674  33.163  1.00  0.00     0.001 A 
HETATM   26  C15 UNL     1      -5.519   7.361  33.579  1.00  0.00     0.000 A 
HETATM   27  C16 UNL     1      -4.919   6.400  32.813  1.00  0.00     0.001 A 
HETATM   28  C17 UNL     1      -4.367   6.774  31.577  1.00  0.00     0.009 A 
ENDBRANCH  22  23
ENDBRANCH  12  22
ENDBRANCH   6   7
ENDBRANCH   5   6
ENDBRANCH   3   5
BRANCH   1  29
HETATM   29  N1  UNL     1      -9.639   6.107  29.154  1.00  0.00    -0.295 NA
BRANCH  29  30
HETATM   30  C4  UNL     1     -10.621   6.764  29.772  1.00  0.00     0.268 C 
BRANCH  30  31
HETATM   31  C3  UNL     1     -10.901   8.212  29.824  1.00  0.00     0.139 A 
HETATM   32  C2  UNL     1      -9.964   9.175  30.270  1.00  0.00     0.080 A 
HETATM   33  C1  UNL     1      -8.552   8.815  30.501  1.00  0.00     0.074 C 
HETATM   34  N10 UNL     1     -10.512  10.379  30.355  1.00  0.00    -0.180 N 
HETATM   35  N9  UNL     1     -11.813  10.188  29.955  1.00  0.00     0.002 NA
HETATM   36  N8  UNL     1     -12.005   8.915  29.654  1.00  0.00    -0.276 N 
ATOM     37  H8  UNL     1     -12.891   8.526  29.333  1.00  0.00     0.184 HD
BRANCH  34  38
HETATM   38  N11 UNL     1     -10.000  11.603  30.756  1.00  0.00    -0.251 N 
ATOM     39  H11 UNL     1     -10.282  11.925  31.682  1.00  0.00     0.192 HD
BRANCH  38  40
HETATM   40  C18 UNL     1      -9.137  12.455  30.044  1.00  0.00     0.195 A 
HETATM   41  N12 UNL     1      -7.853  12.403  30.161  1.00  0.00    -0.339 N 
HETATM   42  C19 UNL     1      -7.150  13.322  29.360  1.00  0.00     0.083 A 
ATOM     43  H12 UNL     1      -7.384  11.746  30.785  1.00  0.00     0.168 HD
HETATM   44  C20 UNL     1      -8.230  14.040  28.614  1.00  0.00     0.167 A 
HETATM   45  N13 UNL     1      -9.473  13.473  29.108  1.00  0.00    -0.356 N 
ATOM     46  H13 UNL     1     -10.415  13.753  28.835  1.00  0.00     0.162 HD
ENDBRANCH  38  40
ENDBRANCH  34  38
ENDBRANCH  30  31
BRANCH  30  47
HETATM   47  O1  UNL     1     -11.525   6.116  30.479  1.00  0.00    -0.332 OA
ATOM     48  H1  UNL     1     -12.360   6.145  30.027  1.00  0.00     0.220 HD
ENDBRANCH  30  47
ENDBRANCH  29  30
ENDBRANCH   1  29
TORSDOF 14
ENDMDL
MODEL 5
REMARK VINA RESULT: -5.844898257      3.824      6.149
REMARK  14 active torsions:
REMARK  status: ('A' for Active; 'I' for Inactive)
REMARK    1  A    between atoms: C3_3  and  C4_4 
REMARK    2  A    between atoms: C4_4  and  O1_5 
REMARK    3  A    between atoms: C4_4  and  N1_7 
REMARK    4  A    between atoms: N1_7  and  N2_8 
REMARK       I    between atoms: N2_8  and  C5_10 
REMARK    5  A    between atoms: C5_10  and  C6_12 
REMARK    6  A    between atoms: C6_12  and  S1_13 
REMARK    7  A    between atoms: S1_13  and  C7_14 
REMARK    8  A    between atoms: C8_17  and  C9_18 
REMARK    9  A    between atoms: C9_18  and  N5_22 
REMARK   10  A    between atoms: N5_22  and  N6_24 
REMARK   11  A    between atoms: N7_28  and  C11_29 
REMARK   12  A    between atoms: C11_29  and  C12_30 
REMARK   13  A    between atoms: N10_39  and  N11_40 
REMARK   14  A    between atoms: N11_40  and  C18_42 
ROOT
HETATM    1  N2  UNL     1      -7.447   9.576  27.616  1.00  0.00    -0.200 N 
ATOM      2  H2  UNL     1      -7.499  10.581  27.783  1.00  0.00     0.205 HD
HETATM    3  C5  UNL     1      -6.169   8.874  27.494  1.00  0.00     0.256 C 
HETATM    4  O2  UNL     1      -6.181   7.696  27.242  1.00  0.00    -0.270 OA
ENDROOT
BRANCH   3   5
HETATM    5  C6  UNL     1      -4.894   9.633  27.700  1.00  0.00     0.187 C 
BRANCH   5   6
HETATM    6  S1  UNL     1      -4.450   9.928  29.315  1.00  0.00    -0.084 SA
BRANCH   6   7
HETATM    7  C7  UNL     1      -5.566   9.686  30.626  1.00  0.00     0.147 A 
HETATM    8  N3  UNL     1      -6.567  10.674  30.835  1.00  0.00    -0.332 N 
HETATM    9  C8  UNL     1      -7.308  10.310  31.877  1.00  0.00     0.095 A 
ATOM     10  H3  UNL     1      -6.696  11.519  30.279  1.00  0.00     0.168 HD
HETATM   11  C10 UNL     1      -6.799   9.129  32.327  1.00  0.00     0.127 A 
HETATM   12  N7  UNL     1      -5.729   8.757  31.539  1.00  0.00    -0.331 N 
BRANCH   9  13
HETATM   13  C9  UNL     1      -8.462  11.064  32.379  1.00  0.00     0.141 C 
HETATM   14  N4  UNL     1      -9.518  11.131  31.668  1.00  0.00    -0.383 N 
ATOM     15  H42 UNL     1      -9.580  10.627  30.783  1.00  0.00     0.157 HD
ATOM     16  H41 UNL     1     -10.321  11.654  32.017  1.00  0.00     0.157 HD
BRANCH  13  17
HETATM   17  N5  UNL     1      -8.376  11.763  33.608  1.00  0.00    -0.291 N 
ATOM     18  H5  UNL     1      -7.506  11.652  34.129  1.00  0.00     0.188 HD
BRANCH  17  19
HETATM   19  N6  UNL     1      -9.337  12.584  34.187  1.00  0.00    -0.344 N 
ATOM     20  H62 UNL     1      -9.462  12.460  35.192  1.00  0.00     0.176 HD
ATOM     21  H61 UNL     1      -9.921  13.282  33.726  1.00  0.00     0.176 HD
ENDBRANCH  17  19
ENDBRANCH  13  17
ENDBRANCH   9  13
BRANCH  12  22
HETATM   22  C11 UNL     1      -5.086   7.460  31.760  1.00  0.00     0.169 C 
BRANCH  22  23
HETATM   23  C12 UNL     1      -5.453   6.464  30.708  1.00  0.00    -0.040 A 
HETATM   24  C13 UNL     1      -4.406   5.859  29.976  1.00  0.00     0.009 A 
HETATM   25  C14 UNL     1      -4.700   4.946  28.997  1.00  0.00     0.001 A 
HETATM   26  C15 UNL     1      -6.015   4.623  28.735  1.00  0.00     0.000 A 
HETATM   27  C16 UNL     1      -7.044   5.198  29.428  1.00  0.00     0.001 A 
HETATM   28  C17 UNL     1      -6.739   6.133  30.430  1.00  0.00     0.009 A 
ENDBRANCH  22  23
ENDBRANCH  12  22
ENDBRANCH   6   7
ENDBRANCH   5   6
ENDBRANCH   3   5
BRANCH   1  29
HETATM   29  N1  UNL     1      -8.565   8.803  27.494  1.00  0.00    -0.295 NA
BRANCH  29  30
HETATM   30  C4  UNL     1      -9.635   8.009  27.461  1.00  0.00     0.268 C 
BRANCH  30  31
HETATM   31  C3  UNL     1     -10.414   7.428  28.572  1.00  0.00     0.139 A 
HETATM   32  C2  UNL     1     -11.259   8.188  29.415  1.00  0.00     0.080 A 
HETATM   33  C1  UNL     1     -11.596   9.589  29.096  1.00  0.00     0.074 C 
HETATM   34  N10 UNL     1     -11.726   7.456  30.417  1.00  0.00    -0.180 N 
HETATM   35  N9  UNL     1     -11.180   6.212  30.211  1.00  0.00     0.002 NA
HETATM   36  N8  UNL     1     -10.420   6.233  29.129  1.00  0.00    -0.276 N 
ATOM     37  H8  UNL     1      -9.905   5.428  28.771  1.00  0.00     0.184 HD
BRANCH  34  38
HETATM   38  N11 UNL     1     -12.556   7.768  31.483  1.00  0.00    -0.251 N 
ATOM     39  H11 UNL     1     -13.452   7.281  31.511  1.00  0.00     0.192 HD
BRANCH  38  40
HETATM   40  C18 UNL     1     -12.313   8.674  32.531  1.00  0.00     0.195 A 
HETATM   41  N12 UNL     1     -11.498   8.418  33.498  1.00  0.00    -0.339 N 
HETATM   42  C19 UNL     1     -11.371   9.448  34.450  1.00  0.00     0.083 A 
ATOM     43  H12 UNL     1     -10.986   7.539  33.568  1.00  0.00     0.168 HD
HETATM   44  C20 UNL     1     -12.270  10.524  33.930  1.00  0.00     0.167 A 
HETATM   45  N13 UNL     1     -12.868   9.969  32.727  1.00  0.00    -0.356 N 
ATOM     46  H13 UNL     1     -13.560  10.426  32.131  1.00  0.00     0.162 HD
ENDBRANCH  38  40
ENDBRANCH  34  38
ENDBRANCH  30  31
BRANCH  30  47
HETATM   47  O1  UNL     1     -10.148   7.617  26.312  1.00  0.00    -0.332 OA
ATOM     48  H1  UNL     1      -9.501   7.722  25.624  1.00  0.00     0.220 HD
ENDBRANCH  30  47
ENDBRANCH  29  30
ENDBRANCH   1  29
TORSDOF 14
ENDMDL
