MODEL 1
REMARK VINA RESULT: -5.137129998      0.000      0.000
REMARK  14 active torsions:
REMARK  status: ('A' for Active; 'I' for Inactive)
REMARK    1  A    between atoms: N1_2  and  C2_3 
REMARK    2  A    between atoms: N1_2  and  N9_32 
REMARK    3  A    between atoms: C2_3  and  C3_4 
REMARK    4  A    between atoms: C3_4  and  N2_5 
REMARK    5  A    between atoms: N2_5  and  C4_7 
REMARK    6  A    between atoms: C7_12  and  N5_13 
REMARK    7  A    between atoms: N5_13  and  C8_15 
REMARK    8  A    between atoms: C8_15  and  N6_17 
REMARK    9  A    between atoms: N6_17  and  C9_19 
REMARK   10  A    between atoms: C12_22  and  N7_23 
REMARK   11  A    between atoms: C17_34  and  O4_35 
REMARK   12  A    between atoms: C17_34  and  C18_37 
REMARK   13  A    between atoms: C18_37  and  N10_38 
REMARK   14  A    between atoms: C18_37  and  C19_42 
ROOT
HETATM    1  C4  UNL     1      -8.779  11.708  31.438  1.00  0.00     0.689 A 
HETATM    2  N3  UNL     1      -8.570  10.744  32.421  1.00  0.00    -0.172 N 
HETATM    3  C5  UNL     1      -7.197  10.318  32.643  1.00  0.00     0.177 C 
HETATM    4  C6  UNL     1      -9.538  10.214  33.140  1.00  0.00     0.166 A 
HETATM    5  N4  UNL     1      -9.294   9.215  34.154  1.00  0.00    -0.079 NA
HETATM    6  C7  UNL     1     -10.817  10.626  32.917  1.00  0.00     0.146 A 
HETATM    7  C15 UNL     1     -11.048  11.575  31.955  1.00  0.00     0.291 A 
HETATM    8  O3  UNL     1     -12.234  11.993  31.710  1.00  0.00    -0.265 OA
HETATM    9  N8  UNL     1     -10.042  12.112  31.221  1.00  0.00    -0.149 N 
HETATM   10  C16 UNL     1     -10.378  13.126  30.207  1.00  0.00     0.179 C 
ENDROOT
BRANCH   1  11
HETATM   11  N2  UNL     1      -7.804  12.144  30.817  1.00  0.00    -0.203 N 
ATOM     12  H2  UNL     1      -7.251  12.638  31.517  1.00  0.00     0.183 HD
BRANCH  11  13
HETATM   13  C3  UNL     1      -7.111  12.290  29.665  1.00  0.00     0.100 C 
BRANCH  13  14
HETATM   14  C2  UNL     1      -7.221  11.119  28.687  1.00  0.00     0.187 C 
BRANCH  14  15
HETATM   15  N1  UNL     1      -5.996  10.373  28.720  1.00  0.00    -0.326 N 
HETATM   16  C1  UNL     1      -4.820  10.923  28.100  1.00  0.00     0.171 C 
BRANCH  15  17
HETATM   17  N9  UNL     1      -5.936   9.137  29.338  1.00  0.00    -0.284 N 
HETATM   18  C17 UNL     1      -6.161   8.026  28.712  1.00  0.00     0.168 C 
ATOM     19  H9  UNL     1      -5.705   9.099  30.331  1.00  0.00     0.188 HD
BRANCH  18  20
HETATM   20  O4  UNL     1      -6.485   7.996  27.353  1.00  0.00    -0.346 OA
ATOM     21  H4  UNL     1      -7.314   8.326  27.026  1.00  0.00     0.219 HD
ENDBRANCH  18  20
BRANCH  18  22
HETATM   22  C18 UNL     1      -6.083   6.739  29.423  1.00  0.00     0.322 C 
BRANCH  22  23
HETATM   23  N10 UNL     1      -6.884   6.784  30.614  1.00  0.00    -0.061 N 
ATOM     24 3H10 UNL     1      -6.866   7.705  31.052  1.00  0.00     0.275 HD
ATOM     25 2H10 UNL     1      -7.881   6.737  30.406  1.00  0.00     0.275 HD
ATOM     26 1H10 UNL     1      -6.594   6.049  31.260  1.00  0.00     0.275 HD
ENDBRANCH  22  23
BRANCH  22  27
HETATM   27  C19 UNL     1      -6.476   5.585  28.574  1.00  0.00     0.125 C 
HETATM   28  N11 UNL     1      -7.704   5.362  28.247  1.00  0.00    -0.389 N 
ATOM     29 2H11 UNL     1      -8.406   6.015  28.598  1.00  0.00     0.157 HD
ATOM     30 1H11 UNL     1      -7.974   4.570  27.664  1.00  0.00     0.157 HD
HETATM   31  N12 UNL     1      -5.498   4.675  28.085  1.00  0.00    -0.085 NA
ENDBRANCH  22  27
ENDBRANCH  18  22
ENDBRANCH  15  17
ENDBRANCH  14  15
ENDBRANCH  13  14
ENDBRANCH  11  13
ENDBRANCH   1  11
BRANCH   6  32
HETATM   32  N5  UNL     1     -11.904  10.083  33.670  1.00  0.00    -0.326 N 
ATOM     33  H5  UNL     1     -12.001  10.346  34.651  1.00  0.00     0.168 HD
BRANCH  32  34
HETATM   34  C8  UNL     1     -12.855   9.189  33.100  1.00  0.00     0.177 C 
HETATM   35  S1  UNL     1     -14.424   9.464  33.374  1.00  0.00    -0.041 SA
BRANCH  34  36
HETATM   36  N6  UNL     1     -12.393   8.125  32.302  1.00  0.00    -0.333 N 
ATOM     37  H6  UNL     1     -12.413   7.206  32.744  1.00  0.00     0.168 HD
BRANCH  36  38
HETATM   38  C9  UNL     1     -11.909   8.147  30.983  1.00  0.00     0.034 A 
HETATM   39  C10 UNL     1     -10.830   7.326  30.643  1.00  0.00     0.032 A 
HETATM   40  C11 UNL     1     -10.321   7.274  29.370  1.00  0.00     0.038 A 
HETATM   41  C12 UNL     1     -10.859   8.032  28.373  1.00  0.00     0.103 A 
HETATM   42  C13 UNL     1     -11.922   8.845  28.685  1.00  0.00     0.038 A 
HETATM   43  C14 UNL     1     -12.438   8.895  29.990  1.00  0.00     0.032 A 
BRANCH  41  44
HETATM   44  N7  UNL     1     -10.351   7.997  27.042  1.00  0.00    -0.116 N 
HETATM   45  O1  UNL     1      -9.183   7.624  26.825  1.00  0.00    -0.532 OA
HETATM   46  O2  UNL     1     -11.116   8.364  25.980  1.00  0.00    -0.532 OA
ENDBRANCH  41  44
ENDBRANCH  36  38
ENDBRANCH  34  36
ENDBRANCH  32  34
ENDBRANCH   6  32
TORSDOF 14
ENDMDL
MODEL 2
REMARK VINA RESULT: -5.107914698      1.907      2.908
REMARK  14 active torsions:
REMARK  status: ('A' for Active; 'I' for Inactive)
REMARK    1  A    between atoms: N1_2  and  C2_3 
REMARK    2  A    between atoms: N1_2  and  N9_32 
REMARK    3  A    between atoms: C2_3  and  C3_4 
REMARK    4  A    between atoms: C3_4  and  N2_5 
REMARK    5  A    between atoms: N2_5  and  C4_7 
REMARK    6  A    between atoms: C7_12  and  N5_13 
REMARK    7  A    between atoms: N5_13  and  C8_15 
REMARK    8  A    between atoms: C8_15  and  N6_17 
REMARK    9  A    between atoms: N6_17  and  C9_19 
REMARK   10  A    between atoms: C12_22  and  N7_23 
REMARK   11  A    between atoms: C17_34  and  O4_35 
REMARK   12  A    between atoms: C17_34  and  C18_37 
REMARK   13  A    between atoms: C18_37  and  N10_38 
REMARK   14  A    between atoms: C18_37  and  C19_42 
ROOT
HETATM    1  C4  UNL     1      -8.810  10.872  32.221  1.00  0.00     0.689 A 
HETATM    2  N3  UNL     1      -9.495  11.708  31.345  1.00  0.00    -0.172 N 
HETATM    3  C5  UNL     1      -8.696  12.439  30.374  1.00  0.00     0.177 C 
HETATM    4  C6  UNL     1     -10.803  11.864  31.358  1.00  0.00     0.166 A 
HETATM    5  N4  UNL     1     -11.490  12.740  30.437  1.00  0.00    -0.079 NA
HETATM    6  C7  UNL     1     -11.534  11.171  32.275  1.00  0.00     0.146 A 
HETATM    7  C15 UNL     1     -10.882  10.339  33.148  1.00  0.00     0.291 A 
HETATM    8  O3  UNL     1     -11.528   9.668  34.028  1.00  0.00    -0.265 OA
HETATM    9  N8  UNL     1      -9.535  10.189  33.124  1.00  0.00    -0.149 N 
HETATM   10  C16 UNL     1      -8.915   9.275  34.100  1.00  0.00     0.179 C 
ENDROOT
BRANCH   1  11
HETATM   11  N2  UNL     1      -7.581  10.793  32.130  1.00  0.00    -0.203 N 
ATOM     12  H2  UNL     1      -7.234  11.657  32.545  1.00  0.00     0.183 HD
BRANCH  11  13
HETATM   13  C3  UNL     1      -6.469  10.124  31.750  1.00  0.00     0.100 C 
BRANCH  13  14
HETATM   14  C2  UNL     1      -6.703   8.980  30.763  1.00  0.00     0.187 C 
BRANCH  14  15
HETATM   15  N1  UNL     1      -6.194   7.765  31.333  1.00  0.00    -0.326 N 
HETATM   16  C1  UNL     1      -5.576   7.803  32.631  1.00  0.00     0.171 C 
BRANCH  15  17
HETATM   17  N9  UNL     1      -6.292   6.567  30.650  1.00  0.00    -0.284 N 
HETATM   18  C17 UNL     1      -5.380   6.148  29.831  1.00  0.00     0.168 C 
ATOM     19  H9  UNL     1      -7.119   5.987  30.797  1.00  0.00     0.188 HD
BRANCH  18  20
HETATM   20  O4  UNL     1      -4.220   6.885  29.576  1.00  0.00    -0.346 OA
ATOM     21  H4  UNL     1      -4.155   7.481  28.838  1.00  0.00     0.219 HD
ENDBRANCH  18  20
BRANCH  18  22
HETATM   22  C18 UNL     1      -5.538   4.862  29.130  1.00  0.00     0.322 C 
BRANCH  22  23
HETATM   23  N10 UNL     1      -6.508   4.990  28.078  1.00  0.00    -0.061 N 
ATOM     24 3H10 UNL     1      -7.164   5.750  28.254  1.00  0.00     0.275 HD
ATOM     25 2H10 UNL     1      -6.092   5.348  27.218  1.00  0.00     0.275 HD
ATOM     26 1H10 UNL     1      -6.984   4.101  27.931  1.00  0.00     0.275 HD
ENDBRANCH  22  23
BRANCH  22  27
HETATM   27  C19 UNL     1      -4.257   4.332  28.598  1.00  0.00     0.125 C 
HETATM   28  N11 UNL     1      -3.994   4.320  27.335  1.00  0.00    -0.389 N 
ATOM     29 2H11 UNL     1      -4.707   4.690  26.706  1.00  0.00     0.157 HD
ATOM     30 1H11 UNL     1      -3.113   3.956  26.969  1.00  0.00     0.157 HD
HETATM   31  N12 UNL     1      -3.263   3.815  29.474  1.00  0.00    -0.085 NA
ENDBRANCH  22  27
ENDBRANCH  18  22
ENDBRANCH  15  17
ENDBRANCH  14  15
ENDBRANCH  13  14
ENDBRANCH  11  13
ENDBRANCH   1  11
BRANCH   6  32
HETATM   32  N5  UNL     1     -12.956  11.304  32.330  1.00  0.00    -0.326 N 
ATOM     33  H5  UNL     1     -13.356  12.105  32.819  1.00  0.00     0.168 HD
BRANCH  32  34
HETATM   34  C8  UNL     1     -13.835  10.359  31.726  1.00  0.00     0.177 C 
HETATM   35  S1  UNL     1     -15.142   9.892  32.554  1.00  0.00    -0.041 SA
BRANCH  34  36
HETATM   36  N6  UNL     1     -13.546   9.896  30.428  1.00  0.00    -0.333 N 
ATOM     37  H6  UNL     1     -14.177  10.223  29.697  1.00  0.00     0.168 HD
BRANCH  36  38
HETATM   38  C9  UNL     1     -12.513   9.048  29.995  1.00  0.00     0.034 A 
HETATM   39  C10 UNL     1     -12.198   7.919  30.756  1.00  0.00     0.032 A 
HETATM   40  C11 UNL     1     -11.221   7.031  30.382  1.00  0.00     0.038 A 
HETATM   41  C12 UNL     1     -10.511   7.220  29.234  1.00  0.00     0.103 A 
HETATM   42  C13 UNL     1     -10.804   8.323  28.470  1.00  0.00     0.038 A 
HETATM   43  C14 UNL     1     -11.805   9.229  28.858  1.00  0.00     0.032 A 
BRANCH  41  44
HETATM   44  N7  UNL     1      -9.492   6.314  28.821  1.00  0.00    -0.116 N 
HETATM   45  O1  UNL     1      -8.900   5.609  29.660  1.00  0.00    -0.532 OA
HETATM   46  O2  UNL     1      -9.136   6.192  27.515  1.00  0.00    -0.532 OA
ENDBRANCH  41  44
ENDBRANCH  36  38
ENDBRANCH  34  36
ENDBRANCH  32  34
ENDBRANCH   6  32
TORSDOF 14
ENDMDL
MODEL 3
REMARK VINA RESULT: -5.073912117      3.153      7.748
REMARK  14 active torsions:
REMARK  status: ('A' for Active; 'I' for Inactive)
REMARK    1  A    between atoms: N1_2  and  C2_3 
REMARK    2  A    between atoms: N1_2  and  N9_32 
REMARK    3  A    between atoms: C2_3  and  C3_4 
REMARK    4  A    between atoms: C3_4  and  N2_5 
REMARK    5  A    between atoms: N2_5  and  C4_7 
REMARK    6  A    between atoms: C7_12  and  N5_13 
REMARK    7  A    between atoms: N5_13  and  C8_15 
REMARK    8  A    between atoms: C8_15  and  N6_17 
REMARK    9  A    between atoms: N6_17  and  C9_19 
REMARK   10  A    between atoms: C12_22  and  N7_23 
REMARK   11  A    between atoms: C17_34  and  O4_35 
REMARK   12  A    between atoms: C17_34  and  C18_37 
REMARK   13  A    between atoms: C18_37  and  N10_38 
REMARK   14  A    between atoms: C18_37  and  C19_42 
ROOT
HETATM    1  C4  UNL     1     -11.957   8.989  29.472  1.00  0.00     0.689 A 
HETATM    2  N3  UNL     1     -10.773   8.331  29.794  1.00  0.00    -0.172 N 
HETATM    3  C5  UNL     1     -10.895   6.993  30.351  1.00  0.00     0.177 C 
HETATM    4  C6  UNL     1      -9.577   8.856  29.622  1.00  0.00     0.166 A 
HETATM    5  N4  UNL     1      -8.363   8.151  29.965  1.00  0.00    -0.079 NA
HETATM    6  C7  UNL     1      -9.484  10.110  29.099  1.00  0.00     0.146 A 
HETATM    7  C15 UNL     1     -10.635  10.778  28.773  1.00  0.00     0.291 A 
HETATM    8  O3  UNL     1     -10.597  11.960  28.279  1.00  0.00    -0.265 OA
HETATM    9  N8  UNL     1     -11.860  10.227  28.956  1.00  0.00    -0.149 N 
HETATM   10  C16 UNL     1     -13.047  11.015  28.579  1.00  0.00     0.179 C 
ENDROOT
BRANCH   1  11
HETATM   11  N2  UNL     1     -13.031   8.413  29.671  1.00  0.00    -0.203 N 
ATOM     12  H2  UNL     1     -13.299   8.042  28.760  1.00  0.00     0.183 HD
BRANCH  11  13
HETATM   13  C3  UNL     1     -14.026   8.032  30.504  1.00  0.00     0.100 C 
BRANCH  13  14
HETATM   14  C2  UNL     1     -15.020   9.133  30.876  1.00  0.00     0.187 C 
BRANCH  14  15
HETATM   15  N1  UNL     1     -14.574   9.769  32.083  1.00  0.00    -0.326 N 
HETATM   16  C1  UNL     1     -14.665  11.199  32.199  1.00  0.00     0.171 C 
BRANCH  15  17
HETATM   17  N9  UNL     1     -14.062   9.022  33.128  1.00  0.00    -0.284 N 
HETATM   18  C17 UNL     1     -14.811   8.431  34.004  1.00  0.00     0.168 C 
ATOM     19  H9  UNL     1     -13.049   8.933  33.213  1.00  0.00     0.188 HD
BRANCH  18  20
HETATM   20  O4  UNL     1     -16.206   8.508  33.956  1.00  0.00    -0.346 OA
ATOM     21  H4  UNL     1     -16.716   8.846  34.683  1.00  0.00     0.219 HD
ENDBRANCH  18  20
BRANCH  18  22
HETATM   22  C18 UNL     1     -14.208   7.649  35.097  1.00  0.00     0.322 C 
BRANCH  22  23
HETATM   23  N10 UNL     1     -12.775   7.727  35.027  1.00  0.00    -0.061 N 
ATOM     24 3H10 UNL     1     -12.327   6.958  35.525  1.00  0.00     0.275 HD
ATOM     25 2H10 UNL     1     -12.427   7.521  34.091  1.00  0.00     0.275 HD
ATOM     26 1H10 UNL     1     -12.457   8.636  35.362  1.00  0.00     0.275 HD
ENDBRANCH  22  23
BRANCH  22  27
HETATM   27  C19 UNL     1     -14.688   8.066  36.439  1.00  0.00     0.125 C 
HETATM   28  N11 UNL     1     -13.963   8.777  37.235  1.00  0.00    -0.389 N 
ATOM     29 2H11 UNL     1     -13.035   9.045  36.906  1.00  0.00     0.157 HD
ATOM     30 1H11 UNL     1     -14.293   9.064  38.157  1.00  0.00     0.157 HD
HETATM   31  N12 UNL     1     -15.981   7.692  36.898  1.00  0.00    -0.085 NA
ENDBRANCH  22  27
ENDBRANCH  18  22
ENDBRANCH  15  17
ENDBRANCH  14  15
ENDBRANCH  13  14
ENDBRANCH  11  13
ENDBRANCH   1  11
BRANCH   6  32
HETATM   32  N5  UNL     1      -8.209  10.724  28.892  1.00  0.00    -0.326 N 
ATOM     33  H5  UNL     1      -7.694  10.509  28.038  1.00  0.00     0.168 HD
BRANCH  32  34
HETATM   34  C8  UNL     1      -7.634  11.625  29.833  1.00  0.00     0.177 C 
HETATM   35  S1  UNL     1      -7.053  13.032  29.290  1.00  0.00    -0.041 SA
BRANCH  34  36
HETATM   36  N6  UNL     1      -7.624  11.269  31.196  1.00  0.00    -0.333 N 
ATOM     37  H6  UNL     1      -6.750  10.870  31.536  1.00  0.00     0.168 HD
BRANCH  36  38
HETATM   38  C9  UNL     1      -8.646  11.383  32.153  1.00  0.00     0.034 A 
HETATM   39  C10 UNL     1      -8.832  10.347  33.073  1.00  0.00     0.032 A 
HETATM   40  C11 UNL     1      -9.791  10.401  34.054  1.00  0.00     0.038 A 
HETATM   41  C12 UNL     1     -10.609  11.485  34.169  1.00  0.00     0.103 A 
HETATM   42  C13 UNL     1     -10.442  12.516  33.277  1.00  0.00     0.038 A 
HETATM   43  C14 UNL     1      -9.459  12.456  32.275  1.00  0.00     0.032 A 
BRANCH  41  44
HETATM   44  N7  UNL     1     -11.611  11.568  35.178  1.00  0.00    -0.116 N 
HETATM   45  O1  UNL     1     -12.442  10.650  35.315  1.00  0.00    -0.532 OA
HETATM   46  O2  UNL     1     -11.693  12.638  36.013  1.00  0.00    -0.532 OA
ENDBRANCH  41  44
ENDBRANCH  36  38
ENDBRANCH  34  36
ENDBRANCH  32  34
ENDBRANCH   6  32
TORSDOF 14
ENDMDL
MODEL 4
REMARK VINA RESULT: -5.060619790      3.781      7.956
REMARK  14 active torsions:
REMARK  status: ('A' for Active; 'I' for Inactive)
REMARK    1  A    between atoms: N1_2  and  C2_3 
REMARK    2  A    between atoms: N1_2  and  N9_32 
REMARK    3  A    between atoms: C2_3  and  C3_4 
REMARK    4  A    between atoms: C3_4  and  N2_5 
REMARK    5  A    between atoms: N2_5  and  C4_7 
REMARK    6  A    between atoms: C7_12  and  N5_13 
REMARK    7  A    between atoms: N5_13  and  C8_15 
REMARK    8  A    between atoms: C8_15  and  N6_17 
REMARK    9  A    between atoms: N6_17  and  C9_19 
REMARK   10  A    between atoms: C12_22  and  N7_23 
REMARK   11  A    between atoms: C17_34  and  O4_35 
REMARK   12  A    between atoms: C17_34  and  C18_37 
REMARK   13  A    between atoms: C18_37  and  N10_38 
REMARK   14  A    between atoms: C18_37  and  C19_42 
ROOT
HETATM    1  C4  UNL     1      -9.359   9.103  30.817  1.00  0.00     0.689 A 
HETATM    2  N3  UNL     1      -9.645   7.942  30.105  1.00  0.00    -0.172 N 
HETATM    3  C5  UNL     1     -10.841   7.210  30.493  1.00  0.00     0.177 C 
HETATM    4  C6  UNL     1      -8.898   7.487  29.120  1.00  0.00     0.166 A 
HETATM    5  N4  UNL     1      -9.218   6.278  28.397  1.00  0.00    -0.079 NA
HETATM    6  C7  UNL     1      -7.783   8.187  28.771  1.00  0.00     0.146 A 
HETATM    7  C15 UNL     1      -7.480   9.334  29.456  1.00  0.00     0.291 A 
HETATM    8  O3  UNL     1      -6.441  10.025  29.164  1.00  0.00    -0.265 OA
HETATM    9  N8  UNL     1      -8.258   9.791  30.469  1.00  0.00    -0.149 N 
HETATM   10  C16 UNL     1      -7.859  11.033  31.153  1.00  0.00     0.179 C 
ENDROOT
BRANCH   1  11
HETATM   11  N2  UNL     1     -10.122   9.448  31.725  1.00  0.00    -0.203 N 
ATOM     12  H2  UNL     1     -11.052   9.414  31.309  1.00  0.00     0.183 HD
BRANCH  11  13
HETATM   13  C3  UNL     1     -10.331   9.848  33.000  1.00  0.00     0.100 C 
BRANCH  13  14
HETATM   14  C2  UNL     1     -10.848   8.763  33.945  1.00  0.00     0.187 C 
BRANCH  14  15
HETATM   15  N1  UNL     1     -12.253   8.965  34.155  1.00  0.00    -0.326 N 
HETATM   16  C1  UNL     1     -12.692  10.077  34.956  1.00  0.00     0.171 C 
BRANCH  15  17
HETATM   17  N9  UNL     1     -13.183   8.106  33.599  1.00  0.00    -0.284 N 
HETATM   18  C17 UNL     1     -13.730   8.314  32.443  1.00  0.00     0.168 C 
ATOM     19  H9  UNL     1     -13.450   7.272  34.121  1.00  0.00     0.188 HD
BRANCH  18  20
HETATM   20  O4  UNL     1     -13.416   9.435  31.668  1.00  0.00    -0.346 OA
ATOM     21  H4  UNL     1     -14.066  10.093  31.451  1.00  0.00     0.219 HD
ENDBRANCH  18  20
BRANCH  18  22
HETATM   22  C18 UNL     1     -14.715   7.364  31.901  1.00  0.00     0.322 C 
BRANCH  22  23
HETATM   23  N10 UNL     1     -15.009   6.349  32.874  1.00  0.00    -0.061 N 
ATOM     24 3H10 UNL     1     -14.542   5.468  32.660  1.00  0.00     0.275 HD
ATOM     25 2H10 UNL     1     -14.564   6.540  33.771  1.00  0.00     0.275 HD
ATOM     26 1H10 UNL     1     -16.018   6.233  32.965  1.00  0.00     0.275 HD
ENDBRANCH  22  23
BRANCH  22  27
HETATM   27  C19 UNL     1     -15.964   8.025  31.442  1.00  0.00     0.125 C 
HETATM   28  N11 UNL     1     -17.012   8.102  32.191  1.00  0.00    -0.389 N 
ATOM     29 2H11 UNL     1     -16.952   7.687  33.121  1.00  0.00     0.157 HD
ATOM     30 1H11 UNL     1     -17.869   8.557  31.876  1.00  0.00     0.157 HD
HETATM   31  N12 UNL     1     -16.047   8.603  30.145  1.00  0.00    -0.085 NA
ENDBRANCH  22  27
ENDBRANCH  18  22
ENDBRANCH  15  17
ENDBRANCH  14  15
ENDBRANCH  13  14
ENDBRANCH  11  13
ENDBRANCH   1  11
BRANCH   6  32
HETATM   32  N5  UNL     1      -6.938   7.736  27.708  1.00  0.00    -0.326 N 
ATOM     33  H5  UNL     1      -7.170   8.001  26.751  1.00  0.00     0.168 HD
BRANCH  32  34
HETATM   34  C8  UNL     1      -5.785   6.933  27.939  1.00  0.00     0.177 C 
HETATM   35  S1  UNL     1      -4.462   7.221  27.057  1.00  0.00    -0.041 SA
BRANCH  34  36
HETATM   36  N6  UNL     1      -5.835   5.945  28.942  1.00  0.00    -0.333 N 
ATOM     37  H6  UNL     1      -6.444   5.152  28.743  1.00  0.00     0.168 HD
BRANCH  36  38
HETATM   38  C9  UNL     1      -5.167   5.896  30.177  1.00  0.00     0.034 A 
HETATM   39  C10 UNL     1      -5.813   6.383  31.317  1.00  0.00     0.032 A 
HETATM   40  C11 UNL     1      -5.235   6.343  32.560  1.00  0.00     0.038 A 
HETATM   41  C12 UNL     1      -3.989   5.816  32.733  1.00  0.00     0.103 A 
HETATM   42  C13 UNL     1      -3.337   5.330  31.626  1.00  0.00     0.038 A 
HETATM   43  C14 UNL     1      -3.933   5.374  30.355  1.00  0.00     0.032 A 
BRANCH  41  44
HETATM   44  N7  UNL     1      -3.365   5.761  34.012  1.00  0.00    -0.116 N 
HETATM   45  O1  UNL     1      -2.868   4.696  34.423  1.00  0.00    -0.532 OA
HETATM   46  O2  UNL     1      -3.294   6.855  34.816  1.00  0.00    -0.532 OA
ENDBRANCH  41  44
ENDBRANCH  36  38
ENDBRANCH  34  36
ENDBRANCH  32  34
ENDBRANCH   6  32
TORSDOF 14
ENDMDL
MODEL 5
REMARK VINA RESULT: -5.049678544      1.891      3.161
REMARK  14 active torsions:
REMARK  status: ('A' for Active; 'I' for Inactive)
REMARK    1  A    between atoms: N1_2  and  C2_3 
REMARK    2  A    between atoms: N1_2  and  N9_32 
REMARK    3  A    between atoms: C2_3  and  C3_4 
REMARK    4  A    between atoms: C3_4  and  N2_5 
REMARK    5  A    between atoms: N2_5  and  C4_7 
REMARK    6  A    between atoms: C7_12  and  N5_13 
REMARK    7  A    between atoms: N5_13  and  C8_15 
REMARK    8  A    between atoms: C8_15  and  N6_17 
REMARK    9  A    between atoms: N6_17  and  C9_19 
REMARK   10  A    between atoms: C12_22  and  N7_23 
REMARK   11  A    between atoms: C17_34  and  O4_35 
REMARK   12  A    between atoms: C17_34  and  C18_37 
REMARK   13  A    between atoms: C18_37  and  N10_38 
REMARK   14  A    between atoms: C18_37  and  C19_42 
ROOT
HETATM    1  C4  UNL     1      -9.047  10.885  32.384  1.00  0.00     0.689 A 
HETATM    2  N3  UNL     1      -9.657  11.711  31.445  1.00  0.00    -0.172 N 
HETATM    3  C5  UNL     1      -8.779  12.463  30.561  1.00  0.00     0.177 C 
HETATM    4  C6  UNL     1     -10.962  11.839  31.324  1.00  0.00     0.166 A 
HETATM    5  N4  UNL     1     -11.571  12.704  30.340  1.00  0.00    -0.079 NA
HETATM    6  C7  UNL     1     -11.767  11.127  32.161  1.00  0.00     0.146 A 
HETATM    7  C15 UNL     1     -11.190  10.306  33.094  1.00  0.00     0.291 A 
HETATM    8  O3  UNL     1     -11.907   9.617  33.902  1.00  0.00    -0.265 OA
HETATM    9  N8  UNL     1      -9.844  10.183  33.207  1.00  0.00    -0.149 N 
HETATM   10  C16 UNL     1      -9.307   9.279  34.239  1.00  0.00     0.179 C 
ENDROOT
BRANCH   1  11
HETATM   11  N2  UNL     1      -7.813  10.833  32.418  1.00  0.00    -0.203 N 
ATOM     12  H2  UNL     1      -7.512  11.250  31.538  1.00  0.00     0.183 HD
BRANCH  11  13
HETATM   13  C3  UNL     1      -6.666  10.493  33.049  1.00  0.00     0.100 C 
BRANCH  13  14
HETATM   14  C2  UNL     1      -5.433  10.398  32.148  1.00  0.00     0.187 C 
BRANCH  14  15
HETATM   15  N1  UNL     1      -5.359   9.072  31.605  1.00  0.00    -0.326 N 
HETATM   16  C1  UNL     1      -5.321   7.947  32.500  1.00  0.00     0.171 C 
BRANCH  15  17
HETATM   17  N9  UNL     1      -5.324   8.868  30.238  1.00  0.00    -0.284 N 
HETATM   18  C17 UNL     1      -6.394   8.743  29.518  1.00  0.00     0.168 C 
ATOM     19  H9  UNL     1      -4.416   8.814  29.775  1.00  0.00     0.188 HD
BRANCH  18  20
HETATM   20  O4  UNL     1      -7.673   8.804  30.078  1.00  0.00    -0.346 OA
ATOM     21  H4  UNL     1      -8.456   8.658  29.560  1.00  0.00     0.219 HD
ENDBRANCH  18  20
BRANCH  18  22
HETATM   22  C18 UNL     1      -6.295   8.528  28.064  1.00  0.00     0.322 C 
BRANCH  22  23
HETATM   23  N10 UNL     1      -6.289   7.121  27.774  1.00  0.00    -0.061 N 
ATOM     24 3H10 UNL     1      -6.146   6.937  26.781  1.00  0.00     0.275 HD
ATOM     25 2H10 UNL     1      -5.452   6.661  28.133  1.00  0.00     0.275 HD
ATOM     26 1H10 UNL     1      -7.143   6.687  28.123  1.00  0.00     0.275 HD
ENDBRANCH  22  23
BRANCH  22  27
HETATM   27  C19 UNL     1      -7.372   9.212  27.304  1.00  0.00     0.125 C 
HETATM   28  N11 UNL     1      -7.978   8.646  26.316  1.00  0.00    -0.389 N 
ATOM     29 2H11 UNL     1      -7.687   7.699  26.071  1.00  0.00     0.157 HD
ATOM     30 1H11 UNL     1      -8.718   9.116  25.794  1.00  0.00     0.157 HD
HETATM   31  N12 UNL     1      -7.777  10.532  27.645  1.00  0.00    -0.085 NA
ENDBRANCH  22  27
ENDBRANCH  18  22
ENDBRANCH  15  17
ENDBRANCH  14  15
ENDBRANCH  13  14
ENDBRANCH  11  13
ENDBRANCH   1  11
BRANCH   6  32
HETATM   32  N5  UNL     1     -13.191  11.230  32.071  1.00  0.00    -0.326 N 
ATOM     33  H5  UNL     1     -13.643  12.082  32.402  1.00  0.00     0.168 HD
BRANCH  32  34
HETATM   34  C8  UNL     1     -13.999  10.186  31.536  1.00  0.00     0.177 C 
HETATM   35  S1  UNL     1     -15.288   9.705  32.384  1.00  0.00    -0.041 SA
BRANCH  34  36
HETATM   36  N6  UNL     1     -13.660   9.639  30.283  1.00  0.00    -0.333 N 
ATOM     37  H6  UNL     1     -14.265   9.913  29.509  1.00  0.00     0.168 HD
BRANCH  36  38
HETATM   38  C9  UNL     1     -12.609   8.770  29.946  1.00  0.00     0.034 A 
HETATM   39  C10 UNL     1     -11.884   9.006  28.774  1.00  0.00     0.032 A 
HETATM   40  C11 UNL     1     -10.827   8.218  28.395  1.00  0.00     0.038 A 
HETATM   41  C12 UNL     1     -10.438   7.158  29.159  1.00  0.00     0.103 A 
HETATM   42  C13 UNL     1     -11.137   6.909  30.316  1.00  0.00     0.038 A 
HETATM   43  C14 UNL     1     -12.218   7.719  30.700  1.00  0.00     0.032 A 
BRANCH  41  44
HETATM   44  N7  UNL     1      -9.345   6.323  28.790  1.00  0.00    -0.116 N 
HETATM   45  O1  UNL     1      -9.126   6.069  27.590  1.00  0.00    -0.532 OA
HETATM   46  O2  UNL     1      -8.516   5.784  29.722  1.00  0.00    -0.532 OA
ENDBRANCH  41  44
ENDBRANCH  36  38
ENDBRANCH  34  36
ENDBRANCH  32  34
ENDBRANCH   6  32
TORSDOF 14
ENDMDL
