MODEL 1
REMARK VINA RESULT: -8.357367988      0.000      0.000
REMARK  11 active torsions:
REMARK  status: ('A' for Active; 'I' for Inactive)
REMARK    1  A    between atoms: C2_2  and  C3_3 
REMARK    2  A    between atoms: C2_2  and  N5_36 
REMARK    3  A    between atoms: C3_3  and  N1_4 
REMARK    4  A    between atoms: C4_6  and  C5_7 
REMARK    5  A    between atoms: C7_11  and  C8_12 
REMARK       I    between atoms: C8_12  and  N2_14 
REMARK    6  A    between atoms: N2_14  and  N3_16 
REMARK    7  A    between atoms: N3_16  and  C9_18 
REMARK    8  A    between atoms: C13_27  and  O7_28 
REMARK    9  A    between atoms: C16_33  and  O9_34 
REMARK   10  A    between atoms: N5_36  and  N6_38 
REMARK   11  A    between atoms: N6_38  and  O10_42 
ROOT
HETATM    1  C5  UNL     1      53.017 -51.066  78.212  1.00  0.00     0.127 A 
HETATM    2  O1  UNL     1      52.005 -51.682  77.686  1.00  0.00    -0.283 OA
HETATM    3  C6  UNL     1      51.279 -50.894  76.910  1.00  0.00     0.209 A 
HETATM    4  O2  UNL     1      50.201 -51.100  76.203  1.00  0.00    -0.278 OA
HETATM    5  C7  UNL     1      49.607 -50.156  75.470  1.00  0.00     0.184 A 
HETATM    6  C13 UNL     1      50.164 -48.913  75.467  1.00  0.00     0.157 A 
HETATM    7  C14 UNL     1      51.337 -48.647  76.222  1.00  0.00     0.225 A 
HETATM    8  O8  UNL     1      51.854 -47.526  76.232  1.00  0.00    -0.284 OA
HETATM    9  C15 UNL     1      51.893 -49.664  76.952  1.00  0.00     0.112 A 
HETATM   10  C16 UNL     1      53.006 -49.761  77.782  1.00  0.00     0.120 A 
ENDROOT
BRANCH   5  11
HETATM   11  C8  UNL     1      48.397 -50.541  74.725  1.00  0.00     0.296 C 
HETATM   12  O3  UNL     1      48.244 -51.674  74.290  1.00  0.00    -0.264 OA
HETATM   13  N2  UNL     1      47.378 -49.578  74.504  1.00  0.00    -0.262 N 
ATOM     14  H2  UNL     1      47.536 -48.641  74.873  1.00  0.00     0.190 HD
BRANCH  13  15
HETATM   15  N3  UNL     1      46.193 -49.798  73.833  1.00  0.00    -0.277 N 
ATOM     16  H3  UNL     1      46.220 -50.156  72.878  1.00  0.00     0.189 HD
BRANCH  15  17
HETATM   17  C9  UNL     1      44.931 -49.537  74.441  1.00  0.00     0.172 A 
HETATM   18  C10 UNL     1      44.886 -48.922  75.683  1.00  0.00     0.132 A 
HETATM   19  C11 UNL     1      43.675 -48.667  76.274  1.00  0.00     0.253 A 
HETATM   20  O4  UNL     1      43.581 -48.114  77.395  1.00  0.00    -0.268 OA
HETATM   21  N4  UNL     1      42.546 -49.026  75.625  1.00  0.00    -0.269 N 
HETATM   22  C12 UNL     1      42.619 -49.625  74.414  1.00  0.00     0.374 A 
ATOM     23  H4  UNL     1      41.636 -48.846  76.049  1.00  0.00     0.174 HD
HETATM   24  O5  UNL     1      41.544 -49.940  73.847  1.00  0.00    -0.238 OA
HETATM   25  O6  UNL     1      43.801 -49.852  73.881  1.00  0.00    -0.242 OA
ENDBRANCH  15  17
ENDBRANCH  13  15
ENDBRANCH   5  11
BRANCH   6  26
HETATM   26  O7  UNL     1      49.662 -47.872  74.769  1.00  0.00    -0.355 OA
ATOM     27  H7  UNL     1      49.119 -47.195  75.156  1.00  0.00     0.218 HD
ENDBRANCH   6  26
BRANCH   1  28
HETATM   28  C4  UNL     1      54.015 -51.678  79.126  1.00  0.00     0.123 C 
HETATM   29  N1  UNL     1      55.242 -51.275  79.036  1.00  0.00    -0.395 N 
ATOM     30  H1  UNL     1      55.490 -50.559  78.353  1.00  0.00     0.159 HD
BRANCH  29  31
HETATM   31  C3  UNL     1      56.251 -51.824  79.886  1.00  0.00     0.145 C 
BRANCH  31  32
HETATM   32  C2  UNL     1      56.964 -50.763  80.684  1.00  0.00     0.117 C 
HETATM   33  C1  UNL     1      58.295 -51.349  81.127  1.00  0.00     0.035 C 
BRANCH  32  34
HETATM   34  N5  UNL     1      56.175 -50.386  81.822  1.00  0.00    -0.289 N 
ATOM     35  H5  UNL     1      56.316 -50.862  82.714  1.00  0.00     0.184 HD
BRANCH  34  36
HETATM   36  N6  UNL     1      55.216 -49.377  81.722  1.00  0.00    -0.106 N 
HETATM   37  N7  UNL     1      54.315 -49.216  82.591  1.00  0.00    -0.304 N 
ATOM     38  H72 UNL     1      54.293 -49.850  83.390  1.00  0.00     0.180 HD
ATOM     39  H71 UNL     1      53.615 -48.478  82.518  1.00  0.00     0.180 HD
BRANCH  36  40
HETATM   40  O10 UNL     1      55.246 -48.524  80.648  1.00  0.00    -0.254 OA
ATOM     41  H10 UNL     1      55.090 -47.597  80.784  1.00  0.00     0.248 HD
ENDBRANCH  36  40
ENDBRANCH  34  36
ENDBRANCH  32  34
ENDBRANCH  31  32
ENDBRANCH  29  31
ENDBRANCH   1  28
BRANCH  10  42
HETATM   42  O9  UNL     1      53.905 -48.738  78.095  1.00  0.00    -0.357 OA
ATOM     43  H9  UNL     1      53.802 -47.803  77.964  1.00  0.00     0.218 HD
ENDBRANCH  10  42
TORSDOF 11
ENDMDL
MODEL 2
REMARK VINA RESULT: -8.316800337      2.077     11.012
REMARK  11 active torsions:
REMARK  status: ('A' for Active; 'I' for Inactive)
REMARK    1  A    between atoms: C2_2  and  C3_3 
REMARK    2  A    between atoms: C2_2  and  N5_36 
REMARK    3  A    between atoms: C3_3  and  N1_4 
REMARK    4  A    between atoms: C4_6  and  C5_7 
REMARK    5  A    between atoms: C7_11  and  C8_12 
REMARK       I    between atoms: C8_12  and  N2_14 
REMARK    6  A    between atoms: N2_14  and  N3_16 
REMARK    7  A    between atoms: N3_16  and  C9_18 
REMARK    8  A    between atoms: C13_27  and  O7_28 
REMARK    9  A    between atoms: C16_33  and  O9_34 
REMARK   10  A    between atoms: N5_36  and  N6_38 
REMARK   11  A    between atoms: N6_38  and  O10_42 
ROOT
HETATM    1  C5  UNL     1      47.237 -49.608  76.490  1.00  0.00     0.127 A 
HETATM    2  O1  UNL     1      47.854 -50.595  77.061  1.00  0.00    -0.283 OA
HETATM    3  C6  UNL     1      49.166 -50.429  77.081  1.00  0.00     0.209 A 
HETATM    4  O2  UNL     1      50.142 -51.161  77.546  1.00  0.00    -0.278 OA
HETATM    5  C7  UNL     1      51.428 -50.812  77.469  1.00  0.00     0.184 A 
HETATM    6  C13 UNL     1      51.727 -49.626  76.869  1.00  0.00     0.157 A 
HETATM    7  C14 UNL     1      50.695 -48.801  76.349  1.00  0.00     0.225 A 
HETATM    8  O8  UNL     1      50.949 -47.725  75.801  1.00  0.00    -0.284 OA
HETATM    9  C15 UNL     1      49.397 -49.222  76.464  1.00  0.00     0.112 A 
HETATM   10  C16 UNL     1      48.170 -48.687  76.081  1.00  0.00     0.120 A 
ENDROOT
BRANCH   5  11
HETATM   11  C8  UNL     1      52.415 -51.742  78.041  1.00  0.00     0.296 C 
HETATM   12  O3  UNL     1      52.344 -52.949  77.857  1.00  0.00    -0.264 OA
HETATM   13  N2  UNL     1      53.480 -51.231  78.829  1.00  0.00    -0.262 N 
ATOM     14  H2  UNL     1      53.510 -50.221  78.971  1.00  0.00     0.190 HD
BRANCH  13  15
HETATM   15  N3  UNL     1      54.477 -51.979  79.420  1.00  0.00    -0.277 N 
ATOM     16  H3  UNL     1      54.271 -52.930  79.725  1.00  0.00     0.189 HD
BRANCH  15  17
HETATM   17  C9  UNL     1      55.788 -51.454  79.615  1.00  0.00     0.172 A 
HETATM   18  C10 UNL     1      56.459 -51.719  80.799  1.00  0.00     0.132 A 
HETATM   19  C11 UNL     1      57.721 -51.218  80.993  1.00  0.00     0.253 A 
HETATM   20  O4  UNL     1      58.369 -51.427  82.046  1.00  0.00    -0.268 OA
HETATM   21  N4  UNL     1      58.282 -50.472  80.016  1.00  0.00    -0.269 N 
HETATM   22  C12 UNL     1      57.605 -50.231  78.871  1.00  0.00     0.374 A 
ATOM     23  H4  UNL     1      59.219 -50.091  80.143  1.00  0.00     0.174 HD
HETATM   24  O5  UNL     1      58.166 -49.534  77.990  1.00  0.00    -0.238 OA
HETATM   25  O6  UNL     1      56.395 -50.729  78.723  1.00  0.00    -0.242 OA
ENDBRANCH  15  17
ENDBRANCH  13  15
ENDBRANCH   5  11
BRANCH   6  26
HETATM   26  O7  UNL     1      52.986 -49.160  76.726  1.00  0.00    -0.355 OA
ATOM     27  H7  UNL     1      53.364 -48.918  75.888  1.00  0.00     0.218 HD
ENDBRANCH   6  26
BRANCH   1  28
HETATM   28  C4  UNL     1      45.765 -49.501  76.314  1.00  0.00     0.123 C 
HETATM   29  N1  UNL     1      45.239 -48.319  76.342  1.00  0.00    -0.395 N 
ATOM     30  H1  UNL     1      45.836 -47.503  76.482  1.00  0.00     0.159 HD
BRANCH  29  31
HETATM   31  C3  UNL     1      43.830 -48.147  76.179  1.00  0.00     0.145 C 
BRANCH  31  32
HETATM   32  C2  UNL     1      43.459 -47.795  74.762  1.00  0.00     0.117 C 
HETATM   33  C1  UNL     1      43.372 -46.279  74.681  1.00  0.00     0.035 C 
BRANCH  32  34
HETATM   34  N5  UNL     1      42.198 -48.391  74.419  1.00  0.00    -0.289 N 
ATOM     35  H5  UNL     1      41.359 -47.811  74.384  1.00  0.00     0.184 HD
BRANCH  34  36
HETATM   36  N6  UNL     1      42.110 -49.754  74.133  1.00  0.00    -0.106 N 
HETATM   37  N7  UNL     1      41.163 -50.470  74.560  1.00  0.00    -0.304 N 
ATOM     38  H72 UNL     1      40.443 -50.031  75.135  1.00  0.00     0.180 HD
ATOM     39  H71 UNL     1      41.098 -51.467  74.351  1.00  0.00     0.180 HD
BRANCH  36  40
HETATM   40  O10 UNL     1      43.077 -50.344  73.360  1.00  0.00    -0.254 OA
ATOM     41  H10 UNL     1      43.330 -51.243  73.536  1.00  0.00     0.248 HD
ENDBRANCH  36  40
ENDBRANCH  34  36
ENDBRANCH  32  34
ENDBRANCH  31  32
ENDBRANCH  29  31
ENDBRANCH   1  28
BRANCH  10  42
HETATM   42  O9  UNL     1      47.958 -47.472  75.424  1.00  0.00    -0.357 OA
ATOM     43  H9  UNL     1      48.505 -46.695  75.431  1.00  0.00     0.218 HD
ENDBRANCH  10  42
TORSDOF 11
ENDMDL
MODEL 3
REMARK VINA RESULT: -8.269012677      2.122     10.554
REMARK  11 active torsions:
REMARK  status: ('A' for Active; 'I' for Inactive)
REMARK    1  A    between atoms: C2_2  and  C3_3 
REMARK    2  A    between atoms: C2_2  and  N5_36 
REMARK    3  A    between atoms: C3_3  and  N1_4 
REMARK    4  A    between atoms: C4_6  and  C5_7 
REMARK    5  A    between atoms: C7_11  and  C8_12 
REMARK       I    between atoms: C8_12  and  N2_14 
REMARK    6  A    between atoms: N2_14  and  N3_16 
REMARK    7  A    between atoms: N3_16  and  C9_18 
REMARK    8  A    between atoms: C13_27  and  O7_28 
REMARK    9  A    between atoms: C16_33  and  O9_34 
REMARK   10  A    between atoms: N5_36  and  N6_38 
REMARK   11  A    between atoms: N6_38  and  O10_42 
ROOT
HETATM    1  C5  UNL     1      46.740 -49.680  76.463  1.00  0.00     0.127 A 
HETATM    2  O1  UNL     1      47.486 -50.514  77.116  1.00  0.00    -0.283 OA
HETATM    3  C6  UNL     1      48.777 -50.280  76.944  1.00  0.00     0.209 A 
HETATM    4  O2  UNL     1      49.850 -50.865  77.406  1.00  0.00    -0.278 OA
HETATM    5  C7  UNL     1      51.090 -50.470  77.110  1.00  0.00     0.184 A 
HETATM    6  C13 UNL     1      51.234 -49.399  76.280  1.00  0.00     0.157 A 
HETATM    7  C14 UNL     1      50.093 -48.735  75.757  1.00  0.00     0.225 A 
HETATM    8  O8  UNL     1      50.204 -47.765  75.003  1.00  0.00    -0.284 OA
HETATM    9  C15 UNL     1      48.849 -49.195  76.103  1.00  0.00     0.112 A 
HETATM   10  C16 UNL     1      47.552 -48.801  75.788  1.00  0.00     0.120 A 
ENDROOT
BRANCH   5  11
HETATM   11  C8  UNL     1      52.200 -51.229  77.709  1.00  0.00     0.296 C 
HETATM   12  O3  UNL     1      52.151 -52.444  77.841  1.00  0.00    -0.264 OA
HETATM   13  N2  UNL     1      53.362 -50.539  78.146  1.00  0.00    -0.262 N 
ATOM     14  H2  UNL     1      53.372 -49.526  78.028  1.00  0.00     0.190 HD
BRANCH  13  15
HETATM   15  N3  UNL     1      54.476 -51.118  78.716  1.00  0.00    -0.277 N 
ATOM     16  H3  UNL     1      54.907 -51.923  78.262  1.00  0.00     0.189 HD
BRANCH  15  17
HETATM   17  C9  UNL     1      55.042 -50.617  79.925  1.00  0.00     0.172 A 
HETATM   18  C10 UNL     1      54.379 -49.623  80.628  1.00  0.00     0.132 A 
HETATM   19  C11 UNL     1      54.917 -49.137  81.792  1.00  0.00     0.253 A 
HETATM   20  O4  UNL     1      54.358 -48.238  82.463  1.00  0.00    -0.268 OA
HETATM   21  N4  UNL     1      56.090 -49.645  82.228  1.00  0.00    -0.269 N 
HETATM   22  C12 UNL     1      56.715 -50.615  81.523  1.00  0.00     0.374 A 
ATOM     23  H4  UNL     1      56.506 -49.295  83.091  1.00  0.00     0.174 HD
HETATM   24  O5  UNL     1      57.803 -51.058  81.966  1.00  0.00    -0.238 OA
HETATM   25  O6  UNL     1      56.166 -51.054  80.409  1.00  0.00    -0.242 OA
ENDBRANCH  15  17
ENDBRANCH  13  15
ENDBRANCH   5  11
BRANCH   6  26
HETATM   26  O7  UNL     1      52.431 -48.903  75.904  1.00  0.00    -0.355 OA
ATOM     27  H7  UNL     1      52.799 -48.099  76.253  1.00  0.00     0.218 HD
ENDBRANCH   6  26
BRANCH   1  28
HETATM   28  C4  UNL     1      45.254 -49.681  76.455  1.00  0.00     0.123 C 
HETATM   29  N1  UNL     1      44.650 -48.538  76.413  1.00  0.00    -0.395 N 
ATOM     30  H1  UNL     1      45.197 -47.677  76.387  1.00  0.00     0.159 HD
BRANCH  29  31
HETATM   31  C3  UNL     1      43.222 -48.470  76.402  1.00  0.00     0.145 C 
BRANCH  31  32
HETATM   32  C2  UNL     1      42.678 -48.123  75.041  1.00  0.00     0.117 C 
HETATM   33  C1  UNL     1      42.436 -49.432  74.305  1.00  0.00     0.035 C 
BRANCH  32  34
HETATM   34  N5  UNL     1      43.618 -47.309  74.325  1.00  0.00    -0.289 N 
ATOM     35  H5  UNL     1      44.171 -47.720  73.572  1.00  0.00     0.184 HD
BRANCH  34  36
HETATM   36  N6  UNL     1      43.785 -45.961  74.649  1.00  0.00    -0.106 N 
HETATM   37  N7  UNL     1      42.977 -45.072  74.262  1.00  0.00    -0.304 N 
ATOM     38  H72 UNL     1      42.179 -45.356  73.692  1.00  0.00     0.180 HD
ATOM     39  H71 UNL     1      43.098 -44.087  74.498  1.00  0.00     0.180 HD
BRANCH  36  40
HETATM   40  O10 UNL     1      44.856 -45.580  75.415  1.00  0.00    -0.254 OA
ATOM     41  H10 UNL     1      44.713 -45.302  76.312  1.00  0.00     0.248 HD
ENDBRANCH  36  40
ENDBRANCH  34  36
ENDBRANCH  32  34
ENDBRANCH  31  32
ENDBRANCH  29  31
ENDBRANCH   1  28
BRANCH  10  42
HETATM   42  O9  UNL     1      47.180 -47.738  74.961  1.00  0.00    -0.357 OA
ATOM     43  H9  UNL     1      47.701 -47.293  74.303  1.00  0.00     0.218 HD
ENDBRANCH  10  42
TORSDOF 11
ENDMDL
MODEL 4
REMARK VINA RESULT: -8.222138061      0.789      1.394
REMARK  11 active torsions:
REMARK  status: ('A' for Active; 'I' for Inactive)
REMARK    1  A    between atoms: C2_2  and  C3_3 
REMARK    2  A    between atoms: C2_2  and  N5_36 
REMARK    3  A    between atoms: C3_3  and  N1_4 
REMARK    4  A    between atoms: C4_6  and  C5_7 
REMARK    5  A    between atoms: C7_11  and  C8_12 
REMARK       I    between atoms: C8_12  and  N2_14 
REMARK    6  A    between atoms: N2_14  and  N3_16 
REMARK    7  A    between atoms: N3_16  and  C9_18 
REMARK    8  A    between atoms: C13_27  and  O7_28 
REMARK    9  A    between atoms: C16_33  and  O9_34 
REMARK   10  A    between atoms: N5_36  and  N6_38 
REMARK   11  A    between atoms: N6_38  and  O10_42 
ROOT
HETATM    1  C5  UNL     1      53.004 -51.026  78.183  1.00  0.00     0.127 A 
HETATM    2  O1  UNL     1      52.041 -51.674  77.608  1.00  0.00    -0.283 OA
HETATM    3  C6  UNL     1      51.325 -50.909  76.800  1.00  0.00     0.209 A 
HETATM    4  O2  UNL     1      50.289 -51.149  76.043  1.00  0.00    -0.278 OA
HETATM    5  C7  UNL     1      49.699 -50.223  75.285  1.00  0.00     0.184 A 
HETATM    6  C13 UNL     1      50.212 -48.961  75.311  1.00  0.00     0.157 A 
HETATM    7  C14 UNL     1      51.338 -48.658  76.121  1.00  0.00     0.225 A 
HETATM    8  O8  UNL     1      51.814 -47.521  76.158  1.00  0.00    -0.284 OA
HETATM    9  C15 UNL     1      51.894 -49.659  76.874  1.00  0.00     0.112 A 
HETATM   10  C16 UNL     1      52.969 -49.720  77.756  1.00  0.00     0.120 A 
ENDROOT
BRANCH   5  11
HETATM   11  C8  UNL     1      48.540 -50.647  74.482  1.00  0.00     0.296 C 
HETATM   12  O3  UNL     1      48.648 -51.462  73.577  1.00  0.00    -0.264 OA
HETATM   13  N2  UNL     1      47.259 -50.100  74.763  1.00  0.00    -0.262 N 
ATOM     14  H2  UNL     1      47.201 -49.419  75.520  1.00  0.00     0.190 HD
BRANCH  13  15
HETATM   15  N3  UNL     1      46.089 -50.409  74.102  1.00  0.00    -0.277 N 
ATOM     16  H3  UNL     1      46.074 -51.199  73.457  1.00  0.00     0.189 HD
BRANCH  15  17
HETATM   17  C9  UNL     1      44.899 -49.650  74.298  1.00  0.00     0.172 A 
HETATM   18  C10 UNL     1      43.666 -50.241  74.068  1.00  0.00     0.132 A 
HETATM   19  C11 UNL     1      42.517 -49.516  74.255  1.00  0.00     0.253 A 
HETATM   20  O4  UNL     1      41.379 -50.005  74.059  1.00  0.00    -0.268 OA
HETATM   21  N4  UNL     1      42.616 -48.233  74.663  1.00  0.00    -0.269 N 
HETATM   22  C12 UNL     1      43.832 -47.682  74.882  1.00  0.00     0.374 A 
ATOM     23  H4  UNL     1      41.773 -47.678  74.807  1.00  0.00     0.174 HD
HETATM   24  O5  UNL     1      43.876 -46.485  75.262  1.00  0.00    -0.238 OA
HETATM   25  O6  UNL     1      44.911 -48.410  74.690  1.00  0.00    -0.242 OA
ENDBRANCH  15  17
ENDBRANCH  13  15
ENDBRANCH   5  11
BRANCH   6  26
HETATM   26  O7  UNL     1      49.707 -47.936  74.592  1.00  0.00    -0.355 OA
ATOM     27  H7  UNL     1      50.207 -47.162  74.361  1.00  0.00     0.218 HD
ENDBRANCH   6  26
BRANCH   1  28
HETATM   28  C4  UNL     1      53.979 -51.607  79.142  1.00  0.00     0.123 C 
HETATM   29  N1  UNL     1      55.195 -51.167  79.107  1.00  0.00    -0.395 N 
ATOM     30  H1  UNL     1      55.452 -50.444  78.434  1.00  0.00     0.159 HD
BRANCH  29  31
HETATM   31  C3  UNL     1      56.182 -51.684  80.002  1.00  0.00     0.145 C 
BRANCH  31  32
HETATM   32  C2  UNL     1      57.019 -50.595  80.619  1.00  0.00     0.117 C 
HETATM   33  C1  UNL     1      58.371 -51.202  80.960  1.00  0.00     0.035 C 
BRANCH  32  34
HETATM   34  N5  UNL     1      56.381 -50.090  81.802  1.00  0.00    -0.289 N 
ATOM     35  H5  UNL     1      56.749 -50.340  82.720  1.00  0.00     0.184 HD
BRANCH  34  36
HETATM   36  N6  UNL     1      55.262 -49.261  81.708  1.00  0.00    -0.106 N 
HETATM   37  N7  UNL     1      54.342 -49.274  82.572  1.00  0.00    -0.304 N 
ATOM     38  H72 UNL     1      54.426 -49.915  83.361  1.00  0.00     0.180 HD
ATOM     39  H71 UNL     1      53.524 -48.668  82.504  1.00  0.00     0.180 HD
BRANCH  36  40
HETATM   40  O10 UNL     1      55.150 -48.398  80.648  1.00  0.00    -0.254 OA
ATOM     41  H10 UNL     1      55.890 -48.275  80.066  1.00  0.00     0.248 HD
ENDBRANCH  36  40
ENDBRANCH  34  36
ENDBRANCH  32  34
ENDBRANCH  31  32
ENDBRANCH  29  31
ENDBRANCH   1  28
BRANCH  10  42
HETATM   42  O9  UNL     1      53.816 -48.669  78.114  1.00  0.00    -0.357 OA
ATOM     43  H9  UNL     1      53.661 -47.734  78.036  1.00  0.00     0.218 HD
ENDBRANCH  10  42
TORSDOF 11
ENDMDL
MODEL 5
REMARK VINA RESULT: -8.166693416      1.438      1.859
REMARK  11 active torsions:
REMARK  status: ('A' for Active; 'I' for Inactive)
REMARK    1  A    between atoms: C2_2  and  C3_3 
REMARK    2  A    between atoms: C2_2  and  N5_36 
REMARK    3  A    between atoms: C3_3  and  N1_4 
REMARK    4  A    between atoms: C4_6  and  C5_7 
REMARK    5  A    between atoms: C7_11  and  C8_12 
REMARK       I    between atoms: C8_12  and  N2_14 
REMARK    6  A    between atoms: N2_14  and  N3_16 
REMARK    7  A    between atoms: N3_16  and  C9_18 
REMARK    8  A    between atoms: C13_27  and  O7_28 
REMARK    9  A    between atoms: C16_33  and  O9_34 
REMARK   10  A    between atoms: N5_36  and  N6_38 
REMARK   11  A    between atoms: N6_38  and  O10_42 
ROOT
HETATM    1  C5  UNL     1      53.120 -50.998  78.213  1.00  0.00     0.127 A 
HETATM    2  O1  UNL     1      52.122 -51.623  77.672  1.00  0.00    -0.283 OA
HETATM    3  C6  UNL     1      51.374 -50.830  76.922  1.00  0.00     0.209 A 
HETATM    4  O2  UNL     1      50.298 -51.041  76.212  1.00  0.00    -0.278 OA
HETATM    5  C7  UNL     1      49.679 -50.091  75.510  1.00  0.00     0.184 A 
HETATM    6  C13 UNL     1      50.206 -48.835  75.541  1.00  0.00     0.157 A 
HETATM    7  C14 UNL     1      51.375 -48.563  76.300  1.00  0.00     0.225 A 
HETATM    8  O8  UNL     1      51.864 -47.431  76.341  1.00  0.00    -0.284 OA
HETATM    9  C15 UNL     1      51.958 -49.587  76.998  1.00  0.00     0.112 A 
HETATM   10  C16 UNL     1      53.076 -49.682  77.821  1.00  0.00     0.120 A 
ENDROOT
BRANCH   5  11
HETATM   11  C8  UNL     1      48.476 -50.483  74.757  1.00  0.00     0.296 C 
HETATM   12  O3  UNL     1      48.340 -51.611  74.304  1.00  0.00    -0.264 OA
HETATM   13  N2  UNL     1      47.441 -49.533  74.550  1.00  0.00    -0.262 N 
ATOM     14  H2  UNL     1      47.584 -48.599  74.935  1.00  0.00     0.190 HD
BRANCH  13  15
HETATM   15  N3  UNL     1      46.261 -49.761  73.874  1.00  0.00    -0.277 N 
ATOM     16  H3  UNL     1      46.294 -50.122  72.921  1.00  0.00     0.189 HD
BRANCH  15  17
HETATM   17  C9  UNL     1      44.995 -49.505  74.477  1.00  0.00     0.172 A 
HETATM   18  C10 UNL     1      44.942 -48.923  75.734  1.00  0.00     0.132 A 
HETATM   19  C11 UNL     1      43.727 -48.673  76.319  1.00  0.00     0.253 A 
HETATM   20  O4  UNL     1      43.626 -48.150  77.454  1.00  0.00    -0.268 OA
HETATM   21  N4  UNL     1      42.602 -49.003  75.648  1.00  0.00    -0.269 N 
HETATM   22  C12 UNL     1      42.682 -49.569  74.422  1.00  0.00     0.374 A 
ATOM     23  H4  UNL     1      41.689 -48.826  76.067  1.00  0.00     0.174 HD
HETATM   24  O5  UNL     1      41.611 -49.858  73.835  1.00  0.00    -0.238 OA
HETATM   25  O6  UNL     1      43.868 -49.793  73.895  1.00  0.00    -0.242 OA
ENDBRANCH  15  17
ENDBRANCH  13  15
ENDBRANCH   5  11
BRANCH   6  26
HETATM   26  O7  UNL     1      49.675 -47.787  74.876  1.00  0.00    -0.355 OA
ATOM     27  H7  UNL     1      49.853 -46.881  75.098  1.00  0.00     0.218 HD
ENDBRANCH   6  26
BRANCH   1  28
HETATM   28  C4  UNL     1      54.137 -51.612  79.105  1.00  0.00     0.123 C 
HETATM   29  N1  UNL     1      55.291 -51.033  79.193  1.00  0.00    -0.395 N 
ATOM     30  H1  UNL     1      55.472 -50.184  78.657  1.00  0.00     0.159 HD
BRANCH  29  31
HETATM   31  C3  UNL     1      56.312 -51.574  80.033  1.00  0.00     0.145 C 
BRANCH  31  32
HETATM   32  C2  UNL     1      57.691 -51.153  79.596  1.00  0.00     0.117 C 
HETATM   33  C1  UNL     1      58.526 -50.965  80.854  1.00  0.00     0.035 C 
BRANCH  32  34
HETATM   34  N5  UNL     1      57.622 -49.928  78.851  1.00  0.00    -0.289 N 
ATOM     35  H5  UNL     1      56.757 -49.387  78.849  1.00  0.00     0.184 HD
BRANCH  34  36
HETATM   36  N6  UNL     1      58.725 -49.472  78.128  1.00  0.00    -0.106 N 
HETATM   37  N7  UNL     1      59.351 -50.210  77.318  1.00  0.00    -0.304 N 
ATOM     38  H72 UNL     1      59.035 -51.172  77.195  1.00  0.00     0.180 HD
ATOM     39  H71 UNL     1      60.158 -49.877  76.789  1.00  0.00     0.180 HD
BRANCH  36  40
HETATM   40  O10 UNL     1      59.150 -48.178  78.293  1.00  0.00    -0.254 OA
ATOM     41  H10 UNL     1      59.866 -47.851  77.761  1.00  0.00     0.248 HD
ENDBRANCH  36  40
ENDBRANCH  34  36
ENDBRANCH  32  34
ENDBRANCH  31  32
ENDBRANCH  29  31
ENDBRANCH   1  28
BRANCH  10  42
HETATM   42  O9  UNL     1      53.951 -48.647  78.162  1.00  0.00    -0.357 OA
ATOM     43  H9  UNL     1      53.996 -47.770  77.800  1.00  0.00     0.218 HD
ENDBRANCH  10  42
TORSDOF 11
ENDMDL
