MODEL 1
REMARK VINA RESULT: -6.548268402      0.000      0.000
REMARK  14 active torsions:
REMARK  status: ('A' for Active; 'I' for Inactive)
REMARK    1  A    between atoms: O1_2  and  C2_3 
REMARK    2  A    between atoms: C2_3  and  C3_5 
REMARK    3  A    between atoms: C4_6  and  S1_7 
REMARK    4  A    between atoms: S1_7  and  C5_8 
REMARK    5  A    between atoms: C5_8  and  C6_9 
REMARK    6  A    between atoms: C8_12  and  C9_13 
REMARK    7  A    between atoms: C9_13  and  O4_15 
REMARK    8  A    between atoms: C11_17  and  C12_18 
REMARK    9  A    between atoms: C12_18  and  S3_19 
REMARK   10  A    between atoms: S3_19  and  C13_20 
REMARK   11  A    between atoms: C13_20  and  C14_21 
REMARK   12  A    between atoms: C14_21  and  N1_22 
REMARK   13  A    between atoms: C14_21  and  N2_26 
REMARK   14  A    between atoms: N2_26  and  O5_27 
ROOT
HETATM    1  C6  UNL     1      47.560 -52.463  74.843  1.00  0.00     0.062 C 
HETATM    2  S2  UNL     1      47.154 -53.314  73.238  1.00  0.00    -0.162 SA
HETATM    3  C7  UNL     1      47.854 -54.922  73.664  1.00  0.00     0.089 C 
HETATM    4  C8  UNL     1      48.379 -54.644  75.067  1.00  0.00     0.101 C 
HETATM    5  C11 UNL     1      48.843 -53.234  75.134  1.00  0.00     0.024 C 
ENDROOT
BRANCH   1   6
HETATM    6  C5  UNL     1      47.725 -51.011  74.601  1.00  0.00     0.096 C 
BRANCH   6   7
HETATM    7  S1  UNL     1      47.187 -50.000  76.008  1.00  0.00    -0.109 SA
BRANCH   7   8
HETATM    8  C4  UNL     1      45.625 -49.221  75.770  1.00  0.00     0.103 A 
HETATM    9  C3  UNL     1      45.656 -48.004  75.202  1.00  0.00     0.107 A 
HETATM   10  C16 UNL     1      44.402 -47.297  74.966  1.00  0.00     0.128 A 
HETATM   11  C15 UNL     1      43.195 -47.826  75.302  1.00  0.00     0.214 A 
HETATM   12  N5  UNL     1      43.728 -46.228  74.519  1.00  0.00    -0.254 N 
HETATM   13  N4  UNL     1      43.155 -49.097  75.896  1.00  0.00    -0.275 N 
HETATM   14  O6  UNL     1      42.590 -46.764  74.852  1.00  0.00    -0.215 OA
HETATM   15  N3  UNL     1      44.378 -49.774  76.120  1.00  0.00    -0.291 N 
ATOM     16  H4  UNL     1      42.266 -49.523  76.159  1.00  0.00     0.189 HD
ATOM     17  H3  UNL     1      44.354 -50.698  76.552  1.00  0.00     0.187 HD
ATOM     18  H5  UNL     1      44.000 -45.344  74.088  1.00  0.00     0.195 HD
BRANCH   9  19
HETATM   19  C2  UNL     1      46.936 -47.403  74.822  1.00  0.00     0.298 C 
HETATM   20  O2  UNL     1      47.550 -46.693  75.654  1.00  0.00    -0.259 OA
BRANCH  19  21
HETATM   21  O1  UNL     1      47.494 -47.588  73.579  1.00  0.00    -0.322 OA
HETATM   22  C1  UNL     1      46.834 -48.077  72.451  1.00  0.00     0.213 C 
ENDBRANCH  19  21
ENDBRANCH   9  19
ENDBRANCH   7   8
ENDBRANCH   6   7
ENDBRANCH   1   6
BRANCH   5  23
HETATM   23  C12 UNL     1      49.471 -52.920  76.443  1.00  0.00     0.080 C 
BRANCH  23  24
HETATM   24  S3  UNL     1      50.971 -51.938  76.377  1.00  0.00    -0.165 SA
BRANCH  24  25
HETATM   25  C13 UNL     1      50.782 -50.292  77.057  1.00  0.00     0.126 C 
BRANCH  25  26
HETATM   26  C14 UNL     1      51.523 -49.329  76.135  1.00  0.00     0.311 C 
BRANCH  26  27
HETATM   27  N1  UNL     1      52.752 -48.892  76.755  1.00  0.00    -0.058 N 
ATOM     28  H13 UNL     1      52.638 -48.729  77.756  1.00  0.00     0.276 HD
ATOM     29  H12 UNL     1      53.442 -49.642  76.803  1.00  0.00     0.276 HD
ATOM     30  H11 UNL     1      53.116 -48.069  76.274  1.00  0.00     0.276 HD
ENDBRANCH  26  27
BRANCH  26  31
HETATM   31  N2  UNL     1      50.678 -48.137  76.021  1.00  0.00    -0.070 NA
BRANCH  31  32
HETATM   32  O5  UNL     1      50.168 -48.061  74.767  1.00  0.00    -0.294 OA
ATOM     33  H5  UNL     1      49.223 -48.149  74.802  1.00  0.00     0.238 HD
ENDBRANCH  31  32
ENDBRANCH  26  31
ENDBRANCH  25  26
ENDBRANCH  24  25
ENDBRANCH  23  24
ENDBRANCH   5  23
BRANCH   4  34
HETATM   34  C9  UNL     1      49.325 -55.684  75.486  1.00  0.00     0.263 C 
HETATM   35  O3  UNL     1      49.207 -56.491  76.408  1.00  0.00    -0.265 OA
BRANCH  34  36
HETATM   36  O4  UNL     1      50.522 -55.770  74.741  1.00  0.00    -0.326 OA
HETATM   37  C10 UNL     1      51.778 -55.727  75.398  1.00  0.00     0.213 C 
ENDBRANCH  34  36
ENDBRANCH   4  34
TORSDOF 14
ENDMDL
MODEL 2
REMARK VINA RESULT: -6.498305997      2.303      3.682
REMARK  14 active torsions:
REMARK  status: ('A' for Active; 'I' for Inactive)
REMARK    1  A    between atoms: O1_2  and  C2_3 
REMARK    2  A    between atoms: C2_3  and  C3_5 
REMARK    3  A    between atoms: C4_6  and  S1_7 
REMARK    4  A    between atoms: S1_7  and  C5_8 
REMARK    5  A    between atoms: C5_8  and  C6_9 
REMARK    6  A    between atoms: C8_12  and  C9_13 
REMARK    7  A    between atoms: C9_13  and  O4_15 
REMARK    8  A    between atoms: C11_17  and  C12_18 
REMARK    9  A    between atoms: C12_18  and  S3_19 
REMARK   10  A    between atoms: S3_19  and  C13_20 
REMARK   11  A    between atoms: C13_20  and  C14_21 
REMARK   12  A    between atoms: C14_21  and  N1_22 
REMARK   13  A    between atoms: C14_21  and  N2_26 
REMARK   14  A    between atoms: N2_26  and  O5_27 
ROOT
HETATM    1  C6  UNL     1      49.673 -51.337  75.149  1.00  0.00     0.062 C 
HETATM    2  S2  UNL     1      50.155 -50.922  76.898  1.00  0.00    -0.162 SA
HETATM    3  C7  UNL     1      51.043 -52.455  77.245  1.00  0.00     0.089 C 
HETATM    4  C8  UNL     1      50.868 -53.195  75.924  1.00  0.00     0.101 C 
HETATM    5  C11 UNL     1      49.543 -52.843  75.352  1.00  0.00     0.024 C 
ENDROOT
BRANCH   1   6
HETATM    6  C5  UNL     1      48.422 -50.626  74.802  1.00  0.00     0.096 C 
BRANCH   6   7
HETATM    7  S1  UNL     1      47.574 -49.949  76.256  1.00  0.00    -0.109 SA
BRANCH   7   8
HETATM    8  C4  UNL     1      45.943 -49.372  75.926  1.00  0.00     0.103 A 
HETATM    9  C3  UNL     1      45.853 -48.157  75.360  1.00  0.00     0.107 A 
HETATM   10  C16 UNL     1      44.536 -47.612  75.050  1.00  0.00     0.128 A 
HETATM   11  C15 UNL     1      43.387 -48.292  75.314  1.00  0.00     0.214 A 
HETATM   12  N5  UNL     1      43.759 -46.633  74.563  1.00  0.00    -0.254 N 
HETATM   13  N4  UNL     1      43.473 -49.562  75.905  1.00  0.00    -0.275 N 
HETATM   14  O6  UNL     1      42.680 -47.312  74.828  1.00  0.00    -0.215 OA
HETATM   15  N3  UNL     1      44.757 -50.081  76.202  1.00  0.00    -0.291 N 
ATOM     16  H4  UNL     1      42.631 -50.098  76.116  1.00  0.00     0.189 HD
ATOM     17  H3  UNL     1      44.825 -51.003  76.632  1.00  0.00     0.187 HD
ATOM     18  H5  UNL     1      43.941 -45.719  74.149  1.00  0.00     0.195 HD
BRANCH   9  19
HETATM   19  C2  UNL     1      47.066 -47.397  75.056  1.00  0.00     0.298 C 
HETATM   20  O2  UNL     1      47.592 -46.698  75.955  1.00  0.00    -0.259 OA
BRANCH  19  21
HETATM   21  O1  UNL     1      47.655 -47.419  73.814  1.00  0.00    -0.322 OA
HETATM   22  C1  UNL     1      47.095 -47.954  72.653  1.00  0.00     0.213 C 
ENDBRANCH  19  21
ENDBRANCH   9  19
ENDBRANCH   7   8
ENDBRANCH   6   7
ENDBRANCH   1   6
BRANCH   5  23
HETATM   23  C12 UNL     1      49.254 -53.612  74.113  1.00  0.00     0.080 C 
BRANCH  23  24
HETATM   24  S3  UNL     1      47.727 -54.552  74.113  1.00  0.00    -0.165 SA
BRANCH  24  25
HETATM   25  C13 UNL     1      46.415 -53.790  73.161  1.00  0.00     0.126 C 
BRANCH  25  26
HETATM   26  C14 UNL     1      45.735 -52.763  74.060  1.00  0.00     0.311 C 
BRANCH  26  27
HETATM   27  N1  UNL     1      44.532 -53.321  74.633  1.00  0.00    -0.058 N 
ATOM     28  H13 UNL     1      43.708 -52.760  74.411  1.00  0.00     0.276 HD
ATOM     29  H12 UNL     1      44.254 -54.185  74.168  1.00  0.00     0.276 HD
ATOM     30  H11 UNL     1      44.646 -53.448  75.638  1.00  0.00     0.276 HD
ENDBRANCH  26  27
BRANCH  26  31
HETATM   31  N2  UNL     1      45.301 -51.672  73.183  1.00  0.00    -0.070 NA
BRANCH  31  32
HETATM   32  O5  UNL     1      44.060 -51.264  73.547  1.00  0.00    -0.294 OA
ATOM     33  H5  UNL     1      43.412 -51.858  73.188  1.00  0.00     0.238 HD
ENDBRANCH  31  32
ENDBRANCH  26  31
ENDBRANCH  25  26
ENDBRANCH  24  25
ENDBRANCH  23  24
ENDBRANCH   5  23
BRANCH   4  34
HETATM   34  C9  UNL     1      51.178 -54.620  76.079  1.00  0.00     0.263 C 
HETATM   35  O3  UNL     1      50.616 -55.445  76.799  1.00  0.00    -0.265 OA
BRANCH  34  36
HETATM   36  O4  UNL     1      52.257 -55.106  75.311  1.00  0.00    -0.326 OA
HETATM   37  C10 UNL     1      53.572 -54.623  75.536  1.00  0.00     0.213 C 
ENDBRANCH  34  36
ENDBRANCH   4  34
TORSDOF 14
ENDMDL
MODEL 3
REMARK VINA RESULT: -6.455305597      2.933      7.702
REMARK  14 active torsions:
REMARK  status: ('A' for Active; 'I' for Inactive)
REMARK    1  A    between atoms: O1_2  and  C2_3 
REMARK    2  A    between atoms: C2_3  and  C3_5 
REMARK    3  A    between atoms: C4_6  and  S1_7 
REMARK    4  A    between atoms: S1_7  and  C5_8 
REMARK    5  A    between atoms: C5_8  and  C6_9 
REMARK    6  A    between atoms: C8_12  and  C9_13 
REMARK    7  A    between atoms: C9_13  and  O4_15 
REMARK    8  A    between atoms: C11_17  and  C12_18 
REMARK    9  A    between atoms: C12_18  and  S3_19 
REMARK   10  A    between atoms: S3_19  and  C13_20 
REMARK   11  A    between atoms: C13_20  and  C14_21 
REMARK   12  A    between atoms: C14_21  and  N1_22 
REMARK   13  A    between atoms: C14_21  and  N2_26 
REMARK   14  A    between atoms: N2_26  and  O5_27 
ROOT
HETATM    1  C6  UNL     1      48.518 -49.063  74.157  1.00  0.00     0.062 C 
HETATM    2  S2  UNL     1      49.078 -50.297  72.881  1.00  0.00    -0.162 SA
HETATM    3  C7  UNL     1      47.500 -51.159  72.710  1.00  0.00     0.089 C 
HETATM    4  C8  UNL     1      46.645 -50.392  73.711  1.00  0.00     0.101 C 
HETATM    5  C11 UNL     1      47.502 -49.967  74.847  1.00  0.00     0.024 C 
ENDROOT
BRANCH   1   6
HETATM    6  C5  UNL     1      49.677 -48.651  74.983  1.00  0.00     0.096 C 
BRANCH   6   7
HETATM    7  S1  UNL     1      50.888 -49.983  75.205  1.00  0.00    -0.109 SA
BRANCH   7   8
HETATM    8  C4  UNL     1      52.031 -49.695  76.513  1.00  0.00     0.103 A 
HETATM    9  C3  UNL     1      52.250 -50.731  77.341  1.00  0.00     0.107 A 
HETATM   10  C16 UNL     1      53.189 -50.574  78.446  1.00  0.00     0.128 A 
HETATM   11  C15 UNL     1      53.857 -49.410  78.672  1.00  0.00     0.214 A 
HETATM   12  N5  UNL     1      53.829 -51.065  79.517  1.00  0.00    -0.254 N 
HETATM   13  N4  UNL     1      53.634 -48.324  77.812  1.00  0.00    -0.275 N 
HETATM   14  O6  UNL     1      54.451 -49.937  79.704  1.00  0.00    -0.215 OA
HETATM   15  N3  UNL     1      52.720 -48.488  76.743  1.00  0.00    -0.291 N 
ATOM     16  H4  UNL     1      54.119 -47.437  77.953  1.00  0.00     0.189 HD
ATOM     17  H3  UNL     1      52.555 -47.702  76.115  1.00  0.00     0.187 HD
ATOM     18  H5  UNL     1      53.827 -51.965  79.997  1.00  0.00     0.195 HD
BRANCH   9  19
HETATM   19  C2  UNL     1      51.554 -52.001  77.127  1.00  0.00     0.298 C 
HETATM   20  O2  UNL     1      50.375 -52.130  77.537  1.00  0.00    -0.259 OA
BRANCH  19  21
HETATM   21  O1  UNL     1      52.147 -53.066  76.492  1.00  0.00    -0.322 OA
HETATM   22  C1  UNL     1      52.912 -54.060  77.104  1.00  0.00     0.213 C 
ENDBRANCH  19  21
ENDBRANCH   9  19
ENDBRANCH   7   8
ENDBRANCH   6   7
ENDBRANCH   1   6
BRANCH   5  23
HETATM   23  C12 UNL     1      46.713 -49.306  75.919  1.00  0.00     0.080 C 
BRANCH  23  24
HETATM   24  S3  UNL     1      46.090 -47.668  75.536  1.00  0.00    -0.165 SA
BRANCH  24  25
HETATM   25  C13 UNL     1      44.308 -47.601  75.360  1.00  0.00     0.126 C 
BRANCH  25  26
HETATM   26  C14 UNL     1      43.726 -48.759  76.165  1.00  0.00     0.311 C 
BRANCH  26  27
HETATM   27  N1  UNL     1      42.521 -49.247  75.535  1.00  0.00    -0.058 N 
ATOM     28  H13 UNL     1      41.704 -49.131  76.135  1.00  0.00     0.276 HD
ATOM     29  H12 UNL     1      42.226 -48.650  74.762  1.00  0.00     0.276 HD
ATOM     30  H11 UNL     1      42.645 -50.216  75.243  1.00  0.00     0.276 HD
ENDBRANCH  26  27
BRANCH  26  31
HETATM   31  N2  UNL     1      43.314 -48.197  77.453  1.00  0.00    -0.070 NA
BRANCH  31  32
HETATM   32  O5  UNL     1      41.962 -48.110  77.499  1.00  0.00    -0.294 OA
ATOM     33  H5  UNL     1      41.697 -47.677  78.301  1.00  0.00     0.238 HD
ENDBRANCH  31  32
ENDBRANCH  26  31
ENDBRANCH  25  26
ENDBRANCH  24  25
ENDBRANCH  23  24
ENDBRANCH   5  23
BRANCH   4  34
HETATM   34  C9  UNL     1      45.424 -51.139  74.032  1.00  0.00     0.263 C 
HETATM   35  O3  UNL     1      44.284 -50.950  73.607  1.00  0.00    -0.265 OA
BRANCH  34  36
HETATM   36  O4  UNL     1      45.572 -52.205  74.947  1.00  0.00    -0.326 OA
HETATM   37  C10 UNL     1      45.230 -53.528  74.566  1.00  0.00     0.213 C 
ENDBRANCH  34  36
ENDBRANCH   4  34
TORSDOF 14
ENDMDL
MODEL 4
REMARK VINA RESULT: -6.275314253      1.256      1.385
REMARK  14 active torsions:
REMARK  status: ('A' for Active; 'I' for Inactive)
REMARK    1  A    between atoms: O1_2  and  C2_3 
REMARK    2  A    between atoms: C2_3  and  C3_5 
REMARK    3  A    between atoms: C4_6  and  S1_7 
REMARK    4  A    between atoms: S1_7  and  C5_8 
REMARK    5  A    between atoms: C5_8  and  C6_9 
REMARK    6  A    between atoms: C8_12  and  C9_13 
REMARK    7  A    between atoms: C9_13  and  O4_15 
REMARK    8  A    between atoms: C11_17  and  C12_18 
REMARK    9  A    between atoms: C12_18  and  S3_19 
REMARK   10  A    between atoms: S3_19  and  C13_20 
REMARK   11  A    between atoms: C13_20  and  C14_21 
REMARK   12  A    between atoms: C14_21  and  N1_22 
REMARK   13  A    between atoms: C14_21  and  N2_26 
REMARK   14  A    between atoms: N2_26  and  O5_27 
ROOT
HETATM    1  C6  UNL     1      48.265 -52.768  75.116  1.00  0.00     0.062 C 
HETATM    2  S2  UNL     1      48.103 -53.427  73.383  1.00  0.00    -0.162 SA
HETATM    3  C7  UNL     1      49.233 -54.821  73.577  1.00  0.00     0.089 C 
HETATM    4  C8  UNL     1      49.669 -54.638  75.025  1.00  0.00     0.101 C 
HETATM    5  C11 UNL     1      49.716 -53.185  75.331  1.00  0.00     0.024 C 
ENDROOT
BRANCH   1   6
HETATM    6  C5  UNL     1      48.010 -51.309  75.113  1.00  0.00     0.096 C 
BRANCH   6   7
HETATM    7  S1  UNL     1      46.842 -50.804  73.821  1.00  0.00    -0.109 SA
BRANCH   7   8
HETATM    8  C4  UNL     1      45.506 -49.821  74.412  1.00  0.00     0.103 A 
HETATM    9  C3  UNL     1      45.508 -48.533  74.026  1.00  0.00     0.107 A 
HETATM   10  C16 UNL     1      44.430 -47.656  74.470  1.00  0.00     0.128 A 
HETATM   11  C15 UNL     1      43.416 -48.095  75.264  1.00  0.00     0.214 A 
HETATM   12  N5  UNL     1      43.837 -46.454  74.499  1.00  0.00    -0.254 N 
HETATM   13  N4  UNL     1      43.407 -49.438  75.671  1.00  0.00    -0.275 N 
HETATM   14  O6  UNL     1      42.881 -46.907  75.259  1.00  0.00    -0.215 OA
HETATM   15  N3  UNL     1      44.458 -50.280  75.235  1.00  0.00    -0.291 N 
ATOM     16  H4  UNL     1      42.661 -49.799  76.267  1.00  0.00     0.189 HD
ATOM     17  H3  UNL     1      44.457 -51.257  75.527  1.00  0.00     0.187 HD
ATOM     18  H5  UNL     1      44.050 -45.545  74.090  1.00  0.00     0.195 HD
BRANCH   9  19
HETATM   19  C2  UNL     1      46.579 -48.026  73.167  1.00  0.00     0.298 C 
HETATM   20  O2  UNL     1      47.647 -47.629  73.691  1.00  0.00    -0.259 OA
BRANCH  19  21
HETATM   21  O1  UNL     1      46.457 -47.966  71.800  1.00  0.00    -0.322 OA
HETATM   22  C1  UNL     1      47.333 -48.537  70.875  1.00  0.00     0.213 C 
ENDBRANCH  19  21
ENDBRANCH   9  19
ENDBRANCH   7   8
ENDBRANCH   6   7
ENDBRANCH   1   6
BRANCH   5  23
HETATM   23  C12 UNL     1      50.240 -52.924  76.697  1.00  0.00     0.080 C 
BRANCH  23  24
HETATM   24  S3  UNL     1      51.588 -51.746  76.806  1.00  0.00    -0.165 SA
BRANCH  24  25
HETATM   25  C13 UNL     1      51.044 -50.049  76.998  1.00  0.00     0.126 C 
BRANCH  25  26
HETATM   26  C14 UNL     1      52.128 -49.153  76.406  1.00  0.00     0.311 C 
BRANCH  26  27
HETATM   27  N1  UNL     1      53.185 -48.948  77.369  1.00  0.00    -0.058 N 
ATOM     28  H13 UNL     1      53.318 -49.762  77.969  1.00  0.00     0.276 HD
ATOM     29  H12 UNL     1      54.105 -48.934  76.928  1.00  0.00     0.276 HD
ATOM     30  H11 UNL     1      53.009 -48.101  77.910  1.00  0.00     0.276 HD
ENDBRANCH  26  27
BRANCH  26  31
HETATM   31  N2  UNL     1      51.508 -47.843  76.196  1.00  0.00    -0.070 NA
BRANCH  31  32
HETATM   32  O5  UNL     1      52.381 -46.866  76.546  1.00  0.00    -0.294 OA
ATOM     33  H5  UNL     1      52.142 -46.055  76.113  1.00  0.00     0.238 HD
ENDBRANCH  31  32
ENDBRANCH  26  31
ENDBRANCH  25  26
ENDBRANCH  24  25
ENDBRANCH  23  24
ENDBRANCH   5  23
BRANCH   4  34
HETATM   34  C9  UNL     1      50.874 -55.425  75.310  1.00  0.00     0.263 C 
HETATM   35  O3  UNL     1      51.002 -56.354  76.107  1.00  0.00    -0.265 OA
BRANCH  34  36
HETATM   36  O4  UNL     1      52.032 -55.071  74.584  1.00  0.00    -0.326 OA
HETATM   37  C10 UNL     1      53.282 -54.951  75.243  1.00  0.00     0.213 C 
ENDBRANCH  34  36
ENDBRANCH   4  34
TORSDOF 14
ENDMDL
MODEL 5
REMARK VINA RESULT: -6.247624909      2.679      8.262
REMARK  14 active torsions:
REMARK  status: ('A' for Active; 'I' for Inactive)
REMARK    1  A    between atoms: O1_2  and  C2_3 
REMARK    2  A    between atoms: C2_3  and  C3_5 
REMARK    3  A    between atoms: C4_6  and  S1_7 
REMARK    4  A    between atoms: S1_7  and  C5_8 
REMARK    5  A    between atoms: C5_8  and  C6_9 
REMARK    6  A    between atoms: C8_12  and  C9_13 
REMARK    7  A    between atoms: C9_13  and  O4_15 
REMARK    8  A    between atoms: C11_17  and  C12_18 
REMARK    9  A    between atoms: C12_18  and  S3_19 
REMARK   10  A    between atoms: S3_19  and  C13_20 
REMARK   11  A    between atoms: C13_20  and  C14_21 
REMARK   12  A    between atoms: C14_21  and  N1_22 
REMARK   13  A    between atoms: C14_21  and  N2_26 
REMARK   14  A    between atoms: N2_26  and  O5_27 
ROOT
HETATM    1  C6  UNL     1      48.297 -49.647  76.390  1.00  0.00     0.062 C 
HETATM    2  S2  UNL     1      49.902 -48.839  75.902  1.00  0.00    -0.162 SA
HETATM    3  C7  UNL     1      49.342 -48.197  74.310  1.00  0.00     0.089 C 
HETATM    4  C8  UNL     1      47.904 -48.700  74.286  1.00  0.00     0.101 C 
HETATM    5  C11 UNL     1      47.845 -50.012  74.980  1.00  0.00     0.024 C 
ENDROOT
BRANCH   1   6
HETATM    6  C5  UNL     1      48.577 -50.789  77.290  1.00  0.00     0.096 C 
BRANCH   6   7
HETATM    7  S1  UNL     1      49.707 -52.003  76.554  1.00  0.00    -0.109 SA
BRANCH   7   8
HETATM    8  C4  UNL     1      51.250 -52.141  77.392  1.00  0.00     0.103 A 
HETATM    9  C3  UNL     1      51.903 -53.305  77.232  1.00  0.00     0.107 A 
HETATM   10  C16 UNL     1      53.191 -53.493  77.890  1.00  0.00     0.128 A 
HETATM   11  C15 UNL     1      53.761 -52.530  78.664  1.00  0.00     0.214 A 
HETATM   12  N5  UNL     1      54.267 -54.246  78.163  1.00  0.00    -0.254 N 
HETATM   13  N4  UNL     1      53.084 -51.312  78.835  1.00  0.00    -0.275 N 
HETATM   14  O6  UNL     1      54.783 -53.303  78.896  1.00  0.00    -0.215 OA
HETATM   15  N3  UNL     1      51.835 -51.140  78.193  1.00  0.00    -0.291 N 
ATOM     16  H4  UNL     1      53.484 -50.569  79.409  1.00  0.00     0.189 HD
ATOM     17  H3  UNL     1      51.339 -50.257  78.314  1.00  0.00     0.187 HD
ATOM     18  H5  UNL     1      54.563 -55.187  77.901  1.00  0.00     0.195 HD
BRANCH   9  19
HETATM   19  C2  UNL     1      51.325 -54.363  76.403  1.00  0.00     0.298 C 
HETATM   20  O2  UNL     1      50.640 -55.262  76.947  1.00  0.00    -0.259 OA
BRANCH  19  21
HETATM   21  O1  UNL     1      51.508 -54.412  75.041  1.00  0.00    -0.322 OA
HETATM   22  C1  UNL     1      50.596 -54.915  74.112  1.00  0.00     0.213 C 
ENDBRANCH  19  21
ENDBRANCH   9  19
ENDBRANCH   7   8
ENDBRANCH   6   7
ENDBRANCH   1   6
BRANCH   5  23
HETATM   23  C12 UNL     1      46.490 -50.618  74.903  1.00  0.00     0.080 C 
BRANCH  23  24
HETATM   24  S3  UNL     1      45.201 -49.774  75.820  1.00  0.00    -0.165 SA
BRANCH  24  25
HETATM   25  C13 UNL     1      43.719 -49.468  74.859  1.00  0.00     0.126 C 
BRANCH  25  26
HETATM   26  C14 UNL     1      43.272 -48.039  75.155  1.00  0.00     0.311 C 
BRANCH  26  27
HETATM   27  N1  UNL     1      44.139 -47.097  74.487  1.00  0.00    -0.058 N 
ATOM     28  H13 UNL     1      44.986 -46.911  75.025  1.00  0.00     0.276 HD
ATOM     29  H12 UNL     1      44.574 -47.502  73.657  1.00  0.00     0.276 HD
ATOM     30  H11 UNL     1      43.629 -46.241  74.271  1.00  0.00     0.276 HD
ENDBRANCH  26  27
BRANCH  26  31
HETATM   31  N2  UNL     1      43.475 -47.834  76.591  1.00  0.00    -0.070 NA
BRANCH  31  32
HETATM   32  O5  UNL     1      42.334 -48.135  77.259  1.00  0.00    -0.294 OA
ATOM     33  H5  UNL     1      42.524 -48.238  78.183  1.00  0.00     0.238 HD
ENDBRANCH  31  32
ENDBRANCH  26  31
ENDBRANCH  25  26
ENDBRANCH  24  25
ENDBRANCH  23  24
ENDBRANCH   5  23
BRANCH   4  34
HETATM   34  C9  UNL     1      47.349 -48.630  72.931  1.00  0.00     0.263 C 
HETATM   35  O3  UNL     1      46.207 -48.319  72.593  1.00  0.00    -0.265 OA
BRANCH  34  36
HETATM   36  O4  UNL     1      48.233 -48.964  71.881  1.00  0.00    -0.326 OA
HETATM   37  C10 UNL     1      48.288 -50.292  71.386  1.00  0.00     0.213 C 
ENDBRANCH  34  36
ENDBRANCH   4  34
TORSDOF 14
ENDMDL
