MODEL 1
REMARK VINA RESULT: -7.618078135      0.000      0.000
REMARK  11 active torsions:
REMARK  status: ('A' for Active; 'I' for Inactive)
REMARK    1  A    between atoms: C1_2  and  C2_4 
REMARK    2  A    between atoms: C3_6  and  C4_7 
REMARK    3  A    between atoms: C4_7  and  C5_8 
REMARK    4  A    between atoms: C5_8  and  C6_9 
REMARK    5  A    between atoms: C6_9  and  C7_10 
REMARK    6  A    between atoms: C7_10  and  N2_11 
REMARK    7  A    between atoms: N2_11  and  C8_13 
REMARK    8  A    between atoms: C12_22  and  S2_23 
REMARK    9  A    between atoms: S2_23  and  C13_24 
REMARK   10  A    between atoms: C15_29  and  N7_30 
REMARK   11  A    between atoms: N7_30  and  C16_32 
ROOT
HETATM    1  C2  UNL     1      50.403 -49.952  74.971  1.00  0.00     0.089 A 
HETATM    2  S1  UNL     1      51.474 -49.644  76.257  1.00  0.00    -0.086 SA
HETATM    3  C3  UNL     1      51.263 -51.071  77.144  1.00  0.00     0.009 A 
HETATM    4  C11 UNL     1      50.345 -51.774  76.409  1.00  0.00     0.078 A 
HETATM    5  N5  UNL     1      49.933 -53.085  76.903  1.00  0.00    -0.100 NA
HETATM    6  C12 UNL     1      49.891 -51.195  75.271  1.00  0.00     0.053 A 
ENDROOT
BRANCH   6   7
HETATM    7  S2  UNL     1      48.680 -51.906  74.109  1.00  0.00    -0.081 SA
BRANCH   7   8
HETATM    8  C13 UNL     1      47.021 -51.727  74.618  1.00  0.00     0.076 A 
HETATM    9  C14 UNL     1      46.000 -52.640  74.464  1.00  0.00     0.137 A 
HETATM   10  N6  UNL     1      44.900 -52.093  75.013  1.00  0.00    -0.269 N 
HETATM   11  O2  UNL     1      45.190 -50.934  75.477  1.00  0.00    -0.219 OA
ATOM     12  H6  UNL     1      43.979 -52.531  75.053  1.00  0.00     0.194 HD
HETATM   13  C15 UNL     1      46.475 -50.648  75.268  1.00  0.00     0.191 A 
BRANCH  13  14
HETATM   14  N7  UNL     1      47.049 -49.421  75.690  1.00  0.00    -0.305 N 
ATOM     15  H7  UNL     1      48.033 -49.425  75.962  1.00  0.00     0.171 HD
BRANCH  14  16
HETATM   16  C16 UNL     1      46.351 -48.194  75.758  1.00  0.00     0.194 C 
HETATM   17  N8  UNL     1      46.826 -47.023  75.575  1.00  0.00    -0.346 N 
HETATM   18  C17 UNL     1      45.817 -46.002  75.727  1.00  0.00     0.259 C 
ATOM     19  H8  UNL     1      47.802 -46.832  75.347  1.00  0.00     0.163 HD
HETATM   20  N9  UNL     1      44.577 -46.733  75.693  1.00  0.00    -0.119 NA
HETATM   21  N10 UNL     1      44.972 -48.038  76.051  1.00  0.00    -0.274 N 
ATOM     22  H10 UNL     1      44.366 -48.753  76.454  1.00  0.00     0.185 HD
ENDBRANCH  14  16
ENDBRANCH  13  14
ENDBRANCH   7   8
ENDBRANCH   6   7
BRANCH   1  23
HETATM   23  C1  UNL     1      50.101 -49.084  73.812  1.00  0.00     0.273 C 
HETATM   24  N1  UNL     1      49.431 -47.870  74.070  1.00  0.00    -0.057 NA
HETATM   25  O1  UNL     1      50.416 -49.393  72.663  1.00  0.00    -0.270 OA
ENDBRANCH   1  23
BRANCH   3  26
HETATM   26  C4  UNL     1      51.939 -51.449  78.420  1.00  0.00     0.048 C 
BRANCH  26  27
HETATM   27  C5  UNL     1      53.407 -51.032  78.410  1.00  0.00     0.007 C 
BRANCH  27  28
HETATM   28  C6  UNL     1      53.800 -50.433  79.720  1.00  0.00     0.020 C 
BRANCH  28  29
HETATM   29  C7  UNL     1      54.566 -49.165  79.579  1.00  0.00     0.122 C 
BRANCH  29  30
HETATM   30  N2  UNL     1      54.963 -48.548  80.795  1.00  0.00    -0.362 N 
ATOM     31  H2  UNL     1      54.982 -47.528  80.786  1.00  0.00     0.162 HD
BRANCH  30  32
HETATM   32  C8  UNL     1      55.335 -49.155  82.010  1.00  0.00     0.171 C 
HETATM   33  N3  UNL     1      54.671 -49.365  83.103  1.00  0.00    -0.361 N 
HETATM   34  C9  UNL     1      55.453 -50.025  84.106  1.00  0.00     0.142 C 
ATOM     35  H3  UNL     1      53.698 -49.090  83.235  1.00  0.00     0.162 HD
HETATM   36  C10 UNL     1      56.868 -49.760  83.650  1.00  0.00     0.142 C 
HETATM   37  N4  UNL     1      56.680 -49.654  82.218  1.00  0.00    -0.361 N 
ATOM     38  H4  UNL     1      57.362 -49.886  81.495  1.00  0.00     0.162 HD
ENDBRANCH  30  32
ENDBRANCH  29  30
ENDBRANCH  28  29
ENDBRANCH  27  28
ENDBRANCH  26  27
ENDBRANCH   3  26
TORSDOF 11
ENDMDL
MODEL 2
REMARK VINA RESULT: -7.592756915      1.947      2.854
REMARK  11 active torsions:
REMARK  status: ('A' for Active; 'I' for Inactive)
REMARK    1  A    between atoms: C1_2  and  C2_4 
REMARK    2  A    between atoms: C3_6  and  C4_7 
REMARK    3  A    between atoms: C4_7  and  C5_8 
REMARK    4  A    between atoms: C5_8  and  C6_9 
REMARK    5  A    between atoms: C6_9  and  C7_10 
REMARK    6  A    between atoms: C7_10  and  N2_11 
REMARK    7  A    between atoms: N2_11  and  C8_13 
REMARK    8  A    between atoms: C12_22  and  S2_23 
REMARK    9  A    between atoms: S2_23  and  C13_24 
REMARK   10  A    between atoms: C15_29  and  N7_30 
REMARK   11  A    between atoms: N7_30  and  C16_32 
ROOT
HETATM    1  C2  UNL     1      48.911 -50.669  76.491  1.00  0.00     0.089 A 
HETATM    2  S1  UNL     1      49.833 -51.679  77.503  1.00  0.00    -0.086 SA
HETATM    3  C3  UNL     1      51.378 -51.068  77.176  1.00  0.00     0.009 A 
HETATM    4  C11 UNL     1      51.142 -50.070  76.267  1.00  0.00     0.078 A 
HETATM    5  N5  UNL     1      52.289 -49.318  75.766  1.00  0.00    -0.100 NA
HETATM    6  C12 UNL     1      49.854 -49.856  75.905  1.00  0.00     0.053 A 
ENDROOT
BRANCH   6   7
HETATM    7  S2  UNL     1      49.261 -48.597  74.726  1.00  0.00    -0.081 SA
BRANCH   7   8
HETATM    8  C13 UNL     1      48.571 -49.263  73.268  1.00  0.00     0.076 A 
HETATM    9  C14 UNL     1      49.070 -50.301  72.511  1.00  0.00     0.137 A 
HETATM   10  N6  UNL     1      48.214 -50.487  71.489  1.00  0.00    -0.269 N 
HETATM   11  O2  UNL     1      47.253 -49.644  71.584  1.00  0.00    -0.219 OA
ATOM     12  H6  UNL     1      48.314 -51.187  70.754  1.00  0.00     0.194 HD
HETATM   13  C15 UNL     1      47.411 -48.864  72.653  1.00  0.00     0.191 A 
BRANCH  13  14
HETATM   14  N7  UNL     1      46.480 -47.846  72.984  1.00  0.00    -0.305 N 
ATOM     15  H7  UNL     1      46.595 -46.934  72.543  1.00  0.00     0.171 HD
BRANCH  14  16
HETATM   16  C16 UNL     1      45.402 -48.011  73.885  1.00  0.00     0.194 C 
HETATM   17  N8  UNL     1      44.992 -49.101  74.408  1.00  0.00    -0.346 N 
HETATM   18  C17 UNL     1      43.863 -48.888  75.283  1.00  0.00     0.259 C 
ATOM     19  H8  UNL     1      45.412 -50.014  74.230  1.00  0.00     0.163 HD
HETATM   20  N9  UNL     1      43.851 -47.464  75.491  1.00  0.00    -0.119 NA
HETATM   21  N10 UNL     1      44.566 -46.977  74.377  1.00  0.00    -0.274 N 
ATOM     22  H10 UNL     1      44.494 -46.036  73.990  1.00  0.00     0.185 HD
ENDBRANCH  14  16
ENDBRANCH  13  14
ENDBRANCH   7   8
ENDBRANCH   6   7
BRANCH   1  23
HETATM   23  C1  UNL     1      47.445 -50.674  76.296  1.00  0.00     0.273 C 
HETATM   24  N1  UNL     1      46.921 -51.570  75.340  1.00  0.00    -0.057 NA
HETATM   25  O1  UNL     1      46.697 -49.932  76.934  1.00  0.00    -0.270 OA
ENDBRANCH   1  23
BRANCH   3  26
HETATM   26  C4  UNL     1      52.672 -51.524  77.762  1.00  0.00     0.048 C 
BRANCH  26  27
HETATM   27  C5  UNL     1      52.912 -50.892  79.130  1.00  0.00     0.007 C 
BRANCH  27  28
HETATM   28  C6  UNL     1      54.359 -50.583  79.328  1.00  0.00     0.020 C 
BRANCH  28  29
HETATM   29  C7  UNL     1      54.660 -49.127  79.285  1.00  0.00     0.122 C 
BRANCH  29  30
HETATM   30  N2  UNL     1      54.954 -48.522  80.535  1.00  0.00    -0.362 N 
ATOM     31  H2  UNL     1      54.913 -47.503  80.553  1.00  0.00     0.162 HD
BRANCH  30  32
HETATM   32  C8  UNL     1      55.295 -49.140  81.754  1.00  0.00     0.171 C 
HETATM   33  N3  UNL     1      54.618 -49.316  82.846  1.00  0.00    -0.361 N 
HETATM   34  C9  UNL     1      55.366 -50.005  83.854  1.00  0.00     0.142 C 
ATOM     35  H3  UNL     1      53.657 -48.999  82.973  1.00  0.00     0.162 HD
HETATM   36  C10 UNL     1      56.793 -49.804  83.403  1.00  0.00     0.142 C 
HETATM   37  N4  UNL     1      56.616 -49.696  81.970  1.00  0.00    -0.361 N 
ATOM     38  H4  UNL     1      57.290 -49.960  81.251  1.00  0.00     0.162 HD
ENDBRANCH  30  32
ENDBRANCH  29  30
ENDBRANCH  28  29
ENDBRANCH  27  28
ENDBRANCH  26  27
ENDBRANCH   3  26
TORSDOF 11
ENDMDL
MODEL 3
REMARK VINA RESULT: -7.586841586      1.501      1.594
REMARK  11 active torsions:
REMARK  status: ('A' for Active; 'I' for Inactive)
REMARK    1  A    between atoms: C1_2  and  C2_4 
REMARK    2  A    between atoms: C3_6  and  C4_7 
REMARK    3  A    between atoms: C4_7  and  C5_8 
REMARK    4  A    between atoms: C5_8  and  C6_9 
REMARK    5  A    between atoms: C6_9  and  C7_10 
REMARK    6  A    between atoms: C7_10  and  N2_11 
REMARK    7  A    between atoms: N2_11  and  C8_13 
REMARK    8  A    between atoms: C12_22  and  S2_23 
REMARK    9  A    between atoms: S2_23  and  C13_24 
REMARK   10  A    between atoms: C15_29  and  N7_30 
REMARK   11  A    between atoms: N7_30  and  C16_32 
ROOT
HETATM    1  C2  UNL     1      50.296 -49.654  75.402  1.00  0.00     0.089 A 
HETATM    2  S1  UNL     1      51.863 -50.088  75.905  1.00  0.00    -0.086 SA
HETATM    3  C3  UNL     1      51.469 -51.144  77.168  1.00  0.00     0.009 A 
HETATM    4  C11 UNL     1      50.099 -51.140  77.174  1.00  0.00     0.078 A 
HETATM    5  N5  UNL     1      49.418 -51.970  78.165  1.00  0.00    -0.100 NA
HETATM    6  C12 UNL     1      49.479 -50.363  76.254  1.00  0.00     0.053 A 
ENDROOT
BRANCH   6   7
HETATM    7  S2  UNL     1      47.678 -50.177  76.037  1.00  0.00    -0.081 SA
BRANCH   7   8
HETATM    8  C13 UNL     1      47.052 -50.966  74.613  1.00  0.00     0.076 A 
HETATM    9  C14 UNL     1      46.860 -52.318  74.428  1.00  0.00     0.137 A 
HETATM   10  N6  UNL     1      46.348 -52.476  73.193  1.00  0.00    -0.269 N 
HETATM   11  O2  UNL     1      46.224 -51.328  72.638  1.00  0.00    -0.219 OA
ATOM     12  H6  UNL     1      46.099 -53.368  72.766  1.00  0.00     0.194 HD
HETATM   13  C15 UNL     1      46.637 -50.359  73.454  1.00  0.00     0.191 A 
BRANCH  13  14
HETATM   14  N7  UNL     1      46.602 -48.992  73.075  1.00  0.00    -0.305 N 
ATOM     15  H7  UNL     1      47.042 -48.732  72.192  1.00  0.00     0.171 HD
BRANCH  14  16
HETATM   16  C16 UNL     1      46.000 -47.966  73.840  1.00  0.00     0.194 C 
HETATM   17  N8  UNL     1      44.755 -47.704  73.937  1.00  0.00    -0.346 N 
HETATM   18  C17 UNL     1      44.506 -46.580  74.809  1.00  0.00     0.259 C 
ATOM     19  H8  UNL     1      44.022 -48.226  73.455  1.00  0.00     0.163 HD
HETATM   20  N9  UNL     1      45.753 -46.403  75.507  1.00  0.00    -0.119 NA
HETATM   21  N10 UNL     1      46.685 -47.024  74.650  1.00  0.00    -0.274 N 
ATOM     22  H10 UNL     1      47.685 -46.829  74.619  1.00  0.00     0.185 HD
ENDBRANCH  14  16
ENDBRANCH  13  14
ENDBRANCH   7   8
ENDBRANCH   6   7
BRANCH   1  23
HETATM   23  C1  UNL     1      49.915 -48.734  74.308  1.00  0.00     0.273 C 
HETATM   24  N1  UNL     1      49.910 -49.255  72.997  1.00  0.00    -0.057 NA
HETATM   25  O1  UNL     1      49.612 -47.560  74.516  1.00  0.00    -0.270 OA
ENDBRANCH   1  23
BRANCH   3  26
HETATM   26  C4  UNL     1      52.415 -51.895  78.045  1.00  0.00     0.048 C 
BRANCH  26  27
HETATM   27  C5  UNL     1      52.973 -51.001  79.148  1.00  0.00     0.007 C 
BRANCH  27  28
HETATM   28  C6  UNL     1      54.462 -50.924  79.070  1.00  0.00     0.020 C 
BRANCH  28  29
HETATM   29  C7  UNL     1      54.974 -49.530  78.986  1.00  0.00     0.122 C 
BRANCH  29  30
HETATM   30  N2  UNL     1      54.966 -48.797  80.202  1.00  0.00    -0.362 N 
ATOM     31  H2  UNL     1      54.704 -47.814  80.123  1.00  0.00     0.162 HD
BRANCH  30  32
HETATM   32  C8  UNL     1      55.271 -49.244  81.502  1.00  0.00     0.171 C 
HETATM   33  N3  UNL     1      54.561 -49.280  82.586  1.00  0.00    -0.361 N 
HETATM   34  C9  UNL     1      55.281 -49.822  83.699  1.00  0.00     0.142 C 
ATOM     35  H3  UNL     1      53.595 -48.957  82.640  1.00  0.00     0.162 HD
HETATM   36  C10 UNL     1      56.720 -49.670  83.270  1.00  0.00     0.142 C 
HETATM   37  N4  UNL     1      56.587 -49.755  81.830  1.00  0.00    -0.361 N 
ATOM     38  H4  UNL     1      57.285 -50.107  81.174  1.00  0.00     0.162 HD
ENDBRANCH  30  32
ENDBRANCH  29  30
ENDBRANCH  28  29
ENDBRANCH  27  28
ENDBRANCH  26  27
ENDBRANCH   3  26
TORSDOF 11
ENDMDL
MODEL 4
REMARK VINA RESULT: -7.581953317      4.178      5.787
REMARK  11 active torsions:
REMARK  status: ('A' for Active; 'I' for Inactive)
REMARK    1  A    between atoms: C1_2  and  C2_4 
REMARK    2  A    between atoms: C3_6  and  C4_7 
REMARK    3  A    between atoms: C4_7  and  C5_8 
REMARK    4  A    between atoms: C5_8  and  C6_9 
REMARK    5  A    between atoms: C6_9  and  C7_10 
REMARK    6  A    between atoms: C7_10  and  N2_11 
REMARK    7  A    between atoms: N2_11  and  C8_13 
REMARK    8  A    between atoms: C12_22  and  S2_23 
REMARK    9  A    between atoms: S2_23  and  C13_24 
REMARK   10  A    between atoms: C15_29  and  N7_30 
REMARK   11  A    between atoms: N7_30  and  C16_32 
ROOT
HETATM    1  C2  UNL     1      47.864 -49.270  73.429  1.00  0.00     0.089 A 
HETATM    2  S1  UNL     1      49.313 -48.701  74.116  1.00  0.00    -0.086 SA
HETATM    3  C3  UNL     1      49.156 -49.346  75.673  1.00  0.00     0.009 A 
HETATM    4  C11 UNL     1      47.955 -50.004  75.629  1.00  0.00     0.078 A 
HETATM    5  N5  UNL     1      47.508 -50.691  76.838  1.00  0.00    -0.100 NA
HETATM    6  C12 UNL     1      47.275 -49.969  74.458  1.00  0.00     0.053 A 
ENDROOT
BRANCH   6   7
HETATM    7  S2  UNL     1      45.666 -50.759  74.123  1.00  0.00    -0.081 SA
BRANCH   7   8
HETATM    8  C13 UNL     1      44.298 -49.700  74.345  1.00  0.00     0.076 A 
HETATM    9  C14 UNL     1      42.979 -49.970  74.048  1.00  0.00     0.137 A 
HETATM   10  N6  UNL     1      42.268 -48.880  74.391  1.00  0.00    -0.269 N 
HETATM   11  O2  UNL     1      43.061 -47.992  74.866  1.00  0.00    -0.219 OA
ATOM     12  H6  UNL     1      41.259 -48.777  74.290  1.00  0.00     0.194 HD
HETATM   13  C15 UNL     1      44.319 -48.430  74.866  1.00  0.00     0.191 A 
BRANCH  13  14
HETATM   14  N7  UNL     1      45.392 -47.634  75.343  1.00  0.00    -0.305 N 
ATOM     15  H7  UNL     1      46.266 -48.104  75.577  1.00  0.00     0.171 HD
BRANCH  14  16
HETATM   16  C16 UNL     1      45.331 -46.232  75.517  1.00  0.00     0.194 C 
HETATM   17  N8  UNL     1      44.461 -45.431  75.037  1.00  0.00    -0.346 N 
HETATM   18  C17 UNL     1      44.715 -44.063  75.424  1.00  0.00     0.259 C 
ATOM     19  H8  UNL     1      43.678 -45.722  74.451  1.00  0.00     0.163 HD
HETATM   20  N9  UNL     1      45.672 -44.179  76.494  1.00  0.00    -0.119 NA
HETATM   21  N10 UNL     1      46.243 -45.448  76.269  1.00  0.00    -0.274 N 
ATOM     22  H10 UNL     1      47.161 -45.752  76.593  1.00  0.00     0.185 HD
ENDBRANCH  14  16
ENDBRANCH  13  14
ENDBRANCH   7   8
ENDBRANCH   6   7
BRANCH   1  23
HETATM   23  C1  UNL     1      47.366 -49.058  72.052  1.00  0.00     0.273 C 
HETATM   24  N1  UNL     1      46.662 -47.862  71.795  1.00  0.00    -0.057 NA
HETATM   25  O1  UNL     1      47.550 -49.881  71.155  1.00  0.00    -0.270 OA
ENDBRANCH   1  23
BRANCH   3  26
HETATM   26  C4  UNL     1      50.121 -49.217  76.805  1.00  0.00     0.048 C 
BRANCH  26  27
HETATM   27  C5  UNL     1      51.288 -50.187  76.648  1.00  0.00     0.007 C 
BRANCH  27  28
HETATM   28  C6  UNL     1      51.247 -51.245  77.700  1.00  0.00     0.020 C 
BRANCH  28  29
HETATM   29  C7  UNL     1      51.101 -52.618  77.147  1.00  0.00     0.122 C 
BRANCH  29  30
HETATM   30  N2  UNL     1      49.780 -53.000  76.791  1.00  0.00    -0.362 N 
ATOM     31  H2  UNL     1      49.094 -52.970  77.544  1.00  0.00     0.162 HD
BRANCH  30  32
HETATM   32  C8  UNL     1      49.291 -53.416  75.537  1.00  0.00     0.171 C 
HETATM   33  N3  UNL     1      48.087 -53.474  75.061  1.00  0.00    -0.361 N 
HETATM   34  C9  UNL     1      48.047 -53.967  73.717  1.00  0.00     0.142 C 
ATOM     35  H3  UNL     1      47.258 -53.198  75.587  1.00  0.00     0.162 HD
HETATM   36  C10 UNL     1      49.373 -54.678  73.586  1.00  0.00     0.142 C 
HETATM   37  N4  UNL     1      50.186 -53.917  74.511  1.00  0.00    -0.361 N 
ATOM     38  H4  UNL     1      51.193 -53.762  74.453  1.00  0.00     0.162 HD
ENDBRANCH  30  32
ENDBRANCH  29  30
ENDBRANCH  28  29
ENDBRANCH  27  28
ENDBRANCH  26  27
ENDBRANCH   3  26
TORSDOF 11
ENDMDL
MODEL 5
REMARK VINA RESULT: -7.548547495      2.500      3.508
REMARK  11 active torsions:
REMARK  status: ('A' for Active; 'I' for Inactive)
REMARK    1  A    between atoms: C1_2  and  C2_4 
REMARK    2  A    between atoms: C3_6  and  C4_7 
REMARK    3  A    between atoms: C4_7  and  C5_8 
REMARK    4  A    between atoms: C5_8  and  C6_9 
REMARK    5  A    between atoms: C6_9  and  C7_10 
REMARK    6  A    between atoms: C7_10  and  N2_11 
REMARK    7  A    between atoms: N2_11  and  C8_13 
REMARK    8  A    between atoms: C12_22  and  S2_23 
REMARK    9  A    between atoms: S2_23  and  C13_24 
REMARK   10  A    between atoms: C15_29  and  N7_30 
REMARK   11  A    between atoms: N7_30  and  C16_32 
ROOT
HETATM    1  C2  UNL     1      48.948 -50.655  76.489  1.00  0.00     0.089 A 
HETATM    2  S1  UNL     1      49.873 -51.677  77.486  1.00  0.00    -0.086 SA
HETATM    3  C3  UNL     1      51.419 -51.076  77.145  1.00  0.00     0.009 A 
HETATM    4  C11 UNL     1      51.181 -50.072  76.244  1.00  0.00     0.078 A 
HETATM    5  N5  UNL     1      52.329 -49.326  75.734  1.00  0.00    -0.100 NA
HETATM    6  C12 UNL     1      49.892 -49.846  75.897  1.00  0.00     0.053 A 
ENDROOT
BRANCH   6   7
HETATM    7  S2  UNL     1      49.296 -48.576  74.732  1.00  0.00    -0.081 SA
BRANCH   7   8
HETATM    8  C13 UNL     1      48.566 -49.229  73.287  1.00  0.00     0.076 A 
HETATM    9  C14 UNL     1      49.043 -50.262  72.508  1.00  0.00     0.137 A 
HETATM   10  N6  UNL     1      48.159 -50.438  71.508  1.00  0.00    -0.269 N 
HETATM   11  O2  UNL     1      47.204 -49.593  71.635  1.00  0.00    -0.219 OA
ATOM     12  H6  UNL     1      48.238 -51.133  70.766  1.00  0.00     0.194 HD
HETATM   13  C15 UNL     1      47.391 -48.822  72.706  1.00  0.00     0.191 A 
BRANCH  13  14
HETATM   14  N7  UNL     1      46.472 -47.805  73.069  1.00  0.00    -0.305 N 
ATOM     15  H7  UNL     1      46.613 -46.874  72.677  1.00  0.00     0.171 HD
BRANCH  14  16
HETATM   16  C16 UNL     1      45.373 -47.994  73.939  1.00  0.00     0.194 C 
HETATM   17  N8  UNL     1      45.018 -49.078  74.511  1.00  0.00    -0.346 N 
HETATM   18  C17 UNL     1      43.843 -48.896  75.330  1.00  0.00     0.259 C 
ATOM     19  H8  UNL     1      45.507 -49.967  74.404  1.00  0.00     0.163 HD
HETATM   20  N9  UNL     1      43.725 -47.467  75.453  1.00  0.00    -0.119 NA
HETATM   21  N10 UNL     1      44.449 -46.995  74.338  1.00  0.00    -0.274 N 
ATOM     22  H10 UNL     1      44.327 -46.086  73.893  1.00  0.00     0.185 HD
ENDBRANCH  14  16
ENDBRANCH  13  14
ENDBRANCH   7   8
ENDBRANCH   6   7
BRANCH   1  23
HETATM   23  C1  UNL     1      47.480 -50.646  76.310  1.00  0.00     0.273 C 
HETATM   24  N1  UNL     1      46.939 -51.531  75.353  1.00  0.00    -0.057 NA
HETATM   25  O1  UNL     1      46.745 -49.903  76.961  1.00  0.00    -0.270 OA
ENDBRANCH   1  23
BRANCH   3  26
HETATM   26  C4  UNL     1      52.716 -51.547  77.715  1.00  0.00     0.048 C 
BRANCH  26  27
HETATM   27  C5  UNL     1      53.045 -50.816  79.013  1.00  0.00     0.007 C 
BRANCH  27  28
HETATM   28  C6  UNL     1      54.510 -50.864  79.296  1.00  0.00     0.020 C 
BRANCH  28  29
HETATM   29  C7  UNL     1      55.197 -49.566  79.057  1.00  0.00     0.122 C 
BRANCH  29  30
HETATM   30  N2  UNL     1      55.067 -48.602  80.091  1.00  0.00    -0.362 N 
ATOM     31  H2  UNL     1      55.614 -48.782  80.933  1.00  0.00     0.162 HD
BRANCH  30  32
HETATM   32  C8  UNL     1      54.285 -47.431  80.110  1.00  0.00     0.171 C 
HETATM   33  N3  UNL     1      53.768 -46.728  79.152  1.00  0.00    -0.361 N 
HETATM   34  C9  UNL     1      53.035 -45.595  79.632  1.00  0.00     0.142 C 
ATOM     35  H3  UNL     1      53.872 -46.956  78.163  1.00  0.00     0.162 HD
HETATM   36  C10 UNL     1      53.582 -45.413  81.027  1.00  0.00     0.142 C 
HETATM   37  N4  UNL     1      53.947 -46.775  81.358  1.00  0.00    -0.361 N 
ATOM     38  H4  UNL     1      53.963 -47.192  82.289  1.00  0.00     0.162 HD
ENDBRANCH  30  32
ENDBRANCH  29  30
ENDBRANCH  28  29
ENDBRANCH  27  28
ENDBRANCH  26  27
ENDBRANCH   3  26
TORSDOF 11
ENDMDL
