MODEL 1
REMARK VINA RESULT: -6.324287941      0.000      0.000
REMARK  8 active torsions:
REMARK  status: ('A' for Active; 'I' for Inactive)
REMARK    1  A    between atoms: N2_7  and  C4_8 
REMARK    2  A    between atoms: C4_8  and  O1_9 
REMARK    3  A    between atoms: O1_9  and  C5_10 
REMARK    4  A    between atoms: C5_10  and  C6_11 
REMARK    5  A    between atoms: C6_11  and  N3_12 
REMARK    6  A    between atoms: N3_12  and  C7_15 
REMARK    7  A    between atoms: C7_15  and  C8_16 
REMARK    8  A    between atoms: C9_17  and  C10_18 
ROOT
HETATM    1  C5  UNL     1     -19.921  93.516  11.279  1.00  0.00     0.197 C 
ENDROOT
BRANCH   1   2
HETATM    2  O1  UNL     1     -20.622  92.342  11.266  1.00  0.00    -0.370 OA
BRANCH   2   3
HETATM    3  C4  UNL     1     -21.820  92.381  11.957  1.00  0.00     0.298 C 
BRANCH   3   4
HETATM    4  N2  UNL     1     -21.802  91.291  12.912  1.00  0.00    -0.331 N 
HETATM    5  C3  UNL     1     -20.722  91.004  13.664  1.00  0.00     0.098 A 
HETATM    6  C2  UNL     1     -20.791  89.950  14.547  1.00  0.00     0.065 A 
HETATM    7  C1  UNL     1     -21.947  89.208  14.652  1.00  0.00     0.100 A 
HETATM    8  N1  UNL     1     -21.988  88.219  15.492  1.00  0.00    -0.385 N 
HETATM    9  N4  UNL     1     -23.010  89.515  13.891  1.00  0.00    -0.339 N 
ATOM     10  H12 UNL     1     -21.180  87.986  16.070  1.00  0.00     0.157 HD
ATOM     11  H11 UNL     1     -22.844  87.671  15.570  1.00  0.00     0.157 HD
HETATM   12  C16 UNL     1     -22.918  90.552  13.033  1.00  0.00     0.186 A 
ATOM     13  H4  UNL     1     -23.872  88.973  13.961  1.00  0.00     0.168 HD
ENDBRANCH   3   4
ENDBRANCH   2   3
ENDBRANCH   1   2
BRANCH   1  14
HETATM   14  C6  UNL     1     -18.529  93.402  11.846  1.00  0.00     0.259 C 
BRANCH  14  15
HETATM   15  N3  UNL     1     -17.935  92.168  11.366  1.00  0.00    -0.063 N 
ATOM     16  H32 UNL     1     -18.585  91.382  11.378  1.00  0.00     0.278 HD
ATOM     17  H31 UNL     1     -17.755  92.176  10.362  1.00  0.00     0.278 HD
BRANCH  15  18
HETATM   18  C7  UNL     1     -16.728  91.924  12.163  1.00  0.00     0.326 C 
BRANCH  18  19
HETATM   19  C8  UNL     1     -17.040  91.107  13.338  1.00  0.00    -0.073 C 
HETATM   20  C9  UNL     1     -17.299  90.418  14.294  1.00  0.00    -0.065 C 
BRANCH  20  21
HETATM   21  C10 UNL     1     -17.621  89.571  15.429  1.00  0.00     0.017 A 
HETATM   22  C11 UNL     1     -17.791  88.211  15.281  1.00  0.00     0.020 A 
HETATM   23  C12 UNL     1     -18.097  87.422  16.369  1.00  0.00     0.001 A 
HETATM   24  C13 UNL     1     -18.235  87.996  17.630  1.00  0.00     0.000 A 
HETATM   25  C14 UNL     1     -18.070  89.352  17.805  1.00  0.00     0.001 A 
HETATM   26  C15 UNL     1     -17.766  90.106  16.692  1.00  0.00     0.020 A 
ENDBRANCH  20  21
ENDBRANCH  18  19
ENDBRANCH  15  18
ENDBRANCH  14  15
ENDBRANCH   1  14
TORSDOF 8
ENDMDL
MODEL 2
REMARK VINA RESULT: -6.209127782      1.655      3.847
REMARK  8 active torsions:
REMARK  status: ('A' for Active; 'I' for Inactive)
REMARK    1  A    between atoms: N2_7  and  C4_8 
REMARK    2  A    between atoms: C4_8  and  O1_9 
REMARK    3  A    between atoms: O1_9  and  C5_10 
REMARK    4  A    between atoms: C5_10  and  C6_11 
REMARK    5  A    between atoms: C6_11  and  N3_12 
REMARK    6  A    between atoms: N3_12  and  C7_15 
REMARK    7  A    between atoms: C7_15  and  C8_16 
REMARK    8  A    between atoms: C9_17  and  C10_18 
ROOT
HETATM    1  C5  UNL     1     -22.645  91.145  11.223  1.00  0.00     0.197 C 
ENDROOT
BRANCH   1   2
HETATM    2  O1  UNL     1     -21.394  91.504  10.806  1.00  0.00    -0.370 OA
BRANCH   2   3
HETATM    3  C4  UNL     1     -20.878  92.622  11.437  1.00  0.00     0.298 C 
BRANCH   3   4
HETATM    4  N2  UNL     1     -19.813  92.170  12.311  1.00  0.00    -0.331 N 
HETATM    5  C3  UNL     1     -19.498  92.803  13.457  1.00  0.00     0.098 A 
HETATM    6  C2  UNL     1     -18.472  92.306  14.228  1.00  0.00     0.065 A 
HETATM    7  C1  UNL     1     -17.786  91.181  13.827  1.00  0.00     0.100 A 
HETATM    8  N1  UNL     1     -16.823  90.730  14.571  1.00  0.00    -0.385 N 
HETATM    9  N4  UNL     1     -18.120  90.568  12.680  1.00  0.00    -0.339 N 
ATOM     10  H12 UNL     1     -16.569  91.196  15.442  1.00  0.00     0.157 HD
ATOM     11  H11 UNL     1     -16.315  89.897  14.273  1.00  0.00     0.157 HD
HETATM   12  C16 UNL     1     -19.129  91.074  11.940  1.00  0.00     0.186 A 
ATOM     13  H4  UNL     1     -17.619  89.733  12.372  1.00  0.00     0.168 HD
ENDBRANCH   3   4
ENDBRANCH   2   3
ENDBRANCH   1   2
BRANCH   1  14
HETATM   14  C6  UNL     1     -23.302  92.141  12.144  1.00  0.00     0.259 C 
BRANCH  14  15
HETATM   15  N3  UNL     1     -23.275  91.608  13.494  1.00  0.00    -0.063 N 
ATOM     16  H32 UNL     1     -22.619  92.097  14.103  1.00  0.00     0.278 HD
ATOM     17  H31 UNL     1     -24.123  91.813  14.021  1.00  0.00     0.278 HD
BRANCH  15  18
HETATM   18  C7  UNL     1     -22.998  90.171  13.391  1.00  0.00     0.326 C 
BRANCH  18  19
HETATM   19  C8  UNL     1     -21.889  89.794  14.270  1.00  0.00    -0.073 C 
HETATM   20  C9  UNL     1     -20.971  89.501  14.997  1.00  0.00    -0.065 C 
BRANCH  20  21
HETATM   21  C10 UNL     1     -19.858  89.174  15.871  1.00  0.00     0.017 A 
HETATM   22  C11 UNL     1     -19.572  89.938  16.982  1.00  0.00     0.020 A 
HETATM   23  C12 UNL     1     -18.511  89.614  17.800  1.00  0.00     0.001 A 
HETATM   24  C13 UNL     1     -17.719  88.506  17.508  1.00  0.00     0.000 A 
HETATM   25  C14 UNL     1     -17.984  87.726  16.404  1.00  0.00     0.001 A 
HETATM   26  C15 UNL     1     -19.053  88.085  15.612  1.00  0.00     0.020 A 
ENDBRANCH  20  21
ENDBRANCH  18  19
ENDBRANCH  15  18
ENDBRANCH  14  15
ENDBRANCH   1  14
TORSDOF 8
ENDMDL
MODEL 3
REMARK VINA RESULT: -6.176434272      1.654      3.686
REMARK  8 active torsions:
REMARK  status: ('A' for Active; 'I' for Inactive)
REMARK    1  A    between atoms: N2_7  and  C4_8 
REMARK    2  A    between atoms: C4_8  and  O1_9 
REMARK    3  A    between atoms: O1_9  and  C5_10 
REMARK    4  A    between atoms: C5_10  and  C6_11 
REMARK    5  A    between atoms: C6_11  and  N3_12 
REMARK    6  A    between atoms: N3_12  and  C7_15 
REMARK    7  A    between atoms: C7_15  and  C8_16 
REMARK    8  A    between atoms: C9_17  and  C10_18 
ROOT
HETATM    1  C5  UNL     1     -21.705  93.405  10.938  1.00  0.00     0.197 C 
ENDROOT
BRANCH   1   2
HETATM    2  O1  UNL     1     -20.458  93.392  10.379  1.00  0.00    -0.370 OA
BRANCH   2   3
HETATM    3  C4  UNL     1     -19.510  94.123  11.074  1.00  0.00     0.298 C 
BRANCH   3   4
HETATM    4  N2  UNL     1     -18.766  93.189  11.896  1.00  0.00    -0.331 N 
HETATM    5  C3  UNL     1     -18.666  93.321  13.233  1.00  0.00     0.098 A 
HETATM    6  C2  UNL     1     -17.940  92.388  13.938  1.00  0.00     0.065 A 
HETATM    7  C1  UNL     1     -17.330  91.343  13.281  1.00  0.00     0.100 A 
HETATM    8  N1  UNL     1     -16.651  90.475  13.967  1.00  0.00    -0.385 N 
HETATM    9  N4  UNL     1     -17.445  91.233  11.947  1.00  0.00    -0.339 N 
ATOM     10  H12 UNL     1     -16.563  90.558  14.980  1.00  0.00     0.157 HD
ATOM     11  H11 UNL     1     -16.200  89.702  13.479  1.00  0.00     0.157 HD
HETATM   12  C16 UNL     1     -18.162  92.160  11.277  1.00  0.00     0.186 A 
ATOM     13  H4  UNL     1     -16.998  90.463  11.449  1.00  0.00     0.168 HD
ENDBRANCH   3   4
ENDBRANCH   2   3
ENDBRANCH   1   2
BRANCH   1  14
HETATM   14  C6  UNL     1     -22.424  92.081  10.884  1.00  0.00     0.259 C 
BRANCH  14  15
HETATM   15  N3  UNL     1     -21.647  91.105  11.626  1.00  0.00    -0.063 N 
ATOM     16  H32 UNL     1     -21.552  90.215  11.136  1.00  0.00     0.278 HD
ATOM     17  H31 UNL     1     -20.655  91.337  11.672  1.00  0.00     0.278 HD
BRANCH  15  18
HETATM   18  C7  UNL     1     -22.265  90.967  12.948  1.00  0.00     0.326 C 
BRANCH  18  19
HETATM   19  C8  UNL     1     -21.319  90.387  13.904  1.00  0.00    -0.073 C 
HETATM   20  C9  UNL     1     -20.535  89.927  14.698  1.00  0.00    -0.065 C 
BRANCH  20  21
HETATM   21  C10 UNL     1     -19.580  89.398  15.656  1.00  0.00     0.017 A 
HETATM   22  C11 UNL     1     -18.973  88.176  15.460  1.00  0.00     0.020 A 
HETATM   23  C12 UNL     1     -18.069  87.688  16.379  1.00  0.00     0.001 A 
HETATM   24  C13 UNL     1     -17.763  88.431  17.517  1.00  0.00     0.000 A 
HETATM   25  C14 UNL     1     -18.355  89.654  17.736  1.00  0.00     0.001 A 
HETATM   26  C15 UNL     1     -19.254  90.106  16.793  1.00  0.00     0.020 A 
ENDBRANCH  20  21
ENDBRANCH  18  19
ENDBRANCH  15  18
ENDBRANCH  14  15
ENDBRANCH   1  14
TORSDOF 8
ENDMDL
MODEL 4
REMARK VINA RESULT: -6.128064392      2.381      3.995
REMARK  8 active torsions:
REMARK  status: ('A' for Active; 'I' for Inactive)
REMARK    1  A    between atoms: N2_7  and  C4_8 
REMARK    2  A    between atoms: C4_8  and  O1_9 
REMARK    3  A    between atoms: O1_9  and  C5_10 
REMARK    4  A    between atoms: C5_10  and  C6_11 
REMARK    5  A    between atoms: C6_11  and  N3_12 
REMARK    6  A    between atoms: N3_12  and  C7_15 
REMARK    7  A    between atoms: C7_15  and  C8_16 
REMARK    8  A    between atoms: C9_17  and  C10_18 
ROOT
HETATM    1  C5  UNL     1     -18.044  93.331  13.504  1.00  0.00     0.197 C 
ENDROOT
BRANCH   1   2
HETATM    2  O1  UNL     1     -17.625  92.053  13.748  1.00  0.00    -0.370 OA
BRANCH   2   3
HETATM    3  C4  UNL     1     -17.811  91.627  15.051  1.00  0.00     0.298 C 
BRANCH   3   4
HETATM    4  N2  UNL     1     -17.807  90.177  15.034  1.00  0.00    -0.331 N 
HETATM    5  C3  UNL     1     -17.827  89.439  16.160  1.00  0.00     0.098 A 
HETATM    6  C2  UNL     1     -17.821  88.066  16.053  1.00  0.00     0.065 A 
HETATM    7  C1  UNL     1     -17.795  87.468  14.813  1.00  0.00     0.100 A 
HETATM    8  N1  UNL     1     -17.790  86.172  14.736  1.00  0.00    -0.385 N 
HETATM    9  N4  UNL     1     -17.775  88.226  13.704  1.00  0.00    -0.339 N 
ATOM     10  H12 UNL     1     -17.805  85.596  15.578  1.00  0.00     0.157 HD
ATOM     11  H11 UNL     1     -17.771  85.730  13.818  1.00  0.00     0.157 HD
HETATM   12  C16 UNL     1     -17.781  89.570  13.835  1.00  0.00     0.186 A 
ATOM     13  H4  UNL     1     -17.756  87.794  12.780  1.00  0.00     0.168 HD
ENDBRANCH   3   4
ENDBRANCH   2   3
ENDBRANCH   1   2
BRANCH   1  14
HETATM   14  C6  UNL     1     -19.475  93.438  13.043  1.00  0.00     0.259 C 
BRANCH  14  15
HETATM   15  N3  UNL     1     -19.629  92.655  11.831  1.00  0.00    -0.063 N 
ATOM     16  H32 UNL     1     -19.426  93.188  10.984  1.00  0.00     0.278 HD
ATOM     17  H31 UNL     1     -18.904  91.947  11.719  1.00  0.00     0.278 HD
BRANCH  15  18
HETATM   18  C7  UNL     1     -20.983  92.092  11.842  1.00  0.00     0.326 C 
BRANCH  18  19
HETATM   19  C8  UNL     1     -21.108  91.066  12.880  1.00  0.00    -0.073 C 
HETATM   20  C9  UNL     1     -21.200  90.232  13.747  1.00  0.00    -0.065 C 
BRANCH  20  21
HETATM   21  C10 UNL     1     -21.290  89.238  14.802  1.00  0.00     0.017 A 
HETATM   22  C11 UNL     1     -21.438  87.899  14.513  1.00  0.00     0.020 A 
HETATM   23  C12 UNL     1     -21.522  86.969  15.528  1.00  0.00     0.001 A 
HETATM   24  C13 UNL     1     -21.459  87.380  16.857  1.00  0.00     0.000 A 
HETATM   25  C14 UNL     1     -21.311  88.712  17.172  1.00  0.00     0.001 A 
HETATM   26  C15 UNL     1     -21.231  89.609  16.129  1.00  0.00     0.020 A 
ENDBRANCH  20  21
ENDBRANCH  18  19
ENDBRANCH  15  18
ENDBRANCH  14  15
ENDBRANCH   1  14
TORSDOF 8
ENDMDL
MODEL 5
REMARK VINA RESULT: -6.048376057      2.076      3.770
REMARK  8 active torsions:
REMARK  status: ('A' for Active; 'I' for Inactive)
REMARK    1  A    between atoms: N2_7  and  C4_8 
REMARK    2  A    between atoms: C4_8  and  O1_9 
REMARK    3  A    between atoms: O1_9  and  C5_10 
REMARK    4  A    between atoms: C5_10  and  C6_11 
REMARK    5  A    between atoms: C6_11  and  N3_12 
REMARK    6  A    between atoms: N3_12  and  C7_15 
REMARK    7  A    between atoms: C7_15  and  C8_16 
REMARK    8  A    between atoms: C9_17  and  C10_18 
ROOT
HETATM    1  C5  UNL     1     -19.768  93.900  10.971  1.00  0.00     0.197 C 
ENDROOT
BRANCH   1   2
HETATM    2  O1  UNL     1     -18.694  93.066  10.836  1.00  0.00    -0.370 OA
BRANCH   2   3
HETATM    3  C4  UNL     1     -17.790  93.120  11.882  1.00  0.00     0.298 C 
BRANCH   3   4
HETATM    4  N2  UNL     1     -17.761  91.807  12.494  1.00  0.00    -0.331 N 
HETATM    5  C3  UNL     1     -17.231  91.586  13.712  1.00  0.00     0.098 A 
HETATM    6  C2  UNL     1     -17.244  90.306  14.220  1.00  0.00     0.065 A 
HETATM    7  C1  UNL     1     -17.793  89.277  13.487  1.00  0.00     0.100 A 
HETATM    8  N1  UNL     1     -17.795  88.078  13.986  1.00  0.00    -0.385 N 
HETATM    9  N4  UNL     1     -18.315  89.522  12.275  1.00  0.00    -0.339 N 
ATOM     10  H12 UNL     1     -17.398  87.891  14.907  1.00  0.00     0.157 HD
ATOM     11  H11 UNL     1     -18.201  87.316  13.444  1.00  0.00     0.157 HD
HETATM   12  C16 UNL     1     -18.290  90.785  11.799  1.00  0.00     0.186 A 
ATOM     13  H4  UNL     1     -18.725  88.768  11.723  1.00  0.00     0.168 HD
ENDBRANCH   3   4
ENDBRANCH   2   3
ENDBRANCH   1   2
BRANCH   1  14
HETATM   14  C6  UNL     1     -20.438  93.837  12.321  1.00  0.00     0.259 C 
BRANCH  14  15
HETATM   15  N3  UNL     1     -21.863  93.654  12.119  1.00  0.00    -0.063 N 
ATOM     16  H32 UNL     1     -22.416  93.883  12.945  1.00  0.00     0.278 HD
ATOM     17  H31 UNL     1     -22.269  94.348  11.491  1.00  0.00     0.278 HD
BRANCH  15  18
HETATM   18  C7  UNL     1     -22.067  92.277  11.658  1.00  0.00     0.326 C 
BRANCH  18  19
HETATM   19  C8  UNL     1     -21.756  91.323  12.725  1.00  0.00    -0.073 C 
HETATM   20  C9  UNL     1     -21.492  90.551  13.614  1.00  0.00    -0.065 C 
BRANCH  20  21
HETATM   21  C10 UNL     1     -21.158  89.639  14.694  1.00  0.00     0.017 A 
HETATM   22  C11 UNL     1     -21.595  88.332  14.688  1.00  0.00     0.020 A 
HETATM   23  C12 UNL     1     -21.269  87.480  15.722  1.00  0.00     0.001 A 
HETATM   24  C13 UNL     1     -20.491  87.938  16.783  1.00  0.00     0.000 A 
HETATM   25  C14 UNL     1     -20.041  89.239  16.812  1.00  0.00     0.001 A 
HETATM   26  C15 UNL     1     -20.390  90.058  15.760  1.00  0.00     0.020 A 
ENDBRANCH  20  21
ENDBRANCH  18  19
ENDBRANCH  15  18
ENDBRANCH  14  15
ENDBRANCH   1  14
TORSDOF 8
ENDMDL
