MODEL 1
REMARK VINA RESULT: -6.578911039      0.000      0.000
REMARK  9 active torsions:
REMARK  status: ('A' for Active; 'I' for Inactive)
REMARK    1  A    between atoms: C3_6  and  N3_7 
REMARK    2  A    between atoms: N3_7  and  C4_9 
REMARK    3  A    between atoms: C4_9  and  C5_10 
REMARK    4  A    between atoms: C5_10  and  N4_11 
REMARK    5  A    between atoms: C6_17  and  N6_18 
REMARK    6  A    between atoms: N6_18  and  C7_20 
REMARK    7  A    between atoms: C7_20  and  C8_21 
REMARK    8  A    between atoms: C8_21  and  C9_22 
REMARK    9  A    between atoms: C9_22  and  C10_23 
ROOT
HETATM    1  C1  UNL     1     -21.061  93.396  11.393  1.00  0.00     0.176 C 
HETATM    2  N1  UNL     1     -21.439  92.249  12.186  1.00  0.00    -0.183 N 
HETATM    3  C2  UNL     1     -22.702  92.138  12.656  1.00  0.00     0.217 A 
HETATM    4  N2  UNL     1     -23.058  91.055  13.405  1.00  0.00    -0.187 N 
ATOM      5  H2  UNL     1     -24.009  90.965  13.762  1.00  0.00     0.185 HD
HETATM    6  C3  UNL     1     -22.143  90.110  13.665  1.00  0.00     0.693 A 
HETATM    7  N5  UNL     1     -20.874  90.263  13.168  1.00  0.00    -0.022 N 
ATOM      8  H5  UNL     1     -20.181  89.541  13.369  1.00  0.00     0.203 HD
HETATM    9  C6  UNL     1     -20.502  91.317  12.432  1.00  0.00     0.695 A 
ENDROOT
BRANCH   9  10
HETATM   10  N6  UNL     1     -19.321  91.471  11.962  1.00  0.00    -0.225 N 
ATOM     11  H6  UNL     1     -19.124  91.057  11.051  1.00  0.00     0.177 HD
BRANCH  10  12
HETATM   12  C7  UNL     1     -18.257  92.173  12.604  1.00  0.00     0.138 C 
BRANCH  12  13
HETATM   13  C8  UNL     1     -17.469  91.145  13.420  1.00  0.00     0.025 C 
BRANCH  13  14
HETATM   14  C9  UNL     1     -17.783  91.353  14.906  1.00  0.00     0.040 C 
BRANCH  14  15
HETATM   15  C10 UNL     1     -17.862  90.047  15.574  1.00  0.00    -0.058 A 
HETATM   16  C11 UNL     1     -17.886  88.882  14.829  1.00  0.00     0.007 A 
HETATM   17  C12 UNL     1     -17.959  87.649  15.452  1.00  0.00     0.001 A 
HETATM   18  C13 UNL     1     -18.011  87.528  16.827  1.00  0.00     0.000 A 
HETATM   19  C14 UNL     1     -17.987  88.687  17.582  1.00  0.00     0.001 A 
HETATM   20  C15 UNL     1     -17.914  89.912  16.953  1.00  0.00     0.007 A 
ENDBRANCH  14  15
ENDBRANCH  13  14
ENDBRANCH  12  13
ENDBRANCH  10  12
ENDBRANCH   9  10
BRANCH   6  21
HETATM   21  N3  UNL     1     -22.447  89.091  14.359  1.00  0.00    -0.224 N 
ATOM     22  H3  UNL     1     -23.444  88.941  14.518  1.00  0.00     0.177 HD
BRANCH  21  23
HETATM   23  C4  UNL     1     -21.578  88.130  14.945  1.00  0.00     0.165 C 
BRANCH  23  24
HETATM   24  C5  UNL     1     -21.551  88.280  16.473  1.00  0.00     0.249 C 
BRANCH  24  25
HETATM   25  N4  UNL     1     -21.509  86.990  17.130  1.00  0.00    -0.078 N 
ATOM     26  H43 UNL     1     -21.306  86.240  16.469  1.00  0.00     0.274 HD
ATOM     27  H42 UNL     1     -20.686  86.901  17.725  1.00  0.00     0.274 HD
ATOM     28  H41 UNL     1     -22.368  86.808  17.648  1.00  0.00     0.274 HD
ENDBRANCH  24  25
ENDBRANCH  23  24
ENDBRANCH  21  23
ENDBRANCH   6  21
TORSDOF 9
ENDMDL
MODEL 2
REMARK VINA RESULT: -6.560967019      0.090      1.036
REMARK  9 active torsions:
REMARK  status: ('A' for Active; 'I' for Inactive)
REMARK    1  A    between atoms: C3_6  and  N3_7 
REMARK    2  A    between atoms: N3_7  and  C4_9 
REMARK    3  A    between atoms: C4_9  and  C5_10 
REMARK    4  A    between atoms: C5_10  and  N4_11 
REMARK    5  A    between atoms: C6_17  and  N6_18 
REMARK    6  A    between atoms: N6_18  and  C7_20 
REMARK    7  A    between atoms: C7_20  and  C8_21 
REMARK    8  A    between atoms: C8_21  and  C9_22 
REMARK    9  A    between atoms: C9_22  and  C10_23 
ROOT
HETATM    1  C1  UNL     1     -20.978  93.342  11.429  1.00  0.00     0.176 C 
HETATM    2  N1  UNL     1     -21.362  92.181  12.199  1.00  0.00    -0.183 N 
HETATM    3  C2  UNL     1     -22.632  92.053  12.643  1.00  0.00     0.217 A 
HETATM    4  N2  UNL     1     -22.994  90.957  13.369  1.00  0.00    -0.187 N 
ATOM      5  H2  UNL     1     -23.951  90.855  13.707  1.00  0.00     0.185 HD
HETATM    6  C3  UNL     1     -22.077  90.016  13.633  1.00  0.00     0.693 A 
HETATM    7  N5  UNL     1     -20.799  90.186  13.163  1.00  0.00    -0.022 N 
ATOM      8  H5  UNL     1     -20.105  89.466  13.367  1.00  0.00     0.203 HD
HETATM    9  C6  UNL     1     -20.422  91.253  12.449  1.00  0.00     0.695 A 
ENDROOT
BRANCH   9  10
HETATM   10  N6  UNL     1     -19.234  91.423  12.004  1.00  0.00    -0.225 N 
ATOM     11  H6  UNL     1     -19.008  90.998  11.105  1.00  0.00     0.177 HD
BRANCH  10  12
HETATM   12  C7  UNL     1     -18.199  92.157  12.659  1.00  0.00     0.138 C 
BRANCH  12  13
HETATM   13  C8  UNL     1     -17.388  91.153  13.482  1.00  0.00     0.025 C 
BRANCH  13  14
HETATM   14  C9  UNL     1     -17.739  91.337  14.963  1.00  0.00     0.040 C 
BRANCH  14  15
HETATM   15  C10 UNL     1     -17.832  90.021  15.609  1.00  0.00    -0.058 A 
HETATM   16  C11 UNL     1     -17.916  89.922  16.986  1.00  0.00     0.007 A 
HETATM   17  C12 UNL     1     -18.005  88.685  17.599  1.00  0.00     0.001 A 
HETATM   18  C13 UNL     1     -18.014  87.509  16.874  1.00  0.00     0.000 A 
HETATM   19  C14 UNL     1     -17.931  87.596  15.496  1.00  0.00     0.001 A 
HETATM   20  C15 UNL     1     -17.843  88.833  14.891  1.00  0.00     0.007 A 
ENDBRANCH  14  15
ENDBRANCH  13  14
ENDBRANCH  12  13
ENDBRANCH  10  12
ENDBRANCH   9  10
BRANCH   6  21
HETATM   21  N3  UNL     1     -22.386  88.984  14.307  1.00  0.00    -0.224 N 
ATOM     22  H3  UNL     1     -23.384  88.801  14.407  1.00  0.00     0.177 HD
BRANCH  21  23
HETATM   23  C4  UNL     1     -21.519  88.052  14.940  1.00  0.00     0.165 C 
BRANCH  23  24
HETATM   24  C5  UNL     1     -21.542  88.235  16.465  1.00  0.00     0.249 C 
BRANCH  24  25
HETATM   25  N4  UNL     1     -21.514  86.960  17.151  1.00  0.00    -0.078 N 
ATOM     26  H43 UNL     1     -21.595  86.181  16.498  1.00  0.00     0.274 HD
ATOM     27  H42 UNL     1     -20.586  86.756  17.522  1.00  0.00     0.274 HD
ATOM     28  H41 UNL     1     -22.226  86.913  17.879  1.00  0.00     0.274 HD
ENDBRANCH  24  25
ENDBRANCH  23  24
ENDBRANCH  21  23
ENDBRANCH   6  21
TORSDOF 9
ENDMDL
MODEL 3
REMARK VINA RESULT: -6.197738993      1.759      4.179
REMARK  9 active torsions:
REMARK  status: ('A' for Active; 'I' for Inactive)
REMARK    1  A    between atoms: C3_6  and  N3_7 
REMARK    2  A    between atoms: N3_7  and  C4_9 
REMARK    3  A    between atoms: C4_9  and  C5_10 
REMARK    4  A    between atoms: C5_10  and  N4_11 
REMARK    5  A    between atoms: C6_17  and  N6_18 
REMARK    6  A    between atoms: N6_18  and  C7_20 
REMARK    7  A    between atoms: C7_20  and  C8_21 
REMARK    8  A    between atoms: C8_21  and  C9_22 
REMARK    9  A    between atoms: C9_22  and  C10_23 
ROOT
HETATM    1  C1  UNL     1     -18.941  90.431  12.162  1.00  0.00     0.176 C 
HETATM    2  N1  UNL     1     -20.072  91.303  12.381  1.00  0.00    -0.183 N 
HETATM    3  C2  UNL     1     -20.087  92.541  11.837  1.00  0.00     0.217 A 
HETATM    4  N2  UNL     1     -21.154  93.364  12.044  1.00  0.00    -0.187 N 
ATOM      5  H2  UNL     1     -21.172  94.299  11.636  1.00  0.00     0.185 HD
HETATM    6  C3  UNL     1     -22.180  92.930  12.790  1.00  0.00     0.693 A 
HETATM    7  N5  UNL     1     -22.123  91.668  13.323  1.00  0.00    -0.022 N 
ATOM      8  H5  UNL     1     -22.907  91.342  13.890  1.00  0.00     0.203 HD
HETATM    9  C6  UNL     1     -21.086  90.843  13.133  1.00  0.00     0.695 A 
ENDROOT
BRANCH   9  10
HETATM   10  N6  UNL     1     -21.021  89.663  13.624  1.00  0.00    -0.225 N 
ATOM     11  H6  UNL     1     -20.145  89.154  13.502  1.00  0.00     0.177 HD
BRANCH  10  12
HETATM   12  C7  UNL     1     -22.070  88.998  14.328  1.00  0.00     0.138 C 
BRANCH  12  13
HETATM   13  C8  UNL     1     -21.494  87.678  14.850  1.00  0.00     0.025 C 
BRANCH  13  14
HETATM   14  C9  UNL     1     -21.428  87.744  16.380  1.00  0.00     0.040 C 
BRANCH  14  15
HETATM   15  C10 UNL     1     -20.105  88.234  16.789  1.00  0.00    -0.058 A 
HETATM   16  C11 UNL     1     -19.993  89.349  17.600  1.00  0.00     0.007 A 
HETATM   17  C12 UNL     1     -18.749  89.815  17.988  1.00  0.00     0.001 A 
HETATM   18  C13 UNL     1     -17.581  89.195  17.592  1.00  0.00     0.000 A 
HETATM   19  C14 UNL     1     -17.681  88.078  16.782  1.00  0.00     0.001 A 
HETATM   20  C15 UNL     1     -18.924  87.620  16.398  1.00  0.00     0.007 A 
ENDBRANCH  14  15
ENDBRANCH  13  14
ENDBRANCH  12  13
ENDBRANCH  10  12
ENDBRANCH   9  10
BRANCH   6  21
HETATM   21  N3  UNL     1     -23.187  93.675  12.999  1.00  0.00    -0.224 N 
ATOM     22  H3  UNL     1     -23.024  94.679  12.913  1.00  0.00     0.177 HD
BRANCH  21  23
HETATM   23  C4  UNL     1     -24.514  93.292  13.338  1.00  0.00     0.165 C 
BRANCH  23  24
HETATM   24  C5  UNL     1     -25.121  94.271  14.353  1.00  0.00     0.249 C 
BRANCH  24  25
HETATM   25  N4  UNL     1     -25.686  93.572  15.489  1.00  0.00    -0.078 N 
ATOM     26  H43 UNL     1     -26.613  93.926  15.723  1.00  0.00     0.274 HD
ATOM     27  H42 UNL     1     -25.941  92.614  15.248  1.00  0.00     0.274 HD
ATOM     28  H41 UNL     1     -25.061  93.601  16.294  1.00  0.00     0.274 HD
ENDBRANCH  24  25
ENDBRANCH  23  24
ENDBRANCH  21  23
ENDBRANCH   6  21
TORSDOF 9
ENDMDL
MODEL 4
REMARK VINA RESULT: -6.194675345      1.763      4.072
REMARK  9 active torsions:
REMARK  status: ('A' for Active; 'I' for Inactive)
REMARK    1  A    between atoms: C3_6  and  N3_7 
REMARK    2  A    between atoms: N3_7  and  C4_9 
REMARK    3  A    between atoms: C4_9  and  C5_10 
REMARK    4  A    between atoms: C5_10  and  N4_11 
REMARK    5  A    between atoms: C6_17  and  N6_18 
REMARK    6  A    between atoms: N6_18  and  C7_20 
REMARK    7  A    between atoms: C7_20  and  C8_21 
REMARK    8  A    between atoms: C8_21  and  C9_22 
REMARK    9  A    between atoms: C9_22  and  C10_23 
ROOT
HETATM    1  C1  UNL     1     -18.935  90.443  12.191  1.00  0.00     0.176 C 
HETATM    2  N1  UNL     1     -20.072  91.308  12.410  1.00  0.00    -0.183 N 
HETATM    3  C2  UNL     1     -20.087  92.553  11.882  1.00  0.00     0.217 A 
HETATM    4  N2  UNL     1     -21.160  93.369  12.088  1.00  0.00    -0.187 N 
ATOM      5  H2  UNL     1     -21.177  94.308  11.692  1.00  0.00     0.185 HD
HETATM    6  C3  UNL     1     -22.191  92.920  12.817  1.00  0.00     0.693 A 
HETATM    7  N5  UNL     1     -22.135  91.651  13.334  1.00  0.00    -0.022 N 
ATOM      8  H5  UNL     1     -22.923  91.315  13.888  1.00  0.00     0.203 HD
HETATM    9  C6  UNL     1     -21.092  90.834  13.145  1.00  0.00     0.695 A 
ENDROOT
BRANCH   9  10
HETATM   10  N6  UNL     1     -21.027  89.647  13.621  1.00  0.00    -0.225 N 
ATOM     11  H6  UNL     1     -20.156  89.135  13.481  1.00  0.00     0.177 HD
BRANCH  10  12
HETATM   12  C7  UNL     1     -22.070  88.980  14.331  1.00  0.00     0.138 C 
BRANCH  12  13
HETATM   13  C8  UNL     1     -21.491  87.657  14.843  1.00  0.00     0.025 C 
BRANCH  13  14
HETATM   14  C9  UNL     1     -21.441  87.705  16.374  1.00  0.00     0.040 C 
BRANCH  14  15
HETATM   15  C10 UNL     1     -20.125  88.198  16.803  1.00  0.00    -0.058 A 
HETATM   16  C11 UNL     1     -18.969  87.602  16.333  1.00  0.00     0.007 A 
HETATM   17  C12 UNL     1     -17.727  88.063  16.732  1.00  0.00     0.001 A 
HETATM   18  C13 UNL     1     -17.588  89.124  17.605  1.00  0.00     0.000 A 
HETATM   19  C14 UNL     1     -18.738  89.728  18.081  1.00  0.00     0.001 A 
HETATM   20  C15 UNL     1     -19.973  89.263  17.678  1.00  0.00     0.007 A 
ENDBRANCH  14  15
ENDBRANCH  13  14
ENDBRANCH  12  13
ENDBRANCH  10  12
ENDBRANCH   9  10
BRANCH   6  21
HETATM   21  N3  UNL     1     -23.204  93.659  13.025  1.00  0.00    -0.224 N 
ATOM     22  H3  UNL     1     -23.050  94.662  12.928  1.00  0.00     0.177 HD
BRANCH  21  23
HETATM   23  C4  UNL     1     -24.525  93.267  13.376  1.00  0.00     0.165 C 
BRANCH  23  24
HETATM   24  C5  UNL     1     -25.131  94.244  14.394  1.00  0.00     0.249 C 
BRANCH  24  25
HETATM   25  N4  UNL     1     -25.717  93.542  15.517  1.00  0.00    -0.078 N 
ATOM     26  H43 UNL     1     -26.474  94.078  15.940  1.00  0.00     0.274 HD
ATOM     27  H42 UNL     1     -26.252  92.729  15.211  1.00  0.00     0.274 HD
ATOM     28  H41 UNL     1     -25.010  93.286  16.206  1.00  0.00     0.274 HD
ENDBRANCH  24  25
ENDBRANCH  23  24
ENDBRANCH  21  23
ENDBRANCH   6  21
TORSDOF 9
ENDMDL
MODEL 5
REMARK VINA RESULT: -6.135737717      2.969      4.006
REMARK  9 active torsions:
REMARK  status: ('A' for Active; 'I' for Inactive)
REMARK    1  A    between atoms: C3_6  and  N3_7 
REMARK    2  A    between atoms: N3_7  and  C4_9 
REMARK    3  A    between atoms: C4_9  and  C5_10 
REMARK    4  A    between atoms: C5_10  and  N4_11 
REMARK    5  A    between atoms: C6_17  and  N6_18 
REMARK    6  A    between atoms: N6_18  and  C7_20 
REMARK    7  A    between atoms: C7_20  and  C8_21 
REMARK    8  A    between atoms: C8_21  and  C9_22 
REMARK    9  A    between atoms: C9_22  and  C10_23 
ROOT
HETATM    1  C1  UNL     1     -22.955  93.308  10.391  1.00  0.00     0.176 C 
HETATM    2  N1  UNL     1     -23.795  93.391  11.564  1.00  0.00    -0.183 N 
HETATM    3  C2  UNL     1     -25.007  93.986  11.487  1.00  0.00     0.217 A 
HETATM    4  N2  UNL     1     -25.800  94.065  12.594  1.00  0.00    -0.187 N 
ATOM      5  H2  UNL     1     -26.716  94.512  12.542  1.00  0.00     0.185 HD
HETATM    6  C3  UNL     1     -25.363  93.546  13.750  1.00  0.00     0.693 A 
HETATM    7  N5  UNL     1     -24.127  92.952  13.783  1.00  0.00    -0.022 N 
ATOM      8  H5  UNL     1     -23.799  92.558  14.666  1.00  0.00     0.203 HD
HETATM    9  C6  UNL     1     -23.332  92.864  12.710  1.00  0.00     0.695 A 
ENDROOT
BRANCH   9  10
HETATM   10  N6  UNL     1     -22.178  92.311  12.727  1.00  0.00    -0.225 N 
ATOM     11  H6  UNL     1     -21.391  92.863  12.387  1.00  0.00     0.177 HD
BRANCH  10  12
HETATM   12  C7  UNL     1     -21.898  90.987  13.182  1.00  0.00     0.138 C 
BRANCH  12  13
HETATM   13  C8  UNL     1     -20.518  91.021  13.845  1.00  0.00     0.025 C 
BRANCH  13  14
HETATM   14  C9  UNL     1     -19.951  89.597  13.868  1.00  0.00     0.040 C 
BRANCH  14  15
HETATM   15  C10 UNL     1     -19.385  89.321  15.195  1.00  0.00    -0.058 A 
HETATM   16  C11 UNL     1     -18.662  88.163  15.420  1.00  0.00     0.007 A 
HETATM   17  C12 UNL     1     -18.126  87.898  16.667  1.00  0.00     0.001 A 
HETATM   18  C13 UNL     1     -18.285  88.766  17.729  1.00  0.00     0.000 A 
HETATM   19  C14 UNL     1     -19.005  89.928  17.517  1.00  0.00     0.001 A 
HETATM   20  C15 UNL     1     -19.537  90.185  16.270  1.00  0.00     0.007 A 
ENDBRANCH  14  15
ENDBRANCH  13  14
ENDBRANCH  12  13
ENDBRANCH  10  12
ENDBRANCH   9  10
BRANCH   6  21
HETATM   21  N3  UNL     1     -26.080  93.605  14.797  1.00  0.00    -0.224 N 
ATOM     22  H3  UNL     1     -25.812  94.313  15.481  1.00  0.00     0.177 HD
BRANCH  21  23
HETATM   23  C4  UNL     1     -27.210  92.812  15.138  1.00  0.00     0.165 C 
BRANCH  23  24
HETATM   24  C5  UNL     1     -26.841  91.770  16.203  1.00  0.00     0.249 C 
BRANCH  24  25
HETATM   25  N4  UNL     1     -27.843  91.703  17.247  1.00  0.00    -0.078 N 
ATOM     26  H43 UNL     1     -27.771  92.494  17.886  1.00  0.00     0.274 HD
ATOM     27  H42 UNL     1     -28.778  91.883  16.879  1.00  0.00     0.274 HD
ATOM     28  H41 UNL     1     -27.803  90.815  17.746  1.00  0.00     0.274 HD
ENDBRANCH  24  25
ENDBRANCH  23  24
ENDBRANCH  21  23
ENDBRANCH   6  21
TORSDOF 9
ENDMDL
