MODEL 1
REMARK VINA RESULT: -8.182705355      0.000      0.000
REMARK  8 active torsions:
REMARK  status: ('A' for Active; 'I' for Inactive)
REMARK       I    between atoms: C1_4  and  N2_5 
REMARK       I    between atoms: C1_4  and  N6_22 
REMARK    1  A    between atoms: N2_5  and  C2_7 
REMARK    2  A    between atoms: C2_7  and  C3_8 
REMARK    3  A    between atoms: C3_8  and  C4_9 
REMARK    4  A    between atoms: C4_9  and  C5_11 
REMARK       I    between atoms: C5_11  and  N4_13 
REMARK    5  A    between atoms: N4_13  and  C6_15 
REMARK    6  A    between atoms: N6_22  and  N7_24 
REMARK       I    between atoms: N7_24  and  C11_26 
REMARK       I    between atoms: C11_26  and  N8_28 
REMARK    7  A    between atoms: N8_28  and  N9_30 
REMARK    8  A    between atoms: N9_30  and  O4_31 
ROOT
HETATM    1  N1  UNL     1      -0.504  44.211  55.688  1.00  0.00    -0.234 N 
ATOM      2  H11 UNL     1      -1.094  43.668  56.319  1.00  0.00     0.174 HD
ATOM      3  H12 UNL     1       0.498  44.396  55.737  1.00  0.00     0.174 HD
HETATM    4  C1  UNL     1      -1.127  44.805  54.678  1.00  0.00     0.686 C 
HETATM    5  N2  UNL     1      -0.324  45.545  53.818  1.00  0.00    -0.222 N 
ATOM      6  H2  UNL     1       0.622  45.196  53.660  1.00  0.00     0.178 HD
HETATM    7  N6  UNL     1      -2.521  44.548  54.609  1.00  0.00    -0.129 N 
ATOM      8  H6  UNL     1      -2.842  43.586  54.496  1.00  0.00     0.205 HD
ENDROOT
BRANCH   5   9
HETATM    9  C2  UNL     1      -0.688  46.745  53.132  1.00  0.00     0.167 C 
BRANCH   9  10
HETATM   10  C3  UNL     1      -1.034  46.655  51.712  1.00  0.00     0.025 C 
BRANCH  10  11
HETATM   11  C4  UNL     1      -2.343  46.184  51.246  1.00  0.00     0.111 C 
HETATM   12  N3  UNL     1      -2.885  44.986  51.768  1.00  0.00    -0.097 NA
BRANCH  11  13
HETATM   13  C5  UNL     1      -3.358  47.217  50.946  1.00  0.00     0.267 C 
HETATM   14  O1  UNL     1      -4.224  46.991  50.091  1.00  0.00    -0.266 OA
HETATM   15  N4  UNL     1      -3.320  48.435  51.662  1.00  0.00    -0.326 N 
ATOM     16  H4  UNL     1      -2.568  48.574  52.337  1.00  0.00     0.165 HD
BRANCH  15  17
HETATM   17  C6  UNL     1      -4.297  49.505  51.489  1.00  0.00     0.173 A 
HETATM   18  C7  UNL     1      -5.711  49.225  51.926  1.00  0.00     0.059 C 
HETATM   19  C8  UNL     1      -5.908  49.964  53.264  1.00  0.00     0.019 C 
HETATM   20  C9  UNL     1      -4.419  50.196  53.649  1.00  0.00     0.102 C 
HETATM   21  N5  UNL     1      -4.000  50.729  52.339  1.00  0.00    -0.215 NA
HETATM   22  C10 UNL     1      -3.809  50.732  50.893  1.00  0.00     0.246 A 
HETATM   23  O2  UNL     1      -3.464  51.351  49.830  1.00  0.00    -0.275 OA
ENDBRANCH  15  17
ENDBRANCH  11  13
ENDBRANCH  10  11
ENDBRANCH   9  10
ENDBRANCH   5   9
BRANCH   7  24
HETATM   24  N7  UNL     1      -3.459  45.564  54.691  1.00  0.00    -0.236 N 
HETATM   25  C11 UNL     1      -4.670  45.562  55.383  1.00  0.00     0.352 C 
HETATM   26  O3  UNL     1      -5.051  44.570  56.050  1.00  0.00    -0.244 OA
HETATM   27  N8  UNL     1      -5.546  46.703  55.370  1.00  0.00    -0.228 N 
ATOM     28  H8  UNL     1      -5.260  47.521  54.831  1.00  0.00     0.189 HD
ATOM     29  H7  UNL     1      -3.236  46.420  54.183  1.00  0.00     0.192 HD
BRANCH  27  30
HETATM   30  N9  UNL     1      -6.758  46.758  56.048  1.00  0.00     0.022 NA
BRANCH  30  31
HETATM   31  O4  UNL     1      -7.668  45.948  55.430  1.00  0.00    -0.277 OA
ATOM     32  H4  UNL     1      -8.414  46.463  55.147  1.00  0.00     0.240 HD
ENDBRANCH  30  31
ENDBRANCH  27  30
ENDBRANCH   7  24
TORSDOF 8
ENDMDL
MODEL 2
REMARK VINA RESULT: -7.910692738      4.045      6.722
REMARK  8 active torsions:
REMARK  status: ('A' for Active; 'I' for Inactive)
REMARK       I    between atoms: C1_4  and  N2_5 
REMARK       I    between atoms: C1_4  and  N6_22 
REMARK    1  A    between atoms: N2_5  and  C2_7 
REMARK    2  A    between atoms: C2_7  and  C3_8 
REMARK    3  A    between atoms: C3_8  and  C4_9 
REMARK    4  A    between atoms: C4_9  and  C5_11 
REMARK       I    between atoms: C5_11  and  N4_13 
REMARK    5  A    between atoms: N4_13  and  C6_15 
REMARK    6  A    between atoms: N6_22  and  N7_24 
REMARK       I    between atoms: N7_24  and  C11_26 
REMARK       I    between atoms: C11_26  and  N8_28 
REMARK    7  A    between atoms: N8_28  and  N9_30 
REMARK    8  A    between atoms: N9_30  and  O4_31 
ROOT
HETATM    1  N1  UNL     1      -7.086  46.949  61.938  1.00  0.00    -0.234 N 
ATOM      2  H11 UNL     1      -6.852  46.261  62.654  1.00  0.00     0.174 HD
ATOM      3  H12 UNL     1      -7.991  47.164  61.518  1.00  0.00     0.174 HD
HETATM    4  C1  UNL     1      -6.069  47.641  61.441  1.00  0.00     0.686 C 
HETATM    5  N2  UNL     1      -6.388  48.579  60.466  1.00  0.00    -0.222 N 
ATOM      6  H2  UNL     1      -7.288  49.051  60.561  1.00  0.00     0.178 HD
HETATM    7  N6  UNL     1      -4.809  47.343  62.025  1.00  0.00    -0.129 N 
ATOM      8  H6  UNL     1      -4.678  47.497  63.024  1.00  0.00     0.205 HD
ENDROOT
BRANCH   5   9
HETATM    9  C2  UNL     1      -5.584  48.950  59.344  1.00  0.00     0.167 C 
BRANCH   9  10
HETATM   10  C3  UNL     1      -5.828  48.280  58.064  1.00  0.00     0.025 C 
BRANCH  10  11
HETATM   11  C4  UNL     1      -5.797  46.820  57.918  1.00  0.00     0.111 C 
HETATM   12  N3  UNL     1      -6.653  46.017  58.709  1.00  0.00    -0.097 NA
BRANCH  11  13
HETATM   13  C5  UNL     1      -5.569  46.287  56.558  1.00  0.00     0.267 C 
HETATM   14  O1  UNL     1      -6.147  45.252  56.203  1.00  0.00    -0.266 OA
HETATM   15  N4  UNL     1      -4.701  46.990  55.690  1.00  0.00    -0.326 N 
ATOM     16  H4  UNL     1      -4.234  47.823  56.048  1.00  0.00     0.165 HD
BRANCH  15  17
HETATM   17  C6  UNL     1      -4.439  46.590  54.312  1.00  0.00     0.173 A 
HETATM   18  C7  UNL     1      -5.011  47.457  53.221  1.00  0.00     0.059 C 
HETATM   19  C8  UNL     1      -3.836  48.282  52.660  1.00  0.00     0.019 C 
HETATM   20  C9  UNL     1      -2.823  48.110  53.827  1.00  0.00     0.102 C 
HETATM   21  N5  UNL     1      -2.966  46.646  53.943  1.00  0.00    -0.215 NA
HETATM   22  C10 UNL     1      -3.665  45.379  54.130  1.00  0.00     0.246 A 
HETATM   23  O2  UNL     1      -3.644  44.101  54.135  1.00  0.00    -0.275 OA
ENDBRANCH  15  17
ENDBRANCH  11  13
ENDBRANCH  10  11
ENDBRANCH   9  10
ENDBRANCH   5   9
BRANCH   7  24
HETATM   24  N7  UNL     1      -3.753  46.849  61.276  1.00  0.00    -0.236 N 
HETATM   25  C11 UNL     1      -3.556  45.542  60.828  1.00  0.00     0.352 C 
HETATM   26  O3  UNL     1      -4.377  44.625  61.072  1.00  0.00    -0.244 OA
HETATM   27  N8  UNL     1      -2.397  45.180  60.056  1.00  0.00    -0.228 N 
ATOM     28  H8  UNL     1      -1.713  45.907  59.847  1.00  0.00     0.189 HD
ATOM     29  H7  UNL     1      -3.032  47.523  61.021  1.00  0.00     0.192 HD
BRANCH  27  30
HETATM   30  N9  UNL     1      -2.155  43.897  59.577  1.00  0.00     0.022 NA
BRANCH  30  31
HETATM   31  O4  UNL     1      -1.085  43.917  58.729  1.00  0.00    -0.277 OA
ATOM     32  H4  UNL     1      -0.374  44.408  59.122  1.00  0.00     0.240 HD
ENDBRANCH  30  31
ENDBRANCH  27  30
ENDBRANCH   7  24
TORSDOF 8
ENDMDL
MODEL 3
REMARK VINA RESULT: -7.908568049      1.551      1.896
REMARK  8 active torsions:
REMARK  status: ('A' for Active; 'I' for Inactive)
REMARK       I    between atoms: C1_4  and  N2_5 
REMARK       I    between atoms: C1_4  and  N6_22 
REMARK    1  A    between atoms: N2_5  and  C2_7 
REMARK    2  A    between atoms: C2_7  and  C3_8 
REMARK    3  A    between atoms: C3_8  and  C4_9 
REMARK    4  A    between atoms: C4_9  and  C5_11 
REMARK       I    between atoms: C5_11  and  N4_13 
REMARK    5  A    between atoms: N4_13  and  C6_15 
REMARK    6  A    between atoms: N6_22  and  N7_24 
REMARK       I    between atoms: N7_24  and  C11_26 
REMARK       I    between atoms: C11_26  and  N8_28 
REMARK    7  A    between atoms: N8_28  and  N9_30 
REMARK    8  A    between atoms: N9_30  and  O4_31 
ROOT
HETATM    1  N1  UNL     1      -3.364  43.097  53.034  1.00  0.00    -0.234 N 
ATOM      2  H11 UNL     1      -4.371  42.934  53.027  1.00  0.00     0.174 HD
ATOM      3  H12 UNL     1      -2.599  42.427  52.952  1.00  0.00     0.174 HD
HETATM    4  C1  UNL     1      -2.980  44.354  53.217  1.00  0.00     0.686 C 
HETATM    5  N2  UNL     1      -1.608  44.577  53.226  1.00  0.00    -0.222 N 
ATOM      6  H2  UNL     1      -1.044  43.988  52.611  1.00  0.00     0.178 HD
HETATM    7  N6  UNL     1      -4.044  45.287  53.330  1.00  0.00    -0.129 N 
ATOM      8  H6  UNL     1      -4.693  45.395  52.551  1.00  0.00     0.205 HD
ENDROOT
BRANCH   5   9
HETATM    9  C2  UNL     1      -0.906  45.547  54.006  1.00  0.00     0.167 C 
BRANCH   9  10
HETATM   10  C3  UNL     1      -0.394  46.742  53.332  1.00  0.00     0.025 C 
BRANCH  10  11
HETATM   11  C4  UNL     1      -0.818  47.130  51.982  1.00  0.00     0.111 C 
HETATM   12  N3  UNL     1      -0.484  46.311  50.878  1.00  0.00    -0.097 NA
BRANCH  11  13
HETATM   13  C5  UNL     1      -2.135  47.791  51.857  1.00  0.00     0.267 C 
HETATM   14  O1  UNL     1      -3.038  47.236  51.218  1.00  0.00    -0.266 OA
HETATM   15  N4  UNL     1      -2.330  49.039  52.490  1.00  0.00    -0.326 N 
ATOM     16  H4  UNL     1      -1.542  49.459  52.982  1.00  0.00     0.165 HD
BRANCH  15  17
HETATM   17  C6  UNL     1      -3.599  49.761  52.481  1.00  0.00     0.173 A 
HETATM   18  C7  UNL     1      -4.535  49.526  53.637  1.00  0.00     0.059 C 
HETATM   19  C8  UNL     1      -4.429  50.769  54.542  1.00  0.00     0.019 C 
HETATM   20  C9  UNL     1      -3.088  51.354  54.015  1.00  0.00     0.102 C 
HETATM   21  N5  UNL     1      -3.431  51.267  52.583  1.00  0.00    -0.215 NA
HETATM   22  C10 UNL     1      -3.840  50.621  51.341  1.00  0.00     0.246 A 
HETATM   23  O2  UNL     1      -4.179  50.715  50.112  1.00  0.00    -0.275 OA
ENDBRANCH  15  17
ENDBRANCH  11  13
ENDBRANCH  10  11
ENDBRANCH   9  10
ENDBRANCH   5   9
BRANCH   7  24
HETATM   24  N7  UNL     1      -4.227  46.055  54.469  1.00  0.00    -0.236 N 
HETATM   25  C11 UNL     1      -4.777  45.663  55.690  1.00  0.00     0.352 C 
HETATM   26  O3  UNL     1      -5.182  44.493  55.890  1.00  0.00    -0.244 OA
HETATM   27  N8  UNL     1      -4.904  46.585  56.787  1.00  0.00    -0.228 N 
ATOM     28  H8  UNL     1      -4.585  47.544  56.647  1.00  0.00     0.189 HD
ATOM     29  H7  UNL     1      -3.922  47.027  54.406  1.00  0.00     0.192 HD
BRANCH  27  30
HETATM   30  N9  UNL     1      -5.435  46.246  58.026  1.00  0.00     0.022 NA
BRANCH  30  31
HETATM   31  O4  UNL     1      -6.733  45.848  57.878  1.00  0.00    -0.277 OA
ATOM     32  H4  UNL     1      -7.152  45.801  58.729  1.00  0.00     0.240 HD
ENDBRANCH  30  31
ENDBRANCH  27  30
ENDBRANCH   7  24
TORSDOF 8
ENDMDL
MODEL 4
REMARK VINA RESULT: -7.898547736      1.587      1.848
REMARK  8 active torsions:
REMARK  status: ('A' for Active; 'I' for Inactive)
REMARK       I    between atoms: C1_4  and  N2_5 
REMARK       I    between atoms: C1_4  and  N6_22 
REMARK    1  A    between atoms: N2_5  and  C2_7 
REMARK    2  A    between atoms: C2_7  and  C3_8 
REMARK    3  A    between atoms: C3_8  and  C4_9 
REMARK    4  A    between atoms: C4_9  and  C5_11 
REMARK       I    between atoms: C5_11  and  N4_13 
REMARK    5  A    between atoms: N4_13  and  C6_15 
REMARK    6  A    between atoms: N6_22  and  N7_24 
REMARK       I    between atoms: N7_24  and  C11_26 
REMARK       I    between atoms: C11_26  and  N8_28 
REMARK    7  A    between atoms: N8_28  and  N9_30 
REMARK    8  A    between atoms: N9_30  and  O4_31 
ROOT
HETATM    1  N1  UNL     1      -0.267  43.533  54.655  1.00  0.00    -0.234 N 
ATOM      2  H11 UNL     1      -0.794  42.785  55.107  1.00  0.00     0.174 HD
ATOM      3  H12 UNL     1       0.743  43.654  54.574  1.00  0.00     0.174 HD
HETATM    4  C1  UNL     1      -0.986  44.517  54.132  1.00  0.00     0.686 C 
HETATM    5  N2  UNL     1      -0.268  45.536  53.517  1.00  0.00    -0.222 N 
ATOM      6  H2  UNL     1       0.594  45.266  53.040  1.00  0.00     0.178 HD
HETATM    7  N6  UNL     1      -2.391  44.349  54.245  1.00  0.00    -0.129 N 
ATOM      8  H6  UNL     1      -2.828  43.537  53.809  1.00  0.00     0.205 HD
ENDROOT
BRANCH   5   9
HETATM    9  C2  UNL     1      -0.612  46.922  53.482  1.00  0.00     0.167 C 
BRANCH   9  10
HETATM   10  C3  UNL     1      -1.175  47.467  52.244  1.00  0.00     0.025 C 
BRANCH  10  11
HETATM   11  C4  UNL     1      -2.487  47.061  51.727  1.00  0.00     0.111 C 
HETATM   12  N3  UNL     1      -2.656  45.768  51.180  1.00  0.00    -0.097 NA
BRANCH  11  13
HETATM   13  C5  UNL     1      -3.676  47.564  52.448  1.00  0.00     0.267 C 
HETATM   14  O1  UNL     1      -4.624  46.800  52.669  1.00  0.00    -0.266 OA
HETATM   15  N4  UNL     1      -3.689  48.910  52.880  1.00  0.00    -0.326 N 
ATOM     16  H4  UNL     1      -2.890  49.499  52.646  1.00  0.00     0.165 HD
BRANCH  15  17
HETATM   17  C6  UNL     1      -4.782  49.504  53.643  1.00  0.00     0.173 A 
HETATM   18  C7  UNL     1      -4.616  49.584  55.138  1.00  0.00     0.059 C 
HETATM   19  C8  UNL     1      -4.281  51.053  55.461  1.00  0.00     0.019 C 
HETATM   20  C9  UNL     1      -3.843  51.531  54.048  1.00  0.00     0.102 C 
HETATM   21  N5  UNL     1      -5.003  50.973  53.327  1.00  0.00    -0.215 NA
HETATM   22  C10 UNL     1      -5.934  49.942  52.882  1.00  0.00     0.246 A 
HETATM   23  O2  UNL     1      -7.006  49.620  52.264  1.00  0.00    -0.275 OA
ENDBRANCH  15  17
ENDBRANCH  11  13
ENDBRANCH  10  11
ENDBRANCH   9  10
ENDBRANCH   5   9
BRANCH   7  24
HETATM   24  N7  UNL     1      -3.185  45.254  54.930  1.00  0.00    -0.236 N 
HETATM   25  C11 UNL     1      -4.380  45.007  55.607  1.00  0.00     0.352 C 
HETATM   26  O3  UNL     1      -4.882  43.859  55.670  1.00  0.00    -0.244 OA
HETATM   27  N8  UNL     1      -5.097  46.061  56.274  1.00  0.00    -0.228 N 
ATOM     28  H8  UNL     1      -4.711  47.005  56.234  1.00  0.00     0.189 HD
ATOM     29  H7  UNL     1      -2.856  46.219  54.941  1.00  0.00     0.192 HD
BRANCH  27  30
HETATM   30  N9  UNL     1      -6.285  45.871  56.969  1.00  0.00     0.022 NA
BRANCH  30  31
HETATM   31  O4  UNL     1      -7.300  45.624  56.089  1.00  0.00    -0.277 OA
ATOM     32  H4  UNL     1      -7.386  44.689  55.954  1.00  0.00     0.240 HD
ENDBRANCH  30  31
ENDBRANCH  27  30
ENDBRANCH   7  24
TORSDOF 8
ENDMDL
MODEL 5
REMARK VINA RESULT: -7.886119882      3.837      5.817
REMARK  8 active torsions:
REMARK  status: ('A' for Active; 'I' for Inactive)
REMARK       I    between atoms: C1_4  and  N2_5 
REMARK       I    between atoms: C1_4  and  N6_22 
REMARK    1  A    between atoms: N2_5  and  C2_7 
REMARK    2  A    between atoms: C2_7  and  C3_8 
REMARK    3  A    between atoms: C3_8  and  C4_9 
REMARK    4  A    between atoms: C4_9  and  C5_11 
REMARK       I    between atoms: C5_11  and  N4_13 
REMARK    5  A    between atoms: N4_13  and  C6_15 
REMARK    6  A    between atoms: N6_22  and  N7_24 
REMARK       I    between atoms: N7_24  and  C11_26 
REMARK       I    between atoms: C11_26  and  N8_28 
REMARK    7  A    between atoms: N8_28  and  N9_30 
REMARK    8  A    between atoms: N9_30  and  O4_31 
ROOT
HETATM    1  N1  UNL     1      -5.924  46.230  61.682  1.00  0.00    -0.234 N 
ATOM      2  H11 UNL     1      -5.434  45.995  62.545  1.00  0.00     0.174 HD
ATOM      3  H12 UNL     1      -6.909  46.110  61.444  1.00  0.00     0.174 HD
HETATM    4  C1  UNL     1      -5.176  46.724  60.704  1.00  0.00     0.686 C 
HETATM    5  N2  UNL     1      -5.844  47.045  59.528  1.00  0.00    -0.222 N 
ATOM      6  H2  UNL     1      -6.799  47.392  59.624  1.00  0.00     0.178 HD
HETATM    7  N6  UNL     1      -3.806  46.892  61.034  1.00  0.00    -0.129 N 
ATOM      8  H6  UNL     1      -3.554  47.513  61.803  1.00  0.00     0.205 HD
ENDROOT
BRANCH   5   9
HETATM    9  C2  UNL     1      -5.331  46.937  58.199  1.00  0.00     0.167 C 
BRANCH   9  10
HETATM   10  C3  UNL     1      -6.139  47.467  57.098  1.00  0.00     0.025 C 
BRANCH  10  11
HETATM   11  C4  UNL     1      -6.319  46.746  55.833  1.00  0.00     0.111 C 
HETATM   12  N3  UNL     1      -7.582  46.195  55.512  1.00  0.00    -0.097 NA
BRANCH  11  13
HETATM   13  C5  UNL     1      -5.576  47.255  54.660  1.00  0.00     0.267 C 
HETATM   14  O1  UNL     1      -5.845  46.821  53.532  1.00  0.00    -0.266 OA
HETATM   15  N4  UNL     1      -4.584  48.241  54.860  1.00  0.00    -0.326 N 
ATOM     16  H4  UNL     1      -4.389  48.542  55.815  1.00  0.00     0.165 HD
BRANCH  15  17
HETATM   17  C6  UNL     1      -3.823  48.855  53.776  1.00  0.00     0.173 A 
HETATM   18  C7  UNL     1      -4.486  49.969  53.012  1.00  0.00     0.059 C 
HETATM   19  C8  UNL     1      -3.846  51.280  53.509  1.00  0.00     0.019 C 
HETATM   20  C9  UNL     1      -3.217  50.769  54.836  1.00  0.00     0.102 C 
HETATM   21  N5  UNL     1      -2.574  49.575  54.256  1.00  0.00    -0.215 NA
HETATM   22  C10 UNL     1      -2.502  48.312  53.531  1.00  0.00     0.246 A 
HETATM   23  O2  UNL     1      -1.799  47.372  53.024  1.00  0.00    -0.275 OA
ENDBRANCH  15  17
ENDBRANCH  11  13
ENDBRANCH  10  11
ENDBRANCH   9  10
ENDBRANCH   5   9
BRANCH   7  24
HETATM   24  N7  UNL     1      -2.800  46.236  60.343  1.00  0.00    -0.236 N 
HETATM   25  C11 UNL     1      -2.484  44.877  60.372  1.00  0.00     0.352 C 
HETATM   26  O3  UNL     1      -3.130  44.060  61.071  1.00  0.00    -0.244 OA
HETATM   27  N8  UNL     1      -1.399  44.341  59.594  1.00  0.00    -0.228 N 
ATOM     28  H8  UNL     1      -0.855  44.987  59.020  1.00  0.00     0.189 HD
ATOM     29  H7  UNL     1      -2.219  46.818  59.740  1.00  0.00     0.192 HD
BRANCH  27  30
HETATM   30  N9  UNL     1      -1.046  42.997  59.577  1.00  0.00     0.022 NA
BRANCH  30  31
HETATM   31  O4  UNL     1      -0.680  42.601  60.832  1.00  0.00    -0.277 OA
ATOM     32  H4  UNL     1      -0.144  41.820  60.778  1.00  0.00     0.240 HD
ENDBRANCH  30  31
ENDBRANCH  27  30
ENDBRANCH   7  24
TORSDOF 8
ENDMDL
