MODEL 1
REMARK VINA RESULT: -9.034492848      0.000      0.000
REMARK  6 active torsions:
REMARK  status: ('A' for Active; 'I' for Inactive)
REMARK       I    between atoms: N5_14  and  C4_16 
REMARK    1  A    between atoms: C4_16  and  C5_18 
REMARK    2  A    between atoms: C5_18  and  N6_19 
REMARK       I    between atoms: N6_19  and  C6_21 
REMARK    3  A    between atoms: C6_21  and  C7_23 
REMARK    4  A    between atoms: C7_23  and  N7_24 
REMARK       I    between atoms: N7_24  and  C8_26 
REMARK    5  A    between atoms: C8_26  and  C9_28 
REMARK    6  A    between atoms: C9_28  and  N8_29 
REMARK       I    between atoms: N8_29  and  C10_31 
ROOT
HETATM    1  N1  UNL     1      -3.908  45.107  53.891  1.00  0.00    -0.382 N 
ATOM      2  H11 UNL     1      -4.472  45.860  53.497  1.00  0.00     0.157 HD
ATOM      3  H12 UNL     1      -4.358  44.235  54.171  1.00  0.00     0.157 HD
HETATM    4  C1  UNL     1      -2.670  45.313  54.004  1.00  0.00     0.149 A 
HETATM    5  N2  UNL     1      -1.910  44.299  54.535  1.00  0.00    -0.291 N 
ATOM      6  H2  UNL     1      -2.355  43.426  54.818  1.00  0.00     0.172 HD
HETATM    7  C2  UNL     1      -0.598  44.450  54.683  1.00  0.00     0.340 A 
HETATM    8  O1  UNL     1       0.089  43.509  55.173  1.00  0.00    -0.245 OA
HETATM    9  N3  UNL     1       0.002  45.599  54.314  1.00  0.00    -0.250 N 
ATOM     10  H3  UNL     1       1.010  45.706  54.432  1.00  0.00     0.192 HD
HETATM   11  N4  UNL     1      -0.696  46.570  53.811  1.00  0.00    -0.278 N 
ATOM     12  H4  UNL     1      -0.218  47.430  53.539  1.00  0.00     0.189 HD
HETATM   13  C3  UNL     1      -2.067  46.482  53.629  1.00  0.00     0.167 A 
HETATM   14  N5  UNL     1      -2.582  47.507  53.132  1.00  0.00    -0.308 N 
ATOM     15  H5  UNL     1      -1.868  48.215  52.961  1.00  0.00     0.170 HD
HETATM   16  C4  UNL     1      -3.793  47.962  52.755  1.00  0.00     0.241 C 
HETATM   17  O2  UNL     1      -4.261  47.714  51.590  1.00  0.00    -0.271 OA
ENDROOT
BRANCH  16  18
HETATM   18  C5  UNL     1      -4.639  48.776  53.682  1.00  0.00     0.225 C 
BRANCH  18  19
HETATM   19  N6  UNL     1      -4.685  48.168  55.017  1.00  0.00    -0.351 N 
HETATM   20  C6  UNL     1      -5.712  47.277  55.293  1.00  0.00     0.235 C 
HETATM   21  O3  UNL     1      -6.567  47.029  54.374  1.00  0.00    -0.272 OA
ATOM     22  H6  UNL     1      -3.982  48.394  55.721  1.00  0.00     0.163 HD
BRANCH  20  23
HETATM   23  C7  UNL     1      -5.914  46.583  56.554  1.00  0.00     0.225 C 
BRANCH  23  24
HETATM   24  N7  UNL     1      -5.069  47.038  57.612  1.00  0.00    -0.351 N 
HETATM   25  C8  UNL     1      -5.455  46.741  58.956  1.00  0.00     0.235 C 
HETATM   26  O4  UNL     1      -6.500  46.105  59.165  1.00  0.00    -0.272 OA
ATOM     27  H7  UNL     1      -4.214  47.559  57.414  1.00  0.00     0.163 HD
BRANCH  25  28
HETATM   28  C9  UNL     1      -4.583  47.210  60.054  1.00  0.00     0.226 C 
BRANCH  28  29
HETATM   29  N8  UNL     1      -3.387  46.429  60.222  1.00  0.00    -0.337 N 
HETATM   30  C10 UNL     1      -3.364  45.169  60.861  1.00  0.00     0.329 C 
HETATM   31  N9  UNL     1      -2.143  44.446  60.992  1.00  0.00    -0.040 NA
HETATM   32  O5  UNL     1      -4.430  44.695  61.312  1.00  0.00    -0.251 OA
ATOM     33  H8  UNL     1      -2.510  46.805  59.862  1.00  0.00     0.164 HD
ENDBRANCH  28  29
ENDBRANCH  25  28
ENDBRANCH  23  24
ENDBRANCH  20  23
ENDBRANCH  18  19
ENDBRANCH  16  18
TORSDOF 6
ENDMDL
MODEL 2
REMARK VINA RESULT: -8.884983226      2.740      3.303
REMARK  6 active torsions:
REMARK  status: ('A' for Active; 'I' for Inactive)
REMARK       I    between atoms: N5_14  and  C4_16 
REMARK    1  A    between atoms: C4_16  and  C5_18 
REMARK    2  A    between atoms: C5_18  and  N6_19 
REMARK       I    between atoms: N6_19  and  C6_21 
REMARK    3  A    between atoms: C6_21  and  C7_23 
REMARK    4  A    between atoms: C7_23  and  N7_24 
REMARK       I    between atoms: N7_24  and  C8_26 
REMARK    5  A    between atoms: C8_26  and  C9_28 
REMARK    6  A    between atoms: C9_28  and  N8_29 
REMARK       I    between atoms: N8_29  and  C10_31 
ROOT
HETATM    1  N1  UNL     1      -4.332  46.044  53.419  1.00  0.00    -0.382 N 
ATOM      2  H11 UNL     1      -4.822  46.691  52.801  1.00  0.00     0.157 HD
ATOM      3  H12 UNL     1      -4.778  45.740  54.284  1.00  0.00     0.157 HD
HETATM    4  C1  UNL     1      -3.189  45.657  53.058  1.00  0.00     0.149 A 
HETATM    5  N2  UNL     1      -2.529  44.785  53.889  1.00  0.00    -0.291 N 
ATOM      6  H2  UNL     1      -2.970  44.479  54.757  1.00  0.00     0.172 HD
HETATM    7  C2  UNL     1      -1.319  44.337  53.569  1.00  0.00     0.340 A 
HETATM    8  O1  UNL     1      -0.723  43.535  54.344  1.00  0.00    -0.245 OA
HETATM    9  N3  UNL     1      -0.725  44.734  52.427  1.00  0.00    -0.250 N 
ATOM     10  H3  UNL     1       0.204  44.385  52.190  1.00  0.00     0.192 HD
HETATM   11  N4  UNL     1      -1.329  45.558  51.626  1.00  0.00    -0.278 N 
ATOM     12  H4  UNL     1      -0.859  45.842  50.767  1.00  0.00     0.189 HD
HETATM   13  C3  UNL     1      -2.591  46.064  51.896  1.00  0.00     0.167 A 
HETATM   14  N5  UNL     1      -3.025  46.843  51.021  1.00  0.00    -0.308 N 
ATOM     15  H5  UNL     1      -2.343  46.949  50.270  1.00  0.00     0.170 HD
HETATM   16  C4  UNL     1      -4.120  47.587  50.767  1.00  0.00     0.241 C 
HETATM   17  O2  UNL     1      -5.141  47.085  50.182  1.00  0.00    -0.271 OA
ENDROOT
BRANCH  16  18
HETATM   18  C5  UNL     1      -4.186  49.029  51.158  1.00  0.00     0.225 C 
BRANCH  18  19
HETATM   19  N6  UNL     1      -4.682  49.175  52.532  1.00  0.00    -0.351 N 
HETATM   20  C6  UNL     1      -5.871  49.865  52.726  1.00  0.00     0.235 C 
HETATM   21  O3  UNL     1      -6.475  50.338  51.702  1.00  0.00    -0.272 OA
ATOM     22  H6  UNL     1      -4.168  48.782  53.321  1.00  0.00     0.163 HD
BRANCH  20  23
HETATM   23  C7  UNL     1      -6.509  50.106  54.009  1.00  0.00     0.225 C 
BRANCH  23  24
HETATM   24  N7  UNL     1      -5.884  49.438  55.106  1.00  0.00    -0.351 N 
HETATM   25  C8  UNL     1      -6.720  48.748  56.038  1.00  0.00     0.235 C 
HETATM   26  O4  UNL     1      -7.949  48.747  55.871  1.00  0.00    -0.272 OA
ATOM     27  H7  UNL     1      -4.870  49.453  55.222  1.00  0.00     0.163 HD
BRANCH  25  28
HETATM   28  C9  UNL     1      -6.077  48.056  57.175  1.00  0.00     0.226 C 
BRANCH  28  29
HETATM   29  N8  UNL     1      -5.262  46.934  56.790  1.00  0.00    -0.337 N 
HETATM   30  C10 UNL     1      -5.794  45.684  56.404  1.00  0.00     0.329 C 
HETATM   31  N9  UNL     1      -4.929  44.614  56.030  1.00  0.00    -0.040 NA
HETATM   32  O5  UNL     1      -7.034  45.526  56.393  1.00  0.00    -0.251 OA
ATOM     33  H8  UNL     1      -4.249  47.048  56.797  1.00  0.00     0.164 HD
ENDBRANCH  28  29
ENDBRANCH  25  28
ENDBRANCH  23  24
ENDBRANCH  20  23
ENDBRANCH  18  19
ENDBRANCH  16  18
TORSDOF 6
ENDMDL
MODEL 3
REMARK VINA RESULT: -8.868912362      3.069      4.109
REMARK  6 active torsions:
REMARK  status: ('A' for Active; 'I' for Inactive)
REMARK       I    between atoms: N5_14  and  C4_16 
REMARK    1  A    between atoms: C4_16  and  C5_18 
REMARK    2  A    between atoms: C5_18  and  N6_19 
REMARK       I    between atoms: N6_19  and  C6_21 
REMARK    3  A    between atoms: C6_21  and  C7_23 
REMARK    4  A    between atoms: C7_23  and  N7_24 
REMARK       I    between atoms: N7_24  and  C8_26 
REMARK    5  A    between atoms: C8_26  and  C9_28 
REMARK    6  A    between atoms: C9_28  and  N8_29 
REMARK       I    between atoms: N8_29  and  C10_31 
ROOT
HETATM    1  N1  UNL     1      -3.347  44.011  52.690  1.00  0.00    -0.382 N 
ATOM      2  H11 UNL     1      -3.741  44.374  51.822  1.00  0.00     0.157 HD
ATOM      3  H12 UNL     1      -3.821  43.251  53.178  1.00  0.00     0.157 HD
HETATM    4  C1  UNL     1      -2.280  44.539  53.103  1.00  0.00     0.149 A 
HETATM    5  N2  UNL     1      -1.749  44.049  54.272  1.00  0.00    -0.291 N 
ATOM      6  H2  UNL     1      -2.219  43.290  54.765  1.00  0.00     0.172 HD
HETATM    7  C2  UNL     1      -0.626  44.561  54.765  1.00  0.00     0.340 A 
HETATM    8  O1  UNL     1      -0.149  44.101  55.842  1.00  0.00    -0.245 OA
HETATM    9  N3  UNL     1       0.006  45.565  54.125  1.00  0.00    -0.250 N 
ATOM     10  H3  UNL     1       0.867  45.951  54.511  1.00  0.00     0.192 HD
HETATM   11  N4  UNL     1      -0.478  46.043  53.019  1.00  0.00    -0.278 N 
ATOM     12  H4  UNL     1       0.018  46.802  52.553  1.00  0.00     0.189 HD
HETATM   13  C3  UNL     1      -1.644  45.558  52.448  1.00  0.00     0.167 A 
HETATM   14  N5  UNL     1      -1.968  46.130  51.385  1.00  0.00    -0.308 N 
ATOM     15  H5  UNL     1      -1.289  46.855  51.152  1.00  0.00     0.170 HD
HETATM   16  C4  UNL     1      -2.940  46.082  50.453  1.00  0.00     0.241 C 
HETATM   17  O2  UNL     1      -2.871  45.272  49.465  1.00  0.00    -0.271 OA
ENDROOT
BRANCH  16  18
HETATM   18  C5  UNL     1      -4.138  46.973  50.535  1.00  0.00     0.225 C 
BRANCH  18  19
HETATM   19  N6  UNL     1      -4.129  47.748  51.782  1.00  0.00    -0.351 N 
HETATM   20  C6  UNL     1      -4.333  49.118  51.700  1.00  0.00     0.235 C 
HETATM   21  O3  UNL     1      -4.518  49.638  50.545  1.00  0.00    -0.272 OA
ATOM     22  H6  UNL     1      -3.977  47.292  52.682  1.00  0.00     0.163 HD
BRANCH  20  23
HETATM   23  C7  UNL     1      -4.356  50.038  52.824  1.00  0.00     0.225 C 
BRANCH  23  24
HETATM   24  N7  UNL     1      -4.843  49.464  54.038  1.00  0.00    -0.351 N 
HETATM   25  C8  UNL     1      -6.246  49.537  54.301  1.00  0.00     0.235 C 
HETATM   26  O4  UNL     1      -6.994  50.088  53.479  1.00  0.00    -0.272 OA
ATOM     27  H7  UNL     1      -4.207  49.016  54.698  1.00  0.00     0.163 HD
BRANCH  25  28
HETATM   28  C9  UNL     1      -6.753  48.944  55.557  1.00  0.00     0.226 C 
BRANCH  28  29
HETATM   29  N8  UNL     1      -6.029  47.777  55.985  1.00  0.00    -0.337 N 
HETATM   30  C10 UNL     1      -6.538  46.463  55.879  1.00  0.00     0.329 C 
HETATM   31  N9  UNL     1      -5.765  45.350  56.320  1.00  0.00    -0.040 NA
HETATM   32  O5  UNL     1      -7.676  46.288  55.392  1.00  0.00    -0.251 OA
ATOM     33  H8  UNL     1      -5.100  47.905  56.387  1.00  0.00     0.164 HD
ENDBRANCH  28  29
ENDBRANCH  25  28
ENDBRANCH  23  24
ENDBRANCH  20  23
ENDBRANCH  18  19
ENDBRANCH  16  18
TORSDOF 6
ENDMDL
MODEL 4
REMARK VINA RESULT: -8.852683123      1.092      1.126
REMARK  6 active torsions:
REMARK  status: ('A' for Active; 'I' for Inactive)
REMARK       I    between atoms: N5_14  and  C4_16 
REMARK    1  A    between atoms: C4_16  and  C5_18 
REMARK    2  A    between atoms: C5_18  and  N6_19 
REMARK       I    between atoms: N6_19  and  C6_21 
REMARK    3  A    between atoms: C6_21  and  C7_23 
REMARK    4  A    between atoms: C7_23  and  N7_24 
REMARK       I    between atoms: N7_24  and  C8_26 
REMARK    5  A    between atoms: C8_26  and  C9_28 
REMARK    6  A    between atoms: C9_28  and  N8_29 
REMARK       I    between atoms: N8_29  and  C10_31 
ROOT
HETATM    1  N1  UNL     1      -3.664  44.334  53.081  1.00  0.00    -0.382 N 
ATOM      2  H11 UNL     1      -4.239  44.906  52.462  1.00  0.00     0.157 HD
ATOM      3  H12 UNL     1      -4.013  43.430  53.400  1.00  0.00     0.157 HD
HETATM    4  C1  UNL     1      -2.539  44.796  53.413  1.00  0.00     0.149 A 
HETATM    5  N2  UNL     1      -1.765  44.025  54.246  1.00  0.00    -0.291 N 
ATOM      6  H2  UNL     1      -2.110  43.122  54.569  1.00  0.00     0.172 HD
HETATM    7  C2  UNL     1      -0.568  44.453  54.635  1.00  0.00     0.340 A 
HETATM    8  O1  UNL     1       0.134  43.733  55.403  1.00  0.00    -0.245 OA
HETATM    9  N3  UNL     1      -0.100  45.645  54.218  1.00  0.00    -0.250 N 
ATOM     10  H3  UNL     1       0.820  45.965  54.522  1.00  0.00     0.192 HD
HETATM   11  N4  UNL     1      -0.814  46.389  53.430  1.00  0.00    -0.278 N 
ATOM     12  H4  UNL     1      -0.438  47.288  53.127  1.00  0.00     0.189 HD
HETATM   13  C3  UNL     1      -2.070  46.008  52.985  1.00  0.00     0.167 A 
HETATM   14  N5  UNL     1      -2.620  46.842  52.234  1.00  0.00    -0.308 N 
ATOM     15  H5  UNL     1      -2.015  47.652  52.101  1.00  0.00     0.170 HD
HETATM   16  C4  UNL     1      -3.768  46.996  51.546  1.00  0.00     0.241 C 
HETATM   17  O2  UNL     1      -3.903  46.521  50.366  1.00  0.00    -0.271 OA
ENDROOT
BRANCH  16  18
HETATM   18  C5  UNL     1      -4.931  47.730  52.133  1.00  0.00     0.225 C 
BRANCH  18  19
HETATM   19  N6  UNL     1      -5.532  46.964  53.232  1.00  0.00    -0.351 N 
HETATM   20  C6  UNL     1      -5.197  47.315  54.532  1.00  0.00     0.235 C 
HETATM   21  O3  UNL     1      -4.382  48.286  54.710  1.00  0.00    -0.272 OA
ATOM     22  H6  UNL     1      -6.177  46.196  53.045  1.00  0.00     0.163 HD
BRANCH  20  23
HETATM   23  C7  UNL     1      -5.693  46.671  55.736  1.00  0.00     0.225 C 
BRANCH  23  24
HETATM   24  N7  UNL     1      -5.080  47.135  56.941  1.00  0.00    -0.351 N 
HETATM   25  C8  UNL     1      -5.639  46.709  58.186  1.00  0.00     0.235 C 
HETATM   26  O4  UNL     1      -6.626  45.959  58.188  1.00  0.00    -0.272 OA
ATOM     27  H7  UNL     1      -4.268  47.752  56.913  1.00  0.00     0.163 HD
BRANCH  25  28
HETATM   28  C9  UNL     1      -5.008  47.187  59.435  1.00  0.00     0.226 C 
BRANCH  28  29
HETATM   29  N8  UNL     1      -3.772  46.524  59.755  1.00  0.00    -0.337 N 
HETATM   30  C10 UNL     1      -3.689  45.414  60.625  1.00  0.00     0.329 C 
HETATM   31  N9  UNL     1      -2.432  44.800  60.897  1.00  0.00    -0.040 NA
HETATM   32  O5  UNL     1      -4.734  44.974  61.155  1.00  0.00    -0.251 OA
ATOM     33  H8  UNL     1      -2.912  46.874  59.333  1.00  0.00     0.164 HD
ENDBRANCH  28  29
ENDBRANCH  25  28
ENDBRANCH  23  24
ENDBRANCH  20  23
ENDBRANCH  18  19
ENDBRANCH  16  18
TORSDOF 6
ENDMDL
MODEL 5
REMARK VINA RESULT: -8.709339194      1.816      2.950
REMARK  6 active torsions:
REMARK  status: ('A' for Active; 'I' for Inactive)
REMARK       I    between atoms: N5_14  and  C4_16 
REMARK    1  A    between atoms: C4_16  and  C5_18 
REMARK    2  A    between atoms: C5_18  and  N6_19 
REMARK       I    between atoms: N6_19  and  C6_21 
REMARK    3  A    between atoms: C6_21  and  C7_23 
REMARK    4  A    between atoms: C7_23  and  N7_24 
REMARK       I    between atoms: N7_24  and  C8_26 
REMARK    5  A    between atoms: C8_26  and  C9_28 
REMARK    6  A    between atoms: C9_28  and  N8_29 
REMARK       I    between atoms: N8_29  and  C10_31 
ROOT
HETATM    1  N1  UNL     1      -3.343  43.983  52.719  1.00  0.00    -0.382 N 
ATOM      2  H11 UNL     1      -3.711  44.324  51.831  1.00  0.00     0.157 HD
ATOM      3  H12 UNL     1      -3.867  43.284  53.244  1.00  0.00     0.157 HD
HETATM    4  C1  UNL     1      -2.244  44.460  53.107  1.00  0.00     0.149 A 
HETATM    5  N2  UNL     1      -1.748  44.000  54.303  1.00  0.00    -0.291 N 
ATOM      6  H2  UNL     1      -2.268  43.302  54.834  1.00  0.00     0.172 HD
HETATM    7  C2  UNL     1      -0.593  44.462  54.773  1.00  0.00     0.340 A 
HETATM    8  O1  UNL     1      -0.149  44.030  55.875  1.00  0.00    -0.245 OA
HETATM    9  N3  UNL     1       0.104  45.386  54.083  1.00  0.00    -0.250 N 
ATOM     10  H3  UNL     1       0.989  45.734  54.451  1.00  0.00     0.192 HD
HETATM   11  N4  UNL     1      -0.346  45.835  52.951  1.00  0.00    -0.278 N 
ATOM     12  H4  UNL     1       0.200  46.533  52.447  1.00  0.00     0.189 HD
HETATM   13  C3  UNL     1      -1.541  45.399  52.402  1.00  0.00     0.167 A 
HETATM   14  N5  UNL     1      -1.825  45.933  51.308  1.00  0.00    -0.308 N 
ATOM     15  H5  UNL     1      -1.099  46.598  51.040  1.00  0.00     0.170 HD
HETATM   16  C4  UNL     1      -2.797  45.899  50.376  1.00  0.00     0.241 C 
HETATM   17  O2  UNL     1      -2.781  45.034  49.433  1.00  0.00    -0.271 OA
ENDROOT
BRANCH  16  18
HETATM   18  C5  UNL     1      -3.933  46.871  50.405  1.00  0.00     0.225 C 
BRANCH  18  19
HETATM   19  N6  UNL     1      -3.968  47.597  51.680  1.00  0.00    -0.351 N 
HETATM   20  C6  UNL     1      -5.199  47.773  52.297  1.00  0.00     0.235 C 
HETATM   21  O3  UNL     1      -6.240  47.296  51.726  1.00  0.00    -0.272 OA
ATOM     22  H6  UNL     1      -3.112  47.961  52.100  1.00  0.00     0.163 HD
BRANCH  20  23
HETATM   23  C7  UNL     1      -5.422  48.462  53.556  1.00  0.00     0.225 C 
BRANCH  23  24
HETATM   24  N7  UNL     1      -4.966  47.744  54.704  1.00  0.00    -0.351 N 
HETATM   25  C8  UNL     1      -5.901  46.907  55.388  1.00  0.00     0.235 C 
HETATM   26  O4  UNL     1      -7.067  46.827  54.974  1.00  0.00    -0.272 OA
ATOM     27  H7  UNL     1      -4.001  47.826  55.026  1.00  0.00     0.163 HD
BRANCH  25  28
HETATM   28  C9  UNL     1      -5.433  46.162  56.576  1.00  0.00     0.226 C 
BRANCH  28  29
HETATM   29  N8  UNL     1      -5.143  46.996  57.712  1.00  0.00    -0.337 N 
HETATM   30  C10 UNL     1      -5.809  46.878  58.952  1.00  0.00     0.329 C 
HETATM   31  N9  UNL     1      -5.470  47.736  60.039  1.00  0.00    -0.040 NA
HETATM   32  O5  UNL     1      -6.701  46.012  59.086  1.00  0.00    -0.251 OA
ATOM     33  H8  UNL     1      -4.420  47.709  57.616  1.00  0.00     0.164 HD
ENDBRANCH  28  29
ENDBRANCH  25  28
ENDBRANCH  23  24
ENDBRANCH  20  23
ENDBRANCH  18  19
ENDBRANCH  16  18
TORSDOF 6
ENDMDL
