MODEL 1
REMARK VINA RESULT: -7.623208665      0.000      0.000
REMARK  7 active torsions:
REMARK  status: ('A' for Active; 'I' for Inactive)
REMARK       I    between atoms: C1_2  and  N3_4 
REMARK    1  A    between atoms: N3_4  and  C2_6 
REMARK    2  A    between atoms: C2_6  and  C3_7 
REMARK    3  A    between atoms: C3_7  and  N4_8 
REMARK       I    between atoms: N4_8  and  C4_10 
REMARK       I    between atoms: C4_10  and  N6_14 
REMARK    4  A    between atoms: C6_17  and  C7_18 
REMARK    5  A    between atoms: N7_19  and  N8_21 
REMARK       I    between atoms: N8_21  and  C8_22 
REMARK    6  A    between atoms: C9_28  and  C10_29 
REMARK    7  A    between atoms: N12_31  and  N13_32 
ROOT
HETATM    1  N4  UNL     1      -5.814  47.146  53.455  1.00  0.00    -0.222 N 
ATOM      2  H4  UNL     1      -6.419  46.431  53.857  1.00  0.00     0.178 HD
HETATM    3  C4  UNL     1      -4.878  47.687  54.080  1.00  0.00     0.673 C 
HETATM    4  N5  UNL     1      -3.873  48.294  54.690  1.00  0.00    -0.235 N 
ATOM      5  H51 UNL     1      -3.108  48.736  55.200  1.00  0.00     0.174 HD
ATOM      6  H52 UNL     1      -4.432  48.438  55.530  1.00  0.00     0.174 HD
HETATM    7  N6  UNL     1      -3.898  47.435  52.605  1.00  0.00    -0.177 N 
ATOM      8  H6  UNL     1      -3.962  47.888  51.694  1.00  0.00     0.185 HD
HETATM    9  C5  UNL     1      -3.069  46.499  53.027  1.00  0.00     0.152 C 
HETATM   10  C6  UNL     1      -2.861  45.767  54.241  1.00  0.00     0.298 C 
HETATM   11  N11 UNL     1      -1.364  45.532  54.228  1.00  0.00    -0.030 N 
ATOM     12 1H11 UNL     1      -1.021  44.822  54.876  1.00  0.00     0.281 HD
ATOM     13 2H11 UNL     1      -0.794  46.284  54.618  1.00  0.00     0.281 HD
HETATM   14  C9  UNL     1      -1.152  45.244  52.788  1.00  0.00     0.370 C 
HETATM   15  N12 UNL     1      -1.983  46.165  52.126  1.00  0.00    -0.246 N 
ENDROOT
BRANCH  10  16
HETATM   16  C7  UNL     1      -3.530  44.431  54.331  1.00  0.00     0.135 C 
HETATM   17  N7  UNL     1      -4.425  44.268  55.125  1.00  0.00    -0.246 N 
ATOM     18  H7  UNL     1      -4.801  43.321  55.091  1.00  0.00     0.200 HD
BRANCH  17  19
HETATM   19  N8  UNL     1      -5.037  45.013  56.026  1.00  0.00    -0.295 NA
HETATM   20  C8  UNL     1      -5.861  45.685  56.635  1.00  0.00     0.298 C 
HETATM   21  N9  UNL     1      -7.175  45.946  56.200  1.00  0.00    -0.051 NA
HETATM   22  N10 UNL     1      -5.484  46.351  57.852  1.00  0.00    -0.051 NA
ENDBRANCH  17  19
ENDBRANCH  10  16
BRANCH  15  23
HETATM   23  N13 UNL     1      -1.830  46.725  50.767  1.00  0.00    -0.339 N 
ATOM     24 2H13 UNL     1      -2.157  46.337  49.882  1.00  0.00     0.177 HD
ATOM     25 1H13 UNL     1      -1.356  47.604  50.560  1.00  0.00     0.177 HD
ENDBRANCH  15  23
BRANCH  14  26
HETATM   26  C10 UNL     1       0.233  45.357  52.493  1.00  0.00     0.287 C 
HETATM   27  O1  UNL     1       0.604  46.553  52.280  1.00  0.00    -0.303 OA
ENDBRANCH  14  26
BRANCH   1  28
HETATM   28  C3  UNL     1      -5.958  47.669  52.025  1.00  0.00     0.182 C 
BRANCH  28  29
HETATM   29  C2  UNL     1      -6.222  49.082  51.964  1.00  0.00     0.083 C 
BRANCH  29  30
HETATM   30  N3  UNL     1      -5.606  49.816  50.895  1.00  0.00    -0.345 N 
HETATM   31  C1  UNL     1      -4.512  50.444  51.153  1.00  0.00     0.200 C 
HETATM   32  N1  UNL     1      -3.938  51.150  50.028  1.00  0.00    -0.067 NA
HETATM   33  N2  UNL     1      -3.828  50.544  52.382  1.00  0.00    -0.067 NA
ATOM     34  H3  UNL     1      -6.019  49.840  49.963  1.00  0.00     0.167 HD
ENDBRANCH  29  30
ENDBRANCH  28  29
ENDBRANCH   1  28
TORSDOF 7
ENDMDL
MODEL 2
REMARK VINA RESULT: -7.381954730      1.789      5.360
REMARK  7 active torsions:
REMARK  status: ('A' for Active; 'I' for Inactive)
REMARK       I    between atoms: C1_2  and  N3_4 
REMARK    1  A    between atoms: N3_4  and  C2_6 
REMARK    2  A    between atoms: C2_6  and  C3_7 
REMARK    3  A    between atoms: C3_7  and  N4_8 
REMARK       I    between atoms: N4_8  and  C4_10 
REMARK       I    between atoms: C4_10  and  N6_14 
REMARK    4  A    between atoms: C6_17  and  C7_18 
REMARK    5  A    between atoms: N7_19  and  N8_21 
REMARK       I    between atoms: N8_21  and  C8_22 
REMARK    6  A    between atoms: C9_28  and  C10_29 
REMARK    7  A    between atoms: N12_31  and  N13_32 
ROOT
HETATM    1  N4  UNL     1      -5.566  47.402  55.090  1.00  0.00    -0.222 N 
ATOM      2  H4  UNL     1      -5.772  48.366  55.352  1.00  0.00     0.178 HD
HETATM    3  C4  UNL     1      -5.472  47.015  53.907  1.00  0.00     0.673 C 
HETATM    4  N5  UNL     1      -5.360  46.546  52.675  1.00  0.00    -0.235 N 
ATOM      5  H51 UNL     1      -5.283  46.229  51.709  1.00  0.00     0.174 HD
ATOM      6  H52 UNL     1      -6.200  47.043  52.379  1.00  0.00     0.174 HD
HETATM    7  N6  UNL     1      -3.999  46.144  54.427  1.00  0.00    -0.177 N 
ATOM      8  H6  UNL     1      -3.903  45.325  55.028  1.00  0.00     0.185 HD
HETATM    9  C5  UNL     1      -3.072  46.857  53.817  1.00  0.00     0.152 C 
HETATM   10  C6  UNL     1      -3.043  48.013  52.971  1.00  0.00     0.298 C 
HETATM   11  N11 UNL     1      -1.843  47.738  52.085  1.00  0.00    -0.030 N 
ATOM     12 1H11 UNL     1      -1.485  48.538  51.563  1.00  0.00     0.281 HD
ATOM     13 2H11 UNL     1      -2.025  47.171  51.257  1.00  0.00     0.281 HD
HETATM   14  C9  UNL     1      -0.911  47.148  53.077  1.00  0.00     0.370 C 
HETATM   15  N12 UNL     1      -1.726  46.321  53.869  1.00  0.00    -0.246 N 
ENDROOT
BRANCH  10  16
HETATM   16  C7  UNL     1      -2.813  49.326  53.651  1.00  0.00     0.135 C 
HETATM   17  N7  UNL     1      -3.645  50.197  53.556  1.00  0.00    -0.246 N 
ATOM     18  H7  UNL     1      -3.377  51.041  54.062  1.00  0.00     0.200 HD
BRANCH  17  19
HETATM   19  N8  UNL     1      -4.814  50.326  52.958  1.00  0.00    -0.295 NA
HETATM   20  C8  UNL     1      -6.015  50.365  52.716  1.00  0.00     0.298 C 
HETATM   21  N9  UNL     1      -7.039  50.142  53.657  1.00  0.00    -0.051 NA
HETATM   22  N10 UNL     1      -6.468  50.567  51.367  1.00  0.00    -0.051 NA
ENDBRANCH  17  19
ENDBRANCH  10  16
BRANCH  15  23
HETATM   23  N13 UNL     1      -1.342  45.117  54.634  1.00  0.00    -0.339 N 
ATOM     24 2H13 UNL     1      -0.794  45.061  55.493  1.00  0.00     0.177 HD
ATOM     25 1H13 UNL     1      -1.597  44.165  54.371  1.00  0.00     0.177 HD
ENDBRANCH  15  23
BRANCH  14  26
HETATM   26  C10 UNL     1       0.137  46.482  52.387  1.00  0.00     0.287 C 
HETATM   27  O1  UNL     1      -0.268  45.512  51.675  1.00  0.00    -0.303 OA
ENDBRANCH  14  26
BRANCH   1  28
HETATM   28  C3  UNL     1      -5.342  46.280  56.105  1.00  0.00     0.182 C 
BRANCH  28  29
HETATM   29  C2  UNL     1      -5.845  46.595  57.416  1.00  0.00     0.083 C 
BRANCH  29  30
HETATM   30  N3  UNL     1      -4.965  47.307  58.300  1.00  0.00    -0.345 N 
HETATM   31  C1  UNL     1      -4.890  46.907  59.521  1.00  0.00     0.200 C 
HETATM   32  N1  UNL     1      -3.975  47.660  60.351  1.00  0.00    -0.067 NA
HETATM   33  N2  UNL     1      -5.595  45.856  60.143  1.00  0.00    -0.067 NA
ATOM     34  H3  UNL     1      -4.417  48.103  57.971  1.00  0.00     0.167 HD
ENDBRANCH  29  30
ENDBRANCH  28  29
ENDBRANCH   1  28
TORSDOF 7
ENDMDL
MODEL 3
REMARK VINA RESULT: -7.270873770      1.680      5.827
REMARK  7 active torsions:
REMARK  status: ('A' for Active; 'I' for Inactive)
REMARK       I    between atoms: C1_2  and  N3_4 
REMARK    1  A    between atoms: N3_4  and  C2_6 
REMARK    2  A    between atoms: C2_6  and  C3_7 
REMARK    3  A    between atoms: C3_7  and  N4_8 
REMARK       I    between atoms: N4_8  and  C4_10 
REMARK       I    between atoms: C4_10  and  N6_14 
REMARK    4  A    between atoms: C6_17  and  C7_18 
REMARK    5  A    between atoms: N7_19  and  N8_21 
REMARK       I    between atoms: N8_21  and  C8_22 
REMARK    6  A    between atoms: C9_28  and  C10_29 
REMARK    7  A    between atoms: N12_31  and  N13_32 
ROOT
HETATM    1  N4  UNL     1      -5.594  47.457  55.201  1.00  0.00    -0.222 N 
ATOM      2  H4  UNL     1      -5.774  48.417  55.493  1.00  0.00     0.178 HD
HETATM    3  C4  UNL     1      -5.527  47.102  54.005  1.00  0.00     0.673 C 
HETATM    4  N5  UNL     1      -5.445  46.667  52.759  1.00  0.00    -0.235 N 
ATOM      5  H51 UNL     1      -5.391  46.377  51.783  1.00  0.00     0.174 HD
ATOM      6  H52 UNL     1      -6.279  47.189  52.491  1.00  0.00     0.174 HD
HETATM    7  N6  UNL     1      -4.066  46.185  54.476  1.00  0.00    -0.177 N 
ATOM      8  H6  UNL     1      -3.978  45.348  55.051  1.00  0.00     0.185 HD
HETATM    9  C5  UNL     1      -3.134  46.896  53.870  1.00  0.00     0.152 C 
HETATM   10  C6  UNL     1      -3.092  48.075  53.057  1.00  0.00     0.298 C 
HETATM   11  N11 UNL     1      -1.913  47.800  52.144  1.00  0.00    -0.030 N 
ATOM     12 1H11 UNL     1      -1.546  48.607  51.640  1.00  0.00     0.281 HD
ATOM     13 2H11 UNL     1      -2.121  47.261  51.303  1.00  0.00     0.281 HD
HETATM   14  C9  UNL     1      -0.978  47.161  53.103  1.00  0.00     0.370 C 
HETATM   15  N12 UNL     1      -1.799  46.330  53.885  1.00  0.00    -0.246 N 
ENDROOT
BRANCH  10  16
HETATM   16  C7  UNL     1      -2.823  49.363  53.771  1.00  0.00     0.135 C 
HETATM   17  N7  UNL     1      -2.916  50.405  53.168  1.00  0.00    -0.246 N 
ATOM     18  H7  UNL     1      -2.711  51.210  53.760  1.00  0.00     0.200 HD
BRANCH  17  19
HETATM   19  N8  UNL     1      -3.215  50.760  51.933  1.00  0.00    -0.295 NA
HETATM   20  C8  UNL     1      -3.735  50.848  50.827  1.00  0.00     0.298 C 
HETATM   21  N9  UNL     1      -4.848  50.103  50.392  1.00  0.00    -0.051 NA
HETATM   22  N10 UNL     1      -3.153  51.703  49.828  1.00  0.00    -0.051 NA
ENDBRANCH  17  19
ENDBRANCH  10  16
BRANCH  15  23
HETATM   23  N13 UNL     1      -1.429  45.096  54.609  1.00  0.00    -0.339 N 
ATOM     24 2H13 UNL     1      -1.593  44.127  54.334  1.00  0.00     0.177 HD
ATOM     25 1H13 UNL     1      -0.944  45.082  55.506  1.00  0.00     0.177 HD
ENDBRANCH  15  23
BRANCH  14  26
HETATM   26  C10 UNL     1       0.044  46.494  52.377  1.00  0.00     0.287 C 
HETATM   27  O1  UNL     1      -0.393  45.549  51.650  1.00  0.00    -0.303 OA
ENDBRANCH  14  26
BRANCH   1  28
HETATM   28  C3  UNL     1      -5.377  46.302  56.179  1.00  0.00     0.182 C 
BRANCH  28  29
HETATM   29  C2  UNL     1      -5.834  46.596  57.511  1.00  0.00     0.083 C 
BRANCH  29  30
HETATM   30  N3  UNL     1      -4.926  47.300  58.372  1.00  0.00    -0.345 N 
HETATM   31  C1  UNL     1      -4.841  46.912  59.597  1.00  0.00     0.200 C 
HETATM   32  N1  UNL     1      -3.897  47.655  60.404  1.00  0.00    -0.067 NA
HETATM   33  N2  UNL     1      -5.558  45.884  60.243  1.00  0.00    -0.067 NA
ATOM     34  H3  UNL     1      -4.367  48.080  58.026  1.00  0.00     0.167 HD
ENDBRANCH  29  30
ENDBRANCH  28  29
ENDBRANCH   1  28
TORSDOF 7
ENDMDL
MODEL 4
REMARK VINA RESULT: -7.184810253      1.840      4.953
REMARK  7 active torsions:
REMARK  status: ('A' for Active; 'I' for Inactive)
REMARK       I    between atoms: C1_2  and  N3_4 
REMARK    1  A    between atoms: N3_4  and  C2_6 
REMARK    2  A    between atoms: C2_6  and  C3_7 
REMARK    3  A    between atoms: C3_7  and  N4_8 
REMARK       I    between atoms: N4_8  and  C4_10 
REMARK       I    between atoms: C4_10  and  N6_14 
REMARK    4  A    between atoms: C6_17  and  C7_18 
REMARK    5  A    between atoms: N7_19  and  N8_21 
REMARK       I    between atoms: N8_21  and  C8_22 
REMARK    6  A    between atoms: C9_28  and  C10_29 
REMARK    7  A    between atoms: N12_31  and  N13_32 
ROOT
HETATM    1  N4  UNL     1      -5.570  47.504  54.926  1.00  0.00    -0.222 N 
ATOM      2  H4  UNL     1      -5.767  48.473  55.177  1.00  0.00     0.178 HD
HETATM    3  C4  UNL     1      -5.463  47.106  53.748  1.00  0.00     0.673 C 
HETATM    4  N5  UNL     1      -5.339  46.625  52.522  1.00  0.00    -0.235 N 
ATOM      5  H51 UNL     1      -5.252  46.299  51.559  1.00  0.00     0.174 HD
ATOM      6  H52 UNL     1      -6.169  47.129  52.209  1.00  0.00     0.174 HD
HETATM    7  N6  UNL     1      -4.009  46.221  54.296  1.00  0.00    -0.177 N 
ATOM      8  H6  UNL     1      -3.931  45.407  54.905  1.00  0.00     0.185 HD
HETATM    9  C5  UNL     1      -3.065  46.918  53.693  1.00  0.00     0.152 C 
HETATM   10  C6  UNL     1      -3.008  48.066  52.838  1.00  0.00     0.298 C 
HETATM   11  N11 UNL     1      -1.799  47.769  51.972  1.00  0.00    -0.030 N 
ATOM     12 1H11 UNL     1      -1.424  48.560  51.449  1.00  0.00     0.281 HD
ATOM     13 2H11 UNL     1      -1.977  47.197  51.146  1.00  0.00     0.281 HD
HETATM   14  C9  UNL     1      -0.889  47.175  52.982  1.00  0.00     0.370 C 
HETATM   15  N12 UNL     1      -1.726  46.366  53.769  1.00  0.00    -0.246 N 
ENDROOT
BRANCH  10  16
HETATM   16  C7  UNL     1      -2.772  49.382  53.511  1.00  0.00     0.135 C 
HETATM   17  N7  UNL     1      -3.619  50.241  53.447  1.00  0.00    -0.246 N 
ATOM     18  H7  UNL     1      -3.345  51.088  53.944  1.00  0.00     0.200 HD
BRANCH  17  19
HETATM   19  N8  UNL     1      -4.811  50.354  52.894  1.00  0.00    -0.295 NA
HETATM   20  C8  UNL     1      -6.021  50.397  52.702  1.00  0.00     0.298 C 
HETATM   21  N9  UNL     1      -7.006  50.248  53.697  1.00  0.00    -0.051 NA
HETATM   22  N10 UNL     1      -6.530  50.527  51.363  1.00  0.00    -0.051 NA
ENDBRANCH  17  19
ENDBRANCH  10  16
BRANCH  15  23
HETATM   23  N13 UNL     1      -1.368  45.163  54.550  1.00  0.00    -0.339 N 
ATOM     24 2H13 UNL     1      -1.867  44.748  55.337  1.00  0.00     0.177 HD
ATOM     25 1H13 UNL     1      -0.540  44.593  54.376  1.00  0.00     0.177 HD
ENDBRANCH  15  23
BRANCH  14  26
HETATM   26  C10 UNL     1       0.160  46.491  52.313  1.00  0.00     0.287 C 
HETATM   27  O1  UNL     1      -0.250  45.541  51.577  1.00  0.00    -0.303 OA
ENDBRANCH  14  26
BRANCH   1  28
HETATM   28  C3  UNL     1      -5.373  46.388  55.953  1.00  0.00     0.182 C 
BRANCH  28  29
HETATM   29  C2  UNL     1      -6.533  46.167  56.776  1.00  0.00     0.083 C 
BRANCH  29  30
HETATM   30  N3  UNL     1      -6.786  47.123  57.817  1.00  0.00    -0.345 N 
HETATM   31  C1  UNL     1      -7.652  48.047  57.583  1.00  0.00     0.200 C 
HETATM   32  N1  UNL     1      -7.869  48.967  58.679  1.00  0.00    -0.067 NA
HETATM   33  N2  UNL     1      -8.387  48.281  56.402  1.00  0.00    -0.067 NA
ATOM     34  H3  UNL     1      -6.298  47.073  58.711  1.00  0.00     0.167 HD
ENDBRANCH  29  30
ENDBRANCH  28  29
ENDBRANCH   1  28
TORSDOF 7
ENDMDL
MODEL 5
REMARK VINA RESULT: -7.162423672      1.639      5.346
REMARK  7 active torsions:
REMARK  status: ('A' for Active; 'I' for Inactive)
REMARK       I    between atoms: C1_2  and  N3_4 
REMARK    1  A    between atoms: N3_4  and  C2_6 
REMARK    2  A    between atoms: C2_6  and  C3_7 
REMARK    3  A    between atoms: C3_7  and  N4_8 
REMARK       I    between atoms: N4_8  and  C4_10 
REMARK       I    between atoms: C4_10  and  N6_14 
REMARK    4  A    between atoms: C6_17  and  C7_18 
REMARK    5  A    between atoms: N7_19  and  N8_21 
REMARK       I    between atoms: N8_21  and  C8_22 
REMARK    6  A    between atoms: C9_28  and  C10_29 
REMARK    7  A    between atoms: N12_31  and  N13_32 
ROOT
HETATM    1  N4  UNL     1      -5.817  48.693  53.722  1.00  0.00    -0.222 N 
ATOM      2  H4  UNL     1      -5.438  49.640  53.691  1.00  0.00     0.178 HD
HETATM    3  C4  UNL     1      -5.780  47.904  52.755  1.00  0.00     0.673 C 
HETATM    4  N5  UNL     1      -5.771  47.026  51.767  1.00  0.00    -0.235 N 
ATOM      5  H51 UNL     1      -5.742  46.381  50.977  1.00  0.00     0.174 HD
ATOM      6  H52 UNL     1      -6.077  47.732  51.097  1.00  0.00     0.174 HD
HETATM    7  N6  UNL     1      -5.245  46.666  53.929  1.00  0.00    -0.177 N 
ATOM      8  H6  UNL     1      -5.764  46.210  54.679  1.00  0.00     0.185 HD
HETATM    9  C5  UNL     1      -3.990  46.509  53.553  1.00  0.00     0.152 C 
HETATM   10  C6  UNL     1      -3.128  47.067  52.555  1.00  0.00     0.298 C 
HETATM   11  N11 UNL     1      -2.212  45.904  52.227  1.00  0.00    -0.030 N 
ATOM     12 1H11 UNL     1      -1.363  46.141  51.713  1.00  0.00     0.281 HD
ATOM     13 2H11 UNL     1      -2.558  45.253  51.523  1.00  0.00     0.281 HD
HETATM   14  C9  UNL     1      -2.006  45.338  53.583  1.00  0.00     0.370 C 
HETATM   15  N12 UNL     1      -3.273  45.419  54.187  1.00  0.00    -0.246 N 
ENDROOT
BRANCH  10  16
HETATM   16  C7  UNL     1      -2.269  48.214  52.987  1.00  0.00     0.135 C 
HETATM   17  N7  UNL     1      -2.508  49.323  52.574  1.00  0.00    -0.246 N 
ATOM     18  H7  UNL     1      -1.858  50.018  52.940  1.00  0.00     0.200 HD
BRANCH  17  19
HETATM   19  N8  UNL     1      -3.403  49.858  51.765  1.00  0.00    -0.295 NA
HETATM   20  C8  UNL     1      -3.955  50.513  50.888  1.00  0.00     0.298 C 
HETATM   21  N9  UNL     1      -3.301  51.369  49.981  1.00  0.00    -0.051 NA
HETATM   22  N10 UNL     1      -5.390  50.508  50.787  1.00  0.00    -0.051 NA
ENDBRANCH  17  19
ENDBRANCH  10  16
BRANCH  15  23
HETATM   23  N13 UNL     1      -3.828  44.578  55.268  1.00  0.00    -0.339 N 
ATOM     24 2H13 UNL     1      -4.805  44.454  55.534  1.00  0.00     0.177 HD
ATOM     25 1H13 UNL     1      -3.264  44.005  55.895  1.00  0.00     0.177 HD
ENDBRANCH  15  23
BRANCH  14  26
HETATM   26  C10 UNL     1      -1.477  44.026  53.460  1.00  0.00     0.287 C 
HETATM   27  O1  UNL     1      -0.759  43.680  54.448  1.00  0.00    -0.303 OA
ENDBRANCH  14  26
BRANCH   1  28
HETATM   28  C3  UNL     1      -6.488  48.092  54.958  1.00  0.00     0.182 C 
BRANCH  28  29
HETATM   29  C2  UNL     1      -6.133  48.766  56.178  1.00  0.00     0.083 C 
BRANCH  29  30
HETATM   30  N3  UNL     1      -5.394  48.011  57.151  1.00  0.00    -0.345 N 
HETATM   31  C1  UNL     1      -6.060  47.255  57.952  1.00  0.00     0.200 C 
HETATM   32  N1  UNL     1      -5.252  46.512  58.896  1.00  0.00    -0.067 NA
HETATM   33  N2  UNL     1      -7.457  47.081  58.036  1.00  0.00    -0.067 NA
ATOM     34  H3  UNL     1      -4.377  48.071  57.205  1.00  0.00     0.167 HD
ENDBRANCH  29  30
ENDBRANCH  28  29
ENDBRANCH   1  28
TORSDOF 7
ENDMDL
