MODEL 1
REMARK VINA RESULT: -5.150402748      0.000      0.000
REMARK  1 active torsions:
REMARK  status: ('A' for Active; 'I' for Inactive)
REMARK    1  A    between atoms: N1_1  and  C1_5 
ROOT
HETATM    1  C1  UNL     1     -22.038 -51.554 -11.994  1.00  0.00     0.127 C 
HETATM    2  C2  UNL     1     -22.947 -52.717 -11.867  1.00  0.00     0.043 C 
HETATM    3  C3  UNL     1     -22.337 -54.048 -12.106  1.00  0.00    -0.012 C 
HETATM    4  C4  UNL     1     -22.372 -54.430 -13.546  1.00  0.00     0.008 C 
HETATM    5  C5  UNL     1     -22.180 -53.303 -14.501  1.00  0.00     0.044 C 
HETATM    6  C6  UNL     1     -21.104 -52.341 -14.134  1.00  0.00     0.106 C 
HETATM    7  F1  UNL     1     -20.577 -51.820 -15.327  1.00  0.00    -0.243 F 
HETATM    8  C7  UNL     1     -19.987 -52.974 -13.404  1.00  0.00     0.048 C 
HETATM    9  C8  UNL     1     -20.079 -52.990 -11.929  1.00  0.00    -0.009 C 
HETATM   10  C9  UNL     1     -20.959 -54.157 -11.494  1.00  0.00     0.009 C 
HETATM   11  C10 UNL     1     -20.695 -51.750 -11.325  1.00  0.00     0.043 C 
HETATM   12  C11 UNL     1     -21.736 -51.168 -13.424  1.00  0.00     0.082 C 
ENDROOT
BRANCH   1  13
HETATM   13  N1  UNL     1     -22.695 -50.407 -11.343  1.00  0.00    -0.070 N 
ATOM     14  H13 UNL     1     -23.639 -50.239 -11.692  1.00  0.00     0.275 HD
ATOM     15  H12 UNL     1     -22.942 -50.590 -10.370  1.00  0.00     0.275 HD
ATOM     16  H11 UNL     1     -22.080 -49.600 -11.453  1.00  0.00     0.275 HD
ENDBRANCH   1  13
TORSDOF 1
ENDMDL
MODEL 2
REMARK VINA RESULT: -4.987899450      1.982      3.040
REMARK  1 active torsions:
REMARK  status: ('A' for Active; 'I' for Inactive)
REMARK    1  A    between atoms: N1_1  and  C1_5 
ROOT
HETATM    1  C1  UNL     1     -20.426 -52.010 -12.640  1.00  0.00     0.127 C 
HETATM    2  C2  UNL     1     -20.681 -51.988 -14.100  1.00  0.00     0.043 C 
HETATM    3  C3  UNL     1     -22.067 -52.302 -14.523  1.00  0.00    -0.012 C 
HETATM    4  C4  UNL     1     -22.278 -53.766 -14.710  1.00  0.00     0.008 C 
HETATM    5  C5  UNL     1     -21.541 -54.635 -13.751  1.00  0.00     0.044 C 
HETATM    6  C6  UNL     1     -21.564 -54.174 -12.334  1.00  0.00     0.106 C 
HETATM    7  F1  UNL     1     -21.492 -55.314 -11.518  1.00  0.00    -0.243 F 
HETATM    8  C7  UNL     1     -22.807 -53.461 -11.979  1.00  0.00     0.048 C 
HETATM    9  C8  UNL     1     -22.807 -51.994 -12.154  1.00  0.00    -0.009 C 
HETATM   10  C9  UNL     1     -23.094 -51.663 -13.615  1.00  0.00     0.009 C 
HETATM   11  C10 UNL     1     -21.495 -51.322 -11.821  1.00  0.00     0.043 C 
HETATM   12  C11 UNL     1     -20.295 -53.402 -12.065  1.00  0.00     0.082 C 
ENDROOT
BRANCH   1  13
HETATM   13  N1  UNL     1     -19.158 -51.299 -12.402  1.00  0.00    -0.070 N 
ATOM     14  H13 UNL     1     -18.391 -51.925 -12.159  1.00  0.00     0.275 HD
ATOM     15  H12 UNL     1     -18.751 -50.914 -13.256  1.00  0.00     0.275 HD
ATOM     16  H11 UNL     1     -19.334 -50.590 -11.690  1.00  0.00     0.275 HD
ENDBRANCH   1  13
TORSDOF 1
ENDMDL
MODEL 3
REMARK VINA RESULT: -4.985747912      1.679      2.888
REMARK  1 active torsions:
REMARK  status: ('A' for Active; 'I' for Inactive)
REMARK    1  A    between atoms: N1_1  and  C1_5 
ROOT
HETATM    1  C1  UNL     1     -22.175 -51.542 -12.823  1.00  0.00     0.127 C 
HETATM    2  C2  UNL     1     -21.519 -51.762 -14.133  1.00  0.00     0.043 C 
HETATM    3  C3  UNL     1     -21.372 -53.175 -14.558  1.00  0.00    -0.012 C 
HETATM    4  C4  UNL     1     -20.111 -53.785 -14.049  1.00  0.00     0.008 C 
HETATM    5  C5  UNL     1     -19.698 -53.334 -12.691  1.00  0.00     0.044 C 
HETATM    6  C6  UNL     1     -20.799 -53.245 -11.692  1.00  0.00     0.106 C 
HETATM    7  F1  UNL     1     -20.245 -53.506 -10.428  1.00  0.00    -0.243 F 
HETATM    8  C7  UNL     1     -21.864 -54.243 -11.916  1.00  0.00     0.048 C 
HETATM    9  C8  UNL     1     -22.995 -53.829 -12.772  1.00  0.00    -0.009 C 
HETATM   10  C9  UNL     1     -22.602 -53.994 -14.236  1.00  0.00     0.009 C 
HETATM   11  C10 UNL     1     -23.412 -52.386 -12.607  1.00  0.00     0.043 C 
HETATM   12  C11 UNL     1     -21.277 -51.814 -11.637  1.00  0.00     0.082 C 
ENDROOT
BRANCH   1  13
HETATM   13  N1  UNL     1     -22.587 -50.129 -12.766  1.00  0.00    -0.070 N 
ATOM     14  H13 UNL     1     -22.821 -49.821 -11.822  1.00  0.00     0.275 HD
ATOM     15  H12 UNL     1     -21.814 -49.483 -12.930  1.00  0.00     0.275 HD
ATOM     16  H11 UNL     1     -23.355 -50.008 -13.426  1.00  0.00     0.275 HD
ENDBRANCH   1  13
TORSDOF 1
ENDMDL
MODEL 4
REMARK VINA RESULT: -4.975911919      2.093      3.164
REMARK  1 active torsions:
REMARK  status: ('A' for Active; 'I' for Inactive)
REMARK    1  A    between atoms: N1_1  and  C1_5 
ROOT
HETATM    1  C1  UNL     1     -20.996 -52.436 -14.200  1.00  0.00     0.127 C 
HETATM    2  C2  UNL     1     -21.064 -53.902 -13.993  1.00  0.00     0.043 C 
HETATM    3  C3  UNL     1     -22.041 -54.371 -12.980  1.00  0.00    -0.012 C 
HETATM    4  C4  UNL     1     -21.454 -54.406 -11.610  1.00  0.00     0.008 C 
HETATM    5  C5  UNL     1     -20.488 -53.312 -11.312  1.00  0.00     0.044 C 
HETATM    6  C6  UNL     1     -20.898 -51.960 -11.784  1.00  0.00     0.106 C 
HETATM    7  F1  UNL     1     -20.346 -51.018 -10.901  1.00  0.00    -0.243 F 
HETATM    8  C7  UNL     1     -22.361 -51.763 -11.772  1.00  0.00     0.048 C 
HETATM    9  C8  UNL     1     -23.090 -52.102 -13.012  1.00  0.00    -0.009 C 
HETATM   10  C9  UNL     1     -23.342 -53.605 -13.051  1.00  0.00     0.009 C 
HETATM   11  C10 UNL     1     -22.349 -51.766 -14.286  1.00  0.00     0.043 C 
HETATM   12  C11 UNL     1     -20.238 -51.701 -13.117  1.00  0.00     0.082 C 
ENDROOT
BRANCH   1  13
HETATM   13  N1  UNL     1     -20.303 -52.202 -15.478  1.00  0.00    -0.070 N 
ATOM     14  H13 UNL     1     -20.748 -51.482 -16.046  1.00  0.00     0.275 HD
ATOM     15  H12 UNL     1     -19.399 -51.742 -15.362  1.00  0.00     0.275 HD
ATOM     16  H11 UNL     1     -20.233 -53.101 -15.957  1.00  0.00     0.275 HD
ENDBRANCH   1  13
TORSDOF 1
ENDMDL
MODEL 5
REMARK VINA RESULT: -4.963546398      1.146      1.410
REMARK  1 active torsions:
REMARK  status: ('A' for Active; 'I' for Inactive)
REMARK    1  A    between atoms: N1_1  and  C1_5 
ROOT
HETATM    1  C1  UNL     1     -22.855 -52.474 -12.495  1.00  0.00     0.127 C 
HETATM    2  C2  UNL     1     -22.613 -53.888 -12.127  1.00  0.00     0.043 C 
HETATM    3  C3  UNL     1     -21.204 -54.257 -11.849  1.00  0.00    -0.012 C 
HETATM    4  C4  UNL     1     -20.476 -54.662 -13.086  1.00  0.00     0.008 C 
HETATM    5  C5  UNL     1     -20.857 -53.911 -14.314  1.00  0.00     0.044 C 
HETATM    6  C6  UNL     1     -21.014 -52.441 -14.133  1.00  0.00     0.106 C 
HETATM    7  F1  UNL     1     -20.676 -51.826 -15.350  1.00  0.00    -0.243 F 
HETATM    8  C7  UNL     1     -20.116 -51.887 -13.100  1.00  0.00     0.048 C 
HETATM    9  C8  UNL     1     -20.645 -51.823 -11.722  1.00  0.00    -0.009 C 
HETATM   10  C9  UNL     1     -20.484 -53.187 -11.059  1.00  0.00     0.009 C 
HETATM   11  C10 UNL     1     -22.113 -51.480 -11.629  1.00  0.00     0.043 C 
HETATM   12  C11 UNL     1     -22.478 -52.141 -13.922  1.00  0.00     0.082 C 
ENDROOT
BRANCH   1  13
HETATM   13  N1  UNL     1     -24.296 -52.215 -12.334  1.00  0.00    -0.070 N 
ATOM     14  H13 UNL     1     -24.568 -51.279 -12.635  1.00  0.00     0.275 HD
ATOM     15  H12 UNL     1     -24.871 -52.740 -12.994  1.00  0.00     0.275 HD
ATOM     16  H11 UNL     1     -24.533 -52.405 -11.360  1.00  0.00     0.275 HD
ENDBRANCH   1  13
TORSDOF 1
ENDMDL
