MODEL 1
REMARK VINA RESULT: -6.146209358      0.000      0.000
REMARK  1 active torsions:
REMARK  status: ('A' for Active; 'I' for Inactive)
REMARK    1  A    between atoms: O1_1  and  N1_3 
ROOT
HETATM    1  N1  UNL     1      49.046  19.193  11.296  1.00  0.00    -0.257 N 
ATOM      2  H1  UNL     1      48.233  19.760  11.053  1.00  0.00     0.195 HD
HETATM    3  C1  UNL     1      50.056  19.782  11.852  1.00  0.00     0.098 C 
HETATM    4  C2  UNL     1      50.125  21.234  12.166  1.00  0.00     0.080 C 
HETATM    5  C3  UNL     1      51.603  21.518  11.915  1.00  0.00     0.038 C 
HETATM    6  C4  UNL     1      52.317  20.271  12.344  1.00  0.00     0.032 C 
HETATM    7  C5  UNL     1      53.359  19.919  11.308  1.00  0.00     0.031 C 
HETATM    8  C6  UNL     1      54.538  20.811  11.496  1.00  0.00     0.002 C 
HETATM    9  C7  UNL     1      55.222  20.469  12.785  1.00  0.00     0.000 C 
HETATM   10  C8  UNL     1      54.301  19.991  13.857  1.00  0.00     0.002 C 
HETATM   11  C9  UNL     1      52.885  20.465  13.709  1.00  0.00     0.031 C 
HETATM   12  N2  UNL     1      51.297  19.239  12.285  1.00  0.00    -0.369 N 
ATOM     13  H2  UNL     1      51.449  18.259  12.522  1.00  0.00     0.161 HD
ENDROOT
BRANCH   1  14
HETATM   14  O1  UNL     1      49.006  17.867  11.018  1.00  0.00    -0.288 OA
ATOM     15  H1  UNL     1      48.204  17.385  10.852  1.00  0.00     0.244 HD
ENDBRANCH   1  14
TORSDOF 1
ENDMDL
MODEL 2
REMARK VINA RESULT: -5.552035890      2.376      4.236
REMARK  1 active torsions:
REMARK  status: ('A' for Active; 'I' for Inactive)
REMARK    1  A    between atoms: O1_1  and  N1_3 
ROOT
HETATM    1  N1  UNL     1      54.347  18.146  13.129  1.00  0.00    -0.257 N 
ATOM      2  H1  UNL     1      55.303  18.136  12.773  1.00  0.00     0.195 HD
HETATM    3  C1  UNL     1      53.465  18.847  12.492  1.00  0.00     0.098 C 
HETATM    4  C2  UNL     1      53.738  19.648  11.269  1.00  0.00     0.080 C 
HETATM    5  C3  UNL     1      52.805  20.837  11.483  1.00  0.00     0.038 C 
HETATM    6  C4  UNL     1      51.601  20.266  12.171  1.00  0.00     0.032 C 
HETATM    7  C5  UNL     1      51.203  21.181  13.305  1.00  0.00     0.031 C 
HETATM    8  C6  UNL     1      50.482  22.356  12.740  1.00  0.00     0.002 C 
HETATM    9  C7  UNL     1      49.159  21.914  12.191  1.00  0.00     0.000 C 
HETATM   10  C8  UNL     1      49.162  20.531  11.630  1.00  0.00     0.002 C 
HETATM   11  C9  UNL     1      50.511  20.055  11.175  1.00  0.00     0.031 C 
HETATM   12  N2  UNL     1      52.082  19.034  12.769  1.00  0.00    -0.369 N 
ATOM     13  H2  UNL     1      51.508  18.391  13.314  1.00  0.00     0.161 HD
ENDROOT
BRANCH   1  14
HETATM   14  O1  UNL     1      54.074  17.424  14.244  1.00  0.00    -0.288 OA
ATOM     15  H1  UNL     1      54.473  17.587  15.091  1.00  0.00     0.244 HD
ENDBRANCH   1  14
TORSDOF 1
ENDMDL
MODEL 3
REMARK VINA RESULT: -5.495863020      2.575      3.134
REMARK  1 active torsions:
REMARK  status: ('A' for Active; 'I' for Inactive)
REMARK    1  A    between atoms: O1_1  and  N1_3 
ROOT
HETATM    1  N1  UNL     1      47.355  20.725  12.225  1.00  0.00    -0.257 N 
ATOM      2  H1  UNL     1      46.972  19.862  11.837  1.00  0.00     0.195 HD
HETATM    3  C1  UNL     1      48.612  20.972  12.039  1.00  0.00     0.098 C 
HETATM    4  C2  UNL     1      49.551  20.090  11.296  1.00  0.00     0.080 C 
HETATM    5  C3  UNL     1      50.838  20.297  12.089  1.00  0.00     0.038 C 
HETATM    6  C4  UNL     1      50.798  21.731  12.526  1.00  0.00     0.032 C 
HETATM    7  C5  UNL     1      51.211  21.816  13.977  1.00  0.00     0.031 C 
HETATM    8  C6  UNL     1      52.695  21.700  14.057  1.00  0.00     0.002 C 
HETATM    9  C7  UNL     1      53.325  22.922  13.461  1.00  0.00     0.000 C 
HETATM   10  C8  UNL     1      52.550  23.521  12.335  1.00  0.00     0.002 C 
HETATM   11  C9  UNL     1      51.653  22.552  11.621  1.00  0.00     0.031 C 
HETATM   12  N2  UNL     1      49.391  22.084  12.466  1.00  0.00    -0.369 N 
ATOM     13  H2  UNL     1      49.012  23.002  12.699  1.00  0.00     0.161 HD
ENDROOT
BRANCH   1  14
HETATM   14  O1  UNL     1      46.518  21.544  12.907  1.00  0.00    -0.288 OA
ATOM     15  H1  UNL     1      45.732  21.925  12.535  1.00  0.00     0.244 HD
ENDBRANCH   1  14
TORSDOF 1
ENDMDL
MODEL 4
REMARK VINA RESULT: -5.448290939      3.639      4.880
REMARK  1 active torsions:
REMARK  status: ('A' for Active; 'I' for Inactive)
REMARK    1  A    between atoms: O1_1  and  N1_3 
ROOT
HETATM    1  N1  UNL     1      53.187  24.925  12.407  1.00  0.00    -0.257 N 
ATOM      2  H1  UNL     1      53.662  25.353  13.202  1.00  0.00     0.195 HD
HETATM    3  C1  UNL     1      52.310  24.003  12.645  1.00  0.00     0.098 C 
HETATM    4  C2  UNL     1      51.937  23.514  13.999  1.00  0.00     0.080 C 
HETATM    5  C3  UNL     1      51.679  22.037  13.716  1.00  0.00     0.038 C 
HETATM    6  C4  UNL     1      51.086  22.002  12.339  1.00  0.00     0.032 C 
HETATM    7  C5  UNL     1      51.735  20.889  11.551  1.00  0.00     0.031 C 
HETATM    8  C6  UNL     1      51.139  19.592  11.979  1.00  0.00     0.002 C 
HETATM    9  C7  UNL     1      49.711  19.527  11.530  1.00  0.00     0.000 C 
HETATM   10  C8  UNL     1      49.017  20.848  11.506  1.00  0.00     0.002 C 
HETATM   11  C9  UNL     1      49.604  21.868  12.437  1.00  0.00     0.031 C 
HETATM   12  N2  UNL     1      51.514  23.252  11.736  1.00  0.00    -0.369 N 
ATOM     13  H2  UNL     1      51.276  23.551  10.790  1.00  0.00     0.161 HD
ENDROOT
BRANCH   1  14
HETATM   14  O1  UNL     1      53.511  25.354  11.162  1.00  0.00    -0.288 OA
ATOM     15  H1  UNL     1      53.477  26.264  10.891  1.00  0.00     0.244 HD
ENDBRANCH   1  14
TORSDOF 1
ENDMDL
MODEL 5
REMARK VINA RESULT: -5.404551622      2.716      3.132
REMARK  1 active torsions:
REMARK  status: ('A' for Active; 'I' for Inactive)
REMARK    1  A    between atoms: O1_1  and  N1_3 
ROOT
HETATM    1  N1  UNL     1      51.751  18.942  12.414  1.00  0.00    -0.257 N 
ATOM      2  H1  UNL     1      50.963  18.511  11.931  1.00  0.00     0.195 HD
HETATM    3  C1  UNL     1      51.681  20.206  12.689  1.00  0.00     0.098 C 
HETATM    4  C2  UNL     1      50.532  21.087  12.351  1.00  0.00     0.080 C 
HETATM    5  C3  UNL     1      51.248  22.397  12.040  1.00  0.00     0.038 C 
HETATM    6  C4  UNL     1      52.416  22.435  12.980  1.00  0.00     0.032 C 
HETATM    7  C5  UNL     1      53.645  22.880  12.223  1.00  0.00     0.031 C 
HETATM    8  C6  UNL     1      53.581  24.358  12.040  1.00  0.00     0.002 C 
HETATM    9  C7  UNL     1      53.747  25.033  13.367  1.00  0.00     0.000 C 
HETATM   10  C8  UNL     1      53.186  24.266  14.517  1.00  0.00     0.002 C 
HETATM   11  C9  UNL     1      52.091  23.309  14.144  1.00  0.00     0.031 C 
HETATM   12  N2  UNL     1      52.624  21.045  13.345  1.00  0.00    -0.369 N 
ATOM     13  H2  UNL     1      53.348  20.715  13.983  1.00  0.00     0.161 HD
ENDROOT
BRANCH   1  14
HETATM   14  O1  UNL     1      52.811  18.159  12.732  1.00  0.00    -0.288 OA
ATOM     15  H1  UNL     1      52.907  17.712  13.565  1.00  0.00     0.244 HD
ENDBRANCH   1  14
TORSDOF 1
ENDMDL
