MODEL 1
REMARK VINA RESULT: -4.556402308      0.000      0.000
REMARK  0 active torsions:
REMARK  status: ('A' for Active; 'I' for Inactive)
ROOT
HETATM    1  S1  UNL     1      48.263  19.367  11.654  1.00  0.00    -0.081 SA
HETATM    2  C1  UNL     1      49.398  20.760  11.304  1.00  0.00     0.122 C 
HETATM    3  C2  UNL     1      48.915  21.928  12.096  1.00  0.00     0.052 C 
HETATM    4  C3  UNL     1      50.112  22.688  12.596  1.00  0.00     0.092 C 
HETATM    5  N1  UNL     1      50.819  23.198  11.468  1.00  0.00    -0.416 N 
ATOM      6  H1  UNL     1      50.346  23.463  10.605  1.00  0.00     0.153 HD
HETATM    7  C4  UNL     1      52.228  23.313  11.625  1.00  0.00     0.114 C 
HETATM    8  C5  UNL     1      52.705  23.391  13.035  1.00  0.00     0.020 C 
HETATM    9  C6  UNL     1      52.270  22.150  13.766  1.00  0.00     0.019 C 
HETATM   10  C7  UNL     1      50.923  21.668  13.393  1.00  0.00     0.071 C 
HETATM   11  S2  UNL     1      50.984  20.332  12.130  1.00  0.00    -0.146 SA
ENDROOT
TORSDOF 0
ENDMDL
MODEL 2
REMARK VINA RESULT: -4.484485570      1.814      3.790
REMARK  0 active torsions:
REMARK  status: ('A' for Active; 'I' for Inactive)
ROOT
HETATM    1  S1  UNL     1      54.158  22.786  14.347  1.00  0.00    -0.081 SA
HETATM    2  C1  UNL     1      52.419  22.994  13.814  1.00  0.00     0.122 C 
HETATM    3  C2  UNL     1      52.447  23.381  12.374  1.00  0.00     0.052 C 
HETATM    4  C3  UNL     1      51.289  22.715  11.683  1.00  0.00     0.092 C 
HETATM    5  N1  UNL     1      50.082  23.228  12.241  1.00  0.00    -0.416 N 
ATOM      6  H1  UNL     1      50.010  24.182  12.597  1.00  0.00     0.153 HD
HETATM    7  C4  UNL     1      48.985  22.325  12.271  1.00  0.00     0.114 C 
HETATM    8  C5  UNL     1      49.060  21.203  11.292  1.00  0.00     0.020 C 
HETATM    9  C6  UNL     1      50.307  20.406  11.561  1.00  0.00     0.019 C 
HETATM   10  C7  UNL     1      51.478  21.222  11.946  1.00  0.00     0.071 C 
HETATM   11  S2  UNL     1      51.704  21.302  13.770  1.00  0.00    -0.146 SA
ENDROOT
TORSDOF 0
ENDMDL
MODEL 3
REMARK VINA RESULT: -4.340247226      2.861      3.333
REMARK  0 active torsions:
REMARK  status: ('A' for Active; 'I' for Inactive)
ROOT
HETATM    1  S1  UNL     1      49.047  21.610  11.380  1.00  0.00    -0.081 SA
HETATM    2  C1  UNL     1      50.395  21.007  12.463  1.00  0.00     0.122 C 
HETATM    3  C2  UNL     1      50.732  19.626  12.014  1.00  0.00     0.052 C 
HETATM    4  C3  UNL     1      52.218  19.440  12.131  1.00  0.00     0.092 C 
HETATM    5  N1  UNL     1      52.574  19.542  13.508  1.00  0.00    -0.416 N 
ATOM      6  H1  UNL     1      51.944  19.251  14.254  1.00  0.00     0.153 HD
HETATM    7  C4  UNL     1      53.865  20.075  13.772  1.00  0.00     0.114 C 
HETATM    8  C5  UNL     1      54.838  19.970  12.647  1.00  0.00     0.020 C 
HETATM    9  C6  UNL     1      54.284  20.700  11.455  1.00  0.00     0.019 C 
HETATM   10  C7  UNL     1      52.824  20.553  11.277  1.00  0.00     0.071 C 
HETATM   11  S2  UNL     1      51.887  21.968  11.985  1.00  0.00    -0.146 SA
ENDROOT
TORSDOF 0
ENDMDL
MODEL 4
REMARK VINA RESULT: -4.203708422      1.173      1.279
REMARK  0 active torsions:
REMARK  status: ('A' for Active; 'I' for Inactive)
ROOT
HETATM    1  S1  UNL     1      48.365  20.175  11.712  1.00  0.00    -0.081 SA
HETATM    2  C1  UNL     1      49.943  21.081  11.509  1.00  0.00     0.122 C 
HETATM    3  C2  UNL     1      49.925  22.213  12.481  1.00  0.00     0.052 C 
HETATM    4  C3  UNL     1      51.315  22.389  13.026  1.00  0.00     0.092 C 
HETATM    5  N1  UNL     1      52.172  22.762  11.949  1.00  0.00    -0.416 N 
ATOM      6  H1  UNL     1      51.841  23.310  11.156  1.00  0.00     0.153 HD
HETATM    7  C4  UNL     1      53.519  22.320  12.054  1.00  0.00     0.114 C 
HETATM    8  C5  UNL     1      53.978  22.005  13.437  1.00  0.00     0.020 C 
HETATM    9  C6  UNL     1      53.103  20.921  14.004  1.00  0.00     0.019 C 
HETATM   10  C7  UNL     1      51.677  21.035  13.631  1.00  0.00     0.071 C 
HETATM   11  S2  UNL     1      51.244  19.976  12.190  1.00  0.00    -0.146 SA
ENDROOT
TORSDOF 0
ENDMDL
MODEL 5
REMARK VINA RESULT: -3.987506716      2.559      4.246
REMARK  0 active torsions:
REMARK  status: ('A' for Active; 'I' for Inactive)
ROOT
HETATM    1  S1  UNL     1      55.375  22.221  13.959  1.00  0.00    -0.081 SA
HETATM    2  C1  UNL     1      54.085  21.159  13.209  1.00  0.00     0.122 C 
HETATM    3  C2  UNL     1      53.159  20.756  14.305  1.00  0.00     0.052 C 
HETATM    4  C3  UNL     1      51.760  20.730  13.756  1.00  0.00     0.092 C 
HETATM    5  N1  UNL     1      51.694  19.725  12.748  1.00  0.00    -0.416 N 
ATOM      6  H1  UNL     1      52.264  18.880  12.786  1.00  0.00     0.153 HD
HETATM    7  C4  UNL     1      50.784  19.976  11.686  1.00  0.00     0.114 C 
HETATM    8  C5  UNL     1      49.687  20.935  12.003  1.00  0.00     0.020 C 
HETATM    9  C6  UNL     1      50.293  22.253  12.399  1.00  0.00     0.019 C 
HETATM   10  C7  UNL     1      51.525  22.137  13.208  1.00  0.00     0.071 C 
HETATM   11  S2  UNL     1      53.048  22.280  12.186  1.00  0.00    -0.146 SA
ENDROOT
TORSDOF 0
ENDMDL
