MODEL 1
REMARK VINA RESULT: -5.850586624      0.000      0.000
REMARK  3 active torsions:
REMARK  status: ('A' for Active; 'I' for Inactive)
REMARK    1  A    between atoms: O1_2  and  C2_3 
REMARK    2  A    between atoms: C2_3  and  O2_7 
REMARK    3  A    between atoms: O2_7  and  C3_8 
ROOT
HETATM    1  C3  UNL     1      49.877  21.621  11.483  1.00  0.00     0.160 C 
HETATM    2  C4  UNL     1      49.424  22.747  12.336  1.00  0.00     0.265 C 
HETATM    3  N2  UNL     1      50.695  23.224  12.909  1.00  0.00    -0.065 N 
ATOM      4  H21 UNL     1      50.572  23.754  13.773  1.00  0.00     0.278 HD
ATOM      5  H22 UNL     1      51.127  23.969  12.362  1.00  0.00     0.278 HD
HETATM    6  C5  UNL     1      51.535  22.083  13.066  1.00  0.00     0.121 C 
HETATM    7  C6  UNL     1      52.812  22.225  12.226  1.00  0.00     0.046 C 
HETATM    8  C7  UNL     1      51.936  21.898  14.494  1.00  0.00     0.046 C 
HETATM    9  C8  UNL     1      50.786  20.884  12.503  1.00  0.00     0.072 C 
ENDROOT
BRANCH   1  10
HETATM   10  O2  UNL     1      48.942  20.766  10.948  1.00  0.00    -0.310 OA
BRANCH  10  11
HETATM   11  C2  UNL     1      47.897  20.243  11.627  1.00  0.00     0.258 C 
HETATM   12  N1  UNL     1      47.697  18.987  11.568  1.00  0.00    -0.359 N 
ATOM     13  H12 UNL     1      46.908  18.592  12.080  1.00  0.00     0.160 HD
ATOM     14  H11 UNL     1      48.370  18.476  10.997  1.00  0.00     0.160 HD
BRANCH  11  15
HETATM   15  O1  UNL     1      46.969  20.947  12.415  1.00  0.00    -0.322 OA
HETATM   16  C1  UNL     1      45.600  20.572  12.337  1.00  0.00     0.213 C 
ENDBRANCH  11  15
ENDBRANCH  10  11
ENDBRANCH   1  10
TORSDOF 3
ENDMDL
MODEL 2
REMARK VINA RESULT: -5.716620259      1.414      1.948
REMARK  3 active torsions:
REMARK  status: ('A' for Active; 'I' for Inactive)
REMARK    1  A    between atoms: O1_2  and  C2_3 
REMARK    2  A    between atoms: C2_3  and  O2_7 
REMARK    3  A    between atoms: O2_7  and  C3_8 
ROOT
HETATM    1  C3  UNL     1      50.271  20.555  12.184  1.00  0.00     0.160 C 
HETATM    2  C4  UNL     1      51.208  19.406  12.130  1.00  0.00     0.265 C 
HETATM    3  N2  UNL     1      52.335  19.895  12.944  1.00  0.00    -0.065 N 
ATOM      4  H21 UNL     1      53.211  19.409  12.748  1.00  0.00     0.278 HD
ATOM      5  H22 UNL     1      52.261  19.636  13.928  1.00  0.00     0.278 HD
HETATM    6  C5  UNL     1      52.416  21.303  12.739  1.00  0.00     0.121 C 
HETATM    7  C6  UNL     1      52.209  22.060  14.058  1.00  0.00     0.046 C 
HETATM    8  C7  UNL     1      53.748  21.693  12.183  1.00  0.00     0.046 C 
HETATM    9  C8  UNL     1      51.260  21.700  11.833  1.00  0.00     0.072 C 
ENDROOT
BRANCH   1  10
HETATM   10  O2  UNL     1      49.181  20.572  11.347  1.00  0.00    -0.310 OA
BRANCH  10  11
HETATM   11  C2  UNL     1      47.925  20.225  11.707  1.00  0.00     0.258 C 
HETATM   12  N1  UNL     1      47.510  19.054  11.425  1.00  0.00    -0.359 N 
ATOM     13  H12 UNL     1      46.562  18.793  11.697  1.00  0.00     0.160 HD
ATOM     14  H11 UNL     1      48.190  18.469  10.941  1.00  0.00     0.160 HD
BRANCH  11  15
HETATM   15  O1  UNL     1      46.989  21.033  12.375  1.00  0.00    -0.322 OA
HETATM   16  C1  UNL     1      45.623  20.640  12.350  1.00  0.00     0.213 C 
ENDBRANCH  11  15
ENDBRANCH  10  11
ENDBRANCH   1  10
TORSDOF 3
ENDMDL
MODEL 3
REMARK VINA RESULT: -5.527937484      1.318      1.426
REMARK  3 active torsions:
REMARK  status: ('A' for Active; 'I' for Inactive)
REMARK    1  A    between atoms: O1_2  and  C2_3 
REMARK    2  A    between atoms: C2_3  and  O2_7 
REMARK    3  A    between atoms: O2_7  and  C3_8 
ROOT
HETATM    1  C3  UNL     1      50.782  21.001  12.136  1.00  0.00     0.160 C 
HETATM    2  C4  UNL     1      50.086  22.291  11.909  1.00  0.00     0.265 C 
HETATM    3  N2  UNL     1      51.207  23.248  11.922  1.00  0.00    -0.065 N 
ATOM      4  H21 UNL     1      50.916  24.203  12.129  1.00  0.00     0.278 HD
ATOM      5  H22 UNL     1      51.592  23.428  10.995  1.00  0.00     0.278 HD
HETATM    6  C5  UNL     1      52.172  22.743  12.843  1.00  0.00     0.121 C 
HETATM    7  C6  UNL     1      53.504  22.458  12.136  1.00  0.00     0.046 C 
HETATM    8  C7  UNL     1      52.430  23.720  13.945  1.00  0.00     0.046 C 
HETATM    9  C8  UNL     1      51.662  21.402  13.350  1.00  0.00     0.072 C 
ENDROOT
BRANCH   1  10
HETATM   10  O2  UNL     1      50.040  19.878  12.416  1.00  0.00    -0.310 OA
BRANCH  10  11
HETATM   11  C2  UNL     1      49.030  19.409  11.650  1.00  0.00     0.258 C 
HETATM   12  N1  UNL     1      49.148  18.255  11.122  1.00  0.00    -0.359 N 
ATOM     13  H12 UNL     1      48.385  17.901  10.544  1.00  0.00     0.160 HD
ATOM     14  H11 UNL     1      50.023  17.778  11.338  1.00  0.00     0.160 HD
BRANCH  11  15
HETATM   15  O1  UNL     1      47.824  20.067  11.353  1.00  0.00    -0.322 OA
HETATM   16  C1  UNL     1      46.645  19.646  12.026  1.00  0.00     0.213 C 
ENDBRANCH  11  15
ENDBRANCH  10  11
ENDBRANCH   1  10
TORSDOF 3
ENDMDL
MODEL 4
REMARK VINA RESULT: -5.492640985      1.755      2.437
REMARK  3 active torsions:
REMARK  status: ('A' for Active; 'I' for Inactive)
REMARK    1  A    between atoms: O1_2  and  C2_3 
REMARK    2  A    between atoms: C2_3  and  O2_7 
REMARK    3  A    between atoms: O2_7  and  C3_8 
ROOT
HETATM    1  C3  UNL     1      51.360  20.599  12.754  1.00  0.00     0.160 C 
HETATM    2  C4  UNL     1      52.242  20.547  13.945  1.00  0.00     0.265 C 
HETATM    3  N2  UNL     1      53.003  21.802  13.816  1.00  0.00    -0.065 N 
ATOM      4  H21 UNL     1      53.886  21.791  14.327  1.00  0.00     0.278 HD
ATOM      5  H22 UNL     1      52.575  22.584  14.313  1.00  0.00     0.278 HD
HETATM    6  C5  UNL     1      53.166  22.047  12.420  1.00  0.00     0.121 C 
HETATM    7  C6  UNL     1      52.503  23.371  12.017  1.00  0.00     0.046 C 
HETATM    8  C7  UNL     1      54.612  22.119  12.049  1.00  0.00     0.046 C 
HETATM    9  C8  UNL     1      52.419  20.951  11.674  1.00  0.00     0.072 C 
ENDROOT
BRANCH   1  10
HETATM   10  O2  UNL     1      50.647  19.479  12.397  1.00  0.00    -0.310 OA
BRANCH  10  11
HETATM   11  C2  UNL     1      49.527  19.486  11.641  1.00  0.00     0.258 C 
HETATM   12  N1  UNL     1      49.052  18.373  11.243  1.00  0.00    -0.359 N 
ATOM     13  H12 UNL     1      48.206  18.378  10.673  1.00  0.00     0.160 HD
ATOM     14  H11 UNL     1      49.579  17.554  11.545  1.00  0.00     0.160 HD
BRANCH  11  15
HETATM   15  O1  UNL     1      48.799  20.614  11.225  1.00  0.00    -0.322 OA
HETATM   16  C1  UNL     1      47.690  21.027  12.013  1.00  0.00     0.213 C 
ENDBRANCH  11  15
ENDBRANCH  10  11
ENDBRANCH   1  10
TORSDOF 3
ENDMDL
MODEL 5
REMARK VINA RESULT: -5.426773647      1.464      1.593
REMARK  3 active torsions:
REMARK  status: ('A' for Active; 'I' for Inactive)
REMARK    1  A    between atoms: O1_2  and  C2_3 
REMARK    2  A    between atoms: C2_3  and  O2_7 
REMARK    3  A    between atoms: O2_7  and  C3_8 
ROOT
HETATM    1  C3  UNL     1      50.472  20.643  11.975  1.00  0.00     0.160 C 
HETATM    2  C4  UNL     1      50.496  22.126  11.958  1.00  0.00     0.265 C 
HETATM    3  N2  UNL     1      51.919  22.405  11.697  1.00  0.00    -0.065 N 
ATOM      4  H21 UNL     1      52.205  23.340  11.988  1.00  0.00     0.278 HD
ATOM      5  H22 UNL     1      52.132  22.508  10.704  1.00  0.00     0.278 HD
HETATM    6  C5  UNL     1      52.668  21.368  12.327  1.00  0.00     0.121 C 
HETATM    7  C6  UNL     1      53.483  20.577  11.294  1.00  0.00     0.046 C 
HETATM    8  C7  UNL     1      53.615  21.924  13.340  1.00  0.00     0.046 C 
HETATM    9  C8  UNL     1      51.672  20.385  12.927  1.00  0.00     0.072 C 
ENDROOT
BRANCH   1  10
HETATM   10  O2  UNL     1      49.344  19.995  12.419  1.00  0.00    -0.310 OA
BRANCH  10  11
HETATM   11  C2  UNL     1      48.563  19.196  11.659  1.00  0.00     0.258 C 
HETATM   12  N1  UNL     1      49.115  18.270  10.979  1.00  0.00    -0.359 N 
ATOM     13  H12 UNL     1      48.525  17.667  10.405  1.00  0.00     0.160 HD
ATOM     14  H11 UNL     1      50.128  18.217  11.079  1.00  0.00     0.160 HD
BRANCH  11  15
HETATM   15  O1  UNL     1      47.166  19.269  11.521  1.00  0.00    -0.322 OA
HETATM   16  C1  UNL     1      46.489  20.371  12.112  1.00  0.00     0.213 C 
ENDBRANCH  11  15
ENDBRANCH  10  11
ENDBRANCH   1  10
TORSDOF 3
ENDMDL
