MODEL 1
REMARK VINA RESULT: -5.843850304      0.000      0.000
REMARK  2 active torsions:
REMARK  status: ('A' for Active; 'I' for Inactive)
REMARK    1  A    between atoms: N1_2  and  O1_3 
REMARK    2  A    between atoms: N1_2  and  N2_5 
ROOT
HETATM    1  N2  UNL     1      50.220  23.241  13.071  1.00  0.00    -0.268 N 
ATOM      2  H2  UNL     1      49.860  24.023  13.619  1.00  0.00     0.190 HD
HETATM    3  C2  UNL     1      51.187  22.566  13.555  1.00  0.00     0.098 C 
HETATM    4  N3  UNL     1      51.789  22.840  14.816  1.00  0.00    -0.378 N 
ATOM      5  H3  UNL     1      51.426  23.443  15.553  1.00  0.00     0.160 HD
HETATM    6  C3  UNL     1      53.031  22.079  14.835  1.00  0.00     0.126 C 
HETATM    7  C4  UNL     1      52.638  20.830  14.078  1.00  0.00     0.015 C 
HETATM    8  C5  UNL     1      53.736  19.923  13.753  1.00  0.00     0.007 C 
HETATM    9  C6  UNL     1      54.333  19.994  12.403  1.00  0.00     0.000 C 
HETATM   10  C7  UNL     1      53.409  20.505  11.327  1.00  0.00     0.001 C 
HETATM   11  C8  UNL     1      52.833  21.819  11.856  1.00  0.00     0.013 C 
HETATM   12  C9  UNL     1      51.863  21.387  12.922  1.00  0.00     0.060 C 
ENDROOT
BRANCH   1  13
HETATM   13  N1  UNL     1      49.624  22.980  11.840  1.00  0.00    -0.205 N 
HETATM   14  C1  UNL     1      48.820  21.784  11.710  1.00  0.00     0.207 C 
BRANCH  13  15
HETATM   15  O1  UNL     1      49.764  23.800  10.763  1.00  0.00    -0.273 OA
ATOM     16  H1  UNL     1      50.026  23.426   9.930  1.00  0.00     0.246 HD
ENDBRANCH  13  15
ENDBRANCH   1  13
TORSDOF 2
ENDMDL
MODEL 2
REMARK VINA RESULT: -5.771920760      2.162      2.849
REMARK  2 active torsions:
REMARK  status: ('A' for Active; 'I' for Inactive)
REMARK    1  A    between atoms: N1_2  and  O1_3 
REMARK    2  A    between atoms: N1_2  and  N2_5 
ROOT
HETATM    1  N2  UNL     1      49.495  22.027  11.251  1.00  0.00    -0.268 N 
ATOM      2  H2  UNL     1      49.287  22.340  10.303  1.00  0.00     0.190 HD
HETATM    3  C2  UNL     1      50.486  22.559  11.851  1.00  0.00     0.098 C 
HETATM    4  N3  UNL     1      51.316  23.561  11.274  1.00  0.00    -0.378 N 
ATOM      5  H3  UNL     1      51.127  24.107  10.434  1.00  0.00     0.160 HD
HETATM    6  C3  UNL     1      52.491  23.644  12.130  1.00  0.00     0.126 C 
HETATM    7  C4  UNL     1      51.893  23.399  13.497  1.00  0.00     0.015 C 
HETATM    8  C5  UNL     1      52.857  23.228  14.582  1.00  0.00     0.007 C 
HETATM    9  C6  UNL     1      53.212  21.856  15.000  1.00  0.00     0.000 C 
HETATM   10  C7  UNL     1      52.149  20.820  14.743  1.00  0.00     0.001 C 
HETATM   11  C8  UNL     1      51.759  20.972  13.272  1.00  0.00     0.013 C 
HETATM   12  C9  UNL     1      50.965  22.250  13.238  1.00  0.00     0.060 C 
ENDROOT
BRANCH   1  13
HETATM   13  N1  UNL     1      48.677  21.048  11.808  1.00  0.00    -0.205 N 
HETATM   14  C1  UNL     1      49.016  19.661  11.575  1.00  0.00     0.207 C 
BRANCH  13  15
HETATM   15  O1  UNL     1      47.581  21.341  12.560  1.00  0.00    -0.273 OA
ATOM     16  H1  UNL     1      47.070  22.114  12.347  1.00  0.00     0.246 HD
ENDBRANCH  13  15
ENDBRANCH   1  13
TORSDOF 2
ENDMDL
MODEL 3
REMARK VINA RESULT: -5.756146778      2.217      2.871
REMARK  2 active torsions:
REMARK  status: ('A' for Active; 'I' for Inactive)
REMARK    1  A    between atoms: N1_2  and  O1_3 
REMARK    2  A    between atoms: N1_2  and  N2_5 
ROOT
HETATM    1  N2  UNL     1      49.418  19.887  11.774  1.00  0.00    -0.268 N 
ATOM      2  H2  UNL     1      48.988  18.970  11.897  1.00  0.00     0.190 HD
HETATM    3  C2  UNL     1      50.687  19.970  11.873  1.00  0.00     0.098 C 
HETATM    4  N3  UNL     1      51.533  18.857  12.142  1.00  0.00    -0.378 N 
ATOM      5  H3  UNL     1      51.285  17.869  12.094  1.00  0.00     0.160 HD
HETATM    6  C3  UNL     1      52.827  19.421  12.499  1.00  0.00     0.126 C 
HETATM    7  C4  UNL     1      52.896  20.631  11.595  1.00  0.00     0.015 C 
HETATM    8  C5  UNL     1      54.013  21.539  11.845  1.00  0.00     0.007 C 
HETATM    9  C6  UNL     1      53.771  22.743  12.668  1.00  0.00     0.000 C 
HETATM   10  C7  UNL     1      52.353  23.252  12.647  1.00  0.00     0.001 C 
HETATM   11  C8  UNL     1      51.469  22.049  12.977  1.00  0.00     0.013 C 
HETATM   12  C9  UNL     1      51.518  21.209  11.730  1.00  0.00     0.060 C 
ENDROOT
BRANCH   1  13
HETATM   13  N1  UNL     1      48.583  20.969  11.510  1.00  0.00    -0.205 N 
HETATM   14  C1  UNL     1      47.301  21.022  12.180  1.00  0.00     0.207 C 
BRANCH  13  15
HETATM   15  O1  UNL     1      48.921  21.972  10.655  1.00  0.00    -0.273 OA
ATOM     16  H1  UNL     1      49.419  21.761   9.873  1.00  0.00     0.246 HD
ENDBRANCH  13  15
ENDBRANCH   1  13
TORSDOF 2
ENDMDL
MODEL 4
REMARK VINA RESULT: -5.647130206      1.943      2.601
REMARK  2 active torsions:
REMARK  status: ('A' for Active; 'I' for Inactive)
REMARK    1  A    between atoms: N1_2  and  O1_3 
REMARK    2  A    between atoms: N1_2  and  N2_5 
ROOT
HETATM    1  N2  UNL     1      50.255  20.846  12.466  1.00  0.00    -0.268 N 
ATOM      2  H2  UNL     1      49.557  20.175  12.787  1.00  0.00     0.190 HD
HETATM    3  C2  UNL     1      51.432  20.416  12.231  1.00  0.00     0.098 C 
HETATM    4  N3  UNL     1      51.824  19.056  12.388  1.00  0.00    -0.378 N 
ATOM      5  H3  UNL     1      51.212  18.249  12.506  1.00  0.00     0.160 HD
HETATM    6  C3  UNL     1      53.279  19.056  12.346  1.00  0.00     0.126 C 
HETATM    7  C4  UNL     1      53.558  20.146  11.336  1.00  0.00     0.015 C 
HETATM    8  C5  UNL     1      54.961  20.533  11.201  1.00  0.00     0.007 C 
HETATM    9  C6  UNL     1      55.436  21.727  11.931  1.00  0.00     0.000 C 
HETATM   10  C7  UNL     1      54.376  22.758  12.219  1.00  0.00     0.001 C 
HETATM   11  C8  UNL     1      53.223  22.004  12.883  1.00  0.00     0.013 C 
HETATM   12  C9  UNL     1      52.603  21.223  11.757  1.00  0.00     0.060 C 
ENDROOT
BRANCH   1  13
HETATM   13  N1  UNL     1      49.862  22.173  12.314  1.00  0.00    -0.205 N 
HETATM   14  C1  UNL     1      49.000  22.506  11.201  1.00  0.00     0.207 C 
BRANCH  13  15
HETATM   15  O1  UNL     1      50.253  23.160  13.165  1.00  0.00    -0.273 OA
ATOM     16  H1  UNL     1      49.668  23.892  13.320  1.00  0.00     0.246 HD
ENDBRANCH  13  15
ENDBRANCH   1  13
TORSDOF 2
ENDMDL
MODEL 5
REMARK VINA RESULT: -5.491041949      2.200      3.911
REMARK  2 active torsions:
REMARK  status: ('A' for Active; 'I' for Inactive)
REMARK    1  A    between atoms: N1_2  and  O1_3 
REMARK    2  A    between atoms: N1_2  and  N2_5 
ROOT
HETATM    1  N2  UNL     1      53.272  22.453  13.602  1.00  0.00    -0.268 N 
ATOM      2  H2  UNL     1      54.290  22.408  13.551  1.00  0.00     0.190 HD
HETATM    3  C2  UNL     1      52.603  21.574  12.964  1.00  0.00     0.098 C 
HETATM    4  N3  UNL     1      53.196  20.537  12.189  1.00  0.00    -0.378 N 
ATOM      5  H3  UNL     1      54.173  20.245  12.198  1.00  0.00     0.160 HD
HETATM    6  C3  UNL     1      52.120  19.982  11.381  1.00  0.00     0.126 C 
HETATM    7  C4  UNL     1      50.944  20.080  12.326  1.00  0.00     0.015 C 
HETATM    8  C5  UNL     1      49.641  19.769  11.741  1.00  0.00     0.007 C 
HETATM    9  C6  UNL     1      48.784  20.888  11.296  1.00  0.00     0.000 C 
HETATM   10  C7  UNL     1      49.015  22.190  12.017  1.00  0.00     0.001 C 
HETATM   11  C8  UNL     1      50.520  22.452  11.943  1.00  0.00     0.013 C 
HETATM   12  C9  UNL     1      51.110  21.455  12.901  1.00  0.00     0.060 C 
ENDROOT
BRANCH   1  13
HETATM   13  N1  UNL     1      52.701  23.469  14.363  1.00  0.00    -0.205 N 
HETATM   14  C1  UNL     1      52.459  23.217  15.768  1.00  0.00     0.207 C 
BRANCH  13  15
HETATM   15  O1  UNL     1      52.365  24.681  13.843  1.00  0.00    -0.273 OA
ATOM     16  H1  UNL     1      53.014  25.165  13.347  1.00  0.00     0.246 HD
ENDBRANCH  13  15
ENDBRANCH   1  13
TORSDOF 2
ENDMDL
