MODEL 1
REMARK VINA RESULT: -7.848845361      0.000      0.000
REMARK  11 active torsions:
REMARK  status: ('A' for Active; 'I' for Inactive)
REMARK    1  A    between atoms: C12_12  and  C13_13 
REMARK    2  A    between atoms: C19_21  and  C20_22 
REMARK    3  A    between atoms: C20_22  and  O3_23 
REMARK    4  A    between atoms: C20_22  and  C21_25 
REMARK    5  A    between atoms: C21_25  and  O4_27 
REMARK    6  A    between atoms: C21_25  and  C23_29 
REMARK    7  A    between atoms: C23_29  and  C25_31 
REMARK    8  A    between atoms: C25_31  and  C26_32 
REMARK    9  A    between atoms: C25_31  and  C27_35 
REMARK   10  A    between atoms: C26_32  and  O5_33 
REMARK   11  A    between atoms: C27_35  and  O6_36 
ROOT
HETATM    1  C1  UNL     1     -19.318 -54.990 -14.719  1.00  0.00     0.012 C 
HETATM    2  C2  UNL     1     -20.340 -54.655 -15.771  1.00  0.00     0.011 C 
HETATM    3  C3  UNL     1     -21.178 -55.793 -16.205  1.00  0.00     0.010 C 
HETATM    4  C4  UNL     1     -22.628 -55.464 -16.516  1.00  0.00     0.039 C 
HETATM    5  C5  UNL     1     -22.944 -54.050 -16.608  1.00  0.00     0.069 C 
HETATM    6  C6  UNL     1     -23.863 -53.859 -17.800  1.00  0.00     0.040 C 
HETATM    7  C7  UNL     1     -24.942 -54.212 -16.771  1.00  0.00     0.016 C 
HETATM    8  C8  UNL     1     -24.042 -53.388 -15.823  1.00  0.00    -0.008 C 
HETATM    9  C9  UNL     1     -24.328 -51.968 -16.196  1.00  0.00     0.019 C 
HETATM   10  C10 UNL     1     -24.173 -53.738 -14.394  1.00  0.00     0.009 C 
HETATM   11  C11 UNL     1     -25.594 -53.499 -14.003  1.00  0.00     0.027 C 
HETATM   12  C12 UNL     1     -26.222 -54.422 -13.055  1.00  0.00     0.049 C 
HETATM   13  C14 UNL     1     -25.858 -55.840 -13.045  1.00  0.00     0.021 C 
HETATM   14  C15 UNL     1     -24.971 -56.082 -11.835  1.00  0.00     0.006 C 
HETATM   15  C16 UNL     1     -24.481 -54.641 -11.576  1.00  0.00    -0.012 C 
HETATM   16  C17 UNL     1     -25.793 -54.001 -11.673  1.00  0.00     0.025 C 
HETATM   17  C18 UNL     1     -23.294 -54.343 -12.266  1.00  0.00     0.017 C 
HETATM   18  C19 UNL     1     -23.103 -53.369 -13.425  1.00  0.00    -0.004 C 
HETATM   19  C28 UNL     1     -21.819 -53.944 -14.047  1.00  0.00     0.044 C 
HETATM   20  C29 UNL     1     -21.262 -53.514 -15.270  1.00  0.00     0.127 C 
HETATM   21  O7  UNL     1     -21.930 -53.162 -16.398  1.00  0.00    -0.374 OA
ENDROOT
BRANCH  18  22
HETATM   22  C20 UNL     1     -22.880 -51.976 -13.141  1.00  0.00     0.161 C 
BRANCH  22  23
HETATM   23  O3  UNL     1     -24.033 -51.142 -13.210  1.00  0.00    -0.392 OA
ATOM     24  H3  UNL     1     -24.351 -50.812 -12.378  1.00  0.00     0.210 HD
ENDBRANCH  22  23
BRANCH  22  25
HETATM   25  C21 UNL     1     -22.216 -51.381 -11.975  1.00  0.00     0.084 C 
HETATM   26  C22 UNL     1     -23.177 -50.345 -11.332  1.00  0.00     0.049 C 
BRANCH  25  27
HETATM   27  O4  UNL     1     -21.669 -52.091 -10.987  1.00  0.00    -0.387 OA
ATOM     28  H4  UNL     1     -21.732 -51.856 -10.068  1.00  0.00     0.210 HD
ENDBRANCH  25  27
BRANCH  25  29
HETATM   29  C23 UNL     1     -21.055 -50.463 -12.442  1.00  0.00     0.026 C 
HETATM   30  C24 UNL     1     -19.838 -51.335 -12.762  1.00  0.00     0.014 C 
BRANCH  29  31
HETATM   31  C25 UNL     1     -20.532 -49.524 -11.440  1.00  0.00     0.039 C 
BRANCH  31  32
HETATM   32  C26 UNL     1     -20.372 -48.088 -11.694  1.00  0.00     0.171 C 
BRANCH  32  33
HETATM   33  O5  UNL     1     -21.509 -47.674 -12.435  1.00  0.00    -0.400 OA
ATOM     34  H5  UNL     1     -21.216 -46.995 -13.031  1.00  0.00     0.209 HD
ENDBRANCH  32  33
ENDBRANCH  31  32
BRANCH  31  35
HETATM   35  C27 UNL     1     -19.042 -49.975 -11.269  1.00  0.00     0.171 C 
BRANCH  35  36
HETATM   36  O6  UNL     1     -18.222 -48.933 -10.964  1.00  0.00    -0.400 OA
ATOM     37  H6  UNL     1     -17.324 -49.093 -11.231  1.00  0.00     0.209 HD
ENDBRANCH  35  36
ENDBRANCH  31  35
ENDBRANCH  29  31
ENDBRANCH  25  29
ENDBRANCH  22  25
ENDBRANCH  18  22
BRANCH  12  38
HETATM   38  C13 UNL     1     -27.705 -54.239 -13.123  1.00  0.00     0.181 C 
HETATM   39  O1  UNL     1     -28.462 -55.014 -13.726  1.00  0.00    -0.647 OA
HETATM   40  O2  UNL     1     -28.214 -53.121 -12.455  1.00  0.00    -0.647 OA
ENDBRANCH  12  38
TORSDOF 11
ENDMDL
MODEL 2
REMARK VINA RESULT: -7.633828751      2.658      5.655
REMARK  11 active torsions:
REMARK  status: ('A' for Active; 'I' for Inactive)
REMARK    1  A    between atoms: C12_12  and  C13_13 
REMARK    2  A    between atoms: C19_21  and  C20_22 
REMARK    3  A    between atoms: C20_22  and  O3_23 
REMARK    4  A    between atoms: C20_22  and  C21_25 
REMARK    5  A    between atoms: C21_25  and  O4_27 
REMARK    6  A    between atoms: C21_25  and  C23_29 
REMARK    7  A    between atoms: C23_29  and  C25_31 
REMARK    8  A    between atoms: C25_31  and  C26_32 
REMARK    9  A    between atoms: C25_31  and  C27_35 
REMARK   10  A    between atoms: C26_32  and  O5_33 
REMARK   11  A    between atoms: C27_35  and  O6_36 
ROOT
HETATM    1  C1  UNL     1     -22.189 -52.599 -17.597  1.00  0.00     0.012 C 
HETATM    2  C2  UNL     1     -22.841 -53.823 -17.015  1.00  0.00     0.011 C 
HETATM    3  C3  UNL     1     -22.448 -55.097 -17.655  1.00  0.00     0.010 C 
HETATM    4  C4  UNL     1     -22.319 -56.290 -16.725  1.00  0.00     0.039 C 
HETATM    5  C5  UNL     1     -22.847 -56.103 -15.386  1.00  0.00     0.069 C 
HETATM    6  C6  UNL     1     -23.596 -57.365 -15.003  1.00  0.00     0.040 C 
HETATM    7  C7  UNL     1     -22.198 -57.825 -14.576  1.00  0.00     0.016 C 
HETATM    8  C8  UNL     1     -22.053 -56.351 -14.134  1.00  0.00    -0.008 C 
HETATM    9  C9  UNL     1     -22.832 -56.279 -12.858  1.00  0.00     0.019 C 
HETATM   10  C10 UNL     1     -20.662 -55.857 -14.091  1.00  0.00     0.009 C 
HETATM   11  C11 UNL     1     -19.915 -56.705 -13.116  1.00  0.00     0.027 C 
HETATM   12  C12 UNL     1     -18.521 -57.044 -13.410  1.00  0.00     0.049 C 
HETATM   13  C14 UNL     1     -18.076 -57.237 -14.792  1.00  0.00     0.021 C 
HETATM   14  C15 UNL     1     -17.281 -56.007 -15.199  1.00  0.00     0.006 C 
HETATM   15  C16 UNL     1     -17.816 -54.994 -14.163  1.00  0.00    -0.012 C 
HETATM   16  C17 UNL     1     -17.680 -55.864 -12.995  1.00  0.00     0.025 C 
HETATM   17  C18 UNL     1     -18.945 -54.297 -14.625  1.00  0.00     0.017 C 
HETATM   18  C19 UNL     1     -20.380 -54.394 -14.114  1.00  0.00    -0.004 C 
HETATM   19  C28 UNL     1     -21.138 -53.885 -15.352  1.00  0.00     0.044 C 
HETATM   20  C29 UNL     1     -22.541 -53.911 -15.496  1.00  0.00     0.127 C 
HETATM   21  O7  UNL     1     -23.391 -54.887 -15.087  1.00  0.00    -0.374 OA
ENDROOT
BRANCH  18  22
HETATM   22  C20 UNL     1     -20.777 -53.597 -12.985  1.00  0.00     0.161 C 
BRANCH  22  23
HETATM   23  O3  UNL     1     -20.235 -53.996 -11.729  1.00  0.00    -0.392 OA
ATOM     24  H3  UNL     1     -19.821 -53.306 -11.223  1.00  0.00     0.210 HD
ENDBRANCH  22  23
BRANCH  22  25
HETATM   25  C21 UNL     1     -20.707 -52.139 -12.830  1.00  0.00     0.084 C 
HETATM   26  C22 UNL     1     -20.266 -51.814 -11.378  1.00  0.00     0.049 C 
BRANCH  25  27
HETATM   27  O4  UNL     1     -20.024 -51.336 -13.648  1.00  0.00    -0.387 OA
ATOM     28  H4  UNL     1     -19.835 -51.541 -14.557  1.00  0.00     0.210 HD
ENDBRANCH  25  27
BRANCH  25  29
HETATM   29  C23 UNL     1     -22.137 -51.538 -12.851  1.00  0.00     0.026 C 
HETATM   30  C24 UNL     1     -22.064 -50.081 -12.384  1.00  0.00     0.014 C 
BRANCH  29  31
HETATM   31  C25 UNL     1     -23.102 -52.135 -11.915  1.00  0.00     0.039 C 
BRANCH  31  32
HETATM   32  C26 UNL     1     -24.348 -52.774 -12.349  1.00  0.00     0.171 C 
BRANCH  32  33
HETATM   33  O5  UNL     1     -24.980 -51.875 -13.246  1.00  0.00    -0.400 OA
ATOM     34  H5  UNL     1     -25.863 -52.199 -13.383  1.00  0.00     0.209 HD
ENDBRANCH  32  33
ENDBRANCH  31  32
BRANCH  31  35
HETATM   35  C27 UNL     1     -23.648 -50.898 -11.125  1.00  0.00     0.171 C 
BRANCH  35  36
HETATM   36  O6  UNL     1     -24.735 -51.210 -10.369  1.00  0.00    -0.400 OA
ATOM     37  H6  UNL     1     -25.399 -51.671 -10.867  1.00  0.00     0.209 HD
ENDBRANCH  35  36
ENDBRANCH  31  35
ENDBRANCH  29  31
ENDBRANCH  25  29
ENDBRANCH  22  25
ENDBRANCH  18  22
BRANCH  12  38
HETATM   38  C13 UNL     1     -18.115 -58.192 -12.541  1.00  0.00     0.181 C 
HETATM   39  O1  UNL     1     -16.960 -58.641 -12.497  1.00  0.00    -0.647 OA
HETATM   40  O2  UNL     1     -19.128 -58.751 -11.755  1.00  0.00    -0.647 OA
ENDBRANCH  12  38
TORSDOF 11
ENDMDL
MODEL 3
REMARK VINA RESULT: -7.537316885      2.404      3.923
REMARK  11 active torsions:
REMARK  status: ('A' for Active; 'I' for Inactive)
REMARK    1  A    between atoms: C12_12  and  C13_13 
REMARK    2  A    between atoms: C19_21  and  C20_22 
REMARK    3  A    between atoms: C20_22  and  O3_23 
REMARK    4  A    between atoms: C20_22  and  C21_25 
REMARK    5  A    between atoms: C21_25  and  O4_27 
REMARK    6  A    between atoms: C21_25  and  C23_29 
REMARK    7  A    between atoms: C23_29  and  C25_31 
REMARK    8  A    between atoms: C25_31  and  C26_32 
REMARK    9  A    between atoms: C25_31  and  C27_35 
REMARK   10  A    between atoms: C26_32  and  O5_33 
REMARK   11  A    between atoms: C27_35  and  O6_36 
ROOT
HETATM    1  C1  UNL     1     -20.910 -56.904 -12.637  1.00  0.00     0.012 C 
HETATM    2  C2  UNL     1     -20.139 -56.516 -13.868  1.00  0.00     0.011 C 
HETATM    3  C3  UNL     1     -20.300 -57.436 -15.015  1.00  0.00     0.010 C 
HETATM    4  C4  UNL     1     -20.330 -56.782 -16.386  1.00  0.00     0.039 C 
HETATM    5  C5  UNL     1     -19.935 -55.386 -16.424  1.00  0.00     0.069 C 
HETATM    6  C6  UNL     1     -19.047 -55.190 -17.638  1.00  0.00     0.040 C 
HETATM    7  C7  UNL     1     -20.396 -55.009 -18.344  1.00  0.00     0.016 C 
HETATM    8  C8  UNL     1     -20.777 -54.297 -17.027  1.00  0.00    -0.008 C 
HETATM    9  C9  UNL     1     -20.113 -52.960 -17.133  1.00  0.00     0.019 C 
HETATM   10  C10 UNL     1     -22.223 -54.298 -16.726  1.00  0.00     0.009 C 
HETATM   11  C11 UNL     1     -22.915 -53.595 -17.846  1.00  0.00     0.027 C 
HETATM   12  C12 UNL     1     -24.222 -54.091 -18.281  1.00  0.00     0.049 C 
HETATM   13  C14 UNL     1     -24.531 -55.521 -18.229  1.00  0.00     0.021 C 
HETATM   14  C15 UNL     1     -25.458 -55.752 -17.046  1.00  0.00     0.006 C 
HETATM   15  C16 UNL     1     -25.149 -54.486 -16.219  1.00  0.00    -0.012 C 
HETATM   16  C17 UNL     1     -25.248 -53.536 -17.327  1.00  0.00     0.025 C 
HETATM   17  C18 UNL     1     -24.097 -54.681 -15.309  1.00  0.00     0.017 C 
HETATM   18  C19 UNL     1     -22.704 -54.056 -15.337  1.00  0.00    -0.004 C 
HETATM   19  C28 UNL     1     -21.935 -55.083 -14.488  1.00  0.00     0.044 C 
HETATM   20  C29 UNL     1     -20.535 -55.085 -14.313  1.00  0.00     0.127 C 
HETATM   21  O7  UNL     1     -19.590 -54.795 -15.243  1.00  0.00    -0.374 OA
ENDROOT
BRANCH  18  22
HETATM   22  C20 UNL     1     -22.508 -52.755 -14.755  1.00  0.00     0.161 C 
BRANCH  22  23
HETATM   23  O3  UNL     1     -23.133 -51.674 -15.442  1.00  0.00    -0.392 OA
ATOM     24  H3  UNL     1     -23.894 -51.300 -15.013  1.00  0.00     0.210 HD
ENDBRANCH  22  23
BRANCH  22  25
HETATM   25  C21 UNL     1     -22.742 -52.333 -13.369  1.00  0.00     0.084 C 
HETATM   26  C22 UNL     1     -24.134 -51.651 -13.286  1.00  0.00     0.049 C 
BRANCH  25  27
HETATM   27  O4  UNL     1     -22.627 -53.144 -12.315  1.00  0.00    -0.387 OA
ATOM     28  H4  UNL     1     -22.796 -52.875 -11.419  1.00  0.00     0.210 HD
ENDBRANCH  25  27
BRANCH  25  29
HETATM   29  C23 UNL     1     -21.806 -51.148 -13.014  1.00  0.00     0.026 C 
HETATM   30  C24 UNL     1     -20.354 -51.627 -13.101  1.00  0.00     0.014 C 
BRANCH  29  31
HETATM   31  C25 UNL     1     -21.902 -50.639 -11.638  1.00  0.00     0.039 C 
BRANCH  31  32
HETATM   32  C26 UNL     1     -22.543 -49.365 -11.299  1.00  0.00     0.171 C 
BRANCH  32  33
HETATM   33  O5  UNL     1     -22.601 -48.604 -12.494  1.00  0.00    -0.400 OA
ATOM     34  H5  UNL     1     -23.444 -48.785 -12.895  1.00  0.00     0.209 HD
ENDBRANCH  32  33
ENDBRANCH  31  32
BRANCH  31  35
HETATM   35  C27 UNL     1     -20.411 -50.346 -11.259  1.00  0.00     0.171 C 
BRANCH  35  36
HETATM   36  O6  UNL     1     -20.243 -49.087 -10.770  1.00  0.00    -0.400 OA
ATOM     37  H6  UNL     1     -20.784 -48.924 -10.007  1.00  0.00     0.209 HD
ENDBRANCH  35  36
ENDBRANCH  31  35
ENDBRANCH  29  31
ENDBRANCH  25  29
ENDBRANCH  22  25
ENDBRANCH  18  22
BRANCH  12  38
HETATM   38  C13 UNL     1     -24.527 -53.516 -19.628  1.00  0.00     0.181 C 
HETATM   39  O1  UNL     1     -23.662 -53.041 -20.380  1.00  0.00    -0.647 OA
HETATM   40  O2  UNL     1     -25.870 -53.540 -20.013  1.00  0.00    -0.647 OA
ENDBRANCH  12  38
TORSDOF 11
ENDMDL
MODEL 4
REMARK VINA RESULT: -7.324681783      2.080      3.446
REMARK  11 active torsions:
REMARK  status: ('A' for Active; 'I' for Inactive)
REMARK    1  A    between atoms: C12_12  and  C13_13 
REMARK    2  A    between atoms: C19_21  and  C20_22 
REMARK    3  A    between atoms: C20_22  and  O3_23 
REMARK    4  A    between atoms: C20_22  and  C21_25 
REMARK    5  A    between atoms: C21_25  and  O4_27 
REMARK    6  A    between atoms: C21_25  and  C23_29 
REMARK    7  A    between atoms: C23_29  and  C25_31 
REMARK    8  A    between atoms: C25_31  and  C26_32 
REMARK    9  A    between atoms: C25_31  and  C27_35 
REMARK   10  A    between atoms: C26_32  and  O5_33 
REMARK   11  A    between atoms: C27_35  and  O6_36 
ROOT
HETATM    1  C1  UNL     1     -17.277 -56.251 -12.922  1.00  0.00     0.012 C 
HETATM    2  C2  UNL     1     -17.500 -55.981 -14.385  1.00  0.00     0.011 C 
HETATM    3  C3  UNL     1     -18.254 -57.032 -15.101  1.00  0.00     0.010 C 
HETATM    4  C4  UNL     1     -19.208 -56.543 -16.177  1.00  0.00     0.039 C 
HETATM    5  C5  UNL     1     -19.070 -55.148 -16.551  1.00  0.00     0.069 C 
HETATM    6  C6  UNL     1     -19.172 -55.062 -18.063  1.00  0.00     0.040 C 
HETATM    7  C7  UNL     1     -20.673 -55.012 -17.757  1.00  0.00     0.016 C 
HETATM    8  C8  UNL     1     -20.208 -54.166 -16.550  1.00  0.00    -0.008 C 
HETATM    9  C9  UNL     1     -19.899 -52.828 -17.144  1.00  0.00     0.019 C 
HETATM   10  C10 UNL     1     -21.130 -54.184 -15.397  1.00  0.00     0.009 C 
HETATM   11  C11 UNL     1     -22.441 -53.640 -15.862  1.00  0.00     0.027 C 
HETATM   12  C12 UNL     1     -23.671 -54.229 -15.329  1.00  0.00     0.049 C 
HETATM   13  C14 UNL     1     -23.730 -55.654 -14.996  1.00  0.00     0.021 C 
HETATM   14  C15 UNL     1     -23.674 -55.780 -13.482  1.00  0.00     0.006 C 
HETATM   15  C16 UNL     1     -23.043 -54.416 -13.129  1.00  0.00    -0.012 C 
HETATM   16  C17 UNL     1     -23.915 -53.605 -13.979  1.00  0.00     0.025 C 
HETATM   17  C18 UNL     1     -21.640 -54.466 -13.088  1.00  0.00     0.017 C 
HETATM   18  C19 UNL     1     -20.649 -53.800 -14.040  1.00  0.00    -0.004 C 
HETATM   19  C28 UNL     1     -19.418 -54.694 -13.811  1.00  0.00     0.044 C 
HETATM   20  C29 UNL     1     -18.230 -54.626 -14.569  1.00  0.00     0.127 C 
HETATM   21  O7  UNL     1     -18.119 -54.412 -15.905  1.00  0.00    -0.374 OA
ENDROOT
BRANCH  18  22
HETATM   22  C20 UNL     1     -20.263 -52.434 -13.805  1.00  0.00     0.161 C 
BRANCH  22  23
HETATM   23  O3  UNL     1     -21.169 -51.447 -14.290  1.00  0.00    -0.392 OA
ATOM     24  H3  UNL     1     -20.790 -50.784 -14.855  1.00  0.00     0.210 HD
ENDBRANCH  22  23
BRANCH  22  25
HETATM   25  C21 UNL     1     -19.868 -51.805 -12.540  1.00  0.00     0.084 C 
HETATM   26  C22 UNL     1     -20.365 -52.692 -11.367  1.00  0.00     0.049 C 
BRANCH  25  27
HETATM   27  O4  UNL     1     -18.620 -51.424 -12.256  1.00  0.00    -0.387 OA
ATOM     28  H4  UNL     1     -18.262 -50.573 -12.481  1.00  0.00     0.210 HD
ENDBRANCH  25  27
BRANCH  25  29
HETATM   29  C23 UNL     1     -20.697 -50.514 -12.312  1.00  0.00     0.026 C 
HETATM   30  C24 UNL     1     -19.783 -49.443 -11.710  1.00  0.00     0.014 C 
BRANCH  29  31
HETATM   31  C25 UNL     1     -21.783 -50.610 -11.326  1.00  0.00     0.039 C 
BRANCH  31  32
HETATM   32  C26 UNL     1     -23.157 -50.981 -11.682  1.00  0.00     0.171 C 
BRANCH  32  33
HETATM   33  O5  UNL     1     -23.472 -50.288 -12.878  1.00  0.00    -0.400 OA
ATOM     34  H5  UNL     1     -22.765 -49.674 -13.035  1.00  0.00     0.209 HD
ENDBRANCH  32  33
ENDBRANCH  31  32
BRANCH  31  35
HETATM   35  C27 UNL     1     -21.975 -49.129 -10.857  1.00  0.00     0.171 C 
BRANCH  35  36
HETATM   36  O6  UNL     1     -23.170 -48.937 -10.234  1.00  0.00    -0.400 OA
ATOM     37  H6  UNL     1     -23.091 -48.974  -9.288  1.00  0.00     0.209 HD
ENDBRANCH  35  36
ENDBRANCH  31  35
ENDBRANCH  29  31
ENDBRANCH  25  29
ENDBRANCH  22  25
ENDBRANCH  18  22
BRANCH  12  38
HETATM   38  C13 UNL     1     -24.812 -53.825 -16.207  1.00  0.00     0.181 C 
HETATM   39  O1  UNL     1     -25.740 -54.588 -16.515  1.00  0.00    -0.647 OA
HETATM   40  O2  UNL     1     -24.786 -52.509 -16.676  1.00  0.00    -0.647 OA
ENDBRANCH  12  38
TORSDOF 11
ENDMDL
MODEL 5
REMARK VINA RESULT: -7.248978514      2.550      4.411
REMARK  11 active torsions:
REMARK  status: ('A' for Active; 'I' for Inactive)
REMARK    1  A    between atoms: C12_12  and  C13_13 
REMARK    2  A    between atoms: C19_21  and  C20_22 
REMARK    3  A    between atoms: C20_22  and  O3_23 
REMARK    4  A    between atoms: C20_22  and  C21_25 
REMARK    5  A    between atoms: C21_25  and  O4_27 
REMARK    6  A    between atoms: C21_25  and  C23_29 
REMARK    7  A    between atoms: C23_29  and  C25_31 
REMARK    8  A    between atoms: C25_31  and  C26_32 
REMARK    9  A    between atoms: C25_31  and  C27_35 
REMARK   10  A    between atoms: C26_32  and  O5_33 
REMARK   11  A    between atoms: C27_35  and  O6_36 
ROOT
HETATM    1  C1  UNL     1     -22.147 -52.415 -17.852  1.00  0.00     0.012 C 
HETATM    2  C2  UNL     1     -23.299 -53.093 -17.162  1.00  0.00     0.011 C 
HETATM    3  C3  UNL     1     -23.606 -54.452 -17.658  1.00  0.00     0.010 C 
HETATM    4  C4  UNL     1     -24.053 -55.452 -16.607  1.00  0.00     0.039 C 
HETATM    5  C5  UNL     1     -24.378 -54.894 -15.308  1.00  0.00     0.069 C 
HETATM    6  C6  UNL     1     -25.640 -55.577 -14.814  1.00  0.00     0.040 C 
HETATM    7  C7  UNL     1     -24.638 -56.620 -14.309  1.00  0.00     0.016 C 
HETATM    8  C8  UNL     1     -23.773 -55.373 -14.018  1.00  0.00    -0.008 C 
HETATM    9  C9  UNL     1     -24.375 -54.797 -12.776  1.00  0.00     0.019 C 
HETATM   10  C10 UNL     1     -22.318 -55.628 -13.993  1.00  0.00     0.009 C 
HETATM   11  C11 UNL     1     -22.056 -56.631 -12.919  1.00  0.00     0.027 C 
HETATM   12  C12 UNL     1     -21.020 -57.640 -13.143  1.00  0.00     0.049 C 
HETATM   13  C14 UNL     1     -20.771 -58.166 -14.487  1.00  0.00     0.021 C 
HETATM   14  C15 UNL     1     -19.486 -57.538 -15.000  1.00  0.00     0.006 C 
HETATM   15  C16 UNL     1     -19.420 -56.293 -14.088  1.00  0.00    -0.012 C 
HETATM   16  C17 UNL     1     -19.695 -56.994 -12.833  1.00  0.00     0.025 C 
HETATM   17  C18 UNL     1     -20.073 -55.181 -14.645  1.00  0.00     0.017 C 
HETATM   18  C19 UNL     1     -21.353 -54.506 -14.161  1.00  0.00    -0.004 C 
HETATM   19  C28 UNL     1     -21.799 -53.817 -15.463  1.00  0.00     0.044 C 
HETATM   20  C29 UNL     1     -23.036 -53.162 -15.636  1.00  0.00     0.127 C 
HETATM   21  O7  UNL     1     -24.243 -53.545 -15.148  1.00  0.00    -0.374 OA
ENDROOT
BRANCH  18  22
HETATM   22  C20 UNL     1     -21.270 -53.506 -13.130  1.00  0.00     0.161 C 
BRANCH  22  23
HETATM   23  O3  UNL     1     -21.104 -54.002 -11.804  1.00  0.00    -0.392 OA
ATOM     24  H3  UNL     1     -21.630 -54.761 -11.581  1.00  0.00     0.210 HD
ENDBRANCH  22  23
BRANCH  22  25
HETATM   25  C21 UNL     1     -20.389 -52.335 -13.066  1.00  0.00     0.084 C 
HETATM   26  C22 UNL     1     -19.134 -52.703 -12.229  1.00  0.00     0.049 C 
BRANCH  25  27
HETATM   27  O4  UNL     1     -19.973 -51.657 -14.138  1.00  0.00    -0.387 OA
ATOM     28  H4  UNL     1     -20.519 -51.053 -14.628  1.00  0.00     0.210 HD
ENDBRANCH  25  27
BRANCH  25  29
HETATM   29  C23 UNL     1     -21.032 -51.239 -12.176  1.00  0.00     0.026 C 
HETATM   30  C24 UNL     1     -22.458 -50.979 -12.670  1.00  0.00     0.014 C 
BRANCH  29  31
HETATM   31  C25 UNL     1     -20.413 -49.907 -12.244  1.00  0.00     0.039 C 
BRANCH  31  32
HETATM   32  C26 UNL     1     -19.533 -49.378 -11.197  1.00  0.00     0.171 C 
BRANCH  32  33
HETATM   33  O5  UNL     1     -18.371 -48.889 -11.846  1.00  0.00    -0.400 OA
ATOM     34  H5  UNL     1     -17.665 -48.926 -11.211  1.00  0.00     0.209 HD
ENDBRANCH  32  33
ENDBRANCH  31  32
BRANCH  31  35
HETATM   35  C27 UNL     1     -21.637 -48.937 -12.137  1.00  0.00     0.171 C 
BRANCH  35  36
HETATM   36  O6  UNL     1     -21.268 -47.630 -12.232  1.00  0.00    -0.400 OA
ATOM     37  H6  UNL     1     -21.877 -47.052 -11.789  1.00  0.00     0.209 HD
ENDBRANCH  35  36
ENDBRANCH  31  35
ENDBRANCH  29  31
ENDBRANCH  25  29
ENDBRANCH  22  25
ENDBRANCH  18  22
BRANCH  12  38
HETATM   38  C13 UNL     1     -21.207 -58.744 -12.151  1.00  0.00     0.181 C 
HETATM   39  O1  UNL     1     -20.309 -59.141 -11.393  1.00  0.00    -0.647 OA
HETATM   40  O2  UNL     1     -22.478 -59.324 -12.115  1.00  0.00    -0.647 OA
ENDBRANCH  12  38
TORSDOF 11
ENDMDL
