MODEL 1
REMARK VINA RESULT: -7.296937279      0.000      0.000
REMARK  10 active torsions:
REMARK  status: ('A' for Active; 'I' for Inactive)
REMARK    1  A    between atoms: C2_2  and  C3_3 
REMARK    2  A    between atoms: C2_2  and  C9_13 
REMARK    3  A    between atoms: C3_3  and  O1_4 
REMARK    4  A    between atoms: C3_3  and  C4_6 
REMARK    5  A    between atoms: C4_6  and  C5_7 
REMARK    6  A    between atoms: C5_7  and  C6_8 
REMARK    7  A    between atoms: C6_8  and  O2_11 
REMARK    8  A    between atoms: C12_16  and  O3_17 
REMARK    9  A    between atoms: C18_24  and  N1_25 
REMARK   10  A    between atoms: N1_25  and  S1_27 
ROOT
HETATM    1  C9  UNL     1     -22.151 -51.676 -12.941  1.00  0.00     0.028 C 
HETATM    2  C10 UNL     1     -22.516 -52.142 -14.377  1.00  0.00     0.013 C 
HETATM    3  C11 UNL     1     -21.092 -52.461 -14.846  1.00  0.00     0.040 C 
HETATM    4  C12 UNL     1     -20.311 -52.813 -13.642  1.00  0.00     0.070 C 
HETATM    5  C13 UNL     1     -19.399 -53.954 -13.699  1.00  0.00     0.025 C 
HETATM    6  C14 UNL     1     -18.814 -54.016 -15.091  1.00  0.00     0.009 C 
HETATM    7  C15 UNL     1     -19.169 -55.240 -15.861  1.00  0.00     0.012 C 
HETATM    8  C16 UNL     1     -18.858 -56.512 -15.113  1.00  0.00    -0.019 C 
HETATM    9  C17 UNL     1     -19.490 -57.652 -15.903  1.00  0.00     0.018 C 
HETATM   10  C18 UNL     1     -17.348 -56.750 -15.107  1.00  0.00     0.104 C 
HETATM   11  C19 UNL     1     -16.876 -56.459 -13.712  1.00  0.00     0.027 C 
HETATM   12  C20 UNL     1     -18.054 -56.873 -12.870  1.00  0.00     0.008 C 
HETATM   13  C21 UNL     1     -19.281 -56.485 -13.705  1.00  0.00     0.000 C 
HETATM   14  C22 UNL     1     -19.936 -55.263 -13.203  1.00  0.00    -0.003 C 
HETATM   15  C23 UNL     1     -21.424 -55.226 -13.389  1.00  0.00     0.006 C 
HETATM   16  C24 UNL     1     -22.032 -54.160 -12.492  1.00  0.00     0.013 C 
HETATM   17  C25 UNL     1     -21.371 -52.837 -12.512  1.00  0.00    -0.005 C 
HETATM   18  C26 UNL     1     -20.541 -52.604 -11.258  1.00  0.00     0.019 C 
ENDROOT
BRANCH   1  19
HETATM   19  C2  UNL     1     -23.232 -51.029 -12.252  1.00  0.00    -0.050 C 
HETATM   20  C1  UNL     1     -22.888 -49.623 -11.828  1.00  0.00     0.046 C 
BRANCH  19  21
HETATM   21  C3  UNL     1     -24.120 -51.778 -11.339  1.00  0.00     0.045 C 
BRANCH  21  22
HETATM   22  O1  UNL     1     -24.679 -51.081 -10.288  1.00  0.00    -0.365 OA
ATOM     23  H1  UNL     1     -25.452 -50.560 -10.474  1.00  0.00     0.217 HD
ENDBRANCH  21  22
BRANCH  21  24
HETATM   24  C4  UNL     1     -25.103 -52.732 -11.906  1.00  0.00     0.067 C 
BRANCH  24  25
HETATM   25  C5  UNL     1     -25.582 -53.857 -11.071  1.00  0.00     0.043 C 
BRANCH  25  26
HETATM   26  C6  UNL     1     -27.088 -53.745 -10.771  1.00  0.00     0.051 C 
HETATM   27  C7  UNL     1     -27.472 -54.814  -9.771  1.00  0.00     0.045 C 
HETATM   28  C8  UNL     1     -27.906 -53.803 -12.017  1.00  0.00     0.045 C 
BRANCH  26  29
HETATM   29  O2  UNL     1     -27.325 -52.513 -10.158  1.00  0.00    -0.391 OA
ATOM     30  H2  UNL     1     -26.602 -52.325  -9.571  1.00  0.00     0.210 HD
ENDBRANCH  26  29
ENDBRANCH  25  26
ENDBRANCH  24  25
ENDBRANCH  21  24
ENDBRANCH  19  21
ENDBRANCH   1  19
BRANCH   4  31
HETATM   31  O3  UNL     1     -19.537 -51.660 -13.330  1.00  0.00    -0.389 OA
ATOM     32  H3  UNL     1     -19.166 -51.823 -12.471  1.00  0.00     0.210 HD
ENDBRANCH   4  31
BRANCH  10  33
HETATM   33  N1  UNL     1     -17.080 -58.126 -15.398  1.00  0.00    -0.295 N 
ATOM     34  H1  UNL     1     -17.592 -58.903 -14.980  1.00  0.00     0.175 HD
BRANCH  33  35
HETATM   35  S1  UNL     1     -15.797 -58.328 -16.532  1.00  0.00     0.204 S 
HETATM   36  O4  UNL     1     -15.768 -57.103 -17.411  1.00  0.00    -0.578 OA
HETATM   37  O5  UNL     1     -16.139 -59.518 -17.403  1.00  0.00    -0.578 OA
HETATM   38  O6  UNL     1     -14.370 -58.549 -15.699  1.00  0.00    -0.578 OA
ENDBRANCH  33  35
ENDBRANCH  10  33
TORSDOF 10
ENDMDL
MODEL 2
REMARK VINA RESULT: -7.208254023      5.322      9.645
REMARK  10 active torsions:
REMARK  status: ('A' for Active; 'I' for Inactive)
REMARK    1  A    between atoms: C2_2  and  C3_3 
REMARK    2  A    between atoms: C2_2  and  C9_13 
REMARK    3  A    between atoms: C3_3  and  O1_4 
REMARK    4  A    between atoms: C3_3  and  C4_6 
REMARK    5  A    between atoms: C4_6  and  C5_7 
REMARK    6  A    between atoms: C5_7  and  C6_8 
REMARK    7  A    between atoms: C6_8  and  O2_11 
REMARK    8  A    between atoms: C12_16  and  O3_17 
REMARK    9  A    between atoms: C18_24  and  N1_25 
REMARK   10  A    between atoms: N1_25  and  S1_27 
ROOT
HETATM    1  C9  UNL     1     -24.623 -53.004 -13.248  1.00  0.00     0.028 C 
HETATM    2  C10 UNL     1     -24.107 -52.890 -11.787  1.00  0.00     0.013 C 
HETATM    3  C11 UNL     1     -25.452 -53.112 -11.086  1.00  0.00     0.040 C 
HETATM    4  C12 UNL     1     -26.280 -53.932 -11.996  1.00  0.00     0.070 C 
HETATM    5  C13 UNL     1     -27.064 -55.033 -11.439  1.00  0.00     0.025 C 
HETATM    6  C14 UNL     1     -27.534 -54.623 -10.063  1.00  0.00     0.009 C 
HETATM    7  C15 UNL     1     -27.000 -55.456  -8.950  1.00  0.00     0.012 C 
HETATM    8  C16 UNL     1     -27.233 -56.931  -9.158  1.00  0.00    -0.019 C 
HETATM    9  C17 UNL     1     -26.431 -57.659  -8.086  1.00  0.00     0.018 C 
HETATM   10  C18 UNL     1     -28.707 -57.258  -8.918  1.00  0.00     0.104 C 
HETATM   11  C19 UNL     1     -29.308 -57.528 -10.267  1.00  0.00     0.027 C 
HETATM   12  C20 UNL     1     -28.161 -58.139 -11.027  1.00  0.00     0.008 C 
HETATM   13  C21 UNL     1     -26.921 -57.390 -10.520  1.00  0.00     0.000 C 
HETATM   14  C22 UNL     1     -26.433 -56.392 -11.491  1.00  0.00    -0.003 C 
HETATM   15  C23 UNL     1     -24.948 -56.188 -11.490  1.00  0.00     0.006 C 
HETATM   16  C24 UNL     1     -24.520 -55.484 -12.767  1.00  0.00     0.013 C 
HETATM   17  C25 UNL     1     -25.310 -54.293 -13.149  1.00  0.00    -0.005 C 
HETATM   18  C26 UNL     1     -26.251 -54.589 -14.308  1.00  0.00     0.019 C 
ENDROOT
BRANCH   1  19
HETATM   19  C2  UNL     1     -23.669 -52.580 -14.233  1.00  0.00    -0.050 C 
HETATM   20  C1  UNL     1     -24.303 -52.314 -15.575  1.00  0.00     0.046 C 
BRANCH  19  21
HETATM   21  C3  UNL     1     -22.299 -53.134 -14.265  1.00  0.00     0.045 C 
BRANCH  21  22
HETATM   22  O1  UNL     1     -22.014 -54.056 -15.250  1.00  0.00    -0.365 OA
ATOM     23  H1  UNL     1     -21.180 -54.508 -15.195  1.00  0.00     0.217 HD
ENDBRANCH  21  22
BRANCH  21  24
HETATM   24  C4  UNL     1     -21.145 -52.226 -14.058  1.00  0.00     0.067 C 
BRANCH  24  25
HETATM   25  C5  UNL     1     -21.304 -51.044 -13.181  1.00  0.00     0.043 C 
BRANCH  25  26
HETATM   26  C6  UNL     1     -20.269 -51.038 -12.040  1.00  0.00     0.051 C 
HETATM   27  C7  UNL     1     -20.446 -52.289 -11.208  1.00  0.00     0.045 C 
HETATM   28  C8  UNL     1     -20.351 -49.790 -11.226  1.00  0.00     0.045 C 
BRANCH  26  29
HETATM   29  O2  UNL     1     -18.992 -51.103 -12.601  1.00  0.00    -0.391 OA
ATOM     30  H2  UNL     1     -18.643 -51.974 -12.455  1.00  0.00     0.210 HD
ENDBRANCH  26  29
ENDBRANCH  25  26
ENDBRANCH  24  25
ENDBRANCH  21  24
ENDBRANCH  19  21
ENDBRANCH   1  19
BRANCH   4  31
HETATM   31  O3  UNL     1     -27.189 -53.027 -12.614  1.00  0.00    -0.389 OA
ATOM     32  H3  UNL     1     -27.610 -53.519 -13.309  1.00  0.00     0.210 HD
ENDBRANCH   4  31
BRANCH  10  33
HETATM   33  N1  UNL     1     -28.810 -58.448  -8.129  1.00  0.00    -0.295 N 
ATOM     34  H1  UNL     1     -28.323 -59.317  -8.350  1.00  0.00     0.175 HD
BRANCH  33  35
HETATM   35  S1  UNL     1     -29.848 -58.255  -6.767  1.00  0.00     0.204 S 
HETATM   36  O4  UNL     1     -31.231 -57.953  -7.287  1.00  0.00    -0.578 OA
HETATM   37  O5  UNL     1     -29.367 -57.047  -5.992  1.00  0.00    -0.578 OA
HETATM   38  O6  UNL     1     -29.802 -59.648  -5.851  1.00  0.00    -0.578 OA
ENDBRANCH  33  35
ENDBRANCH  10  33
TORSDOF 10
ENDMDL
MODEL 3
REMARK VINA RESULT: -7.129790363      6.335      9.914
REMARK  10 active torsions:
REMARK  status: ('A' for Active; 'I' for Inactive)
REMARK    1  A    between atoms: C2_2  and  C3_3 
REMARK    2  A    between atoms: C2_2  and  C9_13 
REMARK    3  A    between atoms: C3_3  and  O1_4 
REMARK    4  A    between atoms: C3_3  and  C4_6 
REMARK    5  A    between atoms: C4_6  and  C5_7 
REMARK    6  A    between atoms: C5_7  and  C6_8 
REMARK    7  A    between atoms: C6_8  and  O2_11 
REMARK    8  A    between atoms: C12_16  and  O3_17 
REMARK    9  A    between atoms: C18_24  and  N1_25 
REMARK   10  A    between atoms: N1_25  and  S1_27 
ROOT
HETATM    1  C9  UNL     1     -25.530 -54.347 -13.150  1.00  0.00     0.028 C 
HETATM    2  C10 UNL     1     -24.826 -55.701 -12.860  1.00  0.00     0.013 C 
HETATM    3  C11 UNL     1     -24.936 -55.656 -11.332  1.00  0.00     0.040 C 
HETATM    4  C12 UNL     1     -26.125 -54.840 -11.011  1.00  0.00     0.070 C 
HETATM    5  C13 UNL     1     -27.031 -55.293  -9.957  1.00  0.00     0.025 C 
HETATM    6  C14 UNL     1     -26.205 -55.976  -8.892  1.00  0.00     0.009 C 
HETATM    7  C15 UNL     1     -26.500 -57.425  -8.710  1.00  0.00     0.012 C 
HETATM    8  C16 UNL     1     -27.966 -57.699  -8.483  1.00  0.00    -0.019 C 
HETATM    9  C17 UNL     1     -28.148 -59.211  -8.560  1.00  0.00     0.018 C 
HETATM   10  C18 UNL     1     -28.356 -57.269  -7.069  1.00  0.00     0.104 C 
HETATM   11  C19 UNL     1     -29.173 -56.018  -7.214  1.00  0.00     0.027 C 
HETATM   12  C20 UNL     1     -29.877 -56.231  -8.528  1.00  0.00     0.008 C 
HETATM   13  C21 UNL     1     -28.851 -56.967  -9.400  1.00  0.00     0.000 C 
HETATM   14  C22 UNL     1     -28.228 -56.080 -10.401  1.00  0.00    -0.003 C 
HETATM   15  C23 UNL     1     -27.861 -56.749 -11.692  1.00  0.00     0.006 C 
HETATM   16  C24 UNL     1     -27.628 -55.704 -12.770  1.00  0.00     0.013 C 
HETATM   17  C25 UNL     1     -26.765 -54.563 -12.395  1.00  0.00    -0.005 C 
HETATM   18  C26 UNL     1     -27.577 -53.299 -12.151  1.00  0.00     0.019 C 
ENDROOT
BRANCH   1  19
HETATM   19  C2  UNL     1     -25.385 -53.898 -14.506  1.00  0.00    -0.050 C 
HETATM   20  C1  UNL     1     -25.619 -55.001 -15.508  1.00  0.00     0.046 C 
BRANCH  19  21
HETATM   21  C3  UNL     1     -24.369 -52.893 -14.879  1.00  0.00     0.045 C 
BRANCH  21  22
HETATM   22  O1  UNL     1     -24.737 -51.935 -15.801  1.00  0.00    -0.365 OA
ATOM     23  H1  UNL     1     -24.953 -51.072 -15.468  1.00  0.00     0.217 HD
ENDBRANCH  21  22
BRANCH  21  24
HETATM   24  C4  UNL     1     -23.522 -52.292 -13.821  1.00  0.00     0.067 C 
BRANCH  24  25
HETATM   25  C5  UNL     1     -24.084 -51.223 -12.965  1.00  0.00     0.043 C 
BRANCH  25  26
HETATM   26  C6  UNL     1     -23.247 -51.013 -11.690  1.00  0.00     0.051 C 
HETATM   27  C7  UNL     1     -22.594 -49.649 -11.748  1.00  0.00     0.045 C 
HETATM   28  C8  UNL     1     -22.261 -52.114 -11.488  1.00  0.00     0.045 C 
BRANCH  26  29
HETATM   29  O2  UNL     1     -24.110 -51.001 -10.592  1.00  0.00    -0.391 OA
ATOM     30  H2  UNL     1     -23.594 -50.878  -9.804  1.00  0.00     0.210 HD
ENDBRANCH  26  29
ENDBRANCH  25  26
ENDBRANCH  24  25
ENDBRANCH  21  24
ENDBRANCH  19  21
ENDBRANCH   1  19
BRANCH   4  31
HETATM   31  O3  UNL     1     -25.628 -53.562 -10.628  1.00  0.00    -0.389 OA
ATOM     32  H3  UNL     1     -26.301 -52.939 -10.872  1.00  0.00     0.210 HD
ENDBRANCH   4  31
BRANCH  10  33
HETATM   33  N1  UNL     1     -29.177 -58.280  -6.472  1.00  0.00    -0.295 N 
ATOM     34  H1  UNL     1     -30.059 -58.601  -6.873  1.00  0.00     0.175 HD
BRANCH  33  35
HETATM   35  S1  UNL     1     -28.516 -58.892  -5.003  1.00  0.00     0.204 S 
HETATM   36  O4  UNL     1     -28.616 -60.396  -5.050  1.00  0.00    -0.578 OA
HETATM   37  O5  UNL     1     -29.390 -58.403  -3.868  1.00  0.00    -0.578 OA
HETATM   38  O6  UNL     1     -26.942 -58.362  -4.857  1.00  0.00    -0.578 OA
ENDBRANCH  33  35
ENDBRANCH  10  33
TORSDOF 10
ENDMDL
MODEL 4
REMARK VINA RESULT: -7.115145541      8.226     12.740
REMARK  10 active torsions:
REMARK  status: ('A' for Active; 'I' for Inactive)
REMARK    1  A    between atoms: C2_2  and  C3_3 
REMARK    2  A    between atoms: C2_2  and  C9_13 
REMARK    3  A    between atoms: C3_3  and  O1_4 
REMARK    4  A    between atoms: C3_3  and  C4_6 
REMARK    5  A    between atoms: C4_6  and  C5_7 
REMARK    6  A    between atoms: C5_7  and  C6_8 
REMARK    7  A    between atoms: C6_8  and  O2_11 
REMARK    8  A    between atoms: C12_16  and  O3_17 
REMARK    9  A    between atoms: C18_24  and  N1_25 
REMARK   10  A    between atoms: N1_25  and  S1_27 
ROOT
HETATM    1  C9  UNL     1     -29.564 -59.870  -3.964  1.00  0.00     0.028 C 
HETATM    2  C10 UNL     1     -30.603 -58.742  -4.206  1.00  0.00     0.013 C 
HETATM    3  C11 UNL     1     -29.620 -57.668  -4.683  1.00  0.00     0.040 C 
HETATM    4  C12 UNL     1     -28.469 -58.375  -5.283  1.00  0.00     0.070 C 
HETATM    5  C13 UNL     1     -27.906 -57.875  -6.536  1.00  0.00     0.025 C 
HETATM    6  C14 UNL     1     -28.017 -56.368  -6.530  1.00  0.00     0.009 C 
HETATM    7  C15 UNL     1     -28.897 -55.806  -7.592  1.00  0.00     0.012 C 
HETATM    8  C16 UNL     1     -28.532 -56.292  -8.973  1.00  0.00    -0.019 C 
HETATM    9  C17 UNL     1     -29.648 -55.840  -9.908  1.00  0.00     0.018 C 
HETATM   10  C18 UNL     1     -27.248 -55.605  -9.437  1.00  0.00     0.104 C 
HETATM   11  C19 UNL     1     -26.164 -56.643  -9.379  1.00  0.00     0.027 C 
HETATM   12  C20 UNL     1     -26.904 -57.914  -9.701  1.00  0.00     0.008 C 
HETATM   13  C21 UNL     1     -28.278 -57.739  -9.039  1.00  0.00     0.000 C 
HETATM   14  C22 UNL     1     -28.404 -58.521  -7.795  1.00  0.00    -0.003 C 
HETATM   15  C23 UNL     1     -29.785 -59.031  -7.510  1.00  0.00     0.006 C 
HETATM   16  C24 UNL     1     -29.725 -60.139  -6.472  1.00  0.00     0.013 C 
HETATM   17  C25 UNL     1     -28.906 -59.862  -5.271  1.00  0.00    -0.005 C 
HETATM   18  C26 UNL     1     -27.581 -60.609  -5.309  1.00  0.00     0.019 C 
ENDROOT
BRANCH   1  19
HETATM   19  C2  UNL     1     -30.088 -60.994  -3.241  1.00  0.00    -0.050 C 
HETATM   20  C1  UNL     1     -31.534 -60.810  -2.856  1.00  0.00     0.046 C 
BRANCH  19  21
HETATM   21  C3  UNL     1     -29.255 -61.745  -2.278  1.00  0.00     0.045 C 
BRANCH  21  22
HETATM   22  O1  UNL     1     -28.778 -62.975  -2.683  1.00  0.00    -0.365 OA
ATOM     23  H1  UNL     1     -28.230 -63.451  -2.070  1.00  0.00     0.217 HD
ENDBRANCH  21  22
BRANCH  21  24
HETATM   24  C4  UNL     1     -28.224 -61.024  -1.494  1.00  0.00     0.067 C 
BRANCH  24  25
HETATM   25  C5  UNL     1     -28.618 -60.334  -0.245  1.00  0.00     0.043 C 
BRANCH  25  26
HETATM   26  C6  UNL     1     -28.475 -58.805  -0.368  1.00  0.00     0.051 C 
HETATM   27  C7  UNL     1     -27.825 -58.269   0.889  1.00  0.00     0.045 C 
HETATM   28  C8  UNL     1     -29.782 -58.150  -0.663  1.00  0.00     0.045 C 
BRANCH  26  29
HETATM   29  O2  UNL     1     -27.605 -58.526  -1.424  1.00  0.00    -0.391 OA
ATOM     30  H2  UNL     1     -28.109 -58.158  -2.140  1.00  0.00     0.210 HD
ENDBRANCH  26  29
ENDBRANCH  25  26
ENDBRANCH  24  25
ENDBRANCH  21  24
ENDBRANCH  19  21
ENDBRANCH   1  19
BRANCH   4  31
HETATM   31  O3  UNL     1     -27.437 -58.338  -4.304  1.00  0.00    -0.389 OA
ATOM     32  H3  UNL     1     -26.796 -58.983  -4.579  1.00  0.00     0.210 HD
ENDBRANCH   4  31
BRANCH  10  33
HETATM   33  N1  UNL     1     -27.398 -55.181 -10.797  1.00  0.00    -0.295 N 
ATOM     34  H1  UNL     1     -27.793 -55.768 -11.531  1.00  0.00     0.175 HD
BRANCH  33  35
HETATM   35  S1  UNL     1     -26.837 -53.572 -11.058  1.00  0.00     0.204 S 
HETATM   36  O4  UNL     1     -25.380 -53.529 -10.673  1.00  0.00    -0.578 OA
HETATM   37  O5  UNL     1     -27.595 -52.664 -10.114  1.00  0.00    -0.578 OA
HETATM   38  O6  UNL     1     -27.087 -53.166 -12.655  1.00  0.00    -0.578 OA
ENDBRANCH  33  35
ENDBRANCH  10  33
TORSDOF 10
ENDMDL
MODEL 5
REMARK VINA RESULT: -7.108160897      8.462     11.986
REMARK  10 active torsions:
REMARK  status: ('A' for Active; 'I' for Inactive)
REMARK    1  A    between atoms: C2_2  and  C3_3 
REMARK    2  A    between atoms: C2_2  and  C9_13 
REMARK    3  A    between atoms: C3_3  and  O1_4 
REMARK    4  A    between atoms: C3_3  and  C4_6 
REMARK    5  A    between atoms: C4_6  and  C5_7 
REMARK    6  A    between atoms: C5_7  and  C6_8 
REMARK    7  A    between atoms: C6_8  and  O2_11 
REMARK    8  A    between atoms: C12_16  and  O3_17 
REMARK    9  A    between atoms: C18_24  and  N1_25 
REMARK   10  A    between atoms: N1_25  and  S1_27 
ROOT
HETATM    1  C9  UNL     1     -27.726 -55.668 -10.451  1.00  0.00     0.028 C 
HETATM    2  C10 UNL     1     -26.353 -56.082  -9.853  1.00  0.00     0.013 C 
HETATM    3  C11 UNL     1     -26.721 -55.909  -8.376  1.00  0.00     0.040 C 
HETATM    4  C12 UNL     1     -28.180 -56.124  -8.269  1.00  0.00     0.070 C 
HETATM    5  C13 UNL     1     -28.698 -56.925  -7.162  1.00  0.00     0.025 C 
HETATM    6  C14 UNL     1     -27.825 -56.673  -5.954  1.00  0.00     0.009 C 
HETATM    7  C15 UNL     1     -27.083 -57.867  -5.463  1.00  0.00     0.012 C 
HETATM    8  C16 UNL     1     -27.982 -59.052  -5.212  1.00  0.00    -0.019 C 
HETATM    9  C17 UNL     1     -27.072 -60.248  -4.958  1.00  0.00     0.018 C 
HETATM   10  C18 UNL     1     -28.794 -58.822  -3.937  1.00  0.00     0.104 C 
HETATM   11  C19 UNL     1     -30.202 -58.538  -4.374  1.00  0.00     0.027 C 
HETATM   12  C20 UNL     1     -30.336 -59.368  -5.623  1.00  0.00     0.008 C 
HETATM   13  C21 UNL     1     -28.955 -59.290  -6.289  1.00  0.00     0.000 C 
HETATM   14  C22 UNL     1     -28.943 -58.377  -7.447  1.00  0.00    -0.003 C 
HETATM   15  C23 UNL     1     -28.007 -58.772  -8.549  1.00  0.00     0.006 C 
HETATM   16  C24 UNL     1     -28.366 -58.032  -9.826  1.00  0.00     0.013 C 
HETATM   17  C25 UNL     1     -28.589 -56.576  -9.694  1.00  0.00    -0.005 C 
HETATM   18  C26 UNL     1     -30.069 -56.224  -9.753  1.00  0.00     0.019 C 
ENDROOT
BRANCH   1  19
HETATM   19  C2  UNL     1     -27.696 -55.447 -11.869  1.00  0.00    -0.050 C 
HETATM   20  C1  UNL     1     -26.499 -56.084 -12.529  1.00  0.00     0.046 C 
BRANCH  19  21
HETATM   21  C3  UNL     1     -28.154 -54.171 -12.457  1.00  0.00     0.045 C 
BRANCH  21  22
HETATM   22  O1  UNL     1     -27.208 -53.184 -12.639  1.00  0.00    -0.365 OA
ATOM     23  H1  UNL     1     -27.272 -52.662 -13.430  1.00  0.00     0.217 HD
ENDBRANCH  21  22
BRANCH  21  24
HETATM   24  C4  UNL     1     -29.099 -54.198 -13.600  1.00  0.00     0.067 C 
BRANCH  24  25
HETATM   25  C5  UNL     1     -30.469 -54.717 -13.392  1.00  0.00     0.043 C 
BRANCH  25  26
HETATM   26  C6  UNL     1     -30.722 -56.002 -14.203  1.00  0.00     0.051 C 
HETATM   27  C7  UNL     1     -31.039 -57.132 -13.247  1.00  0.00     0.045 C 
HETATM   28  C8  UNL     1     -29.580 -56.318 -15.109  1.00  0.00     0.045 C 
BRANCH  26  29
HETATM   29  O2  UNL     1     -31.858 -55.810 -14.992  1.00  0.00    -0.391 OA
ATOM     30  H2  UNL     1     -31.651 -55.173 -15.666  1.00  0.00     0.210 HD
ENDBRANCH  26  29
ENDBRANCH  25  26
ENDBRANCH  24  25
ENDBRANCH  21  24
ENDBRANCH  19  21
ENDBRANCH   1  19
BRANCH   4  31
HETATM   31  O3  UNL     1     -28.757 -54.827  -8.167  1.00  0.00    -0.389 OA
ATOM     32  H3  UNL     1     -29.056 -54.608  -9.042  1.00  0.00     0.210 HD
ENDBRANCH   4  31
BRANCH  10  33
HETATM   33  N1  UNL     1     -28.795 -60.019  -3.150  1.00  0.00    -0.295 N 
ATOM     34  H1  UNL     1     -28.968 -60.948  -3.535  1.00  0.00     0.175 HD
BRANCH  33  35
HETATM   35  S1  UNL     1     -28.475 -59.719  -1.483  1.00  0.00     0.204 S 
HETATM   36  O4  UNL     1     -27.488 -58.582  -1.407  1.00  0.00    -0.578 OA
HETATM   37  O5  UNL     1     -27.809 -60.953  -0.915  1.00  0.00    -0.578 OA
HETATM   38  O6  UNL     1     -29.911 -59.369  -0.712  1.00  0.00    -0.578 OA
ENDBRANCH  33  35
ENDBRANCH  10  33
TORSDOF 10
ENDMDL
