MODEL 1
REMARK VINA RESULT: -7.680742458      0.000      0.000
REMARK  16 active torsions:
REMARK  status: ('A' for Active; 'I' for Inactive)
REMARK    1  A    between atoms: C3_3  and  C4_4 
REMARK    2  A    between atoms: C4_4  and  C5_5 
REMARK    3  A    between atoms: C5_5  and  C6_6 
REMARK    4  A    between atoms: C6_6  and  C7_7 
REMARK    5  A    between atoms: C7_7  and  C8_8 
REMARK    6  A    between atoms: C8_8  and  C9_9 
REMARK    7  A    between atoms: C8_8  and  N5_31 
REMARK    8  A    between atoms: C9_9  and  N1_10 
REMARK    9  A    between atoms: N4_16  and  C11_18 
REMARK   10  A    between atoms: C14_21  and  C15_22 
REMARK   11  A    between atoms: C15_22  and  O1_25 
REMARK   12  A    between atoms: N5_31  and  C21_33 
REMARK   13  A    between atoms: C21_33  and  C22_34 
REMARK   14  A    between atoms: C24_36  and  O3_37 
REMARK   15  A    between atoms: C26_39  and  O4_40 
REMARK   16  A    between atoms: C28_42  and  O5_43 
ROOT
HETATM    1  C1  UNL     1      20.621  12.171  45.381  1.00  0.00     0.112 C 
HETATM    2  C2  UNL     1      20.138  11.808  46.710  1.00  0.00    -0.106 C 
HETATM    3  C3  UNL     1      19.734  11.531  47.813  1.00  0.00    -0.078 C 
ENDROOT
BRANCH   3   4
HETATM    4  C4  UNL     1      19.252  11.240  49.101  1.00  0.00     0.073 C 
BRANCH   4   5
HETATM    5  C5  UNL     1      20.060  10.813  50.077  1.00  0.00     0.073 C 
BRANCH   5   6
HETATM    6  C6  UNL     1      20.991  11.765  50.672  1.00  0.00    -0.071 C 
BRANCH   6   7
HETATM    7  C7  UNL     1      21.773  12.564  51.112  1.00  0.00    -0.043 C 
BRANCH   7   8
HETATM    8  C8  UNL     1      22.667  13.582  51.648  1.00  0.00     0.104 C 
BRANCH   8   9
HETATM    9  C9  UNL     1      24.066  13.264  51.830  1.00  0.00     0.160 C 
BRANCH   9  10
HETATM   10  N1  UNL     1      24.570  12.354  52.791  1.00  0.00    -0.211 N 
HETATM   11  N2  UNL     1      24.770  12.715  54.083  1.00  0.00    -0.232 N 
HETATM   12  N3  UNL     1      25.353  11.731  54.740  1.00  0.00    -0.266 N 
ATOM     13  H2  UNL     1      24.509  13.615  54.487  1.00  0.00     0.209 HD
HETATM   14  C10 UNL     1      25.561  10.701  53.936  1.00  0.00     0.189 A 
ATOM     15  H3  UNL     1      25.608  11.761  55.728  1.00  0.00     0.190 HD
HETATM   16  N4  UNL     1      26.160   9.597  54.065  1.00  0.00    -0.366 N 
HETATM   17  C20 UNL     1      25.051  11.109  52.687  1.00  0.00     0.312 A 
ATOM     18  H4  UNL     1      26.136   9.000  53.238  1.00  0.00     0.161 HD
HETATM   19  O2  UNL     1      25.073  10.382  51.681  1.00  0.00    -0.262 OA
BRANCH  16  20
HETATM   20  C11 UNL     1      26.857   9.054  55.165  1.00  0.00     0.083 C 
HETATM   21  C12 UNL     1      26.179   7.934  55.863  1.00  0.00     0.026 C 
HETATM   22  C13 UNL     1      26.857   6.612  55.863  1.00  0.00     0.009 C 
HETATM   23  C14 UNL     1      28.319   6.556  56.078  1.00  0.00     0.019 C 
HETATM   24  C18 UNL     1      28.967   7.882  55.789  1.00  0.00     0.009 C 
HETATM   25  C19 UNL     1      28.224   8.547  54.654  1.00  0.00     0.026 C 
BRANCH  23  26
HETATM   26  C15 UNL     1      28.760   6.015  57.421  1.00  0.00     0.054 C 
HETATM   27  C16 UNL     1      27.775   5.045  58.011  1.00  0.00     0.045 C 
HETATM   28  C17 UNL     1      29.109   7.094  58.411  1.00  0.00     0.045 C 
BRANCH  26  29
HETATM   29  O1  UNL     1      29.955   5.267  57.239  1.00  0.00    -0.390 OA
ATOM     30  H1  UNL     1      30.675   5.874  57.110  1.00  0.00     0.210 HD
ENDBRANCH  26  29
ENDBRANCH  23  26
ENDBRANCH  16  20
ENDBRANCH   9  10
ENDBRANCH   8   9
BRANCH   8  31
HETATM   31  N5  UNL     1      22.191  14.874  51.418  1.00  0.00    -0.357 N 
ATOM     32  H5  UNL     1      21.959  15.163  50.468  1.00  0.00     0.166 HD
BRANCH  31  33
HETATM   33  C21 UNL     1      22.028  15.780  52.477  1.00  0.00     0.100 C 
BRANCH  33  34
HETATM   34  C22 UNL     1      20.641  15.790  52.998  1.00  0.00    -0.015 A 
HETATM   35  C23 UNL     1      20.183  14.767  53.774  1.00  0.00     0.052 A 
HETATM   36  C24 UNL     1      18.927  14.868  54.374  1.00  0.00     0.105 A 
HETATM   37  C26 UNL     1      18.181  16.013  54.158  1.00  0.00     0.135 A 
HETATM   38  C28 UNL     1      18.623  17.045  53.381  1.00  0.00     0.105 A 
HETATM   39  C30 UNL     1      19.878  16.904  52.804  1.00  0.00     0.052 A 
BRANCH  36  40
HETATM   40  O3  UNL     1      18.419  13.877  55.164  1.00  0.00    -0.353 OA
HETATM   41  C25 UNL     1      17.929  12.658  54.697  1.00  0.00     0.210 C 
ENDBRANCH  36  40
BRANCH  37  42
HETATM   42  O4  UNL     1      16.926  16.077  54.786  1.00  0.00    -0.351 OA
HETATM   43  C27 UNL     1      16.945  16.739  56.061  1.00  0.00     0.210 C 
ENDBRANCH  37  42
BRANCH  38  44
HETATM   44  O5  UNL     1      17.854  18.169  53.191  1.00  0.00    -0.353 OA
HETATM   45  C29 UNL     1      16.890  18.268  52.157  1.00  0.00     0.210 C 
ENDBRANCH  38  44
ENDBRANCH  33  34
ENDBRANCH  31  33
ENDBRANCH   8  31
ENDBRANCH   7   8
ENDBRANCH   6   7
ENDBRANCH   5   6
ENDBRANCH   4   5
ENDBRANCH   3   4
TORSDOF 16
ENDMDL
MODEL 2
REMARK VINA RESULT: -7.572546392      1.273      2.409
REMARK  16 active torsions:
REMARK  status: ('A' for Active; 'I' for Inactive)
REMARK    1  A    between atoms: C3_3  and  C4_4 
REMARK    2  A    between atoms: C4_4  and  C5_5 
REMARK    3  A    between atoms: C5_5  and  C6_6 
REMARK    4  A    between atoms: C6_6  and  C7_7 
REMARK    5  A    between atoms: C7_7  and  C8_8 
REMARK    6  A    between atoms: C8_8  and  C9_9 
REMARK    7  A    between atoms: C8_8  and  N5_31 
REMARK    8  A    between atoms: C9_9  and  N1_10 
REMARK    9  A    between atoms: N4_16  and  C11_18 
REMARK   10  A    between atoms: C14_21  and  C15_22 
REMARK   11  A    between atoms: C15_22  and  O1_25 
REMARK   12  A    between atoms: N5_31  and  C21_33 
REMARK   13  A    between atoms: C21_33  and  C22_34 
REMARK   14  A    between atoms: C24_36  and  O3_37 
REMARK   15  A    between atoms: C26_39  and  O4_40 
REMARK   16  A    between atoms: C28_42  and  O5_43 
ROOT
HETATM    1  C1  UNL     1      20.605  12.165  45.481  1.00  0.00     0.112 C 
HETATM    2  C2  UNL     1      20.214  11.779  46.833  1.00  0.00    -0.106 C 
HETATM    3  C3  UNL     1      19.871  11.452  47.943  1.00  0.00    -0.078 C 
ENDROOT
BRANCH   3   4
HETATM    4  C4  UNL     1      19.443  11.057  49.222  1.00  0.00     0.073 C 
BRANCH   4   5
HETATM    5  C5  UNL     1      19.420  11.908  50.253  1.00  0.00     0.073 C 
BRANCH   5   6
HETATM    6  C6  UNL     1      20.667  12.555  50.646  1.00  0.00    -0.071 C 
BRANCH   6   7
HETATM    7  C7  UNL     1      21.664  13.130  50.988  1.00  0.00    -0.043 C 
BRANCH   7   8
HETATM    8  C8  UNL     1      22.868  13.794  51.471  1.00  0.00     0.104 C 
BRANCH   8   9
HETATM    9  C9  UNL     1      24.135  13.100  51.388  1.00  0.00     0.160 C 
BRANCH   9  10
HETATM   10  N1  UNL     1      24.735  12.382  52.450  1.00  0.00    -0.211 N 
HETATM   11  N2  UNL     1      25.007  12.966  53.644  1.00  0.00    -0.232 N 
HETATM   12  N3  UNL     1      25.668  12.125  54.416  1.00  0.00    -0.266 N 
ATOM     13  H2  UNL     1      24.740  13.915  53.907  1.00  0.00     0.209 HD
HETATM   14  C10 UNL     1      25.860  10.977  53.787  1.00  0.00     0.189 A 
ATOM     15  H3  UNL     1      25.986  12.331  55.363  1.00  0.00     0.190 HD
HETATM   16  N4  UNL     1      26.506   9.927  54.058  1.00  0.00    -0.366 N 
HETATM   17  C20 UNL     1      25.253  11.150  52.526  1.00  0.00     0.312 A 
ATOM     18  H4  UNL     1      26.449   9.196  53.349  1.00  0.00     0.161 HD
HETATM   19  O2  UNL     1      25.234  10.262  51.660  1.00  0.00    -0.262 OA
BRANCH  16  20
HETATM   20  C11 UNL     1      27.294   9.600  55.182  1.00  0.00     0.083 C 
HETATM   21  C12 UNL     1      27.490   8.149  55.426  1.00  0.00     0.026 C 
HETATM   22  C13 UNL     1      28.877   7.622  55.359  1.00  0.00     0.009 C 
HETATM   23  C14 UNL     1      29.974   8.408  55.962  1.00  0.00     0.019 C 
HETATM   24  C18 UNL     1      29.585   9.850  56.134  1.00  0.00     0.009 C 
HETATM   25  C19 UNL     1      28.683  10.248  54.989  1.00  0.00     0.026 C 
BRANCH  23  26
HETATM   26  C15 UNL     1      30.553   7.843  57.243  1.00  0.00     0.054 C 
HETATM   27  C16 UNL     1      29.751   8.212  58.457  1.00  0.00     0.045 C 
HETATM   28  C17 UNL     1      32.008   8.179  57.436  1.00  0.00     0.045 C 
BRANCH  26  29
HETATM   29  O1  UNL     1      30.498   6.424  57.177  1.00  0.00    -0.390 OA
ATOM     30  H1  UNL     1      31.064   6.068  57.853  1.00  0.00     0.210 HD
ENDBRANCH  26  29
ENDBRANCH  23  26
ENDBRANCH  16  20
ENDBRANCH   9  10
ENDBRANCH   8   9
BRANCH   8  31
HETATM   31  N5  UNL     1      22.746  15.185  51.454  1.00  0.00    -0.357 N 
ATOM     32  H5  UNL     1      22.511  15.658  50.582  1.00  0.00     0.166 HD
BRANCH  31  33
HETATM   33  C21 UNL     1      22.943  15.939  52.620  1.00  0.00     0.100 C 
BRANCH  33  34
HETATM   34  C22 UNL     1      21.699  16.084  53.412  1.00  0.00    -0.015 A 
HETATM   35  C23 UNL     1      20.755  17.002  53.061  1.00  0.00     0.052 A 
HETATM   36  C24 UNL     1      19.531  17.019  53.731  1.00  0.00     0.105 A 
HETATM   37  C26 UNL     1      19.315  16.097  54.738  1.00  0.00     0.135 A 
HETATM   38  C28 UNL     1      20.251  15.172  55.105  1.00  0.00     0.105 A 
HETATM   39  C30 UNL     1      21.454  15.189  54.413  1.00  0.00     0.052 A 
BRANCH  36  40
HETATM   40  O3  UNL     1      18.547  17.914  53.420  1.00  0.00    -0.353 OA
HETATM   41  C25 UNL     1      17.825  17.922  52.228  1.00  0.00     0.210 C 
ENDBRANCH  36  40
BRANCH  37  42
HETATM   42  O4  UNL     1      18.067  16.144  55.382  1.00  0.00    -0.351 OA
HETATM   43  C27 UNL     1      17.089  15.250  54.826  1.00  0.00     0.210 C 
ENDBRANCH  37  42
BRANCH  38  44
HETATM   44  O5  UNL     1      19.999  14.269  56.111  1.00  0.00    -0.353 OA
HETATM   45  C29 UNL     1      20.260  14.552  57.474  1.00  0.00     0.210 C 
ENDBRANCH  38  44
ENDBRANCH  33  34
ENDBRANCH  31  33
ENDBRANCH   8  31
ENDBRANCH   7   8
ENDBRANCH   6   7
ENDBRANCH   5   6
ENDBRANCH   4   5
ENDBRANCH   3   4
TORSDOF 16
ENDMDL
MODEL 3
REMARK VINA RESULT: -7.303952146      3.369      4.349
REMARK  16 active torsions:
REMARK  status: ('A' for Active; 'I' for Inactive)
REMARK    1  A    between atoms: C3_3  and  C4_4 
REMARK    2  A    between atoms: C4_4  and  C5_5 
REMARK    3  A    between atoms: C5_5  and  C6_6 
REMARK    4  A    between atoms: C6_6  and  C7_7 
REMARK    5  A    between atoms: C7_7  and  C8_8 
REMARK    6  A    between atoms: C8_8  and  C9_9 
REMARK    7  A    between atoms: C8_8  and  N5_31 
REMARK    8  A    between atoms: C9_9  and  N1_10 
REMARK    9  A    between atoms: N4_16  and  C11_18 
REMARK   10  A    between atoms: C14_21  and  C15_22 
REMARK   11  A    between atoms: C15_22  and  O1_25 
REMARK   12  A    between atoms: N5_31  and  C21_33 
REMARK   13  A    between atoms: C21_33  and  C22_34 
REMARK   14  A    between atoms: C24_36  and  O3_37 
REMARK   15  A    between atoms: C26_39  and  O4_40 
REMARK   16  A    between atoms: C28_42  and  O5_43 
ROOT
HETATM    1  C1  UNL     1      20.682  12.133  45.105  1.00  0.00     0.112 C 
HETATM    2  C2  UNL     1      19.890  11.844  46.296  1.00  0.00    -0.106 C 
HETATM    3  C3  UNL     1      19.230  11.629  47.283  1.00  0.00    -0.078 C 
ENDROOT
BRANCH   3   4
HETATM    4  C4  UNL     1      18.455  11.410  48.435  1.00  0.00     0.073 C 
BRANCH   4   5
HETATM    5  C5  UNL     1      18.882  10.634  49.437  1.00  0.00     0.073 C 
BRANCH   5   6
HETATM    6  C6  UNL     1      20.095  11.024  50.147  1.00  0.00    -0.071 C 
BRANCH   6   7
HETATM    7  C7  UNL     1      21.065  11.386  50.757  1.00  0.00    -0.043 C 
BRANCH   7   8
HETATM    8  C8  UNL     1      22.205  11.807  51.559  1.00  0.00     0.104 C 
BRANCH   8   9
HETATM    9  C9  UNL     1      23.542  11.510  51.092  1.00  0.00     0.160 C 
BRANCH   9  10
HETATM   10  N1  UNL     1      24.718  11.648  51.867  1.00  0.00    -0.211 N 
HETATM   11  N2  UNL     1      25.473  10.577  52.219  1.00  0.00    -0.232 N 
HETATM   12  N3  UNL     1      26.440  10.956  53.033  1.00  0.00    -0.266 N 
ATOM     13  H2  UNL     1      25.317   9.620  51.902  1.00  0.00     0.209 HD
HETATM   14  C10 UNL     1      26.372  12.259  53.252  1.00  0.00     0.189 A 
ATOM     15  H3  UNL     1      27.140  10.333  53.436  1.00  0.00     0.190 HD
HETATM   16  N4  UNL     1      26.993  13.053  54.013  1.00  0.00    -0.366 N 
HETATM   17  C20 UNL     1      25.266  12.696  52.496  1.00  0.00     0.312 A 
ATOM     18  H4  UNL     1      26.703  14.028  53.941  1.00  0.00     0.161 HD
HETATM   19  O2  UNL     1      24.902  13.882  52.457  1.00  0.00    -0.262 OA
BRANCH  16  20
HETATM   20  C11 UNL     1      28.023  12.810  54.948  1.00  0.00     0.083 C 
HETATM   21  C12 UNL     1      29.405  12.925  54.421  1.00  0.00     0.026 C 
HETATM   22  C13 UNL     1      30.278  13.975  55.004  1.00  0.00     0.009 C 
HETATM   23  C14 UNL     1      30.254  14.198  56.465  1.00  0.00     0.019 C 
HETATM   24  C18 UNL     1      28.996  13.652  57.083  1.00  0.00     0.009 C 
HETATM   25  C19 UNL     1      27.861  13.825  56.101  1.00  0.00     0.026 C 
BRANCH  23  26
HETATM   26  C15 UNL     1      31.481  13.726  57.218  1.00  0.00     0.054 C 
HETATM   27  C16 UNL     1      31.479  12.245  57.464  1.00  0.00     0.045 C 
HETATM   28  C17 UNL     1      31.722  14.484  58.496  1.00  0.00     0.045 C 
BRANCH  26  29
HETATM   29  O1  UNL     1      32.627  13.969  56.413  1.00  0.00    -0.390 OA
ATOM     30  H1  UNL     1      33.402  13.743  56.915  1.00  0.00     0.210 HD
ENDBRANCH  26  29
ENDBRANCH  23  26
ENDBRANCH  16  20
ENDBRANCH   9  10
ENDBRANCH   8   9
BRANCH   8  31
HETATM   31  N5  UNL     1      21.898  12.890  52.385  1.00  0.00    -0.357 N 
ATOM     32  H5  UNL     1      22.503  13.711  52.383  1.00  0.00     0.166 HD
BRANCH  31  33
HETATM   33  C21 UNL     1      20.768  12.864  53.216  1.00  0.00     0.100 C 
BRANCH  33  34
HETATM   34  C22 UNL     1      20.197  14.214  53.429  1.00  0.00    -0.015 A 
HETATM   35  C23 UNL     1      20.778  15.312  52.867  1.00  0.00     0.052 A 
HETATM   36  C24 UNL     1      20.141  16.550  52.959  1.00  0.00     0.105 A 
HETATM   37  C26 UNL     1      18.931  16.624  53.624  1.00  0.00     0.135 A 
HETATM   38  C28 UNL     1      18.337  15.535  54.196  1.00  0.00     0.105 A 
HETATM   39  C30 UNL     1      19.003  14.323  54.081  1.00  0.00     0.052 A 
BRANCH  36  40
HETATM   40  O3  UNL     1      20.675  17.682  52.412  1.00  0.00    -0.353 OA
HETATM   41  C25 UNL     1      22.039  17.948  52.305  1.00  0.00     0.210 C 
ENDBRANCH  36  40
BRANCH  37  42
HETATM   42  O4  UNL     1      18.321  17.887  53.687  1.00  0.00    -0.351 OA
HETATM   43  C27 UNL     1      17.305  18.095  52.692  1.00  0.00     0.210 C 
ENDBRANCH  37  42
BRANCH  38  44
HETATM   44  O5  UNL     1      17.131  15.647  54.848  1.00  0.00    -0.353 OA
HETATM   45  C29 UNL     1      17.011  15.534  56.255  1.00  0.00     0.210 C 
ENDBRANCH  38  44
ENDBRANCH  33  34
ENDBRANCH  31  33
ENDBRANCH   8  31
ENDBRANCH   7   8
ENDBRANCH   6   7
ENDBRANCH   5   6
ENDBRANCH   4   5
ENDBRANCH   3   4
TORSDOF 16
ENDMDL
MODEL 4
REMARK VINA RESULT: -7.293458575      3.969      5.134
REMARK  16 active torsions:
REMARK  status: ('A' for Active; 'I' for Inactive)
REMARK    1  A    between atoms: C3_3  and  C4_4 
REMARK    2  A    between atoms: C4_4  and  C5_5 
REMARK    3  A    between atoms: C5_5  and  C6_6 
REMARK    4  A    between atoms: C6_6  and  C7_7 
REMARK    5  A    between atoms: C7_7  and  C8_8 
REMARK    6  A    between atoms: C8_8  and  C9_9 
REMARK    7  A    between atoms: C8_8  and  N5_31 
REMARK    8  A    between atoms: C9_9  and  N1_10 
REMARK    9  A    between atoms: N4_16  and  C11_18 
REMARK   10  A    between atoms: C14_21  and  C15_22 
REMARK   11  A    between atoms: C15_22  and  O1_25 
REMARK   12  A    between atoms: N5_31  and  C21_33 
REMARK   13  A    between atoms: C21_33  and  C22_34 
REMARK   14  A    between atoms: C24_36  and  O3_37 
REMARK   15  A    between atoms: C26_39  and  O4_40 
REMARK   16  A    between atoms: C28_42  and  O5_43 
ROOT
HETATM    1  C1  UNL     1      20.294  11.953  45.384  1.00  0.00     0.112 C 
HETATM    2  C2  UNL     1      20.545  11.901  46.821  1.00  0.00    -0.106 C 
HETATM    3  C3  UNL     1      20.730  11.861  48.013  1.00  0.00    -0.078 C 
ENDROOT
BRANCH   3   4
HETATM    4  C4  UNL     1      20.912  11.817  49.406  1.00  0.00     0.073 C 
BRANCH   4   5
HETATM    5  C5  UNL     1      21.568  10.815  50.001  1.00  0.00     0.073 C 
BRANCH   5   6
HETATM    6  C6  UNL     1      22.687  11.144  50.878  1.00  0.00    -0.071 C 
BRANCH   6   7
HETATM    7  C7  UNL     1      23.572  11.436  51.635  1.00  0.00    -0.043 C 
BRANCH   7   8
HETATM    8  C8  UNL     1      24.594  11.801  52.607  1.00  0.00     0.104 C 
BRANCH   8   9
HETATM    9  C9  UNL     1      25.698  10.895  52.841  1.00  0.00     0.160 C 
BRANCH   9  10
HETATM   10  N1  UNL     1      26.934  11.260  53.426  1.00  0.00    -0.211 N 
HETATM   11  N2  UNL     1      28.112  10.753  52.985  1.00  0.00    -0.232 N 
HETATM   12  N3  UNL     1      29.096  11.155  53.766  1.00  0.00    -0.266 N 
ATOM     13  H2  UNL     1      28.222  10.149  52.170  1.00  0.00     0.209 HD
HETATM   14  C10 UNL     1      28.628  11.926  54.735  1.00  0.00     0.189 A 
ATOM     15  H3  UNL     1      30.077  10.906  53.641  1.00  0.00     0.190 HD
HETATM   16  N4  UNL     1      29.144  12.456  55.758  1.00  0.00    -0.366 N 
HETATM   17  C20 UNL     1      27.239  11.991  54.505  1.00  0.00     0.312 A 
ATOM     18  H4  UNL     1      28.501  13.016  56.318  1.00  0.00     0.161 HD
HETATM   19  O2  UNL     1      26.467  12.642  55.227  1.00  0.00    -0.262 OA
BRANCH  16  20
HETATM   20  C11 UNL     1      30.465  12.401  56.252  1.00  0.00     0.083 C 
HETATM   21  C12 UNL     1      31.134  13.713  56.435  1.00  0.00     0.026 C 
HETATM   22  C13 UNL     1      31.535  14.095  57.813  1.00  0.00     0.009 C 
HETATM   23  C14 UNL     1      32.136  13.072  58.695  1.00  0.00     0.019 C 
HETATM   24  C18 UNL     1      31.812  11.681  58.222  1.00  0.00     0.009 C 
HETATM   25  C19 UNL     1      30.426  11.686  57.621  1.00  0.00     0.026 C 
BRANCH  23  26
HETATM   26  C15 UNL     1      33.619  13.227  58.957  1.00  0.00     0.054 C 
HETATM   27  C16 UNL     1      34.459  12.923  57.750  1.00  0.00     0.045 C 
HETATM   28  C17 UNL     1      34.096  12.447  60.154  1.00  0.00     0.045 C 
BRANCH  26  29
HETATM   29  O1  UNL     1      33.886  14.589  59.262  1.00  0.00    -0.390 OA
ATOM     30  H1  UNL     1      34.742  14.646  59.671  1.00  0.00     0.210 HD
ENDBRANCH  26  29
ENDBRANCH  23  26
ENDBRANCH  16  20
ENDBRANCH   9  10
ENDBRANCH   8   9
BRANCH   8  31
HETATM   31  N5  UNL     1      24.675  13.182  52.794  1.00  0.00    -0.357 N 
ATOM     32  H5  UNL     1      25.050  13.550  53.668  1.00  0.00     0.166 HD
BRANCH  31  33
HETATM   33  C21 UNL     1      24.248  14.070  51.796  1.00  0.00     0.100 C 
BRANCH  33  34
HETATM   34  C22 UNL     1      23.191  14.990  52.278  1.00  0.00    -0.015 A 
HETATM   35  C23 UNL     1      23.327  16.339  52.140  1.00  0.00     0.052 A 
HETATM   36  C24 UNL     1      22.258  17.175  52.466  1.00  0.00     0.105 A 
HETATM   37  C26 UNL     1      21.085  16.601  52.922  1.00  0.00     0.135 A 
HETATM   38  C28 UNL     1      20.933  15.252  53.070  1.00  0.00     0.105 A 
HETATM   39  C30 UNL     1      22.020  14.457  52.735  1.00  0.00     0.052 A 
BRANCH  36  40
HETATM   40  O3  UNL     1      22.336  18.533  52.344  1.00  0.00    -0.353 OA
HETATM   41  C25 UNL     1      23.307  19.332  52.945  1.00  0.00     0.210 C 
ENDBRANCH  36  40
BRANCH  37  42
HETATM   42  O4  UNL     1      20.032  17.477  53.232  1.00  0.00    -0.351 OA
HETATM   43  C27 UNL     1      19.026  17.564  52.210  1.00  0.00     0.210 C 
ENDBRANCH  37  42
BRANCH  38  44
HETATM   44  O5  UNL     1      19.751  14.718  53.526  1.00  0.00    -0.353 OA
HETATM   45  C29 UNL     1      19.427  13.346  53.381  1.00  0.00     0.210 C 
ENDBRANCH  38  44
ENDBRANCH  33  34
ENDBRANCH  31  33
ENDBRANCH   8  31
ENDBRANCH   7   8
ENDBRANCH   6   7
ENDBRANCH   5   6
ENDBRANCH   4   5
ENDBRANCH   3   4
TORSDOF 16
ENDMDL
MODEL 5
REMARK VINA RESULT: -7.234320498      4.116      5.255
REMARK  16 active torsions:
REMARK  status: ('A' for Active; 'I' for Inactive)
REMARK    1  A    between atoms: C3_3  and  C4_4 
REMARK    2  A    between atoms: C4_4  and  C5_5 
REMARK    3  A    between atoms: C5_5  and  C6_6 
REMARK    4  A    between atoms: C6_6  and  C7_7 
REMARK    5  A    between atoms: C7_7  and  C8_8 
REMARK    6  A    between atoms: C8_8  and  C9_9 
REMARK    7  A    between atoms: C8_8  and  N5_31 
REMARK    8  A    between atoms: C9_9  and  N1_10 
REMARK    9  A    between atoms: N4_16  and  C11_18 
REMARK   10  A    between atoms: C14_21  and  C15_22 
REMARK   11  A    between atoms: C15_22  and  O1_25 
REMARK   12  A    between atoms: N5_31  and  C21_33 
REMARK   13  A    between atoms: C21_33  and  C22_34 
REMARK   14  A    between atoms: C24_36  and  O3_37 
REMARK   15  A    between atoms: C26_39  and  O4_40 
REMARK   16  A    between atoms: C28_42  and  O5_43 
ROOT
HETATM    1  C1  UNL     1      20.285  11.854  45.295  1.00  0.00     0.112 C 
HETATM    2  C2  UNL     1      20.271  11.777  46.752  1.00  0.00    -0.106 C 
HETATM    3  C3  UNL     1      20.281  11.723  47.958  1.00  0.00    -0.078 C 
ENDROOT
BRANCH   3   4
HETATM    4  C4  UNL     1      20.322  11.675  49.362  1.00  0.00     0.073 C 
BRANCH   4   5
HETATM    5  C5  UNL     1      20.971  10.707  50.017  1.00  0.00     0.073 C 
BRANCH   5   6
HETATM    6  C6  UNL     1      22.117  11.075  50.841  1.00  0.00    -0.071 C 
BRANCH   6   7
HETATM    7  C7  UNL     1      23.066  11.424  51.490  1.00  0.00    -0.043 C 
BRANCH   7   8
HETATM    8  C8  UNL     1      24.243  11.882  52.216  1.00  0.00     0.104 C 
BRANCH   8   9
HETATM    9  C9  UNL     1      25.267  10.923  52.571  1.00  0.00     0.160 C 
BRANCH   9  10
HETATM   10  N1  UNL     1      26.530  11.255  53.117  1.00  0.00    -0.211 N 
HETATM   11  N2  UNL     1      27.627  10.487  52.900  1.00  0.00    -0.232 N 
HETATM   12  N3  UNL     1      28.642  10.942  53.608  1.00  0.00    -0.266 N 
ATOM     13  H2  UNL     1      27.663   9.678  52.280  1.00  0.00     0.209 HD
HETATM   14  C10 UNL     1      28.275  12.002  54.310  1.00  0.00     0.189 A 
ATOM     15  H3  UNL     1      29.577  10.533  53.616  1.00  0.00     0.190 HD
HETATM   16  N4  UNL     1      28.841  12.710  55.189  1.00  0.00    -0.366 N 
HETATM   17  C20 UNL     1      26.917  12.198  53.984  1.00  0.00     0.312 A 
ATOM     18  H4  UNL     1      28.278  13.484  55.541  1.00  0.00     0.161 HD
HETATM   19  O2  UNL     1      26.237  13.121  54.460  1.00  0.00    -0.262 OA
BRANCH  16  20
HETATM   20  C11 UNL     1      30.126  12.605  55.763  1.00  0.00     0.083 C 
HETATM   21  C12 UNL     1      30.811  13.892  56.039  1.00  0.00     0.026 C 
HETATM   22  C13 UNL     1      31.131  14.211  57.454  1.00  0.00     0.009 C 
HETATM   23  C14 UNL     1      31.652  13.141  58.331  1.00  0.00     0.019 C 
HETATM   24  C18 UNL     1      31.330  11.778  57.784  1.00  0.00     0.009 C 
HETATM   25  C19 UNL     1      29.985  11.838  57.097  1.00  0.00     0.026 C 
BRANCH  23  26
HETATM   26  C15 UNL     1      33.119  13.251  58.691  1.00  0.00     0.054 C 
HETATM   27  C16 UNL     1      34.027  12.996  57.523  1.00  0.00     0.045 C 
HETATM   28  C17 UNL     1      33.507  12.397  59.870  1.00  0.00     0.045 C 
BRANCH  26  29
HETATM   29  O1  UNL     1      33.390  14.589  59.088  1.00  0.00    -0.390 OA
ATOM     30  H1  UNL     1      34.184  14.879  58.655  1.00  0.00     0.210 HD
ENDBRANCH  26  29
ENDBRANCH  23  26
ENDBRANCH  16  20
ENDBRANCH   9  10
ENDBRANCH   8   9
BRANCH   8  31
HETATM   31  N5  UNL     1      24.493  13.240  52.011  1.00  0.00    -0.357 N 
ATOM     32  H5  UNL     1      25.308  13.672  52.447  1.00  0.00     0.166 HD
BRANCH  31  33
HETATM   33  C21 UNL     1      23.640  14.018  51.216  1.00  0.00     0.100 C 
BRANCH  33  34
HETATM   34  C22 UNL     1      23.378  15.350  51.809  1.00  0.00    -0.015 A 
HETATM   35  C23 UNL     1      22.113  15.720  52.158  1.00  0.00     0.052 A 
HETATM   36  C24 UNL     1      21.911  16.916  52.848  1.00  0.00     0.105 A 
HETATM   37  C26 UNL     1      23.012  17.694  53.158  1.00  0.00     0.135 A 
HETATM   38  C28 UNL     1      24.285  17.341  52.813  1.00  0.00     0.105 A 
HETATM   39  C30 UNL     1      24.441  16.144  52.128  1.00  0.00     0.052 A 
BRANCH  36  40
HETATM   40  O3  UNL     1      20.667  17.334  53.226  1.00  0.00    -0.353 OA
HETATM   41  C25 UNL     1      19.565  17.422  52.378  1.00  0.00     0.210 C 
ENDBRANCH  36  40
BRANCH  37  42
HETATM   42  O4  UNL     1      22.766  18.886  53.859  1.00  0.00    -0.351 OA
HETATM   43  C27 UNL     1      22.776  18.735  55.288  1.00  0.00     0.210 C 
ENDBRANCH  37  42
BRANCH  38  44
HETATM   44  O5  UNL     1      25.355  18.140  53.140  1.00  0.00    -0.353 OA
HETATM   45  C29 UNL     1      26.272  17.806  54.168  1.00  0.00     0.210 C 
ENDBRANCH  38  44
ENDBRANCH  33  34
ENDBRANCH  31  33
ENDBRANCH   8  31
ENDBRANCH   7   8
ENDBRANCH   6   7
ENDBRANCH   5   6
ENDBRANCH   4   5
ENDBRANCH   3   4
TORSDOF 16
ENDMDL
