MODEL 1
REMARK VINA RESULT: -8.459605217      0.000      0.000
REMARK  11 active torsions:
REMARK  status: ('A' for Active; 'I' for Inactive)
REMARK    1  A    between atoms: C2_2  and  N1_3 
REMARK    2  A    between atoms: N1_3  and  C3_5 
REMARK    3  A    between atoms: C5_9  and  N3_10 
REMARK    4  A    between atoms: N3_10  and  C6_11 
REMARK    5  A    between atoms: N3_10  and  C14_24 
REMARK    6  A    between atoms: C6_11  and  C7_12 
REMARK       I    between atoms: C7_12  and  N4_14 
REMARK    7  A    between atoms: N4_14  and  C9_16 
REMARK    8  A    between atoms: C14_24  and  C15_25 
REMARK    9  A    between atoms: C22_34  and  N6_35 
REMARK       I    between atoms: N6_35  and  C23_37 
REMARK   10  A    between atoms: C23_37  and  C24_39 
REMARK   11  A    between atoms: C24_39  and  O3_42 
ROOT
HETATM    1  N3  UNL     1      22.620  12.087  51.317  1.00  0.00    -0.340 N 
ENDROOT
BRANCH   1   2
HETATM    2  C5  UNL     1      21.569  11.592  50.448  1.00  0.00     0.095 A 
HETATM    3  C4  UNL     1      20.400  10.949  50.755  1.00  0.00     0.127 A 
HETATM    4  N2  UNL     1      19.585  10.658  49.774  1.00  0.00    -0.344 N 
HETATM    5  C3  UNL     1      19.917  10.990  48.527  1.00  0.00     0.146 A 
ATOM      6  H2  UNL     1      18.704  10.180  49.962  1.00  0.00     0.167 HD
HETATM    7  S2  UNL     1      21.444  11.749  48.745  1.00  0.00    -0.035 SA
BRANCH   5   8
HETATM    8  N1  UNL     1      19.313  10.815  47.410  1.00  0.00    -0.371 N 
ATOM      9  H1  UNL     1      18.944   9.891  47.184  1.00  0.00     0.161 HD
BRANCH   8  10
HETATM   10  C2  UNL     1      19.144  11.874  46.477  1.00  0.00     0.117 C 
HETATM   11  C1  UNL     1      20.193  11.835  45.381  1.00  0.00     0.026 C 
ENDBRANCH   8  10
ENDBRANCH   5   8
ENDBRANCH   1   2
BRANCH   1  12
HETATM   12  C6  UNL     1      22.835  11.427  52.583  1.00  0.00     0.232 C 
BRANCH  12  13
HETATM   13  C7  UNL     1      24.253  11.051  52.672  1.00  0.00     0.238 C 
HETATM   14  O1  UNL     1      24.821  10.340  51.757  1.00  0.00    -0.272 OA
HETATM   15  N4  UNL     1      25.073  11.449  53.743  1.00  0.00    -0.349 N 
HETATM   16  C8  UNL     1      24.420  12.197  54.835  1.00  0.00     0.153 C 
BRANCH  15  17
HETATM   17  C9  UNL     1      26.484  11.208  53.748  1.00  0.00     0.112 C 
HETATM   18  C10 UNL     1      26.973  10.307  54.858  1.00  0.00     0.029 C 
HETATM   19  C11 UNL     1      28.492  10.283  54.742  1.00  0.00     0.029 C 
HETATM   20  C12 UNL     1      29.008  11.637  55.108  1.00  0.00     0.232 C 
HETATM   21  N5  UNL     1      28.079  12.725  54.869  1.00  0.00    -0.073 N 
HETATM   22  C13 UNL     1      27.311  12.472  53.648  1.00  0.00     0.257 C 
ATOM     23  H52 UNL     1      27.474  12.893  55.673  1.00  0.00     0.277 HD
ATOM     24  H51 UNL     1      28.549  13.630  54.845  1.00  0.00     0.277 HD
ENDBRANCH  15  17
ENDBRANCH  12  13
ENDBRANCH   1  12
BRANCH   1  25
HETATM   25  C14 UNL     1      23.374  13.193  50.918  1.00  0.00     0.114 C 
BRANCH  25  26
HETATM   26  C15 UNL     1      23.167  14.449  51.681  1.00  0.00     0.060 A 
HETATM   27  S1  UNL     1      24.448  15.280  52.517  1.00  0.00    -0.087 SA
HETATM   28  C16 UNL     1      23.525  16.460  53.339  1.00  0.00     0.015 A 
HETATM   29  C17 UNL     1      22.259  16.185  52.940  1.00  0.00    -0.003 A 
HETATM   30  C22 UNL     1      23.735  17.534  54.331  1.00  0.00     0.125 C 
HETATM   31  C18 UNL     1      22.072  15.145  52.083  1.00  0.00     0.142 A 
HETATM   32  C19 UNL     1      21.230  17.151  53.561  1.00  0.00     0.043 C 
HETATM   33  F1  UNL     1      20.792  14.839  51.596  1.00  0.00    -0.204 F 
HETATM   34  C20 UNL     1      21.408  16.900  55.039  1.00  0.00     0.007 C 
HETATM   35  C21 UNL     1      22.785  17.208  55.518  1.00  0.00     0.031 C 
BRANCH  30  36
HETATM   36  N6  UNL     1      25.081  17.519  54.851  1.00  0.00    -0.349 N 
HETATM   37  C23 UNL     1      26.193  18.196  54.309  1.00  0.00     0.252 C 
HETATM   38  O2  UNL     1      26.027  18.906  53.284  1.00  0.00    -0.270 OA
ATOM     39  H6  UNL     1      25.244  16.966  55.693  1.00  0.00     0.163 HD
BRANCH  37  40
HETATM   40  C24 UNL     1      27.538  18.104  54.910  1.00  0.00     0.131 C 
HETATM   41  C25 UNL     1      28.365  19.314  54.616  1.00  0.00     0.056 C 
HETATM   42  C26 UNL     1      27.424  18.026  56.450  1.00  0.00     0.056 C 
BRANCH  40  43
HETATM   43  O3  UNL     1      28.141  16.903  54.560  1.00  0.00    -0.381 OA
ATOM     44  H3  UNL     1      28.575  16.520  55.314  1.00  0.00     0.211 HD
ENDBRANCH  40  43
ENDBRANCH  37  40
ENDBRANCH  30  36
ENDBRANCH  25  26
ENDBRANCH   1  25
TORSDOF 11
ENDMDL
MODEL 2
REMARK VINA RESULT: -8.254209010      2.670      4.183
REMARK  11 active torsions:
REMARK  status: ('A' for Active; 'I' for Inactive)
REMARK    1  A    between atoms: C2_2  and  N1_3 
REMARK    2  A    between atoms: N1_3  and  C3_5 
REMARK    3  A    between atoms: C5_9  and  N3_10 
REMARK    4  A    between atoms: N3_10  and  C6_11 
REMARK    5  A    between atoms: N3_10  and  C14_24 
REMARK    6  A    between atoms: C6_11  and  C7_12 
REMARK       I    between atoms: C7_12  and  N4_14 
REMARK    7  A    between atoms: N4_14  and  C9_16 
REMARK    8  A    between atoms: C14_24  and  C15_25 
REMARK    9  A    between atoms: C22_34  and  N6_35 
REMARK       I    between atoms: N6_35  and  C23_37 
REMARK   10  A    between atoms: C23_37  and  C24_39 
REMARK   11  A    between atoms: C24_39  and  O3_42 
ROOT
HETATM    1  N3  UNL     1      23.417  12.184  51.538  1.00  0.00    -0.340 N 
ENDROOT
BRANCH   1   2
HETATM    2  C5  UNL     1      22.576  11.648  50.484  1.00  0.00     0.095 A 
HETATM    3  C4  UNL     1      22.867  10.745  49.496  1.00  0.00     0.127 A 
HETATM    4  N2  UNL     1      21.899  10.378  48.697  1.00  0.00    -0.344 N 
HETATM    5  C3  UNL     1      20.681  10.890  48.867  1.00  0.00     0.146 A 
ATOM      6  H2  UNL     1      22.075   9.707  47.949  1.00  0.00     0.167 HD
HETATM    7  S2  UNL     1      20.907  11.934  50.214  1.00  0.00    -0.035 SA
BRANCH   5   8
HETATM    8  N1  UNL     1      19.584  10.708  48.228  1.00  0.00    -0.371 N 
ATOM      9  H1  UNL     1      19.056   9.849  48.382  1.00  0.00     0.161 HD
BRANCH   8  10
HETATM   10  C2  UNL     1      19.085  11.672  47.309  1.00  0.00     0.117 C 
HETATM   11  C1  UNL     1      19.964  11.786  46.077  1.00  0.00     0.026 C 
ENDBRANCH   8  10
ENDBRANCH   5   8
ENDBRANCH   1   2
BRANCH   1  12
HETATM   12  C6  UNL     1      23.568  11.421  52.754  1.00  0.00     0.232 C 
BRANCH  12  13
HETATM   13  C7  UNL     1      24.984  11.050  52.892  1.00  0.00     0.238 C 
HETATM   14  O1  UNL     1      25.592  10.362  51.985  1.00  0.00    -0.272 OA
HETATM   15  N4  UNL     1      25.757  11.427  54.003  1.00  0.00    -0.349 N 
HETATM   16  C8  UNL     1      25.056  12.147  55.085  1.00  0.00     0.153 C 
BRANCH  15  17
HETATM   17  C9  UNL     1      27.168  11.193  54.060  1.00  0.00     0.112 C 
HETATM   18  C10 UNL     1      27.668  10.626  55.369  1.00  0.00     0.029 C 
HETATM   19  C11 UNL     1      29.187  10.568  55.250  1.00  0.00     0.029 C 
HETATM   20  C12 UNL     1      29.706  11.969  55.229  1.00  0.00     0.232 C 
HETATM   21  N5  UNL     1      28.774  12.953  54.713  1.00  0.00    -0.073 N 
HETATM   22  C13 UNL     1      27.995  12.380  53.614  1.00  0.00     0.257 C 
ATOM     23  H52 UNL     1      28.177  13.335  55.447  1.00  0.00     0.277 HD
ATOM     24  H51 UNL     1      29.244  13.816  54.439  1.00  0.00     0.277 HD
ENDBRANCH  15  17
ENDBRANCH  12  13
ENDBRANCH   1  12
BRANCH   1  25
HETATM   25  C14 UNL     1      24.035  13.423  51.355  1.00  0.00     0.114 C 
BRANCH  25  26
HETATM   26  C15 UNL     1      23.733  14.470  52.364  1.00  0.00     0.060 A 
HETATM   27  S1  UNL     1      22.159  15.191  52.550  1.00  0.00    -0.087 SA
HETATM   28  C16 UNL     1      22.547  16.422  53.670  1.00  0.00     0.015 A 
HETATM   29  C17 UNL     1      23.874  16.236  53.875  1.00  0.00    -0.003 A 
HETATM   30  C22 UNL     1      21.882  17.561  54.334  1.00  0.00     0.125 C 
HETATM   31  C18 UNL     1      24.489  15.228  53.200  1.00  0.00     0.142 A 
HETATM   32  C19 UNL     1      24.455  17.249  54.882  1.00  0.00     0.043 C 
HETATM   33  F1  UNL     1      25.850  14.955  53.404  1.00  0.00    -0.204 F 
HETATM   34  C20 UNL     1      24.181  18.569  54.201  1.00  0.00     0.007 C 
HETATM   35  C21 UNL     1      22.729  18.815  53.975  1.00  0.00     0.031 C 
BRANCH  30  36
HETATM   36  N6  UNL     1      20.557  17.782  53.807  1.00  0.00    -0.349 N 
HETATM   37  C23 UNL     1      19.359  17.226  54.301  1.00  0.00     0.252 C 
HETATM   38  O2  UNL     1      19.412  16.475  55.309  1.00  0.00    -0.270 OA
ATOM     39  H6  UNL     1      20.478  18.401  52.999  1.00  0.00     0.163 HD
BRANCH  37  40
HETATM   40  C24 UNL     1      18.049  17.503  53.679  1.00  0.00     0.131 C 
HETATM   41  C25 UNL     1      17.372  18.679  54.304  1.00  0.00     0.056 C 
HETATM   42  C26 UNL     1      18.238  17.860  52.186  1.00  0.00     0.056 C 
BRANCH  40  43
HETATM   43  O3  UNL     1      17.277  16.349  53.649  1.00  0.00    -0.381 OA
ATOM     44  H3  UNL     1      16.749  16.327  52.859  1.00  0.00     0.211 HD
ENDBRANCH  40  43
ENDBRANCH  37  40
ENDBRANCH  30  36
ENDBRANCH  25  26
ENDBRANCH   1  25
TORSDOF 11
ENDMDL
MODEL 3
REMARK VINA RESULT: -7.988459223      2.832      7.338
REMARK  11 active torsions:
REMARK  status: ('A' for Active; 'I' for Inactive)
REMARK    1  A    between atoms: C2_2  and  N1_3 
REMARK    2  A    between atoms: N1_3  and  C3_5 
REMARK    3  A    between atoms: C5_9  and  N3_10 
REMARK    4  A    between atoms: N3_10  and  C6_11 
REMARK    5  A    between atoms: N3_10  and  C14_24 
REMARK    6  A    between atoms: C6_11  and  C7_12 
REMARK       I    between atoms: C7_12  and  N4_14 
REMARK    7  A    between atoms: N4_14  and  C9_16 
REMARK    8  A    between atoms: C14_24  and  C15_25 
REMARK    9  A    between atoms: C22_34  and  N6_35 
REMARK       I    between atoms: N6_35  and  C23_37 
REMARK   10  A    between atoms: C23_37  and  C24_39 
REMARK   11  A    between atoms: C24_39  and  O3_42 
ROOT
HETATM    1  N3  UNL     1      24.739  12.346  52.757  1.00  0.00    -0.340 N 
ENDROOT
BRANCH   1   2
HETATM    2  C5  UNL     1      25.967  11.723  53.214  1.00  0.00     0.095 A 
HETATM    3  C4  UNL     1      27.242  12.222  53.269  1.00  0.00     0.127 A 
HETATM    4  N2  UNL     1      28.174  11.464  53.786  1.00  0.00    -0.344 N 
HETATM    5  C3  UNL     1      27.856  10.250  54.233  1.00  0.00     0.146 A 
ATOM      6  H2  UNL     1      29.136  11.800  53.845  1.00  0.00     0.167 HD
HETATM    7  S2  UNL     1      26.169  10.172  53.913  1.00  0.00    -0.035 SA
BRANCH   5   8
HETATM    8  N1  UNL     1      28.569   9.325  54.765  1.00  0.00    -0.371 N 
ATOM      9  H1  UNL     1      29.563   9.491  54.918  1.00  0.00     0.161 HD
BRANCH   8  10
HETATM   10  C2  UNL     1      28.008   8.076  55.146  1.00  0.00     0.117 C 
HETATM   11  C1  UNL     1      28.923   6.916  54.799  1.00  0.00     0.026 C 
ENDBRANCH   8  10
ENDBRANCH   5   8
ENDBRANCH   1   2
BRANCH   1  12
HETATM   12  C6  UNL     1      23.496  11.635  52.939  1.00  0.00     0.232 C 
BRANCH  12  13
HETATM   13  C7  UNL     1      22.969  11.280  51.613  1.00  0.00     0.238 C 
HETATM   14  O1  UNL     1      23.672  10.607  50.767  1.00  0.00    -0.272 OA
HETATM   15  N4  UNL     1      21.676  11.640  51.195  1.00  0.00    -0.349 N 
HETATM   16  C8  UNL     1      20.889  12.476  52.122  1.00  0.00     0.153 C 
BRANCH  15  17
HETATM   17  C9  UNL     1      21.117  11.163  49.967  1.00  0.00     0.112 C 
HETATM   18  C10 UNL     1      21.264  12.102  48.793  1.00  0.00     0.029 C 
HETATM   19  C11 UNL     1      20.507  11.455  47.639  1.00  0.00     0.029 C 
HETATM   20  C12 UNL     1      19.048  11.489  47.961  1.00  0.00     0.232 C 
HETATM   21  N5  UNL     1      18.741  11.500  49.379  1.00  0.00    -0.073 N 
HETATM   22  C13 UNL     1      19.695  10.661  50.106  1.00  0.00     0.257 C 
ATOM     23  H52 UNL     1      18.703  12.449  49.753  1.00  0.00     0.277 HD
ATOM     24  H51 UNL     1      17.776  11.228  49.562  1.00  0.00     0.277 HD
ENDBRANCH  15  17
ENDBRANCH  12  13
ENDBRANCH   1  12
BRANCH   1  25
HETATM   25  C14 UNL     1      24.796  13.598  52.140  1.00  0.00     0.114 C 
BRANCH  25  26
HETATM   26  C15 UNL     1      24.437  14.769  52.979  1.00  0.00     0.060 A 
HETATM   27  S1  UNL     1      22.842  15.465  53.013  1.00  0.00    -0.087 SA
HETATM   28  C16 UNL     1      23.163  16.853  53.958  1.00  0.00     0.015 A 
HETATM   29  C17 UNL     1      24.487  16.735  54.226  1.00  0.00    -0.003 A 
HETATM   30  C22 UNL     1      22.450  18.056  54.431  1.00  0.00     0.125 C 
HETATM   31  C18 UNL     1      25.147  15.659  53.720  1.00  0.00     0.142 A 
HETATM   32  C19 UNL     1      25.010  17.897  55.095  1.00  0.00     0.043 C 
HETATM   33  F1  UNL     1      26.506  15.455  54.002  1.00  0.00    -0.204 F 
HETATM   34  C20 UNL     1      24.728  19.098  54.224  1.00  0.00     0.007 C 
HETATM   35  C21 UNL     1      23.279  19.269  53.922  1.00  0.00     0.031 C 
BRANCH  30  36
HETATM   36  N6  UNL     1      21.138  18.163  53.840  1.00  0.00    -0.349 N 
HETATM   37  C23 UNL     1      19.955  17.564  54.319  1.00  0.00     0.252 C 
HETATM   38  O2  UNL     1      20.009  16.879  55.373  1.00  0.00    -0.270 OA
ATOM     39  H6  UNL     1      21.059  18.727  52.993  1.00  0.00     0.163 HD
BRANCH  37  40
HETATM   40  C24 UNL     1      18.660  17.723  53.629  1.00  0.00     0.131 C 
HETATM   41  C25 UNL     1      18.789  17.550  52.150  1.00  0.00     0.056 C 
HETATM   42  C26 UNL     1      17.672  16.632  54.103  1.00  0.00     0.056 C 
BRANCH  40  43
HETATM   43  O3  UNL     1      18.052  18.911  54.014  1.00  0.00    -0.381 OA
ATOM     44  H3  UNL     1      18.689  19.616  54.034  1.00  0.00     0.211 HD
ENDBRANCH  40  43
ENDBRANCH  37  40
ENDBRANCH  30  36
ENDBRANCH  25  26
ENDBRANCH   1  25
TORSDOF 11
ENDMDL
MODEL 4
REMARK VINA RESULT: -7.975382266      2.744      4.278
REMARK  11 active torsions:
REMARK  status: ('A' for Active; 'I' for Inactive)
REMARK    1  A    between atoms: C2_2  and  N1_3 
REMARK    2  A    between atoms: N1_3  and  C3_5 
REMARK    3  A    between atoms: C5_9  and  N3_10 
REMARK    4  A    between atoms: N3_10  and  C6_11 
REMARK    5  A    between atoms: N3_10  and  C14_24 
REMARK    6  A    between atoms: C6_11  and  C7_12 
REMARK       I    between atoms: C7_12  and  N4_14 
REMARK    7  A    between atoms: N4_14  and  C9_16 
REMARK    8  A    between atoms: C14_24  and  C15_25 
REMARK    9  A    between atoms: C22_34  and  N6_35 
REMARK       I    between atoms: N6_35  and  C23_37 
REMARK   10  A    between atoms: C23_37  and  C24_39 
REMARK   11  A    between atoms: C24_39  and  O3_42 
ROOT
HETATM    1  N3  UNL     1      23.684  12.173  52.047  1.00  0.00    -0.340 N 
ENDROOT
BRANCH   1   2
HETATM    2  C5  UNL     1      22.743  11.678  51.060  1.00  0.00     0.095 A 
HETATM    3  C4  UNL     1      22.968  11.061  49.859  1.00  0.00     0.127 A 
HETATM    4  N2  UNL     1      21.929  10.653  49.176  1.00  0.00    -0.344 N 
HETATM    5  C3  UNL     1      20.706  10.851  49.665  1.00  0.00     0.146 A 
ATOM      6  H2  UNL     1      22.055  10.188  48.276  1.00  0.00     0.167 HD
HETATM    7  S2  UNL     1      21.032  11.646  51.154  1.00  0.00    -0.035 SA
BRANCH   5   8
HETATM    8  N1  UNL     1      19.546  10.562  49.200  1.00  0.00    -0.371 N 
ATOM      9  H1  UNL     1      19.143   9.648  49.404  1.00  0.00     0.161 HD
BRANCH   8  10
HETATM   10  C2  UNL     1      18.809  11.483  48.407  1.00  0.00     0.117 C 
HETATM   11  C1  UNL     1      19.252  11.460  46.955  1.00  0.00     0.026 C 
ENDBRANCH   8  10
ENDBRANCH   5   8
ENDBRANCH   1   2
BRANCH   1  12
HETATM   12  C6  UNL     1      23.819  11.455  53.292  1.00  0.00     0.232 C 
BRANCH  12  13
HETATM   13  C7  UNL     1      25.083  10.704  53.256  1.00  0.00     0.238 C 
HETATM   14  O1  UNL     1      25.606  10.319  52.142  1.00  0.00    -0.272 OA
HETATM   15  N4  UNL     1      25.796  10.374  54.421  1.00  0.00    -0.349 N 
HETATM   16  C8  UNL     1      25.172  10.740  55.708  1.00  0.00     0.153 C 
BRANCH  15  17
HETATM   17  C9  UNL     1      27.097   9.778  54.371  1.00  0.00     0.112 C 
HETATM   18  C10 UNL     1      27.233   8.481  55.135  1.00  0.00     0.029 C 
HETATM   19  C11 UNL     1      28.704   8.091  55.043  1.00  0.00     0.029 C 
HETATM   20  C12 UNL     1      29.498   9.077  55.837  1.00  0.00     0.232 C 
HETATM   21  N5  UNL     1      28.894  10.391  55.951  1.00  0.00    -0.073 N 
HETATM   22  C13 UNL     1      28.216  10.742  54.701  1.00  0.00     0.257 C 
ATOM     23  H52 UNL     1      28.270  10.456  56.756  1.00  0.00     0.277 HD
ATOM     24  H51 UNL     1      29.572  11.100  56.229  1.00  0.00     0.277 HD
ENDBRANCH  15  17
ENDBRANCH  12  13
ENDBRANCH   1  12
BRANCH   1  25
HETATM   25  C14 UNL     1      24.412  13.334  51.775  1.00  0.00     0.114 C 
BRANCH  25  26
HETATM   26  C15 UNL     1      24.094  14.526  52.601  1.00  0.00     0.060 A 
HETATM   27  S1  UNL     1      22.493  15.195  52.735  1.00  0.00    -0.087 SA
HETATM   28  C16 UNL     1      22.857  16.619  53.607  1.00  0.00     0.015 A 
HETATM   29  C17 UNL     1      24.200  16.534  53.776  1.00  0.00    -0.003 A 
HETATM   30  C22 UNL     1      22.158  17.825  54.094  1.00  0.00     0.125 C 
HETATM   31  C18 UNL     1      24.841  15.453  53.256  1.00  0.00     0.142 A 
HETATM   32  C19 UNL     1      24.764  17.733  54.564  1.00  0.00     0.043 C 
HETATM   33  F1  UNL     1      26.221  15.283  53.439  1.00  0.00    -0.204 F 
HETATM   34  C20 UNL     1      24.393  18.899  53.679  1.00  0.00     0.007 C 
HETATM   35  C21 UNL     1      22.922  19.034  53.484  1.00  0.00     0.031 C 
BRANCH  30  36
HETATM   36  N6  UNL     1      20.803  17.889  53.602  1.00  0.00    -0.349 N 
HETATM   37  C23 UNL     1      19.659  17.366  54.238  1.00  0.00     0.252 C 
HETATM   38  O2  UNL     1      19.793  16.800  55.354  1.00  0.00    -0.270 OA
ATOM     39  H6  UNL     1      20.659  18.357  52.707  1.00  0.00     0.163 HD
BRANCH  37  40
HETATM   40  C24 UNL     1      18.313  17.470  53.642  1.00  0.00     0.131 C 
HETATM   41  C25 UNL     1      17.525  18.595  54.232  1.00  0.00     0.056 C 
HETATM   42  C26 UNL     1      18.426  17.773  52.130  1.00  0.00     0.056 C 
BRANCH  40  43
HETATM   43  O3  UNL     1      17.670  16.239  53.686  1.00  0.00    -0.381 OA
ATOM     44  H3  UNL     1      18.230  15.590  54.096  1.00  0.00     0.211 HD
ENDBRANCH  40  43
ENDBRANCH  37  40
ENDBRANCH  30  36
ENDBRANCH  25  26
ENDBRANCH   1  25
TORSDOF 11
ENDMDL
MODEL 5
REMARK VINA RESULT: -7.936258515      3.101      4.739
REMARK  11 active torsions:
REMARK  status: ('A' for Active; 'I' for Inactive)
REMARK    1  A    between atoms: C2_2  and  N1_3 
REMARK    2  A    between atoms: N1_3  and  C3_5 
REMARK    3  A    between atoms: C5_9  and  N3_10 
REMARK    4  A    between atoms: N3_10  and  C6_11 
REMARK    5  A    between atoms: N3_10  and  C14_24 
REMARK    6  A    between atoms: C6_11  and  C7_12 
REMARK       I    between atoms: C7_12  and  N4_14 
REMARK    7  A    between atoms: N4_14  and  C9_16 
REMARK    8  A    between atoms: C14_24  and  C15_25 
REMARK    9  A    between atoms: C22_34  and  N6_35 
REMARK       I    between atoms: N6_35  and  C23_37 
REMARK   10  A    between atoms: C23_37  and  C24_39 
REMARK   11  A    between atoms: C24_39  and  O3_42 
ROOT
HETATM    1  N3  UNL     1      23.491  11.856  51.524  1.00  0.00    -0.340 N 
ENDROOT
BRANCH   1   2
HETATM    2  C5  UNL     1      22.664  11.427  50.412  1.00  0.00     0.095 A 
HETATM    3  C4  UNL     1      22.968  10.623  49.346  1.00  0.00     0.127 A 
HETATM    4  N2  UNL     1      22.010  10.338  48.501  1.00  0.00    -0.344 N 
HETATM    5  C3  UNL     1      20.791  10.835  48.703  1.00  0.00     0.146 A 
ATOM      6  H2  UNL     1      22.196   9.742  47.694  1.00  0.00     0.167 HD
HETATM    7  S2  UNL     1      21.000  11.743  50.148  1.00  0.00    -0.035 SA
BRANCH   5   8
HETATM    8  N1  UNL     1      19.702  10.719  48.034  1.00  0.00    -0.371 N 
ATOM      9  H1  UNL     1      19.140   9.875  48.143  1.00  0.00     0.161 HD
BRANCH   8  10
HETATM   10  C2  UNL     1      19.260  11.736  47.146  1.00  0.00     0.117 C 
HETATM   11  C1  UNL     1      20.118  11.808  45.896  1.00  0.00     0.026 C 
ENDBRANCH   8  10
ENDBRANCH   5   8
ENDBRANCH   1   2
BRANCH   1  12
HETATM   12  C6  UNL     1      23.727  10.929  52.605  1.00  0.00     0.232 C 
BRANCH  12  13
HETATM   13  C7  UNL     1      25.179  10.783  52.780  1.00  0.00     0.238 C 
HETATM   14  O1  UNL     1      25.909  10.195  51.893  1.00  0.00    -0.272 OA
HETATM   15  N4  UNL     1      25.857  11.280  53.906  1.00  0.00    -0.349 N 
HETATM   16  C8  UNL     1      25.026  11.886  54.966  1.00  0.00     0.153 C 
BRANCH  15  17
HETATM   17  C9  UNL     1      27.285  11.269  53.998  1.00  0.00     0.112 C 
HETATM   18  C10 UNL     1      27.836  10.710  55.290  1.00  0.00     0.029 C 
HETATM   19  C11 UNL     1      29.347  10.900  55.219  1.00  0.00     0.029 C 
HETATM   20  C12 UNL     1      29.637  12.363  55.294  1.00  0.00     0.232 C 
HETATM   21  N5  UNL     1      28.573  13.218  54.802  1.00  0.00    -0.073 N 
HETATM   22  C13 UNL     1      27.923  12.596  53.647  1.00  0.00     0.257 C 
ATOM     23  H52 UNL     1      27.904  13.456  55.535  1.00  0.00     0.277 HD
ATOM     24  H51 UNL     1      28.906  14.159  54.593  1.00  0.00     0.277 HD
ENDBRANCH  15  17
ENDBRANCH  12  13
ENDBRANCH   1  12
BRANCH   1  25
HETATM   25  C14 UNL     1      24.015  13.151  51.527  1.00  0.00     0.114 C 
BRANCH  25  26
HETATM   26  C15 UNL     1      23.168  14.208  52.134  1.00  0.00     0.060 A 
HETATM   27  S1  UNL     1      21.662  13.878  52.942  1.00  0.00    -0.087 SA
HETATM   28  C16 UNL     1      21.118  15.480  53.184  1.00  0.00     0.015 A 
HETATM   29  C17 UNL     1      22.115  16.222  52.643  1.00  0.00    -0.003 A 
HETATM   30  C22 UNL     1      19.924  16.174  53.706  1.00  0.00     0.125 C 
HETATM   31  C18 UNL     1      23.175  15.566  52.099  1.00  0.00     0.142 A 
HETATM   32  C19 UNL     1      21.842  17.735  52.757  1.00  0.00     0.043 C 
HETATM   33  F1  UNL     1      24.261  16.277  51.566  1.00  0.00    -0.204 F 
HETATM   34  C20 UNL     1      20.557  17.887  51.979  1.00  0.00     0.007 C 
HETATM   35  C21 UNL     1      19.432  17.098  52.555  1.00  0.00     0.031 C 
BRANCH  30  36
HETATM   36  N6  UNL     1      18.854  15.248  53.991  1.00  0.00    -0.349 N 
HETATM   37  C23 UNL     1      18.615  14.602  55.220  1.00  0.00     0.252 C 
HETATM   38  O2  UNL     1      19.377  14.848  56.191  1.00  0.00    -0.270 OA
ATOM     39  H6  UNL     1      18.208  15.042  53.228  1.00  0.00     0.163 HD
BRANCH  37  40
HETATM   40  C24 UNL     1      17.497  13.656  55.406  1.00  0.00     0.131 C 
HETATM   41  C25 UNL     1      17.778  12.329  54.779  1.00  0.00     0.056 C 
HETATM   42  C26 UNL     1      17.281  13.382  56.913  1.00  0.00     0.056 C 
BRANCH  40  43
HETATM   43  O3  UNL     1      16.302  14.237  55.000  1.00  0.00    -0.381 OA
ATOM     44  H3  UNL     1      15.710  14.323  55.739  1.00  0.00     0.211 HD
ENDBRANCH  40  43
ENDBRANCH  37  40
ENDBRANCH  30  36
ENDBRANCH  25  26
ENDBRANCH   1  25
TORSDOF 11
ENDMDL
