MODEL 1
REMARK VINA RESULT: -8.343015369      0.000      0.000
REMARK  15 active torsions:
REMARK  status: ('A' for Active; 'I' for Inactive)
REMARK    1  A    between atoms: C3_4  and  C4_5 
REMARK    2  A    between atoms: C5_6  and  C6_7 
REMARK    3  A    between atoms: C6_7  and  S1_8 
REMARK    4  A    between atoms: S1_8  and  C7_9 
REMARK    5  A    between atoms: C7_9  and  C8_10 
REMARK    6  A    between atoms: C10_13  and  O2_14 
REMARK    7  A    between atoms: C12_18  and  O3_19 
REMARK    8  A    between atoms: C13_21  and  N2_22 
REMARK    9  A    between atoms: N2_22  and  C15_24 
REMARK   10  A    between atoms: C15_24  and  O4_25 
REMARK   11  A    between atoms: C15_24  and  C16_27 
REMARK   12  A    between atoms: C19_30  and  C20_31 
REMARK   13  A    between atoms: C21_32  and  C22_33 
REMARK   14  A    between atoms: C22_33  and  O5_34 
REMARK   15  A    between atoms: N3_36  and  O6_38 
ROOT
HETATM    1  C1  UNL     1      26.362  18.490  54.162  1.00  0.00     0.143 C 
HETATM    2  N1  UNL     1      25.733  17.219  54.307  1.00  0.00    -0.411 N 
HETATM    3  C2  UNL     1      26.444  16.263  55.086  1.00  0.00     0.157 C 
HETATM    4  C3  UNL     1      26.531  14.940  54.374  1.00  0.00    -0.017 C 
HETATM    5  C13 UNL     1      25.334  14.345  53.822  1.00  0.00     0.030 C 
HETATM    6  C25 UNL     1      24.364  15.446  53.427  1.00  0.00     0.011 C 
HETATM    7  C26 UNL     1      23.678  15.128  52.078  1.00  0.00     0.023 C 
HETATM    8  C27 UNL     1      23.345  15.844  54.430  1.00  0.00     0.023 C 
HETATM    9  C28 UNL     1      25.153  16.732  53.101  1.00  0.00     0.131 C 
ENDROOT
BRANCH   5  10
HETATM   10  N2  UNL     1      24.646  13.229  54.407  1.00  0.00    -0.334 N 
HETATM   11  C14 UNL     1      24.261  13.488  55.793  1.00  0.00     0.158 C 
BRANCH  10  12
HETATM   12  C15 UNL     1      24.267  12.054  53.781  1.00  0.00     0.152 C 
BRANCH  12  13
HETATM   13  O4  UNL     1      24.771  10.913  54.199  1.00  0.00    -0.345 OA
ATOM     14  H4  UNL     1      24.265  10.116  54.094  1.00  0.00     0.219 HD
ENDBRANCH  12  13
BRANCH  12  15
HETATM   15  C16 UNL     1      23.372  11.781  52.687  1.00  0.00     0.015 A 
HETATM   16  C17 UNL     1      22.038  12.105  52.768  1.00  0.00     0.016 A 
HETATM   17  C18 UNL     1      21.179  11.891  51.681  1.00  0.00     0.012 A 
HETATM   18  C19 UNL     1      21.627  11.362  50.522  1.00  0.00    -0.036 A 
HETATM   19  C23 UNL     1      22.980  11.038  50.453  1.00  0.00     0.012 A 
HETATM   20  C24 UNL     1      23.840  11.232  51.488  1.00  0.00     0.016 A 
BRANCH  18  21
HETATM   21  C20 UNL     1      20.742  11.102  49.388  1.00  0.00     0.015 C 
HETATM   22  C21 UNL     1      20.680  11.786  48.288  1.00  0.00     0.058 C 
BRANCH  22  23
HETATM   23  C22 UNL     1      19.828  11.573  47.149  1.00  0.00     0.159 C 
HETATM   24  N3  UNL     1      19.921  12.098  45.990  1.00  0.00    -0.248 N 
ATOM     25  H3  UNL     1      19.200  11.796  45.335  1.00  0.00     0.196 HD
BRANCH  23  26
HETATM   26  O5  UNL     1      18.732  10.677  47.280  1.00  0.00    -0.345 OA
ATOM     27  H5  UNL     1      18.439  10.204  46.511  1.00  0.00     0.219 HD
ENDBRANCH  23  26
BRANCH  24  28
HETATM   28  O6  UNL     1      20.791  12.969  45.484  1.00  0.00    -0.288 OA
ATOM     29  H6  UNL     1      21.219  13.726  45.867  1.00  0.00     0.244 HD
ENDBRANCH  24  28
ENDBRANCH  22  23
ENDBRANCH  18  21
ENDBRANCH  12  15
ENDBRANCH  10  12
ENDBRANCH   5  10
BRANCH   4  30
HETATM   30  C4  UNL     1      27.542  14.034  54.974  1.00  0.00     0.007 C 
HETATM   31  C5  UNL     1      28.705  13.730  54.418  1.00  0.00    -0.016 C 
BRANCH  31  32
HETATM   32  C6  UNL     1      29.719  12.844  54.978  1.00  0.00     0.101 C 
BRANCH  32  33
HETATM   33  S1  UNL     1      28.887  11.401  55.710  1.00  0.00    -0.163 SA
BRANCH  33  34
HETATM   34  C7  UNL     1      28.237  10.368  54.369  1.00  0.00     0.108 C 
BRANCH  34  35
HETATM   35  C8  UNL     1      27.619   9.150  55.020  1.00  0.00     0.162 C 
HETATM   36  O1  UNL     1      26.914   9.569  56.149  1.00  0.00    -0.380 OA
HETATM   37  C9  UNL     1      25.937   8.598  56.387  1.00  0.00     0.203 C 
HETATM   38  C10 UNL     1      26.595   7.251  56.430  1.00  0.00     0.178 C 
HETATM   39  C11 UNL     1      28.084   7.393  56.638  1.00  0.00     0.232 C 
HETATM   40  F1  UNL     1      28.643   6.142  56.777  1.00  0.00    -0.244 F 
HETATM   41  C12 UNL     1      28.668   8.157  55.469  1.00  0.00     0.184 C 
BRANCH  38  42
HETATM   42  O2  UNL     1      26.304   6.552  55.265  1.00  0.00    -0.390 OA
ATOM     43  H2  UNL     1      25.783   5.786  55.475  1.00  0.00     0.210 HD
ENDBRANCH  38  42
BRANCH  41  44
HETATM   44  O3  UNL     1      29.019   7.319  54.431  1.00  0.00    -0.390 OA
ATOM     45  H3  UNL     1      29.962   7.208  54.393  1.00  0.00     0.210 HD
ENDBRANCH  41  44
ENDBRANCH  34  35
ENDBRANCH  33  34
ENDBRANCH  32  33
ENDBRANCH  31  32
ENDBRANCH   4  30
TORSDOF 15
ENDMDL
MODEL 2
REMARK VINA RESULT: -8.341343989      1.863      2.367
REMARK  15 active torsions:
REMARK  status: ('A' for Active; 'I' for Inactive)
REMARK    1  A    between atoms: C3_4  and  C4_5 
REMARK    2  A    between atoms: C5_6  and  C6_7 
REMARK    3  A    between atoms: C6_7  and  S1_8 
REMARK    4  A    between atoms: S1_8  and  C7_9 
REMARK    5  A    between atoms: C7_9  and  C8_10 
REMARK    6  A    between atoms: C10_13  and  O2_14 
REMARK    7  A    between atoms: C12_18  and  O3_19 
REMARK    8  A    between atoms: C13_21  and  N2_22 
REMARK    9  A    between atoms: N2_22  and  C15_24 
REMARK   10  A    between atoms: C15_24  and  O4_25 
REMARK   11  A    between atoms: C15_24  and  C16_27 
REMARK   12  A    between atoms: C19_30  and  C20_31 
REMARK   13  A    between atoms: C21_32  and  C22_33 
REMARK   14  A    between atoms: C22_33  and  O5_34 
REMARK   15  A    between atoms: N3_36  and  O6_38 
ROOT
HETATM    1  C1  UNL     1      26.019  19.201  53.607  1.00  0.00     0.143 C 
HETATM    2  N1  UNL     1      25.309  17.998  53.894  1.00  0.00    -0.411 N 
HETATM    3  C2  UNL     1      25.843  17.203  54.948  1.00  0.00     0.157 C 
HETATM    4  C3  UNL     1      25.966  15.763  54.530  1.00  0.00    -0.017 C 
HETATM    5  C13 UNL     1      24.837  15.095  53.922  1.00  0.00     0.030 C 
HETATM    6  C25 UNL     1      23.998  16.114  53.172  1.00  0.00     0.011 C 
HETATM    7  C26 UNL     1      23.507  15.547  51.819  1.00  0.00     0.023 C 
HETATM    8  C27 UNL     1      22.861  16.728  53.903  1.00  0.00     0.023 C 
HETATM    9  C28 UNL     1      24.894  17.292  52.731  1.00  0.00     0.131 C 
ENDROOT
BRANCH   5  10
HETATM   10  N2  UNL     1      24.010  14.134  54.597  1.00  0.00    -0.334 N 
HETATM   11  C14 UNL     1      23.464  14.663  55.845  1.00  0.00     0.158 C 
BRANCH  10  12
HETATM   12  C15 UNL     1      23.646  12.877  54.147  1.00  0.00     0.152 C 
BRANCH  12  13
HETATM   13  O4  UNL     1      23.916  11.826  54.890  1.00  0.00    -0.345 OA
ATOM     14  H4  UNL     1      24.758  11.771  55.327  1.00  0.00     0.219 HD
ENDBRANCH  12  13
BRANCH  12  15
HETATM   15  C16 UNL     1      22.983  12.428  52.951  1.00  0.00     0.015 A 
HETATM   16  C17 UNL     1      21.648  12.688  52.743  1.00  0.00     0.016 A 
HETATM   17  C18 UNL     1      21.017  12.301  51.552  1.00  0.00     0.012 A 
HETATM   18  C19 UNL     1      21.692  11.660  50.572  1.00  0.00    -0.036 A 
HETATM   19  C23 UNL     1      23.043  11.403  50.796  1.00  0.00     0.012 A 
HETATM   20  C24 UNL     1      23.685  11.765  51.938  1.00  0.00     0.016 A 
BRANCH  18  21
HETATM   21  C20 UNL     1      21.047  11.220  49.338  1.00  0.00     0.015 C 
HETATM   22  C21 UNL     1      20.440  11.975  48.475  1.00  0.00     0.058 C 
BRANCH  22  23
HETATM   23  C22 UNL     1      19.788  11.591  47.252  1.00  0.00     0.159 C 
HETATM   24  N3  UNL     1      19.997  12.040  46.077  1.00  0.00    -0.248 N 
ATOM     25  H3  UNL     1      19.414  11.616  45.357  1.00  0.00     0.196 HD
BRANCH  23  26
HETATM   26  O5  UNL     1      18.779  10.591  47.306  1.00  0.00    -0.345 OA
ATOM     27  H5  UNL     1      18.697   9.990  46.576  1.00  0.00     0.219 HD
ENDBRANCH  23  26
BRANCH  24  28
HETATM   28  O6  UNL     1      20.841  12.965  45.624  1.00  0.00    -0.288 OA
ATOM     29  H6  UNL     1      21.544  12.917  44.987  1.00  0.00     0.244 HD
ENDBRANCH  24  28
ENDBRANCH  22  23
ENDBRANCH  18  21
ENDBRANCH  12  15
ENDBRANCH  10  12
ENDBRANCH   5  10
BRANCH   4  30
HETATM   30  C4  UNL     1      26.826  14.974  55.449  1.00  0.00     0.007 C 
HETATM   31  C5  UNL     1      28.109  15.216  55.672  1.00  0.00    -0.016 C 
BRANCH  31  32
HETATM   32  C6  UNL     1      28.982  14.461  56.565  1.00  0.00     0.101 C 
BRANCH  32  33
HETATM   33  S1  UNL     1      30.438  13.912  55.623  1.00  0.00    -0.163 SA
BRANCH  33  34
HETATM   34  C7  UNL     1      29.877  13.241  54.034  1.00  0.00     0.108 C 
BRANCH  34  35
HETATM   35  C8  UNL     1      28.884  12.145  54.353  1.00  0.00     0.162 C 
HETATM   36  O1  UNL     1      29.591  11.034  54.812  1.00  0.00    -0.380 OA
HETATM   37  C9  UNL     1      28.703  10.299  55.600  1.00  0.00     0.203 C 
HETATM   38  C10 UNL     1      27.448  10.056  54.816  1.00  0.00     0.178 C 
HETATM   39  C11 UNL     1      27.690  10.281  53.343  1.00  0.00     0.232 C 
HETATM   40  F1  UNL     1      26.552   9.951  52.641  1.00  0.00    -0.244 F 
HETATM   41  C12 UNL     1      28.098  11.724  53.131  1.00  0.00     0.184 C 
BRANCH  38  42
HETATM   42  O2  UNL     1      26.431  10.870  55.299  1.00  0.00    -0.390 OA
ATOM     43  H2  UNL     1      25.966  10.419  55.994  1.00  0.00     0.210 HD
ENDBRANCH  38  42
BRANCH  41  44
HETATM   44  O3  UNL     1      27.004  12.545  52.950  1.00  0.00    -0.390 OA
ATOM     45  H3  UNL     1      26.576  12.356  52.123  1.00  0.00     0.210 HD
ENDBRANCH  41  44
ENDBRANCH  34  35
ENDBRANCH  33  34
ENDBRANCH  32  33
ENDBRANCH  31  32
ENDBRANCH   4  30
TORSDOF 15
ENDMDL
MODEL 3
REMARK VINA RESULT: -8.252882025      3.457      6.156
REMARK  15 active torsions:
REMARK  status: ('A' for Active; 'I' for Inactive)
REMARK    1  A    between atoms: C3_4  and  C4_5 
REMARK    2  A    between atoms: C5_6  and  C6_7 
REMARK    3  A    between atoms: C6_7  and  S1_8 
REMARK    4  A    between atoms: S1_8  and  C7_9 
REMARK    5  A    between atoms: C7_9  and  C8_10 
REMARK    6  A    between atoms: C10_13  and  O2_14 
REMARK    7  A    between atoms: C12_18  and  O3_19 
REMARK    8  A    between atoms: C13_21  and  N2_22 
REMARK    9  A    between atoms: N2_22  and  C15_24 
REMARK   10  A    between atoms: C15_24  and  O4_25 
REMARK   11  A    between atoms: C15_24  and  C16_27 
REMARK   12  A    between atoms: C19_30  and  C20_31 
REMARK   13  A    between atoms: C21_32  and  C22_33 
REMARK   14  A    between atoms: C22_33  and  O5_34 
REMARK   15  A    between atoms: N3_36  and  O6_38 
ROOT
HETATM    1  C1  UNL     1      30.436  14.589  56.146  1.00  0.00     0.143 C 
HETATM    2  N1  UNL     1      29.379  13.767  55.655  1.00  0.00    -0.411 N 
HETATM    3  C2  UNL     1      28.416  14.424  54.837  1.00  0.00     0.157 C 
HETATM    4  C3  UNL     1      27.016  14.103  55.285  1.00  0.00    -0.017 C 
HETATM    5  C13 UNL     1      26.633  12.725  55.501  1.00  0.00     0.030 C 
HETATM    6  C25 UNL     1      27.852  11.928  55.931  1.00  0.00     0.011 C 
HETATM    7  C26 UNL     1      27.497  10.930  57.058  1.00  0.00     0.023 C 
HETATM    8  C27 UNL     1      28.620  11.236  54.867  1.00  0.00     0.023 C 
HETATM    9  C28 UNL     1      28.859  12.868  56.628  1.00  0.00     0.131 C 
ENDROOT
BRANCH   5  10
HETATM   10  N2  UNL     1      25.805  11.969  54.604  1.00  0.00    -0.334 N 
HETATM   11  C14 UNL     1      24.892  11.079  55.320  1.00  0.00     0.158 C 
BRANCH  10  12
HETATM   12  C15 UNL     1      25.745  12.075  53.226  1.00  0.00     0.152 C 
BRANCH  12  13
HETATM   13  O4  UNL     1      26.864  12.133  52.537  1.00  0.00    -0.345 OA
ATOM     14  H4  UNL     1      26.973  12.815  51.885  1.00  0.00     0.219 HD
ENDBRANCH  12  13
BRANCH  12  15
HETATM   15  C16 UNL     1      24.641  12.142  52.303  1.00  0.00     0.015 A 
HETATM   16  C17 UNL     1      24.175  13.353  51.847  1.00  0.00     0.016 A 
HETATM   17  C18 UNL     1      23.139  13.416  50.905  1.00  0.00     0.012 A 
HETATM   18  C19 UNL     1      22.563  12.296  50.415  1.00  0.00    -0.036 A 
HETATM   19  C23 UNL     1      23.044  11.077  50.885  1.00  0.00     0.012 A 
HETATM   20  C24 UNL     1      24.047  10.980  51.797  1.00  0.00     0.016 A 
BRANCH  18  21
HETATM   21  C20 UNL     1      21.461  12.340  49.457  1.00  0.00     0.015 C 
HETATM   22  C21 UNL     1      21.275  11.531  48.459  1.00  0.00     0.058 C 
BRANCH  22  23
HETATM   23  C22 UNL     1      20.212  11.534  47.491  1.00  0.00     0.159 C 
HETATM   24  N3  UNL     1      20.170  12.149  46.374  1.00  0.00    -0.248 N 
ATOM     25  H3  UNL     1      19.309  12.003  45.848  1.00  0.00     0.196 HD
BRANCH  23  26
HETATM   26  O5  UNL     1      19.042  10.774  47.765  1.00  0.00    -0.345 OA
ATOM     27  H5  UNL     1      18.513  11.012  48.517  1.00  0.00     0.219 HD
ENDBRANCH  23  26
BRANCH  24  28
HETATM   28  O6  UNL     1      21.050  12.949  45.774  1.00  0.00    -0.288 OA
ATOM     29  H6  UNL     1      20.992  13.461  44.977  1.00  0.00     0.244 HD
ENDBRANCH  24  28
ENDBRANCH  22  23
ENDBRANCH  18  21
ENDBRANCH  12  15
ENDBRANCH  10  12
ENDBRANCH   5  10
BRANCH   4  30
HETATM   30  C4  UNL     1      26.004  15.020  54.700  1.00  0.00     0.007 C 
HETATM   31  C5  UNL     1      24.794  15.221  55.199  1.00  0.00    -0.016 C 
BRANCH  31  32
HETATM   32  C6  UNL     1      23.777  16.113  54.650  1.00  0.00     0.101 C 
BRANCH  32  33
HETATM   33  S1  UNL     1      22.181  15.719  55.430  1.00  0.00    -0.163 SA
BRANCH  33  34
HETATM   34  C7  UNL     1      20.851  16.209  54.300  1.00  0.00     0.108 C 
BRANCH  34  35
HETATM   35  C8  UNL     1      19.939  15.009  54.158  1.00  0.00     0.162 C 
HETATM   36  O1  UNL     1      19.988  14.280  55.346  1.00  0.00    -0.380 OA
HETATM   37  C9  UNL     1      18.791  13.564  55.419  1.00  0.00     0.203 C 
HETATM   38  C10 UNL     1      18.602  12.806  54.138  1.00  0.00     0.178 C 
HETATM   39  C11 UNL     1      19.907  12.702  53.386  1.00  0.00     0.232 C 
HETATM   40  F1  UNL     1      19.725  11.915  52.271  1.00  0.00    -0.244 F 
HETATM   41  C12 UNL     1      20.379  14.097  53.034  1.00  0.00     0.184 C 
BRANCH  38  42
HETATM   42  O2  UNL     1      17.616  13.418  53.375  1.00  0.00    -0.390 OA
ATOM     43  H2  UNL     1      17.177  12.768  52.840  1.00  0.00     0.210 HD
ENDBRANCH  38  42
BRANCH  41  44
HETATM   44  O3  UNL     1      19.862  14.526  51.829  1.00  0.00    -0.390 OA
ATOM     45  H3  UNL     1      20.151  13.963  51.121  1.00  0.00     0.210 HD
ENDBRANCH  41  44
ENDBRANCH  34  35
ENDBRANCH  33  34
ENDBRANCH  32  33
ENDBRANCH  31  32
ENDBRANCH   4  30
TORSDOF 15
ENDMDL
MODEL 4
REMARK VINA RESULT: -8.249921678      1.636      2.026
REMARK  15 active torsions:
REMARK  status: ('A' for Active; 'I' for Inactive)
REMARK    1  A    between atoms: C3_4  and  C4_5 
REMARK    2  A    between atoms: C5_6  and  C6_7 
REMARK    3  A    between atoms: C6_7  and  S1_8 
REMARK    4  A    between atoms: S1_8  and  C7_9 
REMARK    5  A    between atoms: C7_9  and  C8_10 
REMARK    6  A    between atoms: C10_13  and  O2_14 
REMARK    7  A    between atoms: C12_18  and  O3_19 
REMARK    8  A    between atoms: C13_21  and  N2_22 
REMARK    9  A    between atoms: N2_22  and  C15_24 
REMARK   10  A    between atoms: C15_24  and  O4_25 
REMARK   11  A    between atoms: C15_24  and  C16_27 
REMARK   12  A    between atoms: C19_30  and  C20_31 
REMARK   13  A    between atoms: C21_32  and  C22_33 
REMARK   14  A    between atoms: C22_33  and  O5_34 
REMARK   15  A    between atoms: N3_36  and  O6_38 
ROOT
HETATM    1  C1  UNL     1      25.736  19.214  53.362  1.00  0.00     0.143 C 
HETATM    2  N1  UNL     1      25.094  17.985  53.695  1.00  0.00    -0.411 N 
HETATM    3  C2  UNL     1      25.577  17.333  54.865  1.00  0.00     0.157 C 
HETATM    4  C3  UNL     1      25.851  15.878  54.601  1.00  0.00    -0.017 C 
HETATM    5  C13 UNL     1      24.844  15.066  53.955  1.00  0.00     0.030 C 
HETATM    6  C25 UNL     1      24.010  15.940  53.035  1.00  0.00     0.011 C 
HETATM    7  C26 UNL     1      23.704  15.217  51.702  1.00  0.00     0.023 C 
HETATM    8  C27 UNL     1      22.762  16.517  53.593  1.00  0.00     0.023 C 
HETATM    9  C28 UNL     1      24.854  17.146  52.570  1.00  0.00     0.131 C 
ENDROOT
BRANCH   5  10
HETATM   10  N2  UNL     1      24.028  14.101  54.638  1.00  0.00    -0.334 N 
HETATM   11  C14 UNL     1      23.492  14.626  55.892  1.00  0.00     0.158 C 
BRANCH  10  12
HETATM   12  C15 UNL     1      23.663  12.843  54.191  1.00  0.00     0.152 C 
BRANCH  12  13
HETATM   13  O4  UNL     1      23.977  11.789  54.911  1.00  0.00    -0.345 OA
ATOM     14  H4  UNL     1      23.398  11.036  54.909  1.00  0.00     0.219 HD
ENDBRANCH  12  13
BRANCH  12  15
HETATM   15  C16 UNL     1      22.959  12.396  53.016  1.00  0.00     0.015 A 
HETATM   16  C17 UNL     1      21.635  12.713  52.823  1.00  0.00     0.016 A 
HETATM   17  C18 UNL     1      20.966  12.326  51.653  1.00  0.00     0.012 A 
HETATM   18  C19 UNL     1      21.594  11.631  50.680  1.00  0.00    -0.036 A 
HETATM   19  C23 UNL     1      22.934  11.316  50.889  1.00  0.00     0.012 A 
HETATM   20  C24 UNL     1      23.613  11.675  52.010  1.00  0.00     0.016 A 
BRANCH  18  21
HETATM   21  C20 UNL     1      20.907  11.191  49.468  1.00  0.00     0.015 C 
HETATM   22  C21 UNL     1      20.461  11.952  48.517  1.00  0.00     0.058 C 
BRANCH  22  23
HETATM   23  C22 UNL     1      19.778  11.568  47.310  1.00  0.00     0.159 C 
HETATM   24  N3  UNL     1      19.958  12.017  46.130  1.00  0.00    -0.248 N 
ATOM     25  H3  UNL     1      19.356  11.594  45.425  1.00  0.00     0.196 HD
BRANCH  23  26
HETATM   26  O5  UNL     1      18.768  10.570  47.390  1.00  0.00    -0.345 OA
ATOM     27  H5  UNL     1      17.860  10.839  47.331  1.00  0.00     0.219 HD
ENDBRANCH  23  26
BRANCH  24  28
HETATM   28  O6  UNL     1      20.792  12.940  45.656  1.00  0.00    -0.288 OA
ATOM     29  H6  UNL     1      20.755  13.479  44.874  1.00  0.00     0.244 HD
ENDBRANCH  24  28
ENDBRANCH  22  23
ENDBRANCH  18  21
ENDBRANCH  12  15
ENDBRANCH  10  12
ENDBRANCH   5  10
BRANCH   4  30
HETATM   30  C4  UNL     1      26.670  15.248  55.667  1.00  0.00     0.007 C 
HETATM   31  C5  UNL     1      27.939  15.537  55.910  1.00  0.00    -0.016 C 
BRANCH  31  32
HETATM   32  C6  UNL     1      28.773  14.938  56.947  1.00  0.00     0.101 C 
BRANCH  32  33
HETATM   33  S1  UNL     1      28.490  13.140  56.950  1.00  0.00    -0.163 SA
BRANCH  33  34
HETATM   34  C7  UNL     1      29.643  12.373  55.779  1.00  0.00     0.108 C 
BRANCH  34  35
HETATM   35  C8  UNL     1      28.805  11.577  54.804  1.00  0.00     0.162 C 
HETATM   36  O1  UNL     1      27.584  12.232  54.640  1.00  0.00    -0.380 OA
HETATM   37  C9  UNL     1      27.092  11.845  53.392  1.00  0.00     0.203 C 
HETATM   38  C10 UNL     1      27.099  10.346  53.313  1.00  0.00     0.178 C 
HETATM   39  C11 UNL     1      27.210   9.743  54.692  1.00  0.00     0.232 C 
HETATM   40  F1  UNL     1      27.110   8.373  54.596  1.00  0.00    -0.244 F 
HETATM   41  C12 UNL     1      28.520  10.182  55.313  1.00  0.00     0.184 C 
BRANCH  38  42
HETATM   42  O2  UNL     1      28.134   9.929  52.485  1.00  0.00    -0.390 OA
ATOM     43  H2  UNL     1      28.654  10.679  52.222  1.00  0.00     0.210 HD
ENDBRANCH  38  42
BRANCH  41  44
HETATM   44  O3  UNL     1      29.552   9.326  54.991  1.00  0.00    -0.390 OA
ATOM     45  H3  UNL     1      29.941   8.959  55.777  1.00  0.00     0.210 HD
ENDBRANCH  41  44
ENDBRANCH  34  35
ENDBRANCH  33  34
ENDBRANCH  32  33
ENDBRANCH  31  32
ENDBRANCH   4  30
TORSDOF 15
ENDMDL
MODEL 5
REMARK VINA RESULT: -8.248273919      1.336      1.638
REMARK  15 active torsions:
REMARK  status: ('A' for Active; 'I' for Inactive)
REMARK    1  A    between atoms: C3_4  and  C4_5 
REMARK    2  A    between atoms: C5_6  and  C6_7 
REMARK    3  A    between atoms: C6_7  and  S1_8 
REMARK    4  A    between atoms: S1_8  and  C7_9 
REMARK    5  A    between atoms: C7_9  and  C8_10 
REMARK    6  A    between atoms: C10_13  and  O2_14 
REMARK    7  A    between atoms: C12_18  and  O3_19 
REMARK    8  A    between atoms: C13_21  and  N2_22 
REMARK    9  A    between atoms: N2_22  and  C15_24 
REMARK   10  A    between atoms: C15_24  and  O4_25 
REMARK   11  A    between atoms: C15_24  and  C16_27 
REMARK   12  A    between atoms: C19_30  and  C20_31 
REMARK   13  A    between atoms: C21_32  and  C22_33 
REMARK   14  A    between atoms: C22_33  and  O5_34 
REMARK   15  A    between atoms: N3_36  and  O6_38 
ROOT
HETATM    1  C1  UNL     1      27.042  18.620  56.238  1.00  0.00     0.143 C 
HETATM    2  N1  UNL     1      26.409  17.446  55.733  1.00  0.00    -0.411 N 
HETATM    3  C2  UNL     1      27.000  16.210  56.121  1.00  0.00     0.157 C 
HETATM    4  C3  UNL     1      27.207  15.312  54.932  1.00  0.00    -0.017 C 
HETATM    5  C13 UNL     1      26.114  15.078  54.014  1.00  0.00     0.030 C 
HETATM    6  C25 UNL     1      25.207  16.296  53.994  1.00  0.00     0.011 C 
HETATM    7  C26 UNL     1      24.739  16.621  52.557  1.00  0.00     0.023 C 
HETATM    8  C27 UNL     1      24.043  16.290  54.915  1.00  0.00     0.023 C 
HETATM    9  C28 UNL     1      26.026  17.551  54.366  1.00  0.00     0.131 C 
ENDROOT
BRANCH   5  10
HETATM   10  N2  UNL     1      25.354  13.860  53.960  1.00  0.00    -0.334 N 
HETATM   11  C14 UNL     1      24.575  13.648  55.179  1.00  0.00     0.158 C 
BRANCH  10  12
HETATM   12  C15 UNL     1      25.240  12.988  52.892  1.00  0.00     0.152 C 
BRANCH  12  13
HETATM   13  O4  UNL     1      26.277  12.259  52.545  1.00  0.00    -0.345 OA
ATOM     14  H4  UNL     1      26.974  12.656  52.036  1.00  0.00     0.219 HD
ENDBRANCH  12  13
BRANCH  12  15
HETATM   15  C16 UNL     1      24.149  12.677  52.004  1.00  0.00     0.015 A 
HETATM   16  C17 UNL     1      23.920  11.384  51.595  1.00  0.00     0.016 A 
HETATM   17  C18 UNL     1      22.824  11.072  50.777  1.00  0.00     0.012 A 
HETATM   18  C19 UNL     1      21.961  12.025  50.362  1.00  0.00    -0.036 A 
HETATM   19  C23 UNL     1      22.206  13.330  50.784  1.00  0.00     0.012 A 
HETATM   20  C24 UNL     1      23.257  13.666  51.577  1.00  0.00     0.016 A 
BRANCH  18  21
HETATM   21  C20 UNL     1      20.832  11.727  49.484  1.00  0.00     0.015 C 
HETATM   22  C21 UNL     1      20.820  11.815  48.190  1.00  0.00     0.058 C 
BRANCH  22  23
HETATM   23  C22 UNL     1      19.737  11.538  47.285  1.00  0.00     0.159 C 
HETATM   24  N3  UNL     1      19.581  11.965  46.094  1.00  0.00    -0.248 N 
ATOM     25  H3  UNL     1      18.731  11.634  45.638  1.00  0.00     0.196 HD
BRANCH  23  26
HETATM   26  O5  UNL     1      18.685  10.688  47.726  1.00  0.00    -0.345 OA
ATOM     27  H5  UNL     1      17.790  10.993  47.639  1.00  0.00     0.219 HD
ENDBRANCH  23  26
BRANCH  24  28
HETATM   28  O6  UNL     1      20.329  12.767  45.339  1.00  0.00    -0.288 OA
ATOM     29  H6  UNL     1      20.506  13.699  45.395  1.00  0.00     0.244 HD
ENDBRANCH  24  28
ENDBRANCH  22  23
ENDBRANCH  18  21
ENDBRANCH  12  15
ENDBRANCH  10  12
ENDBRANCH   5  10
BRANCH   4  30
HETATM   30  C4  UNL     1      28.122  14.180  55.224  1.00  0.00     0.007 C 
HETATM   31  C5  UNL     1      29.041  13.721  54.388  1.00  0.00    -0.016 C 
BRANCH  31  32
HETATM   32  C6  UNL     1      29.954  12.611  54.642  1.00  0.00     0.101 C 
BRANCH  32  33
HETATM   33  S1  UNL     1      29.864  12.179  56.407  1.00  0.00    -0.163 SA
BRANCH  33  34
HETATM   34  C7  UNL     1      29.698  10.380  56.553  1.00  0.00     0.108 C 
BRANCH  34  35
HETATM   35  C8  UNL     1      28.369  10.015  55.929  1.00  0.00     0.162 C 
HETATM   36  O1  UNL     1      27.352  10.502  56.751  1.00  0.00    -0.380 OA
HETATM   37  C9  UNL     1      26.230  10.668  55.935  1.00  0.00     0.203 C 
HETATM   38  C10 UNL     1      25.980   9.389  55.191  1.00  0.00     0.178 C 
HETATM   39  C11 UNL     1      26.705   8.241  55.850  1.00  0.00     0.232 C 
HETATM   40  F1  UNL     1      26.374   7.069  55.208  1.00  0.00    -0.244 F 
HETATM   41  C12 UNL     1      28.194   8.518  55.809  1.00  0.00     0.184 C 
BRANCH  38  42
HETATM   42  O2  UNL     1      26.357   9.541  53.863  1.00  0.00    -0.390 OA
ATOM     43  H2  UNL     1      25.760   9.058  53.305  1.00  0.00     0.210 HD
ENDBRANCH  38  42
BRANCH  41  44
HETATM   44  O3  UNL     1      28.771   8.052  54.646  1.00  0.00    -0.390 OA
ATOM     45  H3  UNL     1      28.140   8.052  53.935  1.00  0.00     0.210 HD
ENDBRANCH  41  44
ENDBRANCH  34  35
ENDBRANCH  33  34
ENDBRANCH  32  33
ENDBRANCH  31  32
ENDBRANCH   4  30
TORSDOF 15
ENDMDL
