MODEL 1
REMARK VINA RESULT: -8.494592921      0.000      0.000
REMARK  10 active torsions:
REMARK  status: ('A' for Active; 'I' for Inactive)
REMARK    1  A    between atoms: C2_2  and  C3_3 
REMARK    2  A    between atoms: C3_3  and  C4_4 
REMARK    3  A    between atoms: C4_4  and  N1_5 
REMARK    4  A    between atoms: N2_8  and  C7_9 
REMARK    5  A    between atoms: C7_9  and  C8_10 
REMARK    6  A    between atoms: N3_12  and  C10_13 
REMARK    7  A    between atoms: C10_13  and  C11_14 
REMARK    8  A    between atoms: C13_19  and  C14_20 
REMARK    9  A    between atoms: C14_20  and  C15_21 
REMARK   10  A    between atoms: C19_31  and  O2_32 
ROOT
HETATM    1  C11 UNL     1     -50.310 -14.450 -21.477  1.00  0.00     0.037 C 
HETATM    2  N4  UNL     1     -49.571 -13.387 -21.912  1.00  0.00    -0.325 N 
ATOM      3  H4  UNL     1     -48.640 -13.570 -22.286  1.00  0.00     0.169 HD
HETATM    4  C12 UNL     1     -50.012 -12.087 -21.874  1.00  0.00     0.255 C 
HETATM    5  O1  UNL     1     -49.848 -11.399 -22.921  1.00  0.00    -0.268 OA
HETATM    6  C13 UNL     1     -50.617 -11.421 -20.842  1.00  0.00     0.048 C 
HETATM    7  C19 UNL     1     -51.591 -12.019 -20.022  1.00  0.00     0.087 C 
HETATM    8  C20 UNL     1     -51.639 -13.377 -19.684  1.00  0.00     0.018 C 
HETATM    9  C21 UNL     1     -51.095 -14.473 -20.318  1.00  0.00    -0.022 C 
HETATM   10  C22 UNL     1     -51.450 -15.679 -19.557  1.00  0.00     0.044 C 
HETATM   11  C23 UNL     1     -52.576 -15.259 -18.669  1.00  0.00     0.047 C 
HETATM   12  C24 UNL     1     -52.371 -13.794 -18.446  1.00  0.00     0.207 C 
HETATM   13  F1  UNL     1     -53.545 -13.085 -18.403  1.00  0.00    -0.244 F 
ENDROOT
BRANCH   1  14
HETATM   14  C10 UNL     1     -50.347 -15.688 -22.256  1.00  0.00     0.186 C 
BRANCH  14  15
HETATM   15  N3  UNL     1     -51.199 -15.605 -23.419  1.00  0.00    -0.345 N 
HETATM   16  C9  UNL     1     -51.964 -14.490 -23.638  1.00  0.00     0.118 A 
HETATM   17  C8  UNL     1     -52.683 -14.675 -24.803  1.00  0.00     0.044 A 
HETATM   18  N7  UNL     1     -52.351 -15.883 -25.267  1.00  0.00    -0.353 N 
HETATM   19  C25 UNL     1     -51.441 -16.447 -24.416  1.00  0.00     0.183 A 
ATOM     20  H7  UNL     1     -52.716 -16.314 -26.116  1.00  0.00     0.166 HD
BRANCH  17  21
HETATM   21  C7  UNL     1     -53.638 -13.658 -25.391  1.00  0.00     0.185 C 
BRANCH  21  22
HETATM   22  N2  UNL     1     -52.909 -13.061 -26.485  1.00  0.00    -0.365 N 
HETATM   23  C6  UNL     1     -53.683 -12.756 -27.622  1.00  0.00     0.083 C 
HETATM   24  C5  UNL     1     -53.693 -11.344 -28.093  1.00  0.00     0.162 C 
HETATM   25  N1  UNL     1     -52.963 -10.404 -27.320  1.00  0.00    -0.404 N 
HETATM   26  C27 UNL     1     -51.763 -10.874 -26.711  1.00  0.00     0.162 C 
HETATM   27  C26 UNL     1     -51.814 -12.245 -26.150  1.00  0.00     0.083 C 
BRANCH  25  28
HETATM   28  C4  UNL     1     -53.723  -9.501 -26.546  1.00  0.00     0.117 C 
BRANCH  28  29
HETATM   29  C3  UNL     1     -53.309  -9.396 -25.120  1.00  0.00     0.019 C 
BRANCH  29  30
HETATM   30  C2  UNL     1     -54.210  -9.997 -24.098  1.00  0.00    -0.003 C 
HETATM   31  C1  UNL     1     -53.487 -10.830 -23.089  1.00  0.00     0.005 C 
ENDBRANCH  29  30
ENDBRANCH  28  29
ENDBRANCH  25  28
ENDBRANCH  21  22
ENDBRANCH  17  21
ENDBRANCH  14  15
ENDBRANCH   1  14
BRANCH   6  32
HETATM   32  C14 UNL     1     -50.266 -10.048 -20.500  1.00  0.00     0.095 C 
BRANCH  32  33
HETATM   33  C15 UNL     1     -48.971  -9.926 -19.740  1.00  0.00     0.013 A 
HETATM   34  S1  UNL     1     -48.799 -10.151 -18.014  1.00  0.00    -0.057 SA
HETATM   35  C16 UNL     1     -47.120  -9.908 -17.909  1.00  0.00     0.142 A 
HETATM   36  N5  UNL     1     -46.332  -9.945 -16.853  1.00  0.00    -0.380 N 
HETATM   37  N6  UNL     1     -46.768  -9.670 -19.166  1.00  0.00    -0.340 N 
ATOM     38  H52 UNL     1     -46.604 -10.128 -15.886  1.00  0.00     0.158 HD
ATOM     39  H51 UNL     1     -45.325  -9.800 -16.790  1.00  0.00     0.158 HD
HETATM   40  C17 UNL     1     -47.693  -9.677 -20.094  1.00  0.00     0.021 A 
ATOM     41  H6  UNL     1     -45.794  -9.485 -19.405  1.00  0.00     0.168 HD
HETATM   42  C18 UNL     1     -47.331  -9.375 -21.548  1.00  0.00     0.069 C 
ENDBRANCH  32  33
ENDBRANCH   6  32
BRANCH   7  43
HETATM   43  O2  UNL     1     -52.591 -11.227 -19.496  1.00  0.00    -0.359 OA
ATOM     44  H2  UNL     1     -52.982 -10.560 -20.047  1.00  0.00     0.217 HD
ENDBRANCH   7  43
TORSDOF 10
ENDMDL
MODEL 2
REMARK VINA RESULT: -8.479687818      1.057      1.326
REMARK  10 active torsions:
REMARK  status: ('A' for Active; 'I' for Inactive)
REMARK    1  A    between atoms: C2_2  and  C3_3 
REMARK    2  A    between atoms: C3_3  and  C4_4 
REMARK    3  A    between atoms: C4_4  and  N1_5 
REMARK    4  A    between atoms: N2_8  and  C7_9 
REMARK    5  A    between atoms: C7_9  and  C8_10 
REMARK    6  A    between atoms: N3_12  and  C10_13 
REMARK    7  A    between atoms: C10_13  and  C11_14 
REMARK    8  A    between atoms: C13_19  and  C14_20 
REMARK    9  A    between atoms: C14_20  and  C15_21 
REMARK   10  A    between atoms: C19_31  and  O2_32 
ROOT
HETATM    1  C11 UNL     1     -50.302 -14.328 -22.111  1.00  0.00     0.037 C 
HETATM    2  N4  UNL     1     -49.589 -13.256 -22.567  1.00  0.00    -0.325 N 
ATOM      3  H4  UNL     1     -48.733 -13.436 -23.092  1.00  0.00     0.169 HD
HETATM    4  C12 UNL     1     -49.962 -11.950 -22.360  1.00  0.00     0.255 C 
HETATM    5  O1  UNL     1     -49.925 -11.182 -23.362  1.00  0.00    -0.268 OA
HETATM    6  C13 UNL     1     -50.378 -11.355 -21.199  1.00  0.00     0.048 C 
HETATM    7  C19 UNL     1     -51.245 -11.989 -20.291  1.00  0.00     0.087 C 
HETATM    8  C20 UNL     1     -51.302 -13.369 -20.059  1.00  0.00     0.018 C 
HETATM    9  C21 UNL     1     -50.907 -14.424 -20.852  1.00  0.00    -0.022 C 
HETATM   10  C22 UNL     1     -51.198 -15.678 -20.143  1.00  0.00     0.044 C 
HETATM   11  C23 UNL     1     -52.160 -15.299 -19.065  1.00  0.00     0.047 C 
HETATM   12  C24 UNL     1     -51.861 -13.866 -18.761  1.00  0.00     0.207 C 
HETATM   13  F1  UNL     1     -52.982 -13.126 -18.485  1.00  0.00    -0.244 F 
ENDROOT
BRANCH   1  14
HETATM   14  C10 UNL     1     -50.509 -15.494 -22.971  1.00  0.00     0.186 C 
BRANCH  14  15
HETATM   15  N3  UNL     1     -51.514 -15.282 -23.986  1.00  0.00    -0.345 N 
HETATM   16  C9  UNL     1     -52.149 -14.073 -24.089  1.00  0.00     0.118 A 
HETATM   17  C8  UNL     1     -53.061 -14.146 -25.125  1.00  0.00     0.044 A 
HETATM   18  N7  UNL     1     -52.970 -15.381 -25.626  1.00  0.00    -0.353 N 
HETATM   19  C25 UNL     1     -52.021 -16.072 -24.925  1.00  0.00     0.183 A 
ATOM     20  H7  UNL     1     -53.518 -15.749 -26.403  1.00  0.00     0.166 HD
BRANCH  17  21
HETATM   21  C7  UNL     1     -53.952 -13.004 -25.563  1.00  0.00     0.185 C 
BRANCH  21  22
HETATM   22  N2  UNL     1     -53.140 -12.235 -26.476  1.00  0.00    -0.365 N 
HETATM   23  C6  UNL     1     -53.716 -12.009 -27.742  1.00  0.00     0.083 C 
HETATM   24  C5  UNL     1     -53.886 -10.598 -28.183  1.00  0.00     0.162 C 
HETATM   25  N1  UNL     1     -53.504  -9.587 -27.264  1.00  0.00    -0.404 N 
HETATM   26  C27 UNL     1     -52.383  -9.874 -26.430  1.00  0.00     0.162 C 
HETATM   27  C26 UNL     1     -52.298 -11.260 -25.912  1.00  0.00     0.083 C 
BRANCH  25  28
HETATM   28  C4  UNL     1     -54.551  -8.870 -26.646  1.00  0.00     0.117 C 
BRANCH  28  29
HETATM   29  C3  UNL     1     -54.169  -8.147 -25.403  1.00  0.00     0.019 C 
BRANCH  29  30
HETATM   30  C2  UNL     1     -54.540  -6.708 -25.305  1.00  0.00    -0.003 C 
HETATM   31  C1  UNL     1     -55.694  -6.334 -26.178  1.00  0.00     0.005 C 
ENDBRANCH  29  30
ENDBRANCH  28  29
ENDBRANCH  25  28
ENDBRANCH  21  22
ENDBRANCH  17  21
ENDBRANCH  14  15
ENDBRANCH   1  14
BRANCH   6  32
HETATM   32  C14 UNL     1     -49.919 -10.029 -20.807  1.00  0.00     0.095 C 
BRANCH  32  33
HETATM   33  C15 UNL     1     -48.695 -10.046 -19.929  1.00  0.00     0.013 A 
HETATM   34  S1  UNL     1     -48.704  -9.825 -18.195  1.00  0.00    -0.057 SA
HETATM   35  C16 UNL     1     -47.037 -10.011 -17.923  1.00  0.00     0.142 A 
HETATM   36  N5  UNL     1     -46.361  -9.962 -16.792  1.00  0.00    -0.380 N 
HETATM   37  N6  UNL     1     -46.552 -10.228 -19.139  1.00  0.00    -0.340 N 
ATOM     38  H52 UNL     1     -46.734  -9.795 -15.857  1.00  0.00     0.158 HD
ATOM     39  H51 UNL     1     -45.361 -10.074 -16.629  1.00  0.00     0.158 HD
HETATM   40  C17 UNL     1     -47.380 -10.248 -20.155  1.00  0.00     0.021 A 
ATOM     41  H6  UNL     1     -45.553 -10.378 -19.280  1.00  0.00     0.168 HD
HETATM   42  C18 UNL     1     -46.855 -10.462 -21.574  1.00  0.00     0.069 C 
ENDBRANCH  32  33
ENDBRANCH   6  32
BRANCH   7  43
HETATM   43  O2  UNL     1     -52.120 -11.213 -19.559  1.00  0.00    -0.359 OA
ATOM     44  H2  UNL     1     -52.150 -11.326 -18.616  1.00  0.00     0.217 HD
ENDBRANCH   7  43
TORSDOF 10
ENDMDL
MODEL 3
REMARK VINA RESULT: -8.400216717      1.527      2.035
REMARK  10 active torsions:
REMARK  status: ('A' for Active; 'I' for Inactive)
REMARK    1  A    between atoms: C2_2  and  C3_3 
REMARK    2  A    between atoms: C3_3  and  C4_4 
REMARK    3  A    between atoms: C4_4  and  N1_5 
REMARK    4  A    between atoms: N2_8  and  C7_9 
REMARK    5  A    between atoms: C7_9  and  C8_10 
REMARK    6  A    between atoms: N3_12  and  C10_13 
REMARK    7  A    between atoms: C10_13  and  C11_14 
REMARK    8  A    between atoms: C13_19  and  C14_20 
REMARK    9  A    between atoms: C14_20  and  C15_21 
REMARK   10  A    between atoms: C19_31  and  O2_32 
ROOT
HETATM    1  C11 UNL     1     -50.783 -13.720 -20.266  1.00  0.00     0.037 C 
HETATM    2  N4  UNL     1     -49.682 -13.224 -20.905  1.00  0.00    -0.325 N 
ATOM      3  H4  UNL     1     -48.942 -13.876 -21.164  1.00  0.00     0.169 HD
HETATM    4  C12 UNL     1     -49.519 -11.896 -21.218  1.00  0.00     0.255 C 
HETATM    5  O1  UNL     1     -49.130 -11.632 -22.391  1.00  0.00    -0.268 OA
HETATM    6  C13 UNL     1     -49.723 -10.800 -20.424  1.00  0.00     0.048 C 
HETATM    7  C19 UNL     1     -50.815 -10.696 -19.543  1.00  0.00     0.087 C 
HETATM    8  C20 UNL     1     -51.424 -11.770 -18.882  1.00  0.00     0.018 C 
HETATM    9  C21 UNL     1     -51.438 -13.114 -19.189  1.00  0.00    -0.022 C 
HETATM   10  C22 UNL     1     -52.237 -13.816 -18.175  1.00  0.00     0.044 C 
HETATM   11  C23 UNL     1     -53.024 -12.747 -17.490  1.00  0.00     0.047 C 
HETATM   12  C24 UNL     1     -52.198 -11.508 -17.627  1.00  0.00     0.207 C 
HETATM   13  F1  UNL     1     -52.948 -10.378 -17.834  1.00  0.00    -0.244 F 
ENDROOT
BRANCH   1  14
HETATM   14  C10 UNL     1     -51.390 -14.974 -20.714  1.00  0.00     0.186 C 
BRANCH  14  15
HETATM   15  N3  UNL     1     -51.638 -15.011 -22.136  1.00  0.00    -0.345 N 
HETATM   16  C9  UNL     1     -52.470 -14.092 -22.718  1.00  0.00     0.118 A 
HETATM   17  C8  UNL     1     -52.539 -14.360 -24.071  1.00  0.00     0.044 A 
HETATM   18  N7  UNL     1     -51.761 -15.425 -24.288  1.00  0.00    -0.353 N 
HETATM   19  C25 UNL     1     -51.211 -15.818 -23.100  1.00  0.00     0.183 A 
ATOM     20  H7  UNL     1     -51.603 -15.870 -25.192  1.00  0.00     0.166 HD
BRANCH  17  21
HETATM   21  C7  UNL     1     -53.350 -13.555 -25.064  1.00  0.00     0.185 C 
BRANCH  21  22
HETATM   22  N2  UNL     1     -52.373 -12.993 -25.966  1.00  0.00    -0.365 N 
HETATM   23  C6  UNL     1     -52.685 -13.112 -27.334  1.00  0.00     0.083 C 
HETATM   24  C5  UNL     1     -52.763 -11.862 -28.137  1.00  0.00     0.162 C 
HETATM   25  N1  UNL     1     -52.572 -10.639 -27.443  1.00  0.00    -0.404 N 
HETATM   26  C27 UNL     1     -51.640 -10.658 -26.364  1.00  0.00     0.162 C 
HETATM   27  C26 UNL     1     -51.660 -11.870 -25.511  1.00  0.00     0.083 C 
BRANCH  25  28
HETATM   28  C4  UNL     1     -53.721  -9.846 -27.238  1.00  0.00     0.117 C 
BRANCH  28  29
HETATM   29  C3  UNL     1     -53.462  -8.509 -26.638  1.00  0.00     0.019 C 
BRANCH  29  30
HETATM   30  C2  UNL     1     -54.217  -8.152 -25.406  1.00  0.00    -0.003 C 
HETATM   31  C1  UNL     1     -54.548  -6.697 -25.315  1.00  0.00     0.005 C 
ENDBRANCH  29  30
ENDBRANCH  28  29
ENDBRANCH  25  28
ENDBRANCH  21  22
ENDBRANCH  17  21
ENDBRANCH  14  15
ENDBRANCH   1  14
BRANCH   6  32
HETATM   32  C14 UNL     1     -48.798  -9.674 -20.412  1.00  0.00     0.095 C 
BRANCH  32  33
HETATM   33  C15 UNL     1     -47.492  -9.970 -19.723  1.00  0.00     0.013 A 
HETATM   34  S1  UNL     1     -46.006 -10.401 -20.538  1.00  0.00    -0.057 SA
HETATM   35  C16 UNL     1     -45.011 -10.531 -19.166  1.00  0.00     0.142 A 
HETATM   36  N5  UNL     1     -43.731 -10.832 -19.085  1.00  0.00    -0.380 N 
HETATM   37  N6  UNL     1     -45.835 -10.248 -18.165  1.00  0.00    -0.340 N 
ATOM     38  H52 UNL     1     -43.097 -11.050 -19.855  1.00  0.00     0.158 HD
ATOM     39  H51 UNL     1     -43.134 -10.910 -18.262  1.00  0.00     0.158 HD
HETATM   40  C17 UNL     1     -47.085  -9.965 -18.436  1.00  0.00     0.021 A 
ATOM     41  H6  UNL     1     -45.500 -10.251 -17.202  1.00  0.00     0.168 HD
HETATM   42  C18 UNL     1     -48.072  -9.667 -17.307  1.00  0.00     0.069 C 
ENDBRANCH  32  33
ENDBRANCH   6  32
BRANCH   7  43
HETATM   43  O2  UNL     1     -51.347  -9.448 -19.293  1.00  0.00    -0.359 OA
ATOM     44  H2  UNL     1     -52.291  -9.343 -19.308  1.00  0.00     0.217 HD
ENDBRANCH   7  43
TORSDOF 10
ENDMDL
MODEL 4
REMARK VINA RESULT: -8.290674430      0.772      1.722
REMARK  10 active torsions:
REMARK  status: ('A' for Active; 'I' for Inactive)
REMARK    1  A    between atoms: C2_2  and  C3_3 
REMARK    2  A    between atoms: C3_3  and  C4_4 
REMARK    3  A    between atoms: C4_4  and  N1_5 
REMARK    4  A    between atoms: N2_8  and  C7_9 
REMARK    5  A    between atoms: C7_9  and  C8_10 
REMARK    6  A    between atoms: N3_12  and  C10_13 
REMARK    7  A    between atoms: C10_13  and  C11_14 
REMARK    8  A    between atoms: C13_19  and  C14_20 
REMARK    9  A    between atoms: C14_20  and  C15_21 
REMARK   10  A    between atoms: C19_31  and  O2_32 
ROOT
HETATM    1  C11 UNL     1     -50.206 -14.210 -21.814  1.00  0.00     0.037 C 
HETATM    2  N4  UNL     1     -49.534 -13.076 -22.171  1.00  0.00    -0.325 N 
ATOM      3  H4  UNL     1     -48.624 -13.177 -22.621  1.00  0.00     0.169 HD
HETATM    4  C12 UNL     1     -50.015 -11.807 -21.958  1.00  0.00     0.255 C 
HETATM    5  O1  UNL     1     -49.945 -11.001 -22.928  1.00  0.00    -0.268 OA
HETATM    6  C13 UNL     1     -50.573 -11.286 -20.821  1.00  0.00     0.048 C 
HETATM    7  C19 UNL     1     -51.470 -12.010 -20.016  1.00  0.00     0.087 C 
HETATM    8  C20 UNL     1     -51.449 -13.399 -19.832  1.00  0.00     0.018 C 
HETATM    9  C21 UNL     1     -50.911 -14.394 -20.619  1.00  0.00    -0.022 C 
HETATM   10  C22 UNL     1     -51.174 -15.690 -19.979  1.00  0.00     0.044 C 
HETATM   11  C23 UNL     1     -52.252 -15.418 -18.980  1.00  0.00     0.047 C 
HETATM   12  C24 UNL     1     -52.083 -13.980 -18.606  1.00  0.00     0.207 C 
HETATM   13  F1  UNL     1     -53.274 -13.329 -18.410  1.00  0.00    -0.244 F 
ENDROOT
BRANCH   1  14
HETATM   14  C10 UNL     1     -50.253 -15.355 -22.725  1.00  0.00     0.186 C 
BRANCH  14  15
HETATM   15  N3  UNL     1     -51.238 -15.211 -23.770  1.00  0.00    -0.345 N 
HETATM   16  C9  UNL     1     -51.712 -13.972 -24.109  1.00  0.00     0.118 A 
HETATM   17  C8  UNL     1     -52.643 -14.121 -25.119  1.00  0.00     0.044 A 
HETATM   18  N7  UNL     1     -52.721 -15.431 -25.373  1.00  0.00    -0.353 N 
HETATM   19  C25 UNL     1     -51.859 -16.093 -24.545  1.00  0.00     0.183 A 
ATOM     20  H7  UNL     1     -53.326 -15.865 -26.071  1.00  0.00     0.166 HD
BRANCH  17  21
HETATM   21  C7  UNL     1     -53.386 -12.977 -25.775  1.00  0.00     0.185 C 
BRANCH  21  22
HETATM   22  N2  UNL     1     -52.714 -11.787 -25.307  1.00  0.00    -0.365 N 
HETATM   23  C6  UNL     1     -51.720 -11.285 -26.170  1.00  0.00     0.083 C 
HETATM   24  C5  UNL     1     -51.863  -9.882 -26.645  1.00  0.00     0.162 C 
HETATM   25  N1  UNL     1     -53.025  -9.179 -26.235  1.00  0.00    -0.404 N 
HETATM   26  C27 UNL     1     -53.520  -9.473 -24.931  1.00  0.00     0.162 C 
HETATM   27  C26 UNL     1     -53.470 -10.897 -24.524  1.00  0.00     0.083 C 
BRANCH  25  28
HETATM   28  C4  UNL     1     -54.009  -8.960 -27.223  1.00  0.00     0.117 C 
BRANCH  28  29
HETATM   29  C3  UNL     1     -54.081 -10.006 -28.279  1.00  0.00     0.019 C 
BRANCH  29  30
HETATM   30  C2  UNL     1     -55.289 -10.877 -28.300  1.00  0.00    -0.003 C 
HETATM   31  C1  UNL     1     -55.080 -12.159 -29.040  1.00  0.00     0.005 C 
ENDBRANCH  29  30
ENDBRANCH  28  29
ENDBRANCH  25  28
ENDBRANCH  21  22
ENDBRANCH  17  21
ENDBRANCH  14  15
ENDBRANCH   1  14
BRANCH   6  32
HETATM   32  C14 UNL     1     -50.246  -9.946 -20.348  1.00  0.00     0.095 C 
BRANCH  32  33
HETATM   33  C15 UNL     1     -48.939  -9.869 -19.603  1.00  0.00     0.013 A 
HETATM   34  S1  UNL     1     -48.749 -10.142 -17.887  1.00  0.00    -0.057 SA
HETATM   35  C16 UNL     1     -47.064  -9.934 -17.798  1.00  0.00     0.142 A 
HETATM   36  N5  UNL     1     -46.263 -10.015 -16.755  1.00  0.00    -0.380 N 
HETATM   37  N6  UNL     1     -46.724  -9.670 -19.054  1.00  0.00    -0.340 N 
ATOM     38  H52 UNL     1     -46.525 -10.218 -15.790  1.00  0.00     0.158 HD
ATOM     39  H51 UNL     1     -45.252  -9.890 -16.703  1.00  0.00     0.158 HD
HETATM   40  C17 UNL     1     -47.662  -9.635 -19.969  1.00  0.00     0.021 A 
ATOM     41  H6  UNL     1     -45.750  -9.497 -19.302  1.00  0.00     0.168 HD
HETATM   42  C18 UNL     1     -47.313  -9.301 -21.419  1.00  0.00     0.069 C 
ENDBRANCH  32  33
ENDBRANCH   6  32
BRANCH   7  43
HETATM   43  O2  UNL     1     -52.459 -11.323 -19.342  1.00  0.00    -0.359 OA
ATOM     44  H2  UNL     1     -52.610 -10.412 -19.561  1.00  0.00     0.217 HD
ENDBRANCH   7  43
TORSDOF 10
ENDMDL
MODEL 5
REMARK VINA RESULT: -8.257634068      1.631      2.836
REMARK  10 active torsions:
REMARK  status: ('A' for Active; 'I' for Inactive)
REMARK    1  A    between atoms: C2_2  and  C3_3 
REMARK    2  A    between atoms: C3_3  and  C4_4 
REMARK    3  A    between atoms: C4_4  and  N1_5 
REMARK    4  A    between atoms: N2_8  and  C7_9 
REMARK    5  A    between atoms: C7_9  and  C8_10 
REMARK    6  A    between atoms: N3_12  and  C10_13 
REMARK    7  A    between atoms: C10_13  and  C11_14 
REMARK    8  A    between atoms: C13_19  and  C14_20 
REMARK    9  A    between atoms: C14_20  and  C15_21 
REMARK   10  A    between atoms: C19_31  and  O2_32 
ROOT
HETATM    1  C11 UNL     1     -50.063 -14.296 -22.073  1.00  0.00     0.037 C 
HETATM    2  N4  UNL     1     -49.462 -13.121 -22.425  1.00  0.00    -0.325 N 
ATOM      3  H4  UNL     1     -48.553 -13.164 -22.885  1.00  0.00     0.169 HD
HETATM    4  C12 UNL     1     -50.015 -11.884 -22.194  1.00  0.00     0.255 C 
HETATM    5  O1  UNL     1     -50.002 -11.066 -23.157  1.00  0.00    -0.268 OA
HETATM    6  C13 UNL     1     -50.590 -11.408 -21.046  1.00  0.00     0.048 C 
HETATM    7  C19 UNL     1     -51.434 -12.192 -20.239  1.00  0.00     0.087 C 
HETATM    8  C20 UNL     1     -51.330 -13.578 -20.070  1.00  0.00     0.018 C 
HETATM    9  C21 UNL     1     -50.743 -14.532 -20.873  1.00  0.00    -0.022 C 
HETATM   10  C22 UNL     1     -50.923 -15.848 -20.243  1.00  0.00     0.044 C 
HETATM   11  C23 UNL     1     -52.003 -15.649 -19.231  1.00  0.00     0.047 C 
HETATM   12  C24 UNL     1     -51.915 -14.208 -18.844  1.00  0.00     0.207 C 
HETATM   13  F1  UNL     1     -53.140 -13.630 -18.629  1.00  0.00    -0.244 F 
ENDROOT
BRANCH   1  14
HETATM   14  C10 UNL     1     -50.053 -15.432 -22.995  1.00  0.00     0.186 C 
BRANCH  14  15
HETATM   15  N3  UNL     1     -51.300 -15.604 -23.703  1.00  0.00    -0.345 N 
HETATM   16  C9  UNL     1     -51.960 -14.518 -24.215  1.00  0.00     0.118 A 
HETATM   17  C8  UNL     1     -53.117 -14.959 -24.826  1.00  0.00     0.044 A 
HETATM   18  N7  UNL     1     -53.145 -16.287 -24.675  1.00  0.00    -0.353 N 
HETATM   19  C25 UNL     1     -52.029 -16.675 -23.988  1.00  0.00     0.183 A 
ATOM     20  H7  UNL     1     -53.878 -16.908 -25.017  1.00  0.00     0.166 HD
BRANCH  17  21
HETATM   21  C7  UNL     1     -54.114 -14.059 -25.524  1.00  0.00     0.185 C 
BRANCH  21  22
HETATM   22  N2  UNL     1     -53.345 -13.379 -26.540  1.00  0.00    -0.365 N 
HETATM   23  C6  UNL     1     -52.876 -14.201 -27.583  1.00  0.00     0.083 C 
HETATM   24  C5  UNL     1     -53.270 -13.847 -28.973  1.00  0.00     0.162 C 
HETATM   25  N1  UNL     1     -54.139 -12.737 -29.132  1.00  0.00    -0.404 N 
HETATM   26  C27 UNL     1     -53.971 -11.660 -28.213  1.00  0.00     0.162 C 
HETATM   27  C26 UNL     1     -53.689 -12.043 -26.809  1.00  0.00     0.083 C 
BRANCH  25  28
HETATM   28  C4  UNL     1     -55.474 -13.028 -29.487  1.00  0.00     0.117 C 
BRANCH  28  29
HETATM   29  C3  UNL     1     -55.637 -14.170 -30.428  1.00  0.00     0.019 C 
BRANCH  29  30
HETATM   30  C2  UNL     1     -56.461 -13.940 -31.648  1.00  0.00    -0.003 C 
HETATM   31  C1  UNL     1     -55.654 -13.525 -32.836  1.00  0.00     0.005 C 
ENDBRANCH  29  30
ENDBRANCH  28  29
ENDBRANCH  25  28
ENDBRANCH  21  22
ENDBRANCH  17  21
ENDBRANCH  14  15
ENDBRANCH   1  14
BRANCH   6  32
HETATM   32  C14 UNL     1     -50.337 -10.056 -20.563  1.00  0.00     0.095 C 
BRANCH  32  33
HETATM   33  C15 UNL     1     -49.057  -9.922 -19.781  1.00  0.00     0.013 A 
HETATM   34  S1  UNL     1     -48.907 -10.172 -18.057  1.00  0.00    -0.057 SA
HETATM   35  C16 UNL     1     -47.235  -9.899 -17.921  1.00  0.00     0.142 A 
HETATM   36  N5  UNL     1     -46.463  -9.939 -16.854  1.00  0.00    -0.380 N 
HETATM   37  N6  UNL     1     -46.868  -9.634 -19.169  1.00  0.00    -0.340 N 
ATOM     38  H52 UNL     1     -46.745 -10.143 -15.895  1.00  0.00     0.158 HD
ATOM     39  H51 UNL     1     -45.459  -9.776 -16.773  1.00  0.00     0.158 HD
HETATM   40  C17 UNL     1     -47.778  -9.643 -20.111  1.00  0.00     0.021 A 
ATOM     41  H6  UNL     1     -45.894  -9.427 -19.390  1.00  0.00     0.168 HD
HETATM   42  C18 UNL     1     -47.400  -9.310 -21.554  1.00  0.00     0.069 C 
ENDBRANCH  32  33
ENDBRANCH   6  32
BRANCH   7  43
HETATM   43  O2  UNL     1     -52.454 -11.570 -19.548  1.00  0.00    -0.359 OA
ATOM     44  H2  UNL     1     -53.344 -11.877 -19.675  1.00  0.00     0.217 HD
ENDBRANCH   7  43
TORSDOF 10
ENDMDL
