MODEL 1
REMARK VINA RESULT: -6.926118676      0.000      0.000
REMARK  14 active torsions:
REMARK  status: ('A' for Active; 'I' for Inactive)
REMARK    1  A    between atoms: O1_2  and  C2_3 
REMARK    2  A    between atoms: C2_3  and  C5_6 
REMARK    3  A    between atoms: C7_8  and  O2_10 
REMARK    4  A    between atoms: C9_12  and  C10_13 
REMARK    5  A    between atoms: C11_14  and  C12_15 
REMARK    6  A    between atoms: C13_17  and  C15_19 
REMARK    7  A    between atoms: C18_23  and  O4_24 
REMARK    8  A    between atoms: C19_26  and  O5_27 
REMARK    9  A    between atoms: C20_29  and  O6_30 
REMARK   10  A    between atoms: O6_30  and  C21_31 
REMARK   11  A    between atoms: C21_31  and  C22_32 
REMARK   12  A    between atoms: C23_33  and  C25_35 
REMARK   13  A    between atoms: C25_35  and  O7_36 
REMARK   14  A    between atoms: O7_36  and  C26_37 
ROOT
HETATM    1  C12 UNL     1     -50.048 -12.760 -22.073  1.00  0.00     0.177 C 
HETATM    2  O3  UNL     1     -51.278 -12.674 -21.470  1.00  0.00    -0.364 OA
HETATM    3  C13 UNL     1     -51.638 -11.438 -21.023  1.00  0.00     0.107 C 
HETATM    4  C14 UNL     1     -53.060 -11.168 -21.518  1.00  0.00     0.051 C 
HETATM    5  C18 UNL     1     -50.758 -10.322 -21.499  1.00  0.00     0.185 C 
HETATM    6  C19 UNL     1     -50.449 -10.451 -22.973  1.00  0.00     0.181 C 
HETATM    7  C20 UNL     1     -49.850 -11.814 -23.225  1.00  0.00     0.185 C 
ENDROOT
BRANCH   1   8
HETATM    8  C11 UNL     1     -49.912 -14.145 -22.617  1.00  0.00     0.006 C 
HETATM    9  C10 UNL     1     -50.683 -15.143 -22.189  1.00  0.00     0.006 C 
BRANCH   9  10
HETATM   10  C9  UNL     1     -50.561 -16.525 -22.720  1.00  0.00     0.178 C 
HETATM   11  C7  UNL     1     -51.281 -17.458 -21.810  1.00  0.00     0.086 C 
HETATM   12  C6  UNL     1     -52.510 -17.836 -22.595  1.00  0.00     0.075 C 
HETATM   13  C8  UNL     1     -50.423 -18.665 -21.492  1.00  0.00     0.049 C 
HETATM   14  C5  UNL     1     -52.325 -17.192 -23.924  1.00  0.00     0.159 C 
HETATM   15  O9  UNL     1     -51.079 -16.645 -23.993  1.00  0.00    -0.371 OA
BRANCH  11  16
HETATM   16  O2  UNL     1     -51.653 -16.812 -20.649  1.00  0.00    -0.387 OA
ATOM     17  H2  UNL     1     -50.880 -16.485 -20.204  1.00  0.00     0.210 HD
ENDBRANCH  11  16
BRANCH  14  18
HETATM   18  C2  UNL     1     -52.622 -18.190 -25.009  1.00  0.00     0.079 C 
HETATM   19  C3  UNL     1     -52.601 -17.508 -26.373  1.00  0.00     0.048 C 
HETATM   20  C4  UNL     1     -51.562 -19.247 -25.013  1.00  0.00     0.048 C 
BRANCH  18  21
HETATM   21  O1  UNL     1     -53.900 -18.670 -24.818  1.00  0.00    -0.383 OA
HETATM   22  C1  UNL     1     -54.517 -19.053 -26.006  1.00  0.00     0.202 C 
ENDBRANCH  18  21
ENDBRANCH  14  18
ENDBRANCH   9  10
ENDBRANCH   1   8
BRANCH   7  23
HETATM   23  O6  UNL     1     -50.349 -12.280 -24.414  1.00  0.00    -0.377 OA
BRANCH  23  24
HETATM   24  C21 UNL     1     -51.498 -11.578 -24.741  1.00  0.00     0.196 C 
BRANCH  24  25
HETATM   25  C22 UNL     1     -52.253 -12.134 -25.859  1.00  0.00     0.004 C 
HETATM   26  C23 UNL     1     -53.147 -13.091 -25.671  1.00  0.00    -0.061 C 
HETATM   27  C24 UNL     1     -53.392 -13.613 -24.303  1.00  0.00     0.045 C 
BRANCH  26  28
HETATM   28  C25 UNL     1     -53.933 -13.673 -26.809  1.00  0.00     0.212 C 
BRANCH  28  29
HETATM   29  O7  UNL     1     -53.067 -14.374 -27.701  1.00  0.00    -0.318 OA
BRANCH  29  30
HETATM   30  C26 UNL     1     -53.038 -13.943 -29.018  1.00  0.00     0.255 C 
HETATM   31  C27 UNL     1     -53.951 -14.540 -30.027  1.00  0.00     0.126 C 
HETATM   32  O8  UNL     1     -52.225 -13.034 -29.362  1.00  0.00    -0.266 OA
ENDBRANCH  29  30
ENDBRANCH  28  29
ENDBRANCH  26  28
ENDBRANCH  24  25
ENDBRANCH  23  24
ENDBRANCH   7  23
BRANCH   3  33
HETATM   33  C15 UNL     1     -51.647 -11.416 -19.516  1.00  0.00     0.063 C 
HETATM   34  C16 UNL     1     -51.473 -10.040 -18.945  1.00  0.00     0.035 C 
HETATM   35  C17 UNL     1     -52.958 -12.014 -19.063  1.00  0.00     0.035 C 
HETATM   36 CL1  UNL     1     -50.348 -12.450 -18.881  1.00  0.00    -0.117 Cl
ENDBRANCH   3  33
BRANCH   6  37
HETATM   37  O5  UNL     1     -49.537  -9.420 -23.286  1.00  0.00    -0.390 OA
ATOM     38  H5  UNL     1     -48.773  -9.839 -23.665  1.00  0.00     0.210 HD
ENDBRANCH   6  37
BRANCH   5  39
HETATM   39  O4  UNL     1     -49.589 -10.177 -20.791  1.00  0.00    -0.390 OA
ATOM     40  H4  UNL     1     -48.915  -9.681 -21.241  1.00  0.00     0.210 HD
ENDBRANCH   5  39
TORSDOF 14
ENDMDL
MODEL 2
REMARK VINA RESULT: -6.899497581      2.263      2.890
REMARK  14 active torsions:
REMARK  status: ('A' for Active; 'I' for Inactive)
REMARK    1  A    between atoms: O1_2  and  C2_3 
REMARK    2  A    between atoms: C2_3  and  C5_6 
REMARK    3  A    between atoms: C7_8  and  O2_10 
REMARK    4  A    between atoms: C9_12  and  C10_13 
REMARK    5  A    between atoms: C11_14  and  C12_15 
REMARK    6  A    between atoms: C13_17  and  C15_19 
REMARK    7  A    between atoms: C18_23  and  O4_24 
REMARK    8  A    between atoms: C19_26  and  O5_27 
REMARK    9  A    between atoms: C20_29  and  O6_30 
REMARK   10  A    between atoms: O6_30  and  C21_31 
REMARK   11  A    between atoms: C21_31  and  C22_32 
REMARK   12  A    between atoms: C23_33  and  C25_35 
REMARK   13  A    between atoms: C25_35  and  O7_36 
REMARK   14  A    between atoms: O7_36  and  C26_37 
ROOT
HETATM    1  C12 UNL     1     -50.006 -12.784 -22.058  1.00  0.00     0.177 C 
HETATM    2  O3  UNL     1     -51.164 -12.694 -21.328  1.00  0.00    -0.364 OA
HETATM    3  C13 UNL     1     -51.440 -11.472 -20.794  1.00  0.00     0.107 C 
HETATM    4  C14 UNL     1     -52.897 -11.144 -21.127  1.00  0.00     0.051 C 
HETATM    5  C18 UNL     1     -50.581 -10.357 -21.312  1.00  0.00     0.185 C 
HETATM    6  C19 UNL     1     -50.429 -10.426 -22.813  1.00  0.00     0.181 C 
HETATM    7  C20 UNL     1     -49.899 -11.791 -23.183  1.00  0.00     0.185 C 
ENDROOT
BRANCH   1   8
HETATM    8  C11 UNL     1     -49.966 -14.146 -22.672  1.00  0.00     0.006 C 
HETATM    9  C10 UNL     1     -50.490 -15.204 -22.057  1.00  0.00     0.006 C 
BRANCH   9  10
HETATM   10  C9  UNL     1     -50.459 -16.564 -22.653  1.00  0.00     0.178 C 
HETATM   11  C7  UNL     1     -51.312 -17.471 -21.835  1.00  0.00     0.086 C 
HETATM   12  C6  UNL     1     -52.521 -17.696 -22.706  1.00  0.00     0.075 C 
HETATM   13  C8  UNL     1     -50.585 -18.765 -21.536  1.00  0.00     0.049 C 
HETATM   14  C5  UNL     1     -52.201 -17.008 -23.986  1.00  0.00     0.159 C 
HETATM   15  O9  UNL     1     -50.910 -16.575 -23.957  1.00  0.00    -0.371 OA
BRANCH  11  16
HETATM   16  O2  UNL     1     -51.694 -16.850 -20.664  1.00  0.00    -0.387 OA
ATOM     17  H2  UNL     1     -51.269 -17.273 -19.926  1.00  0.00     0.210 HD
ENDBRANCH  11  16
BRANCH  14  18
HETATM   18  C2  UNL     1     -52.521 -17.921 -25.137  1.00  0.00     0.079 C 
HETATM   19  C3  UNL     1     -51.558 -19.103 -25.156  1.00  0.00     0.048 C 
HETATM   20  C4  UNL     1     -53.905 -18.466 -24.967  1.00  0.00     0.048 C 
BRANCH  18  21
HETATM   21  O1  UNL     1     -52.327 -17.225 -26.311  1.00  0.00    -0.383 OA
HETATM   22  C1  UNL     1     -53.464 -16.538 -26.727  1.00  0.00     0.202 C 
ENDBRANCH  18  21
ENDBRANCH  14  18
ENDBRANCH   9  10
ENDBRANCH   1   8
BRANCH   7  23
HETATM   23  O6  UNL     1     -50.530 -12.191 -24.334  1.00  0.00    -0.377 OA
BRANCH  23  24
HETATM   24  C21 UNL     1     -51.767 -11.570 -24.423  1.00  0.00     0.196 C 
BRANCH  24  25
HETATM   25  C22 UNL     1     -51.958 -10.765 -25.625  1.00  0.00     0.004 C 
HETATM   26  C23 UNL     1     -52.876  -9.813 -25.670  1.00  0.00    -0.061 C 
HETATM   27  C24 UNL     1     -53.730  -9.554 -24.484  1.00  0.00     0.045 C 
BRANCH  26  28
HETATM   28  C25 UNL     1     -53.085  -8.976 -26.897  1.00  0.00     0.212 C 
BRANCH  28  29
HETATM   29  O7  UNL     1     -53.361  -7.624 -26.534  1.00  0.00    -0.318 OA
BRANCH  29  30
HETATM   30  C26 UNL     1     -54.518  -7.058 -27.046  1.00  0.00     0.255 C 
HETATM   31  C27 UNL     1     -55.483  -6.372 -26.148  1.00  0.00     0.126 C 
HETATM   32  O8  UNL     1     -54.753  -7.128 -28.289  1.00  0.00    -0.266 OA
ENDBRANCH  29  30
ENDBRANCH  28  29
ENDBRANCH  26  28
ENDBRANCH  24  25
ENDBRANCH  23  24
ENDBRANCH   7  23
BRANCH   3  33
HETATM   33  C15 UNL     1     -51.293 -11.517 -19.295  1.00  0.00     0.063 C 
HETATM   34  C16 UNL     1     -51.770 -10.267 -18.617  1.00  0.00     0.035 C 
HETATM   35  C17 UNL     1     -52.071 -12.715 -18.802  1.00  0.00     0.035 C 
HETATM   36 CL1  UNL     1     -49.591 -11.776 -18.854  1.00  0.00    -0.117 Cl
ENDBRANCH   3  33
BRANCH   6  37
HETATM   37  O5  UNL     1     -49.525  -9.406 -23.175  1.00  0.00    -0.390 OA
ATOM     38  H5  UNL     1     -48.845  -9.817 -23.696  1.00  0.00     0.210 HD
ENDBRANCH   6  37
BRANCH   5  39
HETATM   39  O4  UNL     1     -49.342 -10.273 -20.723  1.00  0.00    -0.390 OA
ATOM     40  H4  UNL     1     -49.214  -9.502 -20.183  1.00  0.00     0.210 HD
ENDBRANCH   5  39
TORSDOF 14
ENDMDL
MODEL 3
REMARK VINA RESULT: -6.882804496      0.929      1.438
REMARK  14 active torsions:
REMARK  status: ('A' for Active; 'I' for Inactive)
REMARK    1  A    between atoms: O1_2  and  C2_3 
REMARK    2  A    between atoms: C2_3  and  C5_6 
REMARK    3  A    between atoms: C7_8  and  O2_10 
REMARK    4  A    between atoms: C9_12  and  C10_13 
REMARK    5  A    between atoms: C11_14  and  C12_15 
REMARK    6  A    between atoms: C13_17  and  C15_19 
REMARK    7  A    between atoms: C18_23  and  O4_24 
REMARK    8  A    between atoms: C19_26  and  O5_27 
REMARK    9  A    between atoms: C20_29  and  O6_30 
REMARK   10  A    between atoms: O6_30  and  C21_31 
REMARK   11  A    between atoms: C21_31  and  C22_32 
REMARK   12  A    between atoms: C23_33  and  C25_35 
REMARK   13  A    between atoms: C25_35  and  O7_36 
REMARK   14  A    between atoms: O7_36  and  C26_37 
ROOT
HETATM    1  C12 UNL     1     -50.105 -12.803 -22.028  1.00  0.00     0.177 C 
HETATM    2  O3  UNL     1     -51.350 -12.722 -21.457  1.00  0.00    -0.364 OA
HETATM    3  C13 UNL     1     -51.723 -11.490 -21.011  1.00  0.00     0.107 C 
HETATM    4  C14 UNL     1     -53.132 -11.217 -21.542  1.00  0.00     0.051 C 
HETATM    5  C18 UNL     1     -50.831 -10.369 -21.457  1.00  0.00     0.185 C 
HETATM    6  C19 UNL     1     -50.484 -10.488 -22.922  1.00  0.00     0.181 C 
HETATM    7  C20 UNL     1     -49.878 -11.849 -23.167  1.00  0.00     0.185 C 
ENDROOT
BRANCH   1   8
HETATM    8  C11 UNL     1     -49.953 -14.185 -22.577  1.00  0.00     0.006 C 
HETATM    9  C10 UNL     1     -50.725 -15.188 -22.166  1.00  0.00     0.006 C 
BRANCH   9  10
HETATM   10  C9  UNL     1     -50.587 -16.567 -22.702  1.00  0.00     0.178 C 
HETATM   11  C7  UNL     1     -51.384 -17.498 -21.856  1.00  0.00     0.086 C 
HETATM   12  C6  UNL     1     -52.560 -17.847 -22.730  1.00  0.00     0.075 C 
HETATM   13  C8  UNL     1     -50.570 -18.722 -21.492  1.00  0.00     0.049 C 
HETATM   14  C5  UNL     1     -52.271 -17.192 -24.035  1.00  0.00     0.159 C 
HETATM   15  O9  UNL     1     -51.015 -16.666 -24.010  1.00  0.00    -0.371 OA
BRANCH  11  16
HETATM   16  O2  UNL     1     -51.828 -16.857 -20.717  1.00  0.00    -0.387 OA
ATOM     17  H2  UNL     1     -52.628 -16.383 -20.909  1.00  0.00     0.210 HD
ENDBRANCH  11  16
BRANCH  14  18
HETATM   18  C2  UNL     1     -52.507 -18.174 -25.150  1.00  0.00     0.079 C 
HETATM   19  C3  UNL     1     -51.485 -19.304 -25.082  1.00  0.00     0.048 C 
HETATM   20  C4  UNL     1     -53.866 -18.783 -24.995  1.00  0.00     0.048 C 
BRANCH  18  21
HETATM   21  O1  UNL     1     -52.311 -17.525 -26.350  1.00  0.00    -0.383 OA
HETATM   22  C1  UNL     1     -53.388 -16.722 -26.713  1.00  0.00     0.202 C 
ENDBRANCH  18  21
ENDBRANCH  14  18
ENDBRANCH   9  10
ENDBRANCH   1   8
BRANCH   7  23
HETATM   23  O6  UNL     1     -50.344 -12.308 -24.373  1.00  0.00    -0.377 OA
BRANCH  23  24
HETATM   24  C21 UNL     1     -51.439 -11.553 -24.763  1.00  0.00     0.196 C 
BRANCH  24  25
HETATM   25  C22 UNL     1     -51.992 -11.910 -26.065  1.00  0.00     0.004 C 
HETATM   26  C23 UNL     1     -52.399 -10.980 -26.913  1.00  0.00    -0.061 C 
HETATM   27  C24 UNL     1     -52.296  -9.546 -26.541  1.00  0.00     0.045 C 
BRANCH  26  28
HETATM   28  C25 UNL     1     -52.969 -11.329 -28.256  1.00  0.00     0.212 C 
BRANCH  28  29
HETATM   29  O7  UNL     1     -52.686 -12.691 -28.575  1.00  0.00    -0.318 OA
BRANCH  29  30
HETATM   30  C26 UNL     1     -53.773 -13.531 -28.767  1.00  0.00     0.255 C 
HETATM   31  C27 UNL     1     -53.744 -14.569 -29.830  1.00  0.00     0.126 C 
HETATM   32  O8  UNL     1     -54.796 -13.410 -28.031  1.00  0.00    -0.266 OA
ENDBRANCH  29  30
ENDBRANCH  28  29
ENDBRANCH  26  28
ENDBRANCH  24  25
ENDBRANCH  23  24
ENDBRANCH   7  23
BRANCH   3  33
HETATM   33  C15 UNL     1     -51.771 -11.477 -19.505  1.00  0.00     0.063 C 
HETATM   34  C16 UNL     1     -51.657 -10.101 -18.922  1.00  0.00     0.035 C 
HETATM   35  C17 UNL     1     -53.074 -12.120 -19.090  1.00  0.00     0.035 C 
HETATM   36 CL1  UNL     1     -50.457 -12.474 -18.842  1.00  0.00    -0.117 Cl
ENDBRANCH   3  33
BRANCH   6  37
HETATM   37  O5  UNL     1     -49.565  -9.455 -23.205  1.00  0.00    -0.390 OA
ATOM     38  H5  UNL     1     -48.759  -9.875 -23.480  1.00  0.00     0.210 HD
ENDBRANCH   6  37
BRANCH   5  39
HETATM   39  O4  UNL     1     -49.682 -10.228 -20.717  1.00  0.00    -0.390 OA
ATOM     40  H4  UNL     1     -49.364  -9.336 -20.651  1.00  0.00     0.210 HD
ENDBRANCH   5  39
TORSDOF 14
ENDMDL
MODEL 4
REMARK VINA RESULT: -6.819284150      1.446      1.828
REMARK  14 active torsions:
REMARK  status: ('A' for Active; 'I' for Inactive)
REMARK    1  A    between atoms: O1_2  and  C2_3 
REMARK    2  A    between atoms: C2_3  and  C5_6 
REMARK    3  A    between atoms: C7_8  and  O2_10 
REMARK    4  A    between atoms: C9_12  and  C10_13 
REMARK    5  A    between atoms: C11_14  and  C12_15 
REMARK    6  A    between atoms: C13_17  and  C15_19 
REMARK    7  A    between atoms: C18_23  and  O4_24 
REMARK    8  A    between atoms: C19_26  and  O5_27 
REMARK    9  A    between atoms: C20_29  and  O6_30 
REMARK   10  A    between atoms: O6_30  and  C21_31 
REMARK   11  A    between atoms: C21_31  and  C22_32 
REMARK   12  A    between atoms: C23_33  and  C25_35 
REMARK   13  A    between atoms: C25_35  and  O7_36 
REMARK   14  A    between atoms: O7_36  and  C26_37 
ROOT
HETATM    1  C12 UNL     1     -49.996 -12.783 -22.067  1.00  0.00     0.177 C 
HETATM    2  O3  UNL     1     -51.156 -12.701 -21.339  1.00  0.00    -0.364 OA
HETATM    3  C13 UNL     1     -51.453 -11.475 -20.825  1.00  0.00     0.107 C 
HETATM    4  C14 UNL     1     -52.915 -11.177 -21.164  1.00  0.00     0.051 C 
HETATM    5  C18 UNL     1     -50.612 -10.354 -21.359  1.00  0.00     0.185 C 
HETATM    6  C19 UNL     1     -50.458 -10.445 -22.860  1.00  0.00     0.181 C 
HETATM    7  C20 UNL     1     -49.905 -11.807 -23.208  1.00  0.00     0.185 C 
ENDROOT
BRANCH   1   8
HETATM    8  C11 UNL     1     -49.934 -14.154 -22.659  1.00  0.00     0.006 C 
HETATM    9  C10 UNL     1     -50.539 -15.190 -22.084  1.00  0.00     0.006 C 
BRANCH   9  10
HETATM   10  C9  UNL     1     -50.487 -16.559 -22.659  1.00  0.00     0.178 C 
HETATM   11  C7  UNL     1     -51.333 -17.464 -21.833  1.00  0.00     0.086 C 
HETATM   12  C6  UNL     1     -52.533 -17.718 -22.707  1.00  0.00     0.075 C 
HETATM   13  C8  UNL     1     -50.591 -18.745 -21.510  1.00  0.00     0.049 C 
HETATM   14  C5  UNL     1     -52.214 -17.046 -23.996  1.00  0.00     0.159 C 
HETATM   15  O9  UNL     1     -50.929 -16.596 -23.966  1.00  0.00    -0.371 OA
BRANCH  11  16
HETATM   16  O2  UNL     1     -51.730 -16.831 -20.673  1.00  0.00    -0.387 OA
ATOM     17  H2  UNL     1     -50.966 -16.596 -20.161  1.00  0.00     0.210 HD
ENDBRANCH  11  16
BRANCH  14  18
HETATM   18  C2  UNL     1     -52.515 -17.980 -25.135  1.00  0.00     0.079 C 
HETATM   19  C3  UNL     1     -51.521 -19.137 -25.145  1.00  0.00     0.048 C 
HETATM   20  C4  UNL     1     -53.883 -18.559 -24.953  1.00  0.00     0.048 C 
BRANCH  18  21
HETATM   21  O1  UNL     1     -52.344 -17.293 -26.318  1.00  0.00    -0.383 OA
HETATM   22  C1  UNL     1     -53.497 -16.632 -26.731  1.00  0.00     0.202 C 
ENDBRANCH  18  21
ENDBRANCH  14  18
ENDBRANCH   9  10
ENDBRANCH   1   8
BRANCH   7  23
HETATM   23  O6  UNL     1     -50.529 -12.235 -24.352  1.00  0.00    -0.377 OA
BRANCH  23  24
HETATM   24  C21 UNL     1     -51.778 -11.641 -24.448  1.00  0.00     0.196 C 
BRANCH  24  25
HETATM   25  C22 UNL     1     -52.110 -11.136 -25.776  1.00  0.00     0.004 C 
HETATM   26  C23 UNL     1     -52.932 -10.111 -25.931  1.00  0.00    -0.061 C 
HETATM   27  C24 UNL     1     -53.532  -9.460 -24.739  1.00  0.00     0.045 C 
BRANCH  26  28
HETATM   28  C25 UNL     1     -53.284  -9.578 -27.288  1.00  0.00     0.212 C 
BRANCH  28  29
HETATM   29  O7  UNL     1     -53.353 -10.642 -28.236  1.00  0.00    -0.318 OA
BRANCH  29  30
HETATM   30  C26 UNL     1     -54.611 -11.152 -28.519  1.00  0.00     0.255 C 
HETATM   31  C27 UNL     1     -54.905 -12.593 -28.306  1.00  0.00     0.126 C 
HETATM   32  O8  UNL     1     -55.514 -10.383 -28.964  1.00  0.00    -0.266 OA
ENDBRANCH  29  30
ENDBRANCH  28  29
ENDBRANCH  26  28
ENDBRANCH  24  25
ENDBRANCH  23  24
ENDBRANCH   7  23
BRANCH   3  33
HETATM   33  C15 UNL     1     -51.307 -11.494 -19.325  1.00  0.00     0.063 C 
HETATM   34  C16 UNL     1     -51.701 -10.201 -18.677  1.00  0.00     0.035 C 
HETATM   35  C17 UNL     1     -52.158 -12.627 -18.803  1.00  0.00     0.035 C 
HETATM   36 CL1  UNL     1     -49.624 -11.850 -18.879  1.00  0.00    -0.117 Cl
ENDBRANCH   3  33
BRANCH   6  37
HETATM   37  O5  UNL     1     -49.570  -9.416 -23.238  1.00  0.00    -0.390 OA
ATOM     38  H5  UNL     1     -48.706  -9.681 -22.946  1.00  0.00     0.210 HD
ENDBRANCH   6  37
BRANCH   5  39
HETATM   39  O4  UNL     1     -49.375 -10.240 -20.772  1.00  0.00    -0.390 OA
ATOM     40  H4  UNL     1     -49.262  -9.461 -20.241  1.00  0.00     0.210 HD
ENDBRANCH   5  39
TORSDOF 14
ENDMDL
MODEL 5
REMARK VINA RESULT: -6.807729194      1.284      1.557
REMARK  14 active torsions:
REMARK  status: ('A' for Active; 'I' for Inactive)
REMARK    1  A    between atoms: O1_2  and  C2_3 
REMARK    2  A    between atoms: C2_3  and  C5_6 
REMARK    3  A    between atoms: C7_8  and  O2_10 
REMARK    4  A    between atoms: C9_12  and  C10_13 
REMARK    5  A    between atoms: C11_14  and  C12_15 
REMARK    6  A    between atoms: C13_17  and  C15_19 
REMARK    7  A    between atoms: C18_23  and  O4_24 
REMARK    8  A    between atoms: C19_26  and  O5_27 
REMARK    9  A    between atoms: C20_29  and  O6_30 
REMARK   10  A    between atoms: O6_30  and  C21_31 
REMARK   11  A    between atoms: C21_31  and  C22_32 
REMARK   12  A    between atoms: C23_33  and  C25_35 
REMARK   13  A    between atoms: C25_35  and  O7_36 
REMARK   14  A    between atoms: O7_36  and  C26_37 
ROOT
HETATM    1  C12 UNL     1     -50.103 -12.807 -22.058  1.00  0.00     0.177 C 
HETATM    2  O3  UNL     1     -51.337 -12.709 -21.466  1.00  0.00    -0.364 OA
HETATM    3  C13 UNL     1     -51.674 -11.477 -20.990  1.00  0.00     0.107 C 
HETATM    4  C14 UNL     1     -53.084 -11.162 -21.493  1.00  0.00     0.051 C 
HETATM    5  C18 UNL     1     -50.764 -10.369 -21.427  1.00  0.00     0.185 C 
HETATM    6  C19 UNL     1     -50.442 -10.466 -22.900  1.00  0.00     0.181 C 
HETATM    7  C20 UNL     1     -49.871 -11.835 -23.182  1.00  0.00     0.185 C 
ENDROOT
BRANCH   1   8
HETATM    8  C11 UNL     1     -49.991 -14.180 -22.637  1.00  0.00     0.006 C 
HETATM    9  C10 UNL     1     -50.705 -15.198 -22.162  1.00  0.00     0.006 C 
BRANCH   9  10
HETATM   10  C9  UNL     1     -50.606 -16.569 -22.726  1.00  0.00     0.178 C 
HETATM   11  C7  UNL     1     -51.355 -17.510 -21.847  1.00  0.00     0.086 C 
HETATM   12  C6  UNL     1     -52.584 -17.841 -22.653  1.00  0.00     0.075 C 
HETATM   13  C8  UNL     1     -50.526 -18.742 -21.551  1.00  0.00     0.049 C 
HETATM   14  C5  UNL     1     -52.372 -17.168 -23.963  1.00  0.00     0.159 C 
HETATM   15  O9  UNL     1     -51.114 -16.646 -24.006  1.00  0.00    -0.371 OA
BRANCH  11  16
HETATM   16  O2  UNL     1     -51.725 -16.885 -20.673  1.00  0.00    -0.387 OA
ATOM     17  H2  UNL     1     -51.627 -17.488 -19.946  1.00  0.00     0.210 HD
ENDBRANCH  11  16
BRANCH  14  18
HETATM   18  C2  UNL     1     -52.679 -18.132 -25.075  1.00  0.00     0.079 C 
HETATM   19  C3  UNL     1     -52.790 -17.388 -26.402  1.00  0.00     0.048 C 
HETATM   20  C4  UNL     1     -51.560 -19.118 -25.200  1.00  0.00     0.048 C 
BRANCH  18  21
HETATM   21  O1  UNL     1     -53.910 -18.701 -24.829  1.00  0.00    -0.383 OA
HETATM   22  C1  UNL     1     -54.725 -18.738 -25.957  1.00  0.00     0.202 C 
ENDBRANCH  18  21
ENDBRANCH  14  18
ENDBRANCH   9  10
ENDBRANCH   1   8
BRANCH   7  23
HETATM   23  O6  UNL     1     -50.366 -12.259 -24.389  1.00  0.00    -0.377 OA
BRANCH  23  24
HETATM   24  C21 UNL     1     -51.439 -11.461 -24.754  1.00  0.00     0.196 C 
BRANCH  24  25
HETATM   25  C22 UNL     1     -51.848 -11.593 -26.149  1.00  0.00     0.004 C 
HETATM   26  C23 UNL     1     -52.986 -12.184 -26.474  1.00  0.00    -0.061 C 
HETATM   27  C24 UNL     1     -53.867 -12.724 -25.408  1.00  0.00     0.045 C 
BRANCH  26  28
HETATM   28  C25 UNL     1     -53.422 -12.327 -27.902  1.00  0.00     0.212 C 
BRANCH  28  29
HETATM   29  O7  UNL     1     -53.257 -11.093 -28.597  1.00  0.00    -0.318 OA
BRANCH  29  30
HETATM   30  C26 UNL     1     -54.290 -10.172 -28.500  1.00  0.00     0.255 C 
HETATM   31  C27 UNL     1     -54.083  -8.879 -27.798  1.00  0.00     0.126 C 
HETATM   32  O8  UNL     1     -55.417 -10.439 -29.013  1.00  0.00    -0.266 OA
ENDBRANCH  29  30
ENDBRANCH  28  29
ENDBRANCH  26  28
ENDBRANCH  24  25
ENDBRANCH  23  24
ENDBRANCH   7  23
BRANCH   3  33
HETATM   33  C15 UNL     1     -51.699 -11.494 -19.483  1.00  0.00     0.063 C 
HETATM   34  C16 UNL     1     -51.576 -10.129 -18.876  1.00  0.00     0.035 C 
HETATM   35  C17 UNL     1     -52.994 -12.146 -19.060  1.00  0.00     0.035 C 
HETATM   36 CL1  UNL     1     -50.374 -12.502 -18.861  1.00  0.00    -0.117 Cl
ENDBRANCH   3  33
BRANCH   6  37
HETATM   37  O5  UNL     1     -49.504  -9.448 -23.177  1.00  0.00    -0.390 OA
ATOM     38  H5  UNL     1     -49.385  -9.437 -24.119  1.00  0.00     0.210 HD
ENDBRANCH   6  37
BRANCH   5  39
HETATM   39  O4  UNL     1     -49.600 -10.269 -20.704  1.00  0.00    -0.390 OA
ATOM     40  H4  UNL     1     -49.583 -10.793 -19.912  1.00  0.00     0.210 HD
ENDBRANCH   5  39
TORSDOF 14
ENDMDL
