MODEL 1
REMARK VINA RESULT: -7.976750022      0.000      0.000
REMARK  13 active torsions:
REMARK  status: ('A' for Active; 'I' for Inactive)
REMARK    1  A    between atoms: O1_2  and  C2_3 
REMARK    2  A    between atoms: C5_7  and  O3_8 
REMARK    3  A    between atoms: O3_8  and  C6_9 
REMARK    4  A    between atoms: C7_11  and  C8_12 
REMARK    5  A    between atoms: C8_12  and  O5_13 
REMARK    6  A    between atoms: C9_15  and  O6_16 
REMARK    7  A    between atoms: C10_18  and  O7_19 
REMARK    8  A    between atoms: C11_21  and  O8_22 
REMARK    9  A    between atoms: O8_22  and  C12_23 
REMARK   10  A    between atoms: C13_24  and  C14_26 
REMARK   11  A    between atoms: C19_31  and  C21_33 
REMARK   12  A    between atoms: C21_33  and  C22_34 
REMARK   13  A    between atoms: C22_34  and  C23_35 
ROOT
HETATM    1  C6  UNL     1     -49.719 -11.389 -19.849  1.00  0.00     0.292 C 
HETATM    2  O4  UNL     1     -48.651 -11.291 -18.947  1.00  0.00    -0.348 OA
HETATM    3  C7  UNL     1     -48.346  -9.939 -18.715  1.00  0.00     0.179 C 
HETATM    4  C9  UNL     1     -47.491  -9.477 -19.874  1.00  0.00     0.180 C 
HETATM    5  C10 UNL     1     -48.104  -9.978 -21.143  1.00  0.00     0.183 C 
HETATM    6  C11 UNL     1     -49.536 -10.420 -21.005  1.00  0.00     0.214 C 
ENDROOT
BRANCH   1   7
HETATM    7  O3  UNL     1     -50.857 -11.014 -19.170  1.00  0.00    -0.350 OA
BRANCH   7   8
HETATM    8  C5  UNL     1     -51.406 -12.074 -18.412  1.00  0.00     0.159 C 
HETATM    9  C4  UNL     1     -52.709 -11.698 -17.828  1.00  0.00     0.182 C 
HETATM   10  O2  UNL     1     -52.769 -11.864 -16.426  1.00  0.00    -0.378 OA
HETATM   11  C27 UNL     1     -53.899 -12.398 -18.344  1.00  0.00     0.185 C 
HETATM   12  C3  UNL     1     -54.085 -11.436 -16.190  1.00  0.00     0.203 C 
HETATM   13  C2  UNL     1     -54.855 -12.333 -17.149  1.00  0.00     0.176 C 
HETATM   14  O9  UNL     1     -53.785 -13.675 -18.722  1.00  0.00    -0.370 OA
HETATM   15  C19 UNL     1     -52.588 -14.198 -19.028  1.00  0.00     0.060 C 
HETATM   16  C18 UNL     1     -51.491 -13.247 -19.357  1.00  0.00     0.072 C 
HETATM   17  C20 UNL     1     -52.141 -15.100 -17.869  1.00  0.00     0.046 C 
BRANCH  13  18
HETATM   18  O1  UNL     1     -54.948 -13.576 -16.578  1.00  0.00    -0.386 OA
HETATM   19  C1  UNL     1     -55.737 -13.612 -15.434  1.00  0.00     0.202 C 
ENDBRANCH  13  18
BRANCH  15  20
HETATM   20  C21 UNL     1     -52.758 -15.128 -20.226  1.00  0.00     0.041 C 
BRANCH  20  21
HETATM   21  C22 UNL     1     -51.469 -15.911 -20.480  1.00  0.00     0.030 C 
BRANCH  21  22
HETATM   22  C23 UNL     1     -51.683 -16.633 -21.774  1.00  0.00    -0.025 C 
HETATM   23  C24 UNL     1     -50.947 -16.351 -22.840  1.00  0.00    -0.091 C 
HETATM   24  C25 UNL     1     -51.137 -17.047 -24.127  1.00  0.00     0.042 C 
HETATM   25  C26 UNL     1     -49.898 -15.296 -22.725  1.00  0.00     0.042 C 
ENDBRANCH  21  22
ENDBRANCH  20  21
ENDBRANCH  15  20
ENDBRANCH   7   8
ENDBRANCH   1   7
BRANCH   6  26
HETATM   26  O8  UNL     1     -49.897 -11.072 -22.221  1.00  0.00    -0.349 OA
BRANCH  26  27
HETATM   27  C12 UNL     1     -50.468 -10.376 -23.279  1.00  0.00     0.155 C 
HETATM   28  C13 UNL     1     -51.695 -10.586 -23.703  1.00  0.00     0.042 C 
HETATM   29 CL1  UNL     1     -52.286  -9.632 -25.053  1.00  0.00    -0.086 Cl
BRANCH  28  30
HETATM   30  C14 UNL     1     -52.638 -11.576 -23.132  1.00  0.00    -0.004 A 
HETATM   31  C15 UNL     1     -52.448 -12.976 -23.729  1.00  0.00     0.021 C 
HETATM   32  C16 UNL     1     -53.217 -11.421 -21.785  1.00  0.00     0.016 A 
HETATM   33  C17 UNL     1     -54.082 -11.207 -22.991  1.00  0.00     0.016 A 
ENDBRANCH  28  30
ENDBRANCH  26  27
ENDBRANCH   6  26
BRANCH   3  34
HETATM   34  C8  UNL     1     -47.466  -9.904 -17.471  1.00  0.00     0.198 C 
BRANCH  34  35
HETATM   35  O5  UNL     1     -47.816  -8.881 -16.617  1.00  0.00    -0.398 OA
ATOM     36  H5  UNL     1     -48.500  -9.141 -16.009  1.00  0.00     0.209 HD
ENDBRANCH  34  35
ENDBRANCH   3  34
BRANCH   5  37
HETATM   37  O7  UNL     1     -47.366 -11.047 -21.642  1.00  0.00    -0.390 OA
ATOM     38  H7  UNL     1     -47.922 -11.811 -21.737  1.00  0.00     0.210 HD
ENDBRANCH   5  37
BRANCH   4  39
HETATM   39  O6  UNL     1     -46.213 -10.025 -19.687  1.00  0.00    -0.390 OA
ATOM     40  H6  UNL     1     -45.923 -10.350 -20.530  1.00  0.00     0.210 HD
ENDBRANCH   4  39
TORSDOF 13
ENDMDL
MODEL 2
REMARK VINA RESULT: -7.684682503      1.175      1.421
REMARK  13 active torsions:
REMARK  status: ('A' for Active; 'I' for Inactive)
REMARK    1  A    between atoms: O1_2  and  C2_3 
REMARK    2  A    between atoms: C5_7  and  O3_8 
REMARK    3  A    between atoms: O3_8  and  C6_9 
REMARK    4  A    between atoms: C7_11  and  C8_12 
REMARK    5  A    between atoms: C8_12  and  O5_13 
REMARK    6  A    between atoms: C9_15  and  O6_16 
REMARK    7  A    between atoms: C10_18  and  O7_19 
REMARK    8  A    between atoms: C11_21  and  O8_22 
REMARK    9  A    between atoms: O8_22  and  C12_23 
REMARK   10  A    between atoms: C13_24  and  C14_26 
REMARK   11  A    between atoms: C19_31  and  C21_33 
REMARK   12  A    between atoms: C21_33  and  C22_34 
REMARK   13  A    between atoms: C22_34  and  C23_35 
ROOT
HETATM    1  C6  UNL     1     -49.646 -11.329 -20.209  1.00  0.00     0.292 C 
HETATM    2  O4  UNL     1     -48.730 -11.331 -19.150  1.00  0.00    -0.348 OA
HETATM    3  C7  UNL     1     -48.468 -10.011 -18.745  1.00  0.00     0.179 C 
HETATM    4  C9  UNL     1     -47.447  -9.450 -19.709  1.00  0.00     0.180 C 
HETATM    5  C10 UNL     1     -47.856  -9.820 -21.100  1.00  0.00     0.183 C 
HETATM    6  C11 UNL     1     -49.291 -10.256 -21.225  1.00  0.00     0.214 C 
ENDROOT
BRANCH   1   7
HETATM    7  O3  UNL     1     -50.877 -11.007 -19.679  1.00  0.00    -0.350 OA
BRANCH   7   8
HETATM    8  C5  UNL     1     -51.402 -12.041 -18.870  1.00  0.00     0.159 C 
HETATM    9  C4  UNL     1     -52.608 -11.594 -18.144  1.00  0.00     0.182 C 
HETATM   10  O2  UNL     1     -52.523 -11.771 -16.744  1.00  0.00    -0.378 OA
HETATM   11  C27 UNL     1     -53.887 -12.218 -18.529  1.00  0.00     0.185 C 
HETATM   12  C3  UNL     1     -53.777 -11.269 -16.363  1.00  0.00     0.203 C 
HETATM   13  C2  UNL     1     -54.700 -12.109 -17.234  1.00  0.00     0.176 C 
HETATM   14  O9  UNL     1     -53.892 -13.496 -18.921  1.00  0.00    -0.370 OA
HETATM   15  C19 UNL     1     -52.768 -14.085 -19.359  1.00  0.00     0.060 C 
HETATM   16  C18 UNL     1     -51.660 -13.197 -19.804  1.00  0.00     0.072 C 
HETATM   17  C20 UNL     1     -52.252 -15.023 -18.260  1.00  0.00     0.046 C 
BRANCH  13  18
HETATM   18  O1  UNL     1     -54.804 -13.350 -16.661  1.00  0.00    -0.386 OA
HETATM   19  C1  UNL     1     -55.532 -13.363 -15.478  1.00  0.00     0.202 C 
ENDBRANCH  13  18
BRANCH  15  20
HETATM   20  C21 UNL     1     -53.124 -14.991 -20.534  1.00  0.00     0.041 C 
BRANCH  20  21
HETATM   21  C22 UNL     1     -52.863 -16.455 -20.176  1.00  0.00     0.030 C 
BRANCH  21  22
HETATM   22  C23 UNL     1     -52.648 -17.158 -21.480  1.00  0.00    -0.025 C 
HETATM   23  C24 UNL     1     -51.426 -17.449 -21.903  1.00  0.00    -0.091 C 
HETATM   24  C25 UNL     1     -51.186 -18.142 -23.183  1.00  0.00     0.042 C 
HETATM   25  C26 UNL     1     -50.264 -17.061 -21.051  1.00  0.00     0.042 C 
ENDBRANCH  21  22
ENDBRANCH  20  21
ENDBRANCH  15  20
ENDBRANCH   7   8
ENDBRANCH   1   7
BRANCH   6  26
HETATM   26  O8  UNL     1     -49.460 -10.785 -22.539  1.00  0.00    -0.349 OA
BRANCH  26  27
HETATM   27  C12 UNL     1     -49.799 -12.116 -22.750  1.00  0.00     0.155 C 
HETATM   28  C13 UNL     1     -50.929 -12.493 -23.306  1.00  0.00     0.042 C 
HETATM   29 CL1  UNL     1     -51.226 -14.211 -23.510  1.00  0.00    -0.086 Cl
BRANCH  28  30
HETATM   30  C14 UNL     1     -51.993 -11.579 -23.783  1.00  0.00    -0.004 A 
HETATM   31  C15 UNL     1     -52.976 -11.195 -22.670  1.00  0.00     0.021 C 
HETATM   32  C16 UNL     1     -51.797 -10.680 -24.936  1.00  0.00     0.016 A 
HETATM   33  C17 UNL     1     -52.685 -11.880 -25.076  1.00  0.00     0.016 A 
ENDBRANCH  28  30
ENDBRANCH  26  27
ENDBRANCH   6  26
BRANCH   3  34
HETATM   34  C8  UNL     1     -47.790 -10.105 -17.383  1.00  0.00     0.198 C 
BRANCH  34  35
HETATM   35  O5  UNL     1     -47.771  -8.893 -16.728  1.00  0.00    -0.398 OA
ATOM     36  H5  UNL     1     -46.891  -8.544 -16.646  1.00  0.00     0.209 HD
ENDBRANCH  34  35
ENDBRANCH   3  34
BRANCH   5  37
HETATM   37  O7  UNL     1     -47.047 -10.845 -21.580  1.00  0.00    -0.390 OA
ATOM     38  H7  UNL     1     -47.558 -11.441 -22.113  1.00  0.00     0.210 HD
ENDBRANCH   5  37
BRANCH   4  39
HETATM   39  O6  UNL     1     -46.211 -10.028 -19.382  1.00  0.00    -0.390 OA
ATOM     40  H6  UNL     1     -45.536  -9.437 -19.692  1.00  0.00     0.210 HD
ENDBRANCH   4  39
TORSDOF 13
ENDMDL
MODEL 3
REMARK VINA RESULT: -7.447394027      1.149      1.757
REMARK  13 active torsions:
REMARK  status: ('A' for Active; 'I' for Inactive)
REMARK    1  A    between atoms: O1_2  and  C2_3 
REMARK    2  A    between atoms: C5_7  and  O3_8 
REMARK    3  A    between atoms: O3_8  and  C6_9 
REMARK    4  A    between atoms: C7_11  and  C8_12 
REMARK    5  A    between atoms: C8_12  and  O5_13 
REMARK    6  A    between atoms: C9_15  and  O6_16 
REMARK    7  A    between atoms: C10_18  and  O7_19 
REMARK    8  A    between atoms: C11_21  and  O8_22 
REMARK    9  A    between atoms: O8_22  and  C12_23 
REMARK   10  A    between atoms: C13_24  and  C14_26 
REMARK   11  A    between atoms: C19_31  and  C21_33 
REMARK   12  A    between atoms: C21_33  and  C22_34 
REMARK   13  A    between atoms: C22_34  and  C23_35 
ROOT
HETATM    1  C6  UNL     1     -49.670 -11.350 -19.881  1.00  0.00     0.292 C 
HETATM    2  O4  UNL     1     -48.606 -11.259 -18.975  1.00  0.00    -0.348 OA
HETATM    3  C7  UNL     1     -48.299  -9.908 -18.735  1.00  0.00     0.179 C 
HETATM    4  C9  UNL     1     -47.438  -9.442 -19.887  1.00  0.00     0.180 C 
HETATM    5  C10 UNL     1     -48.046  -9.936 -21.162  1.00  0.00     0.183 C 
HETATM    6  C11 UNL     1     -49.480 -10.375 -21.032  1.00  0.00     0.214 C 
ENDROOT
BRANCH   1   7
HETATM    7  O3  UNL     1     -50.810 -10.976 -19.206  1.00  0.00    -0.350 OA
BRANCH   7   8
HETATM    8  C5  UNL     1     -51.373 -12.042 -18.467  1.00  0.00     0.159 C 
HETATM    9  C4  UNL     1     -52.676 -11.664 -17.885  1.00  0.00     0.182 C 
HETATM   10  O2  UNL     1     -52.746 -11.850 -16.486  1.00  0.00    -0.378 OA
HETATM   11  C27 UNL     1     -53.869 -12.346 -18.419  1.00  0.00     0.185 C 
HETATM   12  C3  UNL     1     -54.060 -11.415 -16.251  1.00  0.00     0.203 C 
HETATM   13  C2  UNL     1     -54.832 -12.291 -17.228  1.00  0.00     0.176 C 
HETATM   14  O9  UNL     1     -53.764 -13.618 -18.814  1.00  0.00    -0.370 OA
HETATM   15  C19 UNL     1     -52.568 -14.147 -19.122  1.00  0.00     0.060 C 
HETATM   16  C18 UNL     1     -51.462 -13.201 -19.430  1.00  0.00     0.072 C 
HETATM   17  C20 UNL     1     -52.137 -15.070 -17.974  1.00  0.00     0.046 C 
BRANCH  13  18
HETATM   18  O1  UNL     1     -54.939 -13.542 -16.676  1.00  0.00    -0.386 OA
HETATM   19  C1  UNL     1     -55.689 -13.578 -15.507  1.00  0.00     0.202 C 
ENDBRANCH  13  18
BRANCH  15  20
HETATM   20  C21 UNL     1     -52.740 -15.057 -20.334  1.00  0.00     0.041 C 
BRANCH  20  21
HETATM   21  C22 UNL     1     -54.196 -15.508 -20.460  1.00  0.00     0.030 C 
BRANCH  21  22
HETATM   22  C23 UNL     1     -54.522 -15.420 -21.918  1.00  0.00    -0.025 C 
HETATM   23  C24 UNL     1     -55.488 -14.622 -22.352  1.00  0.00    -0.091 C 
HETATM   24  C25 UNL     1     -55.829 -14.515 -23.784  1.00  0.00     0.042 C 
HETATM   25  C26 UNL     1     -56.247 -13.812 -21.356  1.00  0.00     0.042 C 
ENDBRANCH  21  22
ENDBRANCH  20  21
ENDBRANCH  15  20
ENDBRANCH   7   8
ENDBRANCH   1   7
BRANCH   6  26
HETATM   26  O8  UNL     1     -49.837 -11.021 -22.252  1.00  0.00    -0.349 OA
BRANCH  26  27
HETATM   27  C12 UNL     1     -50.441 -10.327 -23.294  1.00  0.00     0.155 C 
HETATM   28  C13 UNL     1     -51.666 -10.566 -23.705  1.00  0.00     0.042 C 
HETATM   29 CL1  UNL     1     -52.302  -9.611 -25.034  1.00  0.00    -0.086 Cl
BRANCH  28  30
HETATM   30  C14 UNL     1     -52.574 -11.589 -23.136  1.00  0.00    -0.004 A 
HETATM   31  C15 UNL     1     -52.240 -13.004 -23.627  1.00  0.00     0.021 C 
HETATM   32  C16 UNL     1     -53.259 -11.400 -21.844  1.00  0.00     0.016 A 
HETATM   33  C17 UNL     1     -54.048 -11.325 -23.117  1.00  0.00     0.016 A 
ENDBRANCH  28  30
ENDBRANCH  26  27
ENDBRANCH   6  26
BRANCH   3  34
HETATM   34  C8  UNL     1     -47.425  -9.881 -17.487  1.00  0.00     0.198 C 
BRANCH  34  35
HETATM   35  O5  UNL     1     -47.836  -8.923 -16.585  1.00  0.00    -0.398 OA
ATOM     36  H5  UNL     1     -47.220  -8.202 -16.524  1.00  0.00     0.209 HD
ENDBRANCH  34  35
ENDBRANCH   3  34
BRANCH   5  37
HETATM   37  O7  UNL     1     -47.308 -11.004 -21.662  1.00  0.00    -0.390 OA
ATOM     38  H7  UNL     1     -47.885 -11.633 -22.078  1.00  0.00     0.210 HD
ENDBRANCH   5  37
BRANCH   4  39
HETATM   39  O6  UNL     1     -46.162  -9.993 -19.697  1.00  0.00    -0.390 OA
ATOM     40  H6  UNL     1     -45.545  -9.271 -19.687  1.00  0.00     0.210 HD
ENDBRANCH   4  39
TORSDOF 13
ENDMDL
MODEL 4
REMARK VINA RESULT: -7.324787377      2.535      5.023
REMARK  13 active torsions:
REMARK  status: ('A' for Active; 'I' for Inactive)
REMARK    1  A    between atoms: O1_2  and  C2_3 
REMARK    2  A    between atoms: C5_7  and  O3_8 
REMARK    3  A    between atoms: O3_8  and  C6_9 
REMARK    4  A    between atoms: C7_11  and  C8_12 
REMARK    5  A    between atoms: C8_12  and  O5_13 
REMARK    6  A    between atoms: C9_15  and  O6_16 
REMARK    7  A    between atoms: C10_18  and  O7_19 
REMARK    8  A    between atoms: C11_21  and  O8_22 
REMARK    9  A    between atoms: O8_22  and  C12_23 
REMARK   10  A    between atoms: C13_24  and  C14_26 
REMARK   11  A    between atoms: C19_31  and  C21_33 
REMARK   12  A    between atoms: C21_33  and  C22_34 
REMARK   13  A    between atoms: C22_34  and  C23_35 
ROOT
HETATM    1  C6  UNL     1     -48.755 -10.212 -20.275  1.00  0.00     0.292 C 
HETATM    2  O4  UNL     1     -47.470  -9.713 -20.033  1.00  0.00    -0.348 OA
HETATM    3  C7  UNL     1     -46.774 -10.584 -19.177  1.00  0.00     0.179 C 
HETATM    4  C9  UNL     1     -47.228 -10.271 -17.769  1.00  0.00     0.180 C 
HETATM    5  C10 UNL     1     -48.718 -10.133 -17.772  1.00  0.00     0.183 C 
HETATM    6  C11 UNL     1     -49.389 -10.714 -18.987  1.00  0.00     0.214 C 
ENDROOT
BRANCH   1   7
HETATM    7  O3  UNL     1     -48.618 -11.294 -21.117  1.00  0.00    -0.350 OA
BRANCH   7   8
HETATM    8  C5  UNL     1     -49.865 -11.836 -21.506  1.00  0.00     0.159 C 
HETATM    9  C4  UNL     1     -50.381 -11.175 -22.721  1.00  0.00     0.182 C 
HETATM   10  O2  UNL     1     -51.681 -10.641 -22.566  1.00  0.00    -0.378 OA
HETATM   11  C27 UNL     1     -50.450 -11.991 -23.947  1.00  0.00     0.185 C 
HETATM   12  C3  UNL     1     -51.874 -10.103 -23.848  1.00  0.00     0.203 C 
HETATM   13  C2  UNL     1     -51.593 -11.321 -24.716  1.00  0.00     0.176 C 
HETATM   14  O9  UNL     1     -50.724 -13.295 -23.841  1.00  0.00    -0.370 OA
HETATM   15  C19 UNL     1     -50.533 -13.946 -22.683  1.00  0.00     0.060 C 
HETATM   16  C18 UNL     1     -49.627 -13.315 -21.685  1.00  0.00     0.072 C 
HETATM   17  C20 UNL     1     -51.902 -14.194 -22.035  1.00  0.00     0.046 C 
BRANCH  13  18
HETATM   18  O1  UNL     1     -52.700 -12.130 -24.675  1.00  0.00    -0.386 OA
HETATM   19  C1  UNL     1     -53.668 -11.806 -25.618  1.00  0.00     0.202 C 
ENDBRANCH  13  18
BRANCH  15  20
HETATM   20  C21 UNL     1     -49.973 -15.331 -22.993  1.00  0.00     0.041 C 
BRANCH  20  21
HETATM   21  C22 UNL     1     -50.992 -16.412 -22.627  1.00  0.00     0.030 C 
BRANCH  21  22
HETATM   22  C23 UNL     1     -51.112 -17.281 -23.840  1.00  0.00    -0.025 C 
HETATM   23  C24 UNL     1     -51.138 -18.602 -23.731  1.00  0.00    -0.091 C 
HETATM   24  C25 UNL     1     -51.256 -19.482 -24.910  1.00  0.00     0.042 C 
HETATM   25  C26 UNL     1     -51.044 -19.208 -22.371  1.00  0.00     0.042 C 
ENDBRANCH  21  22
ENDBRANCH  20  21
ENDBRANCH  15  20
ENDBRANCH   7   8
ENDBRANCH   1   7
BRANCH   6  26
HETATM   26  O8  UNL     1     -50.755 -10.307 -18.952  1.00  0.00    -0.349 OA
BRANCH  26  27
HETATM   27  C12 UNL     1     -51.538 -10.481 -17.816  1.00  0.00     0.155 C 
HETATM   28  C13 UNL     1     -52.370 -11.486 -17.662  1.00  0.00     0.042 C 
HETATM   29 CL1  UNL     1     -53.297 -11.580 -16.174  1.00  0.00    -0.086 Cl
BRANCH  28  30
HETATM   30  C14 UNL     1     -52.601 -12.564 -18.651  1.00  0.00    -0.004 A 
HETATM   31  C15 UNL     1     -53.372 -12.073 -19.883  1.00  0.00     0.021 C 
HETATM   32  C16 UNL     1     -51.710 -13.735 -18.759  1.00  0.00     0.016 A 
HETATM   33  C17 UNL     1     -53.081 -13.900 -18.174  1.00  0.00     0.016 A 
ENDBRANCH  28  30
ENDBRANCH  26  27
ENDBRANCH   6  26
BRANCH   3  34
HETATM   34  C8  UNL     1     -45.303 -10.193 -19.267  1.00  0.00     0.198 C 
BRANCH  34  35
HETATM   35  O5  UNL     1     -44.508 -11.250 -19.654  1.00  0.00    -0.398 OA
ATOM     36  H5  UNL     1     -44.420 -11.305 -20.598  1.00  0.00     0.209 HD
ENDBRANCH  34  35
ENDBRANCH   3  34
BRANCH   5  37
HETATM   37  O7  UNL     1     -49.074  -8.792 -17.677  1.00  0.00    -0.390 OA
ATOM     38  H7  UNL     1     -49.474  -8.619 -16.834  1.00  0.00     0.210 HD
ENDBRANCH   5  37
BRANCH   4  39
HETATM   39  O6  UNL     1     -46.616  -9.065 -17.397  1.00  0.00    -0.390 OA
ATOM     40  H6  UNL     1     -47.143  -8.362 -17.759  1.00  0.00     0.210 HD
ENDBRANCH   4  39
TORSDOF 13
ENDMDL
MODEL 5
REMARK VINA RESULT: -7.279644057      1.489      1.876
REMARK  13 active torsions:
REMARK  status: ('A' for Active; 'I' for Inactive)
REMARK    1  A    between atoms: O1_2  and  C2_3 
REMARK    2  A    between atoms: C5_7  and  O3_8 
REMARK    3  A    between atoms: O3_8  and  C6_9 
REMARK    4  A    between atoms: C7_11  and  C8_12 
REMARK    5  A    between atoms: C8_12  and  O5_13 
REMARK    6  A    between atoms: C9_15  and  O6_16 
REMARK    7  A    between atoms: C10_18  and  O7_19 
REMARK    8  A    between atoms: C11_21  and  O8_22 
REMARK    9  A    between atoms: O8_22  and  C12_23 
REMARK   10  A    between atoms: C13_24  and  C14_26 
REMARK   11  A    between atoms: C19_31  and  C21_33 
REMARK   12  A    between atoms: C21_33  and  C22_34 
REMARK   13  A    between atoms: C22_34  and  C23_35 
ROOT
HETATM    1  C6  UNL     1     -49.492 -11.455 -20.229  1.00  0.00     0.292 C 
HETATM    2  O4  UNL     1     -48.576 -11.391 -19.173  1.00  0.00    -0.348 OA
HETATM    3  C7  UNL     1     -48.395 -10.054 -18.780  1.00  0.00     0.179 C 
HETATM    4  C9  UNL     1     -47.411  -9.441 -19.751  1.00  0.00     0.180 C 
HETATM    5  C10 UNL     1     -47.799  -9.848 -21.137  1.00  0.00     0.183 C 
HETATM    6  C11 UNL     1     -49.206 -10.371 -21.256  1.00  0.00     0.214 C 
ENDROOT
BRANCH   1   7
HETATM    7  O3  UNL     1     -50.739 -11.204 -19.700  1.00  0.00    -0.350 OA
BRANCH   7   8
HETATM    8  C5  UNL     1     -51.267 -12.321 -19.012  1.00  0.00     0.159 C 
HETATM    9  C4  UNL     1     -52.740 -12.365 -19.111  1.00  0.00     0.182 C 
HETATM   10  O2  UNL     1     -53.389 -12.425 -17.856  1.00  0.00    -0.378 OA
HETATM   11  C27 UNL     1     -53.323 -13.471 -19.892  1.00  0.00     0.185 C 
HETATM   12  C3  UNL     1     -54.727 -12.455 -18.279  1.00  0.00     0.203 C 
HETATM   13  C2  UNL     1     -54.699 -13.637 -19.238  1.00  0.00     0.176 C 
HETATM   14  O9  UNL     1     -52.711 -14.659 -19.890  1.00  0.00    -0.370 OA
HETATM   15  C19 UNL     1     -51.415 -14.764 -19.555  1.00  0.00     0.060 C 
HETATM   16  C18 UNL     1     -50.591 -13.527 -19.616  1.00  0.00     0.072 C 
HETATM   17  C20 UNL     1     -51.326 -15.360 -18.143  1.00  0.00     0.046 C 
BRANCH  13  18
HETATM   18  O1  UNL     1     -54.705 -14.785 -18.488  1.00  0.00    -0.386 OA
HETATM   19  C1  UNL     1     -55.900 -15.010 -17.815  1.00  0.00     0.202 C 
ENDBRANCH  13  18
BRANCH  15  20
HETATM   20  C21 UNL     1     -50.761 -15.792 -20.473  1.00  0.00     0.041 C 
BRANCH  20  21
HETATM   21  C22 UNL     1     -51.806 -16.779 -20.997  1.00  0.00     0.030 C 
BRANCH  21  22
HETATM   22  C23 UNL     1     -51.089 -17.634 -21.995  1.00  0.00    -0.025 C 
HETATM   23  C24 UNL     1     -51.663 -17.968 -23.143  1.00  0.00    -0.091 C 
HETATM   24  C25 UNL     1     -50.979 -18.809 -24.144  1.00  0.00     0.042 C 
HETATM   25  C26 UNL     1     -53.044 -17.474 -23.421  1.00  0.00     0.042 C 
ENDBRANCH  21  22
ENDBRANCH  20  21
ENDBRANCH  15  20
ENDBRANCH   7   8
ENDBRANCH   1   7
BRANCH   6  26
HETATM   26  O8  UNL     1     -49.344 -10.921 -22.564  1.00  0.00    -0.349 OA
BRANCH  26  27
HETATM   27  C12 UNL     1     -49.786 -12.224 -22.764  1.00  0.00     0.155 C 
HETATM   28  C13 UNL     1     -50.939 -12.516 -23.325  1.00  0.00     0.042 C 
HETATM   29 CL1  UNL     1     -51.370 -14.207 -23.512  1.00  0.00    -0.086 Cl
BRANCH  28  30
HETATM   30  C14 UNL     1     -51.924 -11.526 -23.819  1.00  0.00    -0.004 A 
HETATM   31  C15 UNL     1     -52.850 -11.017 -22.707  1.00  0.00     0.021 C 
HETATM   32  C16 UNL     1     -51.666 -10.687 -25.004  1.00  0.00     0.016 A 
HETATM   33  C17 UNL     1     -52.661 -11.806 -25.092  1.00  0.00     0.016 A 
ENDBRANCH  28  30
ENDBRANCH  26  27
ENDBRANCH   6  26
BRANCH   3  34
HETATM   34  C8  UNL     1     -47.709 -10.094 -17.419  1.00  0.00     0.198 C 
BRANCH  34  35
HETATM   35  O5  UNL     1     -47.799  -8.889 -16.757  1.00  0.00    -0.398 OA
ATOM     36  H5  UNL     1     -47.089  -8.768 -16.137  1.00  0.00     0.209 HD
ENDBRANCH  34  35
ENDBRANCH   3  34
BRANCH   5  37
HETATM   37  O7  UNL     1     -46.930 -10.825 -21.610  1.00  0.00    -0.390 OA
ATOM     38  H7  UNL     1     -46.130 -10.825 -21.099  1.00  0.00     0.210 HD
ENDBRANCH   5  37
BRANCH   4  39
HETATM   39  O6  UNL     1     -46.142  -9.939 -19.422  1.00  0.00    -0.390 OA
ATOM     40  H6  UNL     1     -45.718 -10.183 -20.236  1.00  0.00     0.210 HD
ENDBRANCH   4  39
TORSDOF 13
ENDMDL
