MODEL 1
REMARK VINA RESULT: -9.624559830      0.000      0.000
REMARK  9 active torsions:
REMARK  status: ('A' for Active; 'I' for Inactive)
REMARK    1  A    between atoms: O1_2  and  C2_3 
REMARK    2  A    between atoms: C4_5  and  O2_6 
REMARK    3  A    between atoms: C6_8  and  C7_9 
REMARK    4  A    between atoms: C7_9  and  N1_10 
REMARK    5  A    between atoms: N1_10  and  C22_35 
REMARK    6  A    between atoms: C8_11  and  C9_12 
REMARK    7  A    between atoms: C13_19  and  O4_20 
REMARK    8  A    between atoms: O4_20  and  C14_21 
REMARK    9  A    between atoms: C28_42  and  O6_43 
ROOT
HETATM    1  C9  UNL     1     -51.995 -10.545 -22.699  1.00  0.00     0.019 A 
HETATM    2  C10 UNL     1     -51.576 -10.277 -23.945  1.00  0.00     0.035 A 
HETATM    3  C11 UNL     1     -52.270 -10.627 -25.114  1.00  0.00     0.060 A 
HETATM    4  C12 UNL     1     -51.782 -10.320 -26.372  1.00  0.00     0.261 A 
HETATM    5  O3  UNL     1     -50.681  -9.704 -26.462  1.00  0.00    -0.267 OA
HETATM    6  N2  UNL     1     -52.486 -10.678 -27.459  1.00  0.00    -0.288 N 
ATOM      7  H2  UNL     1     -52.119 -10.446 -28.382  1.00  0.00     0.172 HD
HETATM    8  C13 UNL     1     -53.657 -11.331 -27.372  1.00  0.00     0.227 A 
HETATM    9  N4  UNL     1     -54.106 -11.617 -26.141  1.00  0.00    -0.321 N 
ATOM     10  H4  UNL     1     -54.993 -12.113 -26.052  1.00  0.00     0.169 HD
HETATM   11  C19 UNL     1     -53.441 -11.281 -25.015  1.00  0.00     0.054 A 
HETATM   12  C20 UNL     1     -53.935 -11.593 -23.769  1.00  0.00     0.073 A 
HETATM   13  C21 UNL     1     -53.246 -11.242 -22.649  1.00  0.00     0.130 A 
HETATM   14  F1  UNL     1     -53.748 -11.557 -21.463  1.00  0.00    -0.205 F 
ENDROOT
BRANCH   1  15
HETATM   15  C8  UNL     1     -51.419 -10.281 -21.443  1.00  0.00     0.101 C 
HETATM   16  N1  UNL     1     -50.903 -10.878 -20.368  1.00  0.00    -0.380 N 
BRANCH  16  17
HETATM   17  C7  UNL     1     -50.494  -9.823 -19.370  1.00  0.00     0.164 C 
BRANCH  17  18
HETATM   18  C6  UNL     1     -49.116  -9.882 -18.962  1.00  0.00    -0.004 A 
HETATM   19  C4  UNL     1     -48.137  -9.802 -19.931  1.00  0.00     0.079 A 
HETATM   20  C3  UNL     1     -46.812  -9.813 -19.616  1.00  0.00     0.077 A 
HETATM   21  C2  UNL     1     -46.417  -9.904 -18.313  1.00  0.00     0.103 A 
HETATM   22  C28 UNL     1     -47.355  -9.985 -17.309  1.00  0.00     0.099 A 
HETATM   23  C27 UNL     1     -48.688  -9.972 -17.663  1.00  0.00     0.051 A 
BRANCH  19  24
HETATM   24  O2  UNL     1     -48.530  -9.708 -21.282  1.00  0.00    -0.355 OA
HETATM   25  C5  UNL     1     -47.903 -10.539 -22.240  1.00  0.00     0.210 C 
ENDBRANCH  19  24
BRANCH  21  26
HETATM   26  O1  UNL     1     -45.042  -9.913 -17.999  1.00  0.00    -0.353 OA
HETATM   27  C1  UNL     1     -44.092 -10.332 -18.957  1.00  0.00     0.210 C 
ENDBRANCH  21  26
BRANCH  22  28
HETATM   28  O6  UNL     1     -46.898 -10.075 -16.008  1.00  0.00    -0.358 OA
ATOM     29  H6  UNL     1     -47.508 -10.376 -15.345  1.00  0.00     0.217 HD
ENDBRANCH  22  28
ENDBRANCH  17  18
ENDBRANCH  16  17
BRANCH  16  30
HETATM   30  C22 UNL     1     -50.835 -12.114 -19.800  1.00  0.00     0.088 C 
HETATM   31  C23 UNL     1     -51.875 -12.561 -18.842  1.00  0.00     0.051 C 
HETATM   32  C24 UNL     1     -51.957 -14.097 -18.793  1.00  0.00     0.169 C 
HETATM   33  O5  UNL     1     -50.678 -14.606 -18.906  1.00  0.00    -0.391 OA
HETATM   34  C25 UNL     1     -50.318 -14.523 -20.230  1.00  0.00     0.169 C 
HETATM   35  C26 UNL     1     -50.875 -13.244 -20.880  1.00  0.00     0.051 C 
ENDBRANCH  16  30
ENDBRANCH   1  15
BRANCH   8  36
HETATM   36  O4  UNL     1     -54.324 -11.668 -28.540  1.00  0.00    -0.316 OA
BRANCH  36  37
HETATM   37  C14 UNL     1     -54.727 -12.990 -28.846  1.00  0.00     0.135 C 
HETATM   38  C15 UNL     1     -53.500 -13.820 -29.006  1.00  0.00     0.060 C 
HETATM   39  C16 UNL     1     -53.605 -14.926 -30.001  1.00  0.00     0.235 C 
HETATM   40  N3  UNL     1     -54.299 -14.568 -31.216  1.00  0.00    -0.075 N 
HETATM   41  C17 UNL     1     -55.670 -14.220 -30.811  1.00  0.00     0.235 C 
ATOM     42  H32 UNL     1     -53.834 -13.834 -31.751  1.00  0.00     0.277 HD
ATOM     43  H31 UNL     1     -54.258 -15.290 -31.937  1.00  0.00     0.277 HD
HETATM   44  C18 UNL     1     -55.570 -12.902 -30.094  1.00  0.00     0.060 C 
ENDBRANCH  36  37
ENDBRANCH   8  36
TORSDOF 9
ENDMDL
MODEL 2
REMARK VINA RESULT: -9.412918611      2.304     11.119
REMARK  9 active torsions:
REMARK  status: ('A' for Active; 'I' for Inactive)
REMARK    1  A    between atoms: O1_2  and  C2_3 
REMARK    2  A    between atoms: C4_5  and  O2_6 
REMARK    3  A    between atoms: C6_8  and  C7_9 
REMARK    4  A    between atoms: C7_9  and  N1_10 
REMARK    5  A    between atoms: N1_10  and  C22_35 
REMARK    6  A    between atoms: C8_11  and  C9_12 
REMARK    7  A    between atoms: C13_19  and  O4_20 
REMARK    8  A    between atoms: O4_20  and  C14_21 
REMARK    9  A    between atoms: C28_42  and  O6_43 
ROOT
HETATM    1  C9  UNL     1     -52.848 -12.527 -24.084  1.00  0.00     0.019 A 
HETATM    2  C10 UNL     1     -51.913 -11.569 -24.176  1.00  0.00     0.035 A 
HETATM    3  C11 UNL     1     -51.177 -11.063 -23.093  1.00  0.00     0.060 A 
HETATM    4  C12 UNL     1     -50.225 -10.073 -23.257  1.00  0.00     0.261 A 
HETATM    5  O3  UNL     1     -50.017  -9.617 -24.418  1.00  0.00    -0.267 OA
HETATM    6  N2  UNL     1     -49.548  -9.624 -22.186  1.00  0.00    -0.288 N 
ATOM      7  H2  UNL     1     -48.847  -8.895 -22.317  1.00  0.00     0.172 HD
HETATM    8  C13 UNL     1     -49.763 -10.103 -20.949  1.00  0.00     0.227 A 
HETATM    9  N4  UNL     1     -50.691 -11.062 -20.819  1.00  0.00    -0.321 N 
ATOM     10  H4  UNL     1     -50.871 -11.441 -19.888  1.00  0.00     0.169 HD
HETATM   11  C19 UNL     1     -51.400 -11.550 -21.859  1.00  0.00     0.054 A 
HETATM   12  C20 UNL     1     -52.346 -12.535 -21.685  1.00  0.00     0.073 A 
HETATM   13  C21 UNL     1     -53.047 -13.011 -22.750  1.00  0.00     0.130 A 
HETATM   14  F1  UNL     1     -53.951 -13.960 -22.549  1.00  0.00    -0.205 F 
ENDROOT
BRANCH   1  15
HETATM   15  C8  UNL     1     -53.673 -13.123 -25.055  1.00  0.00     0.101 C 
HETATM   16  N1  UNL     1     -54.344 -12.863 -26.177  1.00  0.00    -0.380 N 
BRANCH  16  17
HETATM   17  C7  UNL     1     -55.048 -14.119 -26.629  1.00  0.00     0.164 C 
BRANCH  17  18
HETATM   18  C6  UNL     1     -55.321 -14.181 -28.040  1.00  0.00    -0.004 A 
HETATM   19  C4  UNL     1     -56.586 -13.853 -28.483  1.00  0.00     0.079 A 
HETATM   20  C3  UNL     1     -56.906 -13.852 -29.807  1.00  0.00     0.077 A 
HETATM   21  C2  UNL     1     -55.966 -14.183 -30.741  1.00  0.00     0.103 A 
HETATM   22  C28 UNL     1     -54.690 -14.518 -30.350  1.00  0.00     0.099 A 
HETATM   23  C27 UNL     1     -54.400 -14.508 -29.002  1.00  0.00     0.051 A 
BRANCH  19  24
HETATM   24  O2  UNL     1     -57.566 -13.509 -27.530  1.00  0.00    -0.355 OA
HETATM   25  C5  UNL     1     -58.529 -12.525 -27.858  1.00  0.00     0.210 C 
ENDBRANCH  19  24
BRANCH  21  26
HETATM   26  O1  UNL     1     -56.310 -14.179 -32.108  1.00  0.00    -0.353 OA
HETATM   27  C1  UNL     1     -57.593 -14.596 -32.526  1.00  0.00     0.210 C 
ENDBRANCH  21  26
BRANCH  22  28
HETATM   28  O6  UNL     1     -53.781 -14.844 -31.338  1.00  0.00    -0.358 OA
ATOM     29  H6  UNL     1     -53.229 -15.605 -31.198  1.00  0.00     0.217 HD
ENDBRANCH  22  28
ENDBRANCH  17  18
ENDBRANCH  16  17
BRANCH  16  30
HETATM   30  C22 UNL     1     -54.770 -11.797 -26.909  1.00  0.00     0.088 C 
HETATM   31  C23 UNL     1     -55.603 -10.740 -26.284  1.00  0.00     0.051 C 
HETATM   32  C24 UNL     1     -55.471  -9.409 -27.047  1.00  0.00     0.169 C 
HETATM   33  O5  UNL     1     -55.381  -9.688 -28.396  1.00  0.00    -0.391 OA
HETATM   34  C25 UNL     1     -54.101 -10.123 -28.643  1.00  0.00     0.169 C 
HETATM   35  C26 UNL     1     -53.568 -10.974 -27.477  1.00  0.00     0.051 C 
ENDBRANCH  16  30
ENDBRANCH   1  15
BRANCH   8  36
HETATM   36  O4  UNL     1     -49.024  -9.589 -19.895  1.00  0.00    -0.316 OA
BRANCH  36  37
HETATM   37  C14 UNL     1     -48.012 -10.322 -19.230  1.00  0.00     0.135 C 
HETATM   38  C15 UNL     1     -48.045  -9.949 -17.788  1.00  0.00     0.060 C 
HETATM   39  C16 UNL     1     -46.724  -9.965 -17.096  1.00  0.00     0.235 C 
HETATM   40  N3  UNL     1     -45.638  -9.416 -17.875  1.00  0.00    -0.075 N 
HETATM   41  C17 UNL     1     -45.516 -10.278 -19.061  1.00  0.00     0.235 C 
ATOM     42  H32 UNL     1     -45.757  -8.428 -18.100  1.00  0.00     0.277 HD
ATOM     43  H31 UNL     1     -44.769  -9.318 -17.350  1.00  0.00     0.277 HD
HETATM   44  C18 UNL     1     -46.714  -9.979 -19.918  1.00  0.00     0.060 C 
ENDBRANCH  36  37
ENDBRANCH   8  36
TORSDOF 9
ENDMDL
MODEL 3
REMARK VINA RESULT: -9.334398775      3.145     10.173
REMARK  9 active torsions:
REMARK  status: ('A' for Active; 'I' for Inactive)
REMARK    1  A    between atoms: O1_2  and  C2_3 
REMARK    2  A    between atoms: C4_5  and  O2_6 
REMARK    3  A    between atoms: C6_8  and  C7_9 
REMARK    4  A    between atoms: C7_9  and  N1_10 
REMARK    5  A    between atoms: N1_10  and  C22_35 
REMARK    6  A    between atoms: C8_11  and  C9_12 
REMARK    7  A    between atoms: C13_19  and  O4_20 
REMARK    8  A    between atoms: O4_20  and  C14_21 
REMARK    9  A    between atoms: C28_42  and  O6_43 
ROOT
HETATM    1  C9  UNL     1     -53.156 -11.204 -24.148  1.00  0.00     0.019 A 
HETATM    2  C10 UNL     1     -51.986 -10.550 -24.087  1.00  0.00     0.035 A 
HETATM    3  C11 UNL     1     -51.026 -10.720 -23.076  1.00  0.00     0.060 A 
HETATM    4  C12 UNL     1     -49.837 -10.012 -23.072  1.00  0.00     0.261 A 
HETATM    5  O3  UNL     1     -49.615  -9.193 -24.009  1.00  0.00    -0.267 OA
HETATM    6  N2  UNL     1     -48.953 -10.213 -22.080  1.00  0.00    -0.288 N 
ATOM      7  H2  UNL     1     -48.078  -9.688 -22.086  1.00  0.00     0.172 HD
HETATM    8  C13 UNL     1     -49.181 -11.082 -21.081  1.00  0.00     0.227 A 
HETATM    9  N4  UNL     1     -50.341 -11.753 -21.109  1.00  0.00    -0.321 N 
ATOM     10  H4  UNL     1     -50.535 -12.419 -20.360  1.00  0.00     0.169 HD
HETATM   11  C19 UNL     1     -51.265 -11.592 -22.080  1.00  0.00     0.054 A 
HETATM   12  C20 UNL     1     -52.446 -12.300 -22.074  1.00  0.00     0.073 A 
HETATM   13  C21 UNL     1     -53.360 -12.119 -23.065  1.00  0.00     0.130 A 
HETATM   14  F1  UNL     1     -54.488 -12.817 -23.031  1.00  0.00    -0.205 F 
ENDROOT
BRANCH   1  15
HETATM   15  C8  UNL     1     -54.215 -11.137 -25.071  1.00  0.00     0.101 C 
HETATM   16  N1  UNL     1     -54.601 -11.569 -26.271  1.00  0.00    -0.380 N 
BRANCH  16  17
HETATM   17  C7  UNL     1     -55.961 -10.995 -26.585  1.00  0.00     0.164 C 
BRANCH  17  18
HETATM   18  C6  UNL     1     -56.006  -9.559 -26.657  1.00  0.00    -0.004 A 
HETATM   19  C4  UNL     1     -56.709  -8.872 -25.688  1.00  0.00     0.079 A 
HETATM   20  C3  UNL     1     -56.764  -7.511 -25.670  1.00  0.00     0.077 A 
HETATM   21  C2  UNL     1     -56.114  -6.785 -26.626  1.00  0.00     0.103 A 
HETATM   22  C28 UNL     1     -55.399  -7.423 -27.613  1.00  0.00     0.099 A 
HETATM   23  C27 UNL     1     -55.364  -8.802 -27.602  1.00  0.00     0.051 A 
BRANCH  19  24
HETATM   24  O2  UNL     1     -57.386  -9.609 -24.695  1.00  0.00    -0.355 OA
HETATM   25  C5  UNL     1     -57.697  -8.981 -23.465  1.00  0.00     0.210 C 
ENDBRANCH  19  24
BRANCH  21  26
HETATM   26  O1  UNL     1     -56.178  -5.377 -26.596  1.00  0.00    -0.353 OA
HETATM   27  C1  UNL     1     -57.406  -4.711 -26.807  1.00  0.00     0.210 C 
ENDBRANCH  21  26
BRANCH  22  28
HETATM   28  O6  UNL     1     -54.761  -6.638 -28.554  1.00  0.00    -0.358 OA
ATOM     29  H6  UNL     1     -55.277  -6.313 -29.283  1.00  0.00     0.217 HD
ENDBRANCH  22  28
ENDBRANCH  17  18
ENDBRANCH  16  17
BRANCH  16  30
HETATM   30  C22 UNL     1     -54.078 -12.168 -27.377  1.00  0.00     0.088 C 
HETATM   31  C23 UNL     1     -52.820 -11.666 -27.981  1.00  0.00     0.051 C 
HETATM   32  C24 UNL     1     -52.113 -12.772 -28.785  1.00  0.00     0.169 C 
HETATM   33  O5  UNL     1     -53.075 -13.534 -29.417  1.00  0.00    -0.391 OA
HETATM   34  C25 UNL     1     -53.624 -14.370 -28.473  1.00  0.00     0.169 C 
HETATM   35  C26 UNL     1     -53.737 -13.670 -27.108  1.00  0.00     0.051 C 
ENDBRANCH  16  30
ENDBRANCH   1  15
BRANCH   8  36
HETATM   36  O4  UNL     1     -48.220 -11.233 -20.093  1.00  0.00    -0.316 OA
BRANCH  36  37
HETATM   37  C14 UNL     1     -47.680 -10.144 -19.368  1.00  0.00     0.135 C 
HETATM   38  C15 UNL     1     -46.196 -10.281 -19.368  1.00  0.00     0.060 C 
HETATM   39  C16 UNL     1     -45.509  -9.775 -18.145  1.00  0.00     0.235 C 
HETATM   40  N3  UNL     1     -46.183 -10.100 -16.908  1.00  0.00    -0.075 N 
HETATM   41  C17 UNL     1     -47.494  -9.435 -16.975  1.00  0.00     0.235 C 
ATOM     42  H32 UNL     1     -46.244 -11.102 -16.728  1.00  0.00     0.277 HD
ATOM     43  H31 UNL     1     -45.646  -9.858 -16.075  1.00  0.00     0.277 HD
HETATM   44  C18 UNL     1     -48.296 -10.197 -17.992  1.00  0.00     0.060 C 
ENDBRANCH  36  37
ENDBRANCH   8  36
TORSDOF 9
ENDMDL
MODEL 4
REMARK VINA RESULT: -9.247865842      2.962      4.249
REMARK  9 active torsions:
REMARK  status: ('A' for Active; 'I' for Inactive)
REMARK    1  A    between atoms: O1_2  and  C2_3 
REMARK    2  A    between atoms: C4_5  and  O2_6 
REMARK    3  A    between atoms: C6_8  and  C7_9 
REMARK    4  A    between atoms: C7_9  and  N1_10 
REMARK    5  A    between atoms: N1_10  and  C22_35 
REMARK    6  A    between atoms: C8_11  and  C9_12 
REMARK    7  A    between atoms: C13_19  and  O4_20 
REMARK    8  A    between atoms: O4_20  and  C14_21 
REMARK    9  A    between atoms: C28_42  and  O6_43 
ROOT
HETATM    1  C9  UNL     1     -52.773 -11.041 -22.993  1.00  0.00     0.019 A 
HETATM    2  C10 UNL     1     -52.200 -10.512 -24.085  1.00  0.00     0.035 A 
HETATM    3  C11 UNL     1     -52.903  -9.942 -25.159  1.00  0.00     0.060 A 
HETATM    4  C12 UNL     1     -52.250  -9.413 -26.259  1.00  0.00     0.261 A 
HETATM    5  O3  UNL     1     -50.987  -9.446 -26.289  1.00  0.00    -0.267 OA
HETATM    6  N2  UNL     1     -52.971  -8.879 -27.260  1.00  0.00    -0.288 N 
ATOM      7  H2  UNL     1     -52.481  -8.490 -28.066  1.00  0.00     0.172 HD
HETATM    8  C13 UNL     1     -54.313  -8.839 -27.235  1.00  0.00     0.227 A 
HETATM    9  N4  UNL     1     -54.920  -9.359 -26.158  1.00  0.00    -0.321 N 
ATOM     10  H4  UNL     1     -55.939  -9.339 -26.118  1.00  0.00     0.169 HD
HETATM   11  C19 UNL     1     -54.247  -9.908 -25.124  1.00  0.00     0.054 A 
HETATM   12  C20 UNL     1     -54.906 -10.432 -24.035  1.00  0.00     0.073 A 
HETATM   13  C21 UNL     1     -54.204 -10.979 -23.005  1.00  0.00     0.130 A 
HETATM   14  F1  UNL     1     -54.868 -11.475 -21.971  1.00  0.00    -0.205 F 
ENDROOT
BRANCH   1  15
HETATM   15  C8  UNL     1     -52.221 -11.655 -21.854  1.00  0.00     0.101 C 
HETATM   16  N1  UNL     1     -51.689 -12.799 -21.422  1.00  0.00    -0.380 N 
BRANCH  16  17
HETATM   17  C7  UNL     1     -51.337 -12.654 -19.962  1.00  0.00     0.164 C 
BRANCH  17  18
HETATM   18  C6  UNL     1     -50.179 -11.843 -19.699  1.00  0.00    -0.004 A 
HETATM   19  C4  UNL     1     -50.139 -11.107 -18.532  1.00  0.00     0.079 A 
HETATM   20  C3  UNL     1     -49.059 -10.346 -18.199  1.00  0.00     0.077 A 
HETATM   21  C2  UNL     1     -47.974 -10.294 -19.026  1.00  0.00     0.103 A 
HETATM   22  C28 UNL     1     -47.965 -11.010 -20.202  1.00  0.00     0.099 A 
HETATM   23  C27 UNL     1     -49.074 -11.770 -20.508  1.00  0.00     0.051 A 
BRANCH  19  24
HETATM   24  O2  UNL     1     -51.252 -11.152 -17.669  1.00  0.00    -0.355 OA
HETATM   25  C5  UNL     1     -52.233 -10.136 -17.759  1.00  0.00     0.210 C 
ENDBRANCH  19  24
BRANCH  21  26
HETATM   26  O1  UNL     1     -46.863  -9.503 -18.670  1.00  0.00    -0.353 OA
HETATM   27  C1  UNL     1     -45.909  -9.983 -17.745  1.00  0.00     0.210 C 
ENDBRANCH  21  26
BRANCH  22  28
HETATM   28  O6  UNL     1     -46.841 -10.919 -21.000  1.00  0.00    -0.358 OA
ATOM     29  H6  UNL     1     -46.965 -10.695 -21.915  1.00  0.00     0.217 HD
ENDBRANCH  22  28
ENDBRANCH  17  18
ENDBRANCH  16  17
BRANCH  16  30
HETATM   30  C22 UNL     1     -51.571 -14.100 -21.807  1.00  0.00     0.088 C 
HETATM   31  C23 UNL     1     -52.744 -14.839 -22.335  1.00  0.00     0.051 C 
HETATM   32  C24 UNL     1     -52.302 -16.010 -23.231  1.00  0.00     0.169 C 
HETATM   33  O5  UNL     1     -51.162 -16.567 -22.687  1.00  0.00    -0.391 OA
HETATM   34  C25 UNL     1     -50.109 -15.740 -23.001  1.00  0.00     0.169 C 
HETATM   35  C26 UNL     1     -50.532 -14.262 -22.965  1.00  0.00     0.051 C 
ENDBRANCH  16  30
ENDBRANCH   1  15
BRANCH   8  36
HETATM   36  O4  UNL     1     -54.985  -8.272 -28.307  1.00  0.00    -0.316 OA
BRANCH  36  37
HETATM   37  C14 UNL     1     -55.870  -7.175 -28.171  1.00  0.00     0.135 C 
HETATM   38  C15 UNL     1     -55.319  -6.266 -27.126  1.00  0.00     0.060 C 
HETATM   39  C16 UNL     1     -56.336  -5.538 -26.314  1.00  0.00     0.235 C 
HETATM   40  N3  UNL     1     -57.474  -6.341 -25.929  1.00  0.00    -0.075 N 
HETATM   41  C17 UNL     1     -58.129  -6.741 -27.184  1.00  0.00     0.235 C 
ATOM     42  H32 UNL     1     -57.232  -7.128 -25.326  1.00  0.00     0.277 HD
ATOM     43  H31 UNL     1     -58.100  -5.872 -25.274  1.00  0.00     0.277 HD
HETATM   44  C18 UNL     1     -57.219  -7.754 -27.824  1.00  0.00     0.060 C 
ENDBRANCH  36  37
ENDBRANCH   8  36
TORSDOF 9
ENDMDL
MODEL 5
REMARK VINA RESULT: -9.170982962      2.194      3.404
REMARK  9 active torsions:
REMARK  status: ('A' for Active; 'I' for Inactive)
REMARK    1  A    between atoms: O1_2  and  C2_3 
REMARK    2  A    between atoms: C4_5  and  O2_6 
REMARK    3  A    between atoms: C6_8  and  C7_9 
REMARK    4  A    between atoms: C7_9  and  N1_10 
REMARK    5  A    between atoms: N1_10  and  C22_35 
REMARK    6  A    between atoms: C8_11  and  C9_12 
REMARK    7  A    between atoms: C13_19  and  O4_20 
REMARK    8  A    between atoms: O4_20  and  C14_21 
REMARK    9  A    between atoms: C28_42  and  O6_43 
ROOT
HETATM    1  C9  UNL     1     -52.178 -11.751 -25.165  1.00  0.00     0.019 A 
HETATM    2  C10 UNL     1     -52.373 -13.014 -25.574  1.00  0.00     0.035 A 
HETATM    3  C11 UNL     1     -52.806 -13.379 -26.859  1.00  0.00     0.060 A 
HETATM    4  C12 UNL     1     -52.988 -14.703 -27.219  1.00  0.00     0.261 A 
HETATM    5  O3  UNL     1     -52.755 -15.603 -26.361  1.00  0.00    -0.267 OA
HETATM    6  N2  UNL     1     -53.404 -14.998 -28.462  1.00  0.00    -0.288 N 
ATOM      7  H2  UNL     1     -53.534 -15.977 -28.718  1.00  0.00     0.172 HD
HETATM    8  C13 UNL     1     -53.654 -14.049 -29.379  1.00  0.00     0.227 A 
HETATM    9  N4  UNL     1     -53.470 -12.775 -29.004  1.00  0.00    -0.321 N 
ATOM     10  H4  UNL     1     -53.654 -12.037 -29.685  1.00  0.00     0.169 HD
HETATM   11  C19 UNL     1     -53.054 -12.420 -27.770  1.00  0.00     0.054 A 
HETATM   12  C20 UNL     1     -52.876 -11.100 -27.422  1.00  0.00     0.073 A 
HETATM   13  C21 UNL     1     -52.455 -10.770 -26.171  1.00  0.00     0.130 A 
HETATM   14  F1  UNL     1     -52.294  -9.489 -25.867  1.00  0.00    -0.205 F 
ENDROOT
BRANCH   1  15
HETATM   15  C8  UNL     1     -51.768 -11.225 -23.927  1.00  0.00     0.101 C 
HETATM   16  N1  UNL     1     -51.361 -11.581 -22.708  1.00  0.00    -0.380 N 
BRANCH  16  17
HETATM   17  C7  UNL     1     -51.119 -10.337 -21.889  1.00  0.00     0.164 C 
BRANCH  17  18
HETATM   18  C6  UNL     1     -49.864 -10.312 -21.187  1.00  0.00    -0.004 A 
HETATM   19  C4  UNL     1     -49.856  -9.929 -19.861  1.00  0.00     0.079 A 
HETATM   20  C3  UNL     1     -48.711  -9.919 -19.123  1.00  0.00     0.077 A 
HETATM   21  C2  UNL     1     -47.526 -10.292 -19.689  1.00  0.00     0.103 A 
HETATM   22  C28 UNL     1     -47.481 -10.683 -21.008  1.00  0.00     0.099 A 
HETATM   23  C27 UNL     1     -48.659 -10.682 -21.726  1.00  0.00     0.051 A 
BRANCH  19  24
HETATM   24  O2  UNL     1     -51.073  -9.541 -19.264  1.00  0.00    -0.355 OA
HETATM   25  C5  UNL     1     -51.607 -10.328 -18.216  1.00  0.00     0.210 C 
ENDBRANCH  19  24
BRANCH  21  26
HETATM   26  O1  UNL     1     -46.348 -10.277 -18.915  1.00  0.00    -0.353 OA
HETATM   27  C1  UNL     1     -46.390  -9.901 -17.554  1.00  0.00     0.210 C 
ENDBRANCH  21  26
BRANCH  22  28
HETATM   28  O6  UNL     1     -46.255 -11.050 -21.528  1.00  0.00    -0.358 OA
ATOM     29  H6  UNL     1     -46.247 -11.509 -22.360  1.00  0.00     0.217 HD
ENDBRANCH  22  28
ENDBRANCH  17  18
ENDBRANCH  16  17
BRANCH  16  30
HETATM   30  C22 UNL     1     -51.308 -12.685 -21.912  1.00  0.00     0.088 C 
HETATM   31  C23 UNL     1     -52.553 -13.387 -21.515  1.00  0.00     0.051 C 
HETATM   32  C24 UNL     1     -52.269 -14.857 -21.160  1.00  0.00     0.169 C 
HETATM   33  O5  UNL     1     -51.052 -14.921 -20.511  1.00  0.00    -0.391 OA
HETATM   34  C25 UNL     1     -50.069 -14.811 -21.466  1.00  0.00     0.169 C 
HETATM   35  C26 UNL     1     -50.482 -13.833 -22.579  1.00  0.00     0.051 C 
ENDBRANCH  16  30
ENDBRANCH   1  15
BRANCH   8  36
HETATM   36  O4  UNL     1     -54.081 -14.433 -30.641  1.00  0.00    -0.316 OA
BRANCH  36  37
HETATM   37  C14 UNL     1     -55.114 -13.767 -31.343  1.00  0.00     0.135 C 
HETATM   38  C15 UNL     1     -56.405 -14.424 -30.994  1.00  0.00     0.060 C 
HETATM   39  C16 UNL     1     -57.427 -14.437 -32.080  1.00  0.00     0.235 C 
HETATM   40  N3  UNL     1     -56.895 -14.727 -33.393  1.00  0.00    -0.075 N 
HETATM   41  C17 UNL     1     -55.955 -13.637 -33.697  1.00  0.00     0.235 C 
ATOM     42  H32 UNL     1     -56.480 -15.656 -33.468  1.00  0.00     0.277 HD
ATOM     43  H31 UNL     1     -57.614 -14.855 -34.104  1.00  0.00     0.277 HD
HETATM   44  C18 UNL     1     -54.762 -13.855 -32.808  1.00  0.00     0.060 C 
ENDBRANCH  36  37
ENDBRANCH   8  36
TORSDOF 9
ENDMDL
