MODEL 1
REMARK VINA RESULT: -8.532230793      0.000      0.000
REMARK  9 active torsions:
REMARK  status: ('A' for Active; 'I' for Inactive)
REMARK    1  A    between atoms: C2_2  and  C4_4 
REMARK    2  A    between atoms: C4_4  and  N1_5 
REMARK    3  A    between atoms: C4_4  and  C20_32 
REMARK    4  A    between atoms: N1_5  and  C5_7 
REMARK    5  A    between atoms: C5_7  and  C6_12 
REMARK    6  A    between atoms: N2_8  and  O1_10 
REMARK    7  A    between atoms: C6_12  and  N3_13 
REMARK    8  A    between atoms: C6_12  and  C16_28 
REMARK       I    between atoms: N3_13  and  C7_15 
REMARK    9  A    between atoms: C7_15  and  C8_17 
REMARK       I    between atoms: C20_32  and  N5_34 
ROOT
HETATM    1  C5  UNL     1      54.218  26.714  10.369  1.00  0.00     0.149 C 
HETATM    2  N2  UNL     1      52.955  26.654  10.212  1.00  0.00    -0.251 N 
ATOM      3  H2  UNL     1      52.524  27.453   9.747  1.00  0.00     0.196 HD
ENDROOT
BRANCH   1   4
HETATM    4  N1  UNL     1      54.893  25.678  11.002  1.00  0.00    -0.338 N 
ATOM      5  H1  UNL     1      55.507  25.113  10.415  1.00  0.00     0.167 HD
BRANCH   4   6
HETATM    6  C4  UNL     1      54.826  25.317  12.360  1.00  0.00     0.083 C 
BRANCH   6   7
HETATM    7  C2  UNL     1      55.627  25.857  13.436  1.00  0.00     0.033 C 
HETATM    8  C1  UNL     1      56.940  26.443  12.844  1.00  0.00     0.016 C 
HETATM    9  C3  UNL     1      55.061  26.817  14.424  1.00  0.00     0.016 C 
ENDBRANCH   6   7
BRANCH   6  10
HETATM   10  C20 UNL     1      54.492  23.813  12.465  1.00  0.00     0.268 C 
HETATM   11  O3  UNL     1      55.343  23.132  13.042  1.00  0.00    -0.266 OA
HETATM   12  N5  UNL     1      53.303  23.314  11.941  1.00  0.00    -0.325 N 
HETATM   13  C21 UNL     1      52.819  22.050  11.821  1.00  0.00     0.027 C 
ATOM     14  H5  UNL     1      52.677  24.033  11.578  1.00  0.00     0.169 HD
HETATM   15  C22 UNL     1      53.307  20.876  12.659  1.00  0.00     0.084 C 
HETATM   16  C29 UNL     1      51.356  21.895  11.753  1.00  0.00     0.020 A 
HETATM   17  C23 UNL     1      53.104  19.641  11.748  1.00  0.00     0.181 C 
HETATM   18  O4  UNL     1      52.020  19.841  10.837  1.00  0.00    -0.350 OA
HETATM   19  C24 UNL     1      50.960  20.663  11.178  1.00  0.00     0.083 A 
HETATM   20  C25 UNL     1      49.650  20.353  11.005  1.00  0.00     0.079 A 
HETATM   21  C26 UNL     1      48.702  21.276  11.413  1.00  0.00     0.119 A 
HETATM   22  F1  UNL     1      47.367  20.993  11.259  1.00  0.00    -0.206 F 
HETATM   23  C27 UNL     1      49.098  22.497  11.986  1.00  0.00     0.043 A 
HETATM   24  C28 UNL     1      50.427  22.793  12.148  1.00  0.00     0.019 A 
ENDBRANCH   6  10
ENDBRANCH   4   6
ENDBRANCH   1   4
BRANCH   1  25
HETATM   25  C6  UNL     1      54.821  27.900   9.675  1.00  0.00     0.065 C 
BRANCH  25  26
HETATM   26  N3  UNL     1      55.353  28.781  10.632  1.00  0.00    -0.325 N 
HETATM   27  C7  UNL     1      54.812  29.421  11.780  1.00  0.00     0.253 C 
HETATM   28  O2  UNL     1      53.639  29.182  12.138  1.00  0.00    -0.271 OA
ATOM     29  H3  UNL     1      56.333  29.010  10.469  1.00  0.00     0.169 HD
BRANCH  27  30
HETATM   30  C8  UNL     1      55.606  30.359  12.581  1.00  0.00     0.277 C 
HETATM   31  C9  UNL     1      55.286  30.367  14.065  1.00  0.00     0.043 C 
HETATM   32  C10 UNL     1      56.578  30.198  14.869  1.00  0.00     0.007 C 
HETATM   33  C11 UNL     1      57.708  31.054  14.508  1.00  0.00    -0.012 C 
HETATM   34  C12 UNL     1      58.897  30.194  14.003  1.00  0.00     0.007 C 
HETATM   35  C15 UNL     1      57.487  32.055  13.395  1.00  0.00     0.037 C 
HETATM   36  C13 UNL     1      59.199  30.742  12.581  1.00  0.00     0.033 C 
HETATM   37  C14 UNL     1      57.786  31.114  12.195  1.00  0.00     0.187 C 
HETATM   38  N4  UNL     1      57.005  29.870  12.495  1.00  0.00    -0.058 N 
ATOM     39  H42 UNL     1      57.326  29.355  13.315  1.00  0.00     0.278 HD
ATOM     40  H41 UNL     1      57.149  29.109  11.831  1.00  0.00     0.278 HD
ENDBRANCH  27  30
ENDBRANCH  25  26
BRANCH  25  41
HETATM   41  C16 UNL     1      55.532  27.768   8.444  1.00  0.00    -0.005 C 
HETATM   42  C17 UNL     1      55.733  26.408   7.867  1.00  0.00     0.021 C 
HETATM   43  C18 UNL     1      54.993  28.691   7.329  1.00  0.00     0.021 C 
HETATM   44  C19 UNL     1      56.978  28.304   8.637  1.00  0.00     0.021 C 
ENDBRANCH  25  41
ENDBRANCH   1  25
BRANCH   2  45
HETATM   45  O1  UNL     1      52.133  25.678  10.579  1.00  0.00    -0.288 OA
ATOM     46  H1  UNL     1      51.409  25.310  10.087  1.00  0.00     0.244 HD
ENDBRANCH   2  45
TORSDOF 9
ENDMDL
MODEL 2
REMARK VINA RESULT: -8.241421775      1.319      1.873
REMARK  9 active torsions:
REMARK  status: ('A' for Active; 'I' for Inactive)
REMARK    1  A    between atoms: C2_2  and  C4_4 
REMARK    2  A    between atoms: C4_4  and  N1_5 
REMARK    3  A    between atoms: C4_4  and  C20_32 
REMARK    4  A    between atoms: N1_5  and  C5_7 
REMARK    5  A    between atoms: C5_7  and  C6_12 
REMARK    6  A    between atoms: N2_8  and  O1_10 
REMARK    7  A    between atoms: C6_12  and  N3_13 
REMARK    8  A    between atoms: C6_12  and  C16_28 
REMARK       I    between atoms: N3_13  and  C7_15 
REMARK    9  A    between atoms: C7_15  and  C8_17 
REMARK       I    between atoms: C20_32  and  N5_34 
ROOT
HETATM    1  C5  UNL     1      54.563  27.385   9.648  1.00  0.00     0.149 C 
HETATM    2  N2  UNL     1      53.554  28.136   9.446  1.00  0.00    -0.251 N 
ATOM      3  H2  UNL     1      53.743  29.027   8.988  1.00  0.00     0.196 HD
ENDROOT
BRANCH   1   4
HETATM    4  N1  UNL     1      54.405  26.156  10.277  1.00  0.00    -0.338 N 
ATOM      5  H1  UNL     1      54.476  25.331   9.681  1.00  0.00     0.167 HD
BRANCH   4   6
HETATM    6  C4  UNL     1      54.160  25.919  11.641  1.00  0.00     0.083 C 
BRANCH   6   7
HETATM    7  C2  UNL     1      54.698  26.666  12.757  1.00  0.00     0.033 C 
HETATM    8  C1  UNL     1      56.251  26.592  12.712  1.00  0.00     0.016 C 
HETATM    9  C3  UNL     1      54.279  28.068  13.032  1.00  0.00     0.016 C 
ENDBRANCH   6   7
BRANCH   6  10
HETATM   10  C20 UNL     1      54.002  24.400  11.868  1.00  0.00     0.268 C 
HETATM   11  O3  UNL     1      54.966  23.853  12.407  1.00  0.00    -0.266 OA
HETATM   12  N5  UNL     1      52.836  23.745  11.482  1.00  0.00    -0.325 N 
HETATM   13  C21 UNL     1      52.485  22.432  11.484  1.00  0.00     0.027 C 
ATOM     14  H5  UNL     1      52.108  24.368  11.133  1.00  0.00     0.169 HD
HETATM   15  C22 UNL     1      53.165  21.377  12.345  1.00  0.00     0.084 C 
HETATM   16  C29 UNL     1      51.046  22.122  11.555  1.00  0.00     0.020 A 
HETATM   17  C23 UNL     1      53.024  20.067  11.534  1.00  0.00     0.181 C 
HETATM   18  O4  UNL     1      51.854  20.089  10.711  1.00  0.00    -0.350 OA
HETATM   19  C24 UNL     1      50.742  20.818  11.095  1.00  0.00     0.083 A 
HETATM   20  C25 UNL     1      49.464  20.363  11.058  1.00  0.00     0.079 A 
HETATM   21  C26 UNL     1      48.458  21.209  11.491  1.00  0.00     0.119 A 
HETATM   22  F1  UNL     1      47.153  20.779  11.473  1.00  0.00    -0.206 F 
HETATM   23  C27 UNL     1      48.763  22.502  11.951  1.00  0.00     0.043 A 
HETATM   24  C28 UNL     1      50.061  22.945  11.975  1.00  0.00     0.019 A 
ENDBRANCH   6  10
ENDBRANCH   4   6
ENDBRANCH   1   4
BRANCH   1  25
HETATM   25  C6  UNL     1      55.808  27.923   9.005  1.00  0.00     0.065 C 
BRANCH  25  26
HETATM   26  N3  UNL     1      56.579  28.594   9.969  1.00  0.00    -0.325 N 
HETATM   27  C7  UNL     1      57.058  29.927  10.085  1.00  0.00     0.253 C 
HETATM   28  O2  UNL     1      56.744  30.782   9.230  1.00  0.00    -0.271 OA
ATOM     29  H3  UNL     1      56.853  27.999  10.751  1.00  0.00     0.169 HD
BRANCH  27  30
HETATM   30  C8  UNL     1      57.912  30.341  11.203  1.00  0.00     0.277 C 
HETATM   31  C9  UNL     1      58.475  31.747  11.095  1.00  0.00     0.043 C 
HETATM   32  C10 UNL     1      58.181  32.517  12.385  1.00  0.00     0.007 C 
HETATM   33  C11 UNL     1      58.500  31.853  13.649  1.00  0.00    -0.012 C 
HETATM   34  C12 UNL     1      57.210  31.626  14.480  1.00  0.00     0.007 C 
HETATM   35  C15 UNL     1      59.126  30.477  13.567  1.00  0.00     0.037 C 
HETATM   36  C13 UNL     1      57.173  30.093  14.732  1.00  0.00     0.033 C 
HETATM   37  C14 UNL     1      57.816  29.653  13.437  1.00  0.00     0.187 C 
HETATM   38  N4  UNL     1      57.021  30.377  12.391  1.00  0.00    -0.058 N 
ATOM     39  H42 UNL     1      56.714  31.311  12.663  1.00  0.00     0.278 HD
ATOM     40  H41 UNL     1      56.087  30.001  12.233  1.00  0.00     0.278 HD
ENDBRANCH  27  30
ENDBRANCH  25  26
BRANCH  25  41
HETATM   41  C16 UNL     1      56.511  27.191   8.001  1.00  0.00    -0.005 C 
HETATM   42  C17 UNL     1      55.737  26.350   7.044  1.00  0.00     0.021 C 
HETATM   43  C18 UNL     1      57.497  28.062   7.191  1.00  0.00     0.021 C 
HETATM   44  C19 UNL     1      57.466  26.178   8.692  1.00  0.00     0.021 C 
ENDBRANCH  25  41
ENDBRANCH   1  25
BRANCH   2  45
HETATM   45  O1  UNL     1      52.286  27.898   9.761  1.00  0.00    -0.288 OA
ATOM     46  H1  UNL     1      51.523  28.417   9.536  1.00  0.00     0.244 HD
ENDBRANCH   2  45
TORSDOF 9
ENDMDL
MODEL 3
REMARK VINA RESULT: -8.223050758      2.890      5.727
REMARK  9 active torsions:
REMARK  status: ('A' for Active; 'I' for Inactive)
REMARK    1  A    between atoms: C2_2  and  C4_4 
REMARK    2  A    between atoms: C4_4  and  N1_5 
REMARK    3  A    between atoms: C4_4  and  C20_32 
REMARK    4  A    between atoms: N1_5  and  C5_7 
REMARK    5  A    between atoms: C5_7  and  C6_12 
REMARK    6  A    between atoms: N2_8  and  O1_10 
REMARK    7  A    between atoms: C6_12  and  N3_13 
REMARK    8  A    between atoms: C6_12  and  C16_28 
REMARK       I    between atoms: N3_13  and  C7_15 
REMARK    9  A    between atoms: C7_15  and  C8_17 
REMARK       I    between atoms: C20_32  and  N5_34 
ROOT
HETATM    1  C5  UNL     1      54.420  27.841  13.626  1.00  0.00     0.149 C 
HETATM    2  N2  UNL     1      54.476  29.109  13.516  1.00  0.00    -0.251 N 
ATOM      3  H2  UNL     1      54.977  29.601  14.256  1.00  0.00     0.196 HD
ENDROOT
BRANCH   1   4
HETATM    4  N1  UNL     1      53.748  27.086  12.672  1.00  0.00    -0.338 N 
ATOM      5  H1  UNL     1      52.729  27.098  12.723  1.00  0.00     0.167 HD
BRANCH   4   6
HETATM    6  C4  UNL     1      54.311  26.308  11.645  1.00  0.00     0.083 C 
BRANCH   6   7
HETATM    7  C2  UNL     1      54.270  26.591  10.227  1.00  0.00     0.033 C 
HETATM    8  C1  UNL     1      53.305  27.784   9.978  1.00  0.00     0.016 C 
HETATM    9  C3  UNL     1      55.516  26.791   9.437  1.00  0.00     0.016 C 
ENDBRANCH   6   7
BRANCH   6  10
HETATM   10  C20 UNL     1      54.210  24.816  12.032  1.00  0.00     0.268 C 
HETATM   11  O3  UNL     1      55.122  24.404  12.752  1.00  0.00    -0.266 OA
HETATM   12  N5  UNL     1      53.147  24.040  11.582  1.00  0.00    -0.325 N 
HETATM   13  C21 UNL     1      52.874  22.712  11.696  1.00  0.00     0.027 C 
ATOM     14  H5  UNL     1      52.439  24.565  11.069  1.00  0.00     0.169 HD
HETATM   15  C22 UNL     1      53.490  21.813  12.758  1.00  0.00     0.084 C 
HETATM   16  C29 UNL     1      51.460  22.309  11.620  1.00  0.00     0.020 A 
HETATM   17  C23 UNL     1      53.536  20.413  12.100  1.00  0.00     0.181 C 
HETATM   18  O4  UNL     1      52.488  20.258  11.138  1.00  0.00    -0.350 OA
HETATM   19  C24 UNL     1      51.295  20.943  11.284  1.00  0.00     0.083 A 
HETATM   20  C25 UNL     1      50.062  20.395  11.139  1.00  0.00     0.079 A 
HETATM   21  C26 UNL     1      48.960  21.210  11.334  1.00  0.00     0.119 A 
HETATM   22  F1  UNL     1      47.697  20.687  11.202  1.00  0.00    -0.206 F 
HETATM   23  C27 UNL     1      49.126  22.564  11.670  1.00  0.00     0.043 A 
HETATM   24  C28 UNL     1      50.381  23.100  11.808  1.00  0.00     0.019 A 
ENDBRANCH   6  10
ENDBRANCH   4   6
ENDBRANCH   1   4
BRANCH   1  25
HETATM   25  C6  UNL     1      55.261  27.331  14.759  1.00  0.00     0.065 C 
BRANCH  25  26
HETATM   26  N3  UNL     1      54.559  26.327  15.448  1.00  0.00    -0.325 N 
HETATM   27  C7  UNL     1      54.168  26.162  16.804  1.00  0.00     0.253 C 
HETATM   28  O2  UNL     1      54.401  27.062  17.638  1.00  0.00    -0.271 OA
ATOM     29  H3  UNL     1      54.269  25.555  14.849  1.00  0.00     0.169 HD
BRANCH  27  30
HETATM   30  C8  UNL     1      53.474  24.953  17.259  1.00  0.00     0.277 C 
HETATM   31  C9  UNL     1      52.310  24.514  16.388  1.00  0.00     0.043 C 
HETATM   32  C10 UNL     1      52.471  23.036  16.025  1.00  0.00     0.007 C 
HETATM   33  C11 UNL     1      52.770  22.107  17.115  1.00  0.00    -0.012 C 
HETATM   34  C12 UNL     1      54.158  21.448  16.897  1.00  0.00     0.007 C 
HETATM   35  C15 UNL     1      52.860  22.686  18.510  1.00  0.00     0.037 C 
HETATM   36  C13 UNL     1      54.959  21.791  18.183  1.00  0.00     0.033 C 
HETATM   37  C14 UNL     1      54.343  23.143  18.460  1.00  0.00     0.187 C 
HETATM   38  N4  UNL     1      54.469  23.856  17.147  1.00  0.00    -0.058 N 
ATOM     39  H42 UNL     1      54.353  23.261  16.327  1.00  0.00     0.278 HD
ATOM     40  H41 UNL     1      55.415  24.163  16.920  1.00  0.00     0.278 HD
ENDBRANCH  27  30
ENDBRANCH  25  26
BRANCH  25  41
HETATM   41  C16 UNL     1      56.674  27.169  14.632  1.00  0.00    -0.005 C 
HETATM   42  C17 UNL     1      57.299  25.893  15.082  1.00  0.00     0.021 C 
HETATM   43  C18 UNL     1      57.198  27.490  13.214  1.00  0.00     0.021 C 
HETATM   44  C19 UNL     1      57.385  28.251  15.492  1.00  0.00     0.021 C 
ENDBRANCH  25  41
ENDBRANCH   1  25
BRANCH   2  45
HETATM   45  O1  UNL     1      53.962  29.867  12.555  1.00  0.00    -0.288 OA
ATOM     46  H1  UNL     1      53.086  30.231  12.506  1.00  0.00     0.244 HD
ENDBRANCH   2  45
TORSDOF 9
ENDMDL
MODEL 4
REMARK VINA RESULT: -8.182602568      3.302      6.102
REMARK  9 active torsions:
REMARK  status: ('A' for Active; 'I' for Inactive)
REMARK    1  A    between atoms: C2_2  and  C4_4 
REMARK    2  A    between atoms: C4_4  and  N1_5 
REMARK    3  A    between atoms: C4_4  and  C20_32 
REMARK    4  A    between atoms: N1_5  and  C5_7 
REMARK    5  A    between atoms: C5_7  and  C6_12 
REMARK    6  A    between atoms: N2_8  and  O1_10 
REMARK    7  A    between atoms: C6_12  and  N3_13 
REMARK    8  A    between atoms: C6_12  and  C16_28 
REMARK       I    between atoms: N3_13  and  C7_15 
REMARK    9  A    between atoms: C7_15  and  C8_17 
REMARK       I    between atoms: C20_32  and  N5_34 
ROOT
HETATM    1  C5  UNL     1      51.858  24.050  11.594  1.00  0.00     0.149 C 
HETATM    2  N2  UNL     1      51.377  24.573  10.536  1.00  0.00    -0.251 N 
ATOM      3  H2  UNL     1      51.912  25.343  10.135  1.00  0.00     0.196 HD
ENDROOT
BRANCH   1   4
HETATM    4  N1  UNL     1      51.193  23.003  12.220  1.00  0.00    -0.338 N 
ATOM      5  H1  UNL     1      50.902  23.165  13.184  1.00  0.00     0.167 HD
BRANCH   4   6
HETATM    6  C4  UNL     1      50.873  21.746  11.676  1.00  0.00     0.083 C 
BRANCH   6   7
HETATM    7  C2  UNL     1      49.631  21.023  11.846  1.00  0.00     0.033 C 
HETATM    8  C1  UNL     1      48.452  22.036  11.833  1.00  0.00     0.016 C 
HETATM    9  C3  UNL     1      49.287  19.855  10.991  1.00  0.00     0.016 C 
ENDBRANCH   6   7
BRANCH   6  10
HETATM   10  C20 UNL     1      52.150  20.879  11.629  1.00  0.00     0.268 C 
HETATM   11  O3  UNL     1      52.653  20.757  10.510  1.00  0.00    -0.266 OA
HETATM   12  N5  UNL     1      52.659  20.306  12.791  1.00  0.00    -0.325 N 
HETATM   13  C21 UNL     1      53.689  19.446  13.008  1.00  0.00     0.027 C 
ATOM     14  H5  UNL     1      52.166  20.584  13.639  1.00  0.00     0.169 HD
HETATM   15  C22 UNL     1      54.837  19.240  12.030  1.00  0.00     0.084 C 
HETATM   16  C29 UNL     1      54.316  19.473  14.341  1.00  0.00     0.020 A 
HETATM   17  C23 UNL     1      55.284  17.777  12.262  1.00  0.00     0.181 C 
HETATM   18  O4  UNL     1      55.024  17.362  13.607  1.00  0.00    -0.350 OA
HETATM   19  C24 UNL     1      55.027  18.285  14.638  1.00  0.00     0.083 A 
HETATM   20  C25 UNL     1      55.648  18.113  15.832  1.00  0.00     0.079 A 
HETATM   21  C26 UNL     1      55.573  19.138  16.759  1.00  0.00     0.119 A 
HETATM   22  F1  UNL     1      56.194  19.001  17.976  1.00  0.00    -0.206 F 
HETATM   23  C27 UNL     1      54.869  20.318  16.461  1.00  0.00     0.043 A 
HETATM   24  C28 UNL     1      54.244  20.470  15.250  1.00  0.00     0.019 A 
ENDBRANCH   6  10
ENDBRANCH   4   6
ENDBRANCH   1   4
BRANCH   1  25
HETATM   25  C6  UNL     1      53.218  24.589  11.926  1.00  0.00     0.065 C 
BRANCH  25  26
HETATM   26  N3  UNL     1      53.583  25.557  10.975  1.00  0.00    -0.325 N 
HETATM   27  C7  UNL     1      54.812  25.898  10.348  1.00  0.00     0.253 C 
HETATM   28  O2  UNL     1      55.841  25.229  10.580  1.00  0.00    -0.271 OA
ATOM     29  H3  UNL     1      52.801  26.136  10.669  1.00  0.00     0.169 HD
BRANCH  27  30
HETATM   30  C8  UNL     1      54.908  27.021   9.410  1.00  0.00     0.277 C 
HETATM   31  C9  UNL     1      55.170  28.373  10.052  1.00  0.00     0.043 C 
HETATM   32  C10 UNL     1      56.363  29.043   9.366  1.00  0.00     0.007 C 
HETATM   33  C11 UNL     1      56.361  29.079   7.903  1.00  0.00    -0.012 C 
HETATM   34  C12 UNL     1      57.562  28.271   7.342  1.00  0.00     0.007 C 
HETATM   35  C15 UNL     1      55.162  28.481   7.200  1.00  0.00     0.037 C 
HETATM   36  C13 UNL     1      56.916  27.208   6.412  1.00  0.00     0.033 C 
HETATM   37  C14 UNL     1      55.635  27.001   7.187  1.00  0.00     0.187 C 
HETATM   38  N4  UNL     1      56.113  26.750   8.586  1.00  0.00    -0.058 N 
ATOM     39  H42 UNL     1      56.939  27.285   8.854  1.00  0.00     0.278 HD
ATOM     40  H41 UNL     1      56.530  25.831   8.733  1.00  0.00     0.278 HD
ENDBRANCH  27  30
ENDBRANCH  25  26
BRANCH  25  41
HETATM   41  C16 UNL     1      53.627  24.814  13.276  1.00  0.00    -0.005 C 
HETATM   42  C17 UNL     1      54.243  26.123  13.636  1.00  0.00     0.021 C 
HETATM   43  C18 UNL     1      52.521  24.500  14.307  1.00  0.00     0.021 C 
HETATM   44  C19 UNL     1      54.722  23.776  13.649  1.00  0.00     0.021 C 
ENDBRANCH  25  41
ENDBRANCH   1  25
BRANCH   2  45
HETATM   45  O1  UNL     1      50.264  24.238   9.894  1.00  0.00    -0.288 OA
ATOM     46  H1  UNL     1      49.371  24.478  10.111  1.00  0.00     0.244 HD
ENDBRANCH   2  45
TORSDOF 9
ENDMDL
MODEL 5
REMARK VINA RESULT: -8.173599935      2.795      5.592
REMARK  9 active torsions:
REMARK  status: ('A' for Active; 'I' for Inactive)
REMARK    1  A    between atoms: C2_2  and  C4_4 
REMARK    2  A    between atoms: C4_4  and  N1_5 
REMARK    3  A    between atoms: C4_4  and  C20_32 
REMARK    4  A    between atoms: N1_5  and  C5_7 
REMARK    5  A    between atoms: C5_7  and  C6_12 
REMARK    6  A    between atoms: N2_8  and  O1_10 
REMARK    7  A    between atoms: C6_12  and  N3_13 
REMARK    8  A    between atoms: C6_12  and  C16_28 
REMARK       I    between atoms: N3_13  and  C7_15 
REMARK    9  A    between atoms: C7_15  and  C8_17 
REMARK       I    between atoms: C20_32  and  N5_34 
ROOT
HETATM    1  C5  UNL     1      53.949  26.598  12.858  1.00  0.00     0.149 C 
HETATM    2  N2  UNL     1      53.313  27.601  12.398  1.00  0.00    -0.251 N 
ATOM      3  H2  UNL     1      53.126  28.354  13.060  1.00  0.00     0.196 HD
ENDROOT
BRANCH   1   4
HETATM    4  N1  UNL     1      54.239  25.518  12.034  1.00  0.00    -0.338 N 
ATOM      5  H1  UNL     1      53.575  25.331  11.283  1.00  0.00     0.167 HD
BRANCH   4   6
HETATM    6  C4  UNL     1      55.344  24.652  12.115  1.00  0.00     0.083 C 
BRANCH   6   7
HETATM    7  C2  UNL     1      56.579  24.756  11.368  1.00  0.00     0.033 C 
HETATM    8  C1  UNL     1      56.417  25.850  10.276  1.00  0.00     0.016 C 
HETATM    9  C3  UNL     1      57.890  24.929  12.050  1.00  0.00     0.016 C 
ENDBRANCH   6   7
BRANCH   6  10
HETATM   10  C20 UNL     1      54.841  23.216  12.377  1.00  0.00     0.268 C 
HETATM   11  O3  UNL     1      55.614  22.504  13.022  1.00  0.00    -0.266 OA
HETATM   12  N5  UNL     1      53.597  22.806  11.907  1.00  0.00    -0.325 N 
HETATM   13  C21 UNL     1      52.969  21.600  11.919  1.00  0.00     0.027 C 
ATOM     14  H5  UNL     1      53.054  23.551  11.470  1.00  0.00     0.169 HD
HETATM   15  C22 UNL     1      53.328  20.472  12.875  1.00  0.00     0.084 C 
HETATM   16  C29 UNL     1      51.497  21.609  11.866  1.00  0.00     0.020 A 
HETATM   17  C23 UNL     1      52.974  19.180  12.098  1.00  0.00     0.181 C 
HETATM   18  O4  UNL     1      51.910  19.409  11.170  1.00  0.00    -0.350 OA
HETATM   19  C24 UNL     1      50.956  20.378  11.423  1.00  0.00     0.083 A 
HETATM   20  C25 UNL     1      49.617  20.206  11.281  1.00  0.00     0.079 A 
HETATM   21  C26 UNL     1      48.787  21.269  11.590  1.00  0.00     0.119 A 
HETATM   22  F1  UNL     1      47.426  21.128  11.465  1.00  0.00    -0.206 F 
HETATM   23  C27 UNL     1      49.326  22.489  12.033  1.00  0.00     0.043 A 
HETATM   24  C28 UNL     1      50.683  22.645  12.164  1.00  0.00     0.019 A 
ENDBRANCH   6  10
ENDBRANCH   4   6
ENDBRANCH   1   4
BRANCH   1  25
HETATM   25  C6  UNL     1      54.433  26.826  14.260  1.00  0.00     0.065 C 
BRANCH  25  26
HETATM   26  N3  UNL     1      53.992  25.775  15.083  1.00  0.00    -0.325 N 
HETATM   27  C7  UNL     1      52.883  24.888  15.029  1.00  0.00     0.253 C 
HETATM   28  O2  UNL     1      52.096  24.928  14.060  1.00  0.00    -0.271 OA
ATOM     29  H3  UNL     1      54.596  25.616  15.890  1.00  0.00     0.169 HD
BRANCH  27  30
HETATM   30  C8  UNL     1      52.638  23.902  16.086  1.00  0.00     0.277 C 
HETATM   31  C9  UNL     1      52.324  22.499  15.594  1.00  0.00     0.043 C 
HETATM   32  C10 UNL     1      53.239  21.493  16.296  1.00  0.00     0.007 C 
HETATM   33  C11 UNL     1      53.353  21.593  17.752  1.00  0.00    -0.012 C 
HETATM   34  C12 UNL     1      54.811  21.935  18.157  1.00  0.00     0.007 C 
HETATM   35  C15 UNL     1      52.527  22.661  18.436  1.00  0.00     0.037 C 
HETATM   36  C13 UNL     1      54.690  23.243  18.987  1.00  0.00     0.033 C 
HETATM   37  C14 UNL     1      53.513  23.847  18.254  1.00  0.00     0.187 C 
HETATM   38  N4  UNL     1      53.925  23.771  16.814  1.00  0.00    -0.058 N 
ATOM     39  H42 UNL     1      54.468  22.942  16.571  1.00  0.00     0.278 HD
ATOM     40  H41 UNL     1      54.639  24.447  16.541  1.00  0.00     0.278 HD
ENDBRANCH  27  30
ENDBRANCH  25  26
BRANCH  25  41
HETATM   41  C16 UNL     1      55.726  27.368  14.529  1.00  0.00    -0.005 C 
HETATM   42  C17 UNL     1      56.767  26.488  15.133  1.00  0.00     0.021 C 
HETATM   43  C18 UNL     1      56.348  28.090  13.314  1.00  0.00     0.021 C 
HETATM   44  C19 UNL     1      55.582  28.526  15.555  1.00  0.00     0.021 C 
ENDBRANCH  25  41
ENDBRANCH   1  25
BRANCH   2  45
HETATM   45  O1  UNL     1      52.864  27.785  11.162  1.00  0.00    -0.288 OA
ATOM     46  H1  UNL     1      53.000  28.538  10.599  1.00  0.00     0.244 HD
ENDBRANCH   2  45
TORSDOF 9
ENDMDL
