MODEL 1
REMARK VINA RESULT: -9.509740260      0.000      0.000
REMARK  11 active torsions:
REMARK  status: ('A' for Active; 'I' for Inactive)
REMARK    1  A    between atoms: C7_8  and  C8_9 
REMARK    2  A    between atoms: C8_9  and  O1_10 
REMARK    3  A    between atoms: C8_9  and  N1_12 
REMARK    4  A    between atoms: N1_12  and  C9_14 
REMARK    5  A    between atoms: C13_18  and  C14_19 
REMARK    6  A    between atoms: C14_19  and  N2_20 
REMARK       I    between atoms: N2_20  and  C15_22 
REMARK       I    between atoms: C15_22  and  N3_24 
REMARK    7  A    between atoms: N3_24  and  C16_26 
REMARK    8  A    between atoms: C21_31  and  C22_32 
REMARK    9  A    between atoms: C22_32  and  C23_33 
REMARK   10  A    between atoms: C23_33  and  O3_36 
REMARK   11  A    between atoms: C28_40  and  O4_41 
ROOT
HETATM    1  N2  UNL     1      54.910  27.593  12.711  1.00  0.00    -0.341 N 
ATOM      2  H2  UNL     1      55.327  27.163  13.537  1.00  0.00     0.164 HD
HETATM    3  C15 UNL     1      55.403  28.855  12.286  1.00  0.00     0.316 C 
HETATM    4  O2  UNL     1      54.909  29.364  11.256  1.00  0.00    -0.247 OA
HETATM    5  N3  UNL     1      56.416  29.545  12.971  1.00  0.00    -0.335 N 
ATOM      6  H3  UNL     1      56.775  29.110  13.821  1.00  0.00     0.164 HD
ENDROOT
BRANCH   1   7
HETATM    7  C14 UNL     1      53.842  26.886  12.029  1.00  0.00     0.156 C 
BRANCH   7   8
HETATM    8  C13 UNL     1      54.218  25.443  11.785  1.00  0.00     0.139 C 
HETATM    9  C12 UNL     1      54.471  24.633  13.000  1.00  0.00     0.034 C 
HETATM   10  C11 UNL     1      53.509  24.793  14.112  1.00  0.00     0.005 C 
HETATM   11  C10 UNL     1      52.095  24.418  13.840  1.00  0.00     0.027 C 
HETATM   12  C9  UNL     1      51.825  23.806  12.506  1.00  0.00     0.107 C 
HETATM   13  C30 UNL     1      52.040  24.782  11.372  1.00  0.00     0.193 C 
HETATM   14  O5  UNL     1      53.334  24.831  10.898  1.00  0.00    -0.382 OA
BRANCH  12  15
HETATM   15  N1  UNL     1      50.362  23.541  12.478  1.00  0.00    -0.364 N 
ATOM     16  H1  UNL     1      49.772  23.906  13.226  1.00  0.00     0.162 HD
BRANCH  15  17
HETATM   17  C8  UNL     1      49.782  22.802  11.445  1.00  0.00     0.147 C 
BRANCH  17  18
HETATM   18  C7  UNL     1      49.391  21.408  11.430  1.00  0.00     0.023 A 
HETATM   19  C2  UNL     1      50.205  20.352  11.142  1.00  0.00    -0.047 A 
HETATM   20  C1  UNL     1      51.673  20.557  10.939  1.00  0.00     0.049 C 
HETATM   21  C3  UNL     1      49.701  19.037  11.084  1.00  0.00     0.011 A 
HETATM   22  C4  UNL     1      48.381  18.750  11.315  1.00  0.00     0.043 A 
HETATM   23  C5  UNL     1      47.559  19.814  11.608  1.00  0.00     0.117 A 
HETATM   24  F1  UNL     1      46.237  19.523  11.840  1.00  0.00    -0.206 F 
HETATM   25  C6  UNL     1      48.029  21.095  11.666  1.00  0.00     0.058 A 
ENDBRANCH  17  18
BRANCH  17  26
HETATM   26  O1  UNL     1      49.580  23.485  10.353  1.00  0.00    -0.346 OA
ATOM     27  H1  UNL     1      48.764  23.970  10.291  1.00  0.00     0.219 HD
ENDBRANCH  17  26
ENDBRANCH  15  17
ENDBRANCH  12  15
ENDBRANCH   7   8
ENDBRANCH   1   7
BRANCH   5  28
HETATM   28  C16 UNL     1      56.990  30.790  12.599  1.00  0.00     0.124 C 
HETATM   29  C17 UNL     1      58.243  30.724  11.810  1.00  0.00     0.012 C 
HETATM   30  C18 UNL     1      59.474  30.421  12.635  1.00  0.00     0.011 C 
HETATM   31  C26 UNL     1      58.481  32.101  11.215  1.00  0.00     0.016 C 
HETATM   32  C19 UNL     1      59.588  31.381  13.786  1.00  0.00    -0.010 C 
HETATM   33  C20 UNL     1      59.749  32.761  13.243  1.00  0.00     0.014 C 
HETATM   34  C29 UNL     1      58.342  31.390  14.646  1.00  0.00     0.044 C 
HETATM   35  C21 UNL     1      58.575  33.150  12.310  1.00  0.00    -0.034 C 
HETATM   36  C27 UNL     1      57.374  33.142  13.191  1.00  0.00     0.049 C 
HETATM   37  C28 UNL     1      57.195  31.730  13.771  1.00  0.00     0.080 C 
BRANCH  35  38
HETATM   38  C22 UNL     1      58.986  34.432  11.717  1.00  0.00     0.046 C 
BRANCH  38  39
HETATM   39  C23 UNL     1      58.566  35.705  12.318  1.00  0.00     0.051 C 
HETATM   40  C24 UNL     1      58.840  35.877  13.791  1.00  0.00     0.045 C 
HETATM   41  C25 UNL     1      59.414  36.796  11.627  1.00  0.00     0.045 C 
BRANCH  39  42
HETATM   42  O3  UNL     1      57.253  36.074  11.995  1.00  0.00    -0.391 OA
ATOM     43  H3  UNL     1      57.187  36.603  11.209  1.00  0.00     0.210 HD
ENDBRANCH  39  42
ENDBRANCH  38  39
ENDBRANCH  35  38
BRANCH  37  44
HETATM   44  O4  UNL     1      55.989  31.771  14.499  1.00  0.00    -0.388 OA
ATOM     45  H4  UNL     1      55.839  30.903  14.853  1.00  0.00     0.210 HD
ENDBRANCH  37  44
ENDBRANCH   5  28
TORSDOF 11
ENDMDL
MODEL 2
REMARK VINA RESULT: -9.376216840      1.309      1.475
REMARK  11 active torsions:
REMARK  status: ('A' for Active; 'I' for Inactive)
REMARK    1  A    between atoms: C7_8  and  C8_9 
REMARK    2  A    between atoms: C8_9  and  O1_10 
REMARK    3  A    between atoms: C8_9  and  N1_12 
REMARK    4  A    between atoms: N1_12  and  C9_14 
REMARK    5  A    between atoms: C13_18  and  C14_19 
REMARK    6  A    between atoms: C14_19  and  N2_20 
REMARK       I    between atoms: N2_20  and  C15_22 
REMARK       I    between atoms: C15_22  and  N3_24 
REMARK    7  A    between atoms: N3_24  and  C16_26 
REMARK    8  A    between atoms: C21_31  and  C22_32 
REMARK    9  A    between atoms: C22_32  and  C23_33 
REMARK   10  A    between atoms: C23_33  and  O3_36 
REMARK   11  A    between atoms: C28_40  and  O4_41 
ROOT
HETATM    1  N2  UNL     1      55.708  25.960  13.589  1.00  0.00    -0.341 N 
ATOM      2  H2  UNL     1      56.552  25.451  13.853  1.00  0.00     0.164 HD
HETATM    3  C15 UNL     1      55.822  27.338  13.271  1.00  0.00     0.316 C 
HETATM    4  O2  UNL     1      54.789  27.950  12.920  1.00  0.00    -0.247 OA
HETATM    5  N3  UNL     1      57.040  28.035  13.334  1.00  0.00    -0.335 N 
ATOM      6  H3  UNL     1      57.854  27.508  13.650  1.00  0.00     0.164 HD
ENDROOT
BRANCH   1   7
HETATM    7  C14 UNL     1      54.449  25.238  13.558  1.00  0.00     0.156 C 
BRANCH   7   8
HETATM    8  C13 UNL     1      54.418  24.252  12.414  1.00  0.00     0.139 C 
HETATM    9  C12 UNL     1      54.454  22.823  12.800  1.00  0.00     0.034 C 
HETATM   10  C11 UNL     1      53.582  22.419  13.925  1.00  0.00     0.005 C 
HETATM   11  C10 UNL     1      52.117  22.601  13.740  1.00  0.00     0.027 C 
HETATM   12  C9  UNL     1      51.678  23.060  12.390  1.00  0.00     0.107 C 
HETATM   13  C30 UNL     1      52.139  24.467  12.083  1.00  0.00     0.193 C 
HETATM   14  O5  UNL     1      53.393  24.548  11.517  1.00  0.00    -0.382 OA
BRANCH  12  15
HETATM   15  N1  UNL     1      50.198  23.176  12.469  1.00  0.00    -0.364 N 
ATOM     16  H1  UNL     1      49.777  23.693  13.242  1.00  0.00     0.162 HD
BRANCH  15  17
HETATM   17  C8  UNL     1      49.375  22.591  11.505  1.00  0.00     0.147 C 
BRANCH  17  18
HETATM   18  C7  UNL     1      48.629  21.353  11.573  1.00  0.00     0.023 A 
HETATM   19  C2  UNL     1      49.109  20.112  11.271  1.00  0.00    -0.047 A 
HETATM   20  C1  UNL     1      50.558  19.913  10.958  1.00  0.00     0.049 C 
HETATM   21  C3  UNL     1      48.271  18.979  11.302  1.00  0.00     0.011 A 
HETATM   22  C4  UNL     1      46.944  19.061  11.636  1.00  0.00     0.043 A 
HETATM   23  C5  UNL     1      46.459  20.311  11.943  1.00  0.00     0.117 A 
HETATM   24  F1  UNL     1      45.131  20.388  12.279  1.00  0.00    -0.206 F 
HETATM   25  C6  UNL     1      47.255  21.420  11.917  1.00  0.00     0.058 A 
ENDBRANCH  17  18
BRANCH  17  26
HETATM   26  O1  UNL     1      49.289  23.275  10.397  1.00  0.00    -0.346 OA
ATOM     27  H1  UNL     1      50.092  23.653  10.059  1.00  0.00     0.219 HD
ENDBRANCH  17  26
ENDBRANCH  15  17
ENDBRANCH  12  15
ENDBRANCH   7   8
ENDBRANCH   1   7
BRANCH   5  28
HETATM   28  C16 UNL     1      57.250  29.399  13.003  1.00  0.00     0.124 C 
HETATM   29  C17 UNL     1      58.514  29.714  12.293  1.00  0.00     0.012 C 
HETATM   30  C18 UNL     1      59.729  29.761  13.191  1.00  0.00     0.011 C 
HETATM   31  C26 UNL     1      58.378  31.113  11.718  1.00  0.00     0.016 C 
HETATM   32  C19 UNL     1      59.494  30.689  14.351  1.00  0.00    -0.010 C 
HETATM   33  C20 UNL     1      59.280  32.067  13.823  1.00  0.00     0.014 C 
HETATM   34  C29 UNL     1      58.250  30.320  15.132  1.00  0.00     0.044 C 
HETATM   35  C21 UNL     1      58.100  32.121  12.820  1.00  0.00    -0.034 C 
HETATM   36  C27 UNL     1      56.904  31.749  13.625  1.00  0.00     0.049 C 
HETATM   37  C28 UNL     1      57.107  30.334  14.188  1.00  0.00     0.080 C 
BRANCH  35  38
HETATM   38  C22 UNL     1      58.158  33.479  12.259  1.00  0.00     0.046 C 
BRANCH  38  39
HETATM   39  C23 UNL     1      57.681  34.633  13.034  1.00  0.00     0.051 C 
HETATM   40  C24 UNL     1      58.715  35.368  13.850  1.00  0.00     0.045 C 
HETATM   41  C25 UNL     1      57.189  35.665  11.995  1.00  0.00     0.045 C 
BRANCH  39  42
HETATM   42  O3  UNL     1      56.529  34.368  13.787  1.00  0.00    -0.391 OA
ATOM     43  H3  UNL     1      56.440  34.918  14.556  1.00  0.00     0.210 HD
ENDBRANCH  39  42
ENDBRANCH  38  39
ENDBRANCH  35  38
BRANCH  37  44
HETATM   44  O4  UNL     1      55.900  30.011  14.840  1.00  0.00    -0.388 OA
ATOM     45  H4  UNL     1      56.111  29.427  15.559  1.00  0.00     0.210 HD
ENDBRANCH  37  44
ENDBRANCH   5  28
TORSDOF 11
ENDMDL
MODEL 3
REMARK VINA RESULT: -9.284204539      1.097      1.523
REMARK  11 active torsions:
REMARK  status: ('A' for Active; 'I' for Inactive)
REMARK    1  A    between atoms: C7_8  and  C8_9 
REMARK    2  A    between atoms: C8_9  and  O1_10 
REMARK    3  A    between atoms: C8_9  and  N1_12 
REMARK    4  A    between atoms: N1_12  and  C9_14 
REMARK    5  A    between atoms: C13_18  and  C14_19 
REMARK    6  A    between atoms: C14_19  and  N2_20 
REMARK       I    between atoms: N2_20  and  C15_22 
REMARK       I    between atoms: C15_22  and  N3_24 
REMARK    7  A    between atoms: N3_24  and  C16_26 
REMARK    8  A    between atoms: C21_31  and  C22_32 
REMARK    9  A    between atoms: C22_32  and  C23_33 
REMARK   10  A    between atoms: C23_33  and  O3_36 
REMARK   11  A    between atoms: C28_40  and  O4_41 
ROOT
HETATM    1  N2  UNL     1      54.613  27.603  12.857  1.00  0.00    -0.341 N 
ATOM      2  H2  UNL     1      55.098  27.100  13.601  1.00  0.00     0.164 HD
HETATM    3  C15 UNL     1      55.133  28.856  12.439  1.00  0.00     0.316 C 
HETATM    4  O2  UNL     1      54.551  29.453  11.506  1.00  0.00    -0.247 OA
HETATM    5  N3  UNL     1      56.265  29.443  13.027  1.00  0.00    -0.335 N 
ATOM      6  H3  UNL     1      56.695  28.938  13.801  1.00  0.00     0.164 HD
ENDROOT
BRANCH   1   7
HETATM    7  C14 UNL     1      53.426  27.001  12.278  1.00  0.00     0.156 C 
BRANCH   7   8
HETATM    8  C13 UNL     1      53.776  26.168  11.068  1.00  0.00     0.139 C 
HETATM    9  C12 UNL     1      54.952  25.279  11.221  1.00  0.00     0.034 C 
HETATM   10  C11 UNL     1      55.043  24.517  12.486  1.00  0.00     0.005 C 
HETATM   11  C10 UNL     1      53.949  23.551  12.771  1.00  0.00     0.027 C 
HETATM   12  C9  UNL     1      52.937  23.368  11.689  1.00  0.00     0.107 C 
HETATM   13  C30 UNL     1      52.110  24.613  11.461  1.00  0.00     0.193 C 
HETATM   14  O5  UNL     1      52.657  25.507  10.565  1.00  0.00    -0.382 OA
BRANCH  12  15
HETATM   15  N1  UNL     1      51.960  22.381  12.220  1.00  0.00    -0.364 N 
ATOM     16  H1  UNL     1      51.647  22.456  13.188  1.00  0.00     0.162 HD
BRANCH  15  17
HETATM   17  C8  UNL     1      51.464  21.352  11.415  1.00  0.00     0.147 C 
BRANCH  17  18
HETATM   18  C7  UNL     1      50.149  20.747  11.417  1.00  0.00     0.023 A 
HETATM   19  C2  UNL     1      48.965  21.408  11.565  1.00  0.00    -0.047 A 
HETATM   20  C1  UNL     1      48.928  22.903  11.606  1.00  0.00     0.049 C 
HETATM   21  C3  UNL     1      47.743  20.709  11.625  1.00  0.00     0.011 A 
HETATM   22  C4  UNL     1      47.678  19.342  11.536  1.00  0.00     0.043 A 
HETATM   23  C5  UNL     1      48.871  18.675  11.385  1.00  0.00     0.117 A 
HETATM   24  F1  UNL     1      48.802  17.307  11.294  1.00  0.00    -0.206 F 
HETATM   25  C6  UNL     1      50.065  19.335  11.327  1.00  0.00     0.058 A 
ENDBRANCH  17  18
BRANCH  17  26
HETATM   26  O1  UNL     1      52.329  20.888  10.556  1.00  0.00    -0.346 OA
ATOM     27  H1  UNL     1      53.104  20.466  10.908  1.00  0.00     0.219 HD
ENDBRANCH  17  26
ENDBRANCH  15  17
ENDBRANCH  12  15
ENDBRANCH   7   8
ENDBRANCH   1   7
BRANCH   5  28
HETATM   28  C16 UNL     1      56.870  30.672  12.651  1.00  0.00     0.124 C 
HETATM   29  C17 UNL     1      58.111  30.572  11.846  1.00  0.00     0.012 C 
HETATM   30  C18 UNL     1      59.342  30.231  12.653  1.00  0.00     0.011 C 
HETATM   31  C26 UNL     1      58.381  31.943  11.251  1.00  0.00     0.016 C 
HETATM   32  C19 UNL     1      59.500  31.184  13.806  1.00  0.00    -0.010 C 
HETATM   33  C20 UNL     1      59.693  32.560  13.264  1.00  0.00     0.014 C 
HETATM   34  C29 UNL     1      58.266  31.226  14.682  1.00  0.00     0.044 C 
HETATM   35  C21 UNL     1      58.519  32.986  12.347  1.00  0.00    -0.034 C 
HETATM   36  C27 UNL     1      57.331  33.010  13.244  1.00  0.00     0.049 C 
HETATM   37  C28 UNL     1      57.118  31.602  13.822  1.00  0.00     0.080 C 
BRANCH  35  38
HETATM   38  C22 UNL     1      58.960  34.256  11.753  1.00  0.00     0.046 C 
BRANCH  38  39
HETATM   39  C23 UNL     1      58.519  35.541  12.315  1.00  0.00     0.051 C 
HETATM   40  C24 UNL     1      58.758  35.747  13.790  1.00  0.00     0.045 C 
HETATM   41  C25 UNL     1      59.378  36.621  11.620  1.00  0.00     0.045 C 
BRANCH  39  42
HETATM   42  O3  UNL     1      57.212  35.895  11.954  1.00  0.00    -0.391 OA
ATOM     43  H3  UNL     1      57.168  36.623  11.346  1.00  0.00     0.210 HD
ENDBRANCH  39  42
ENDBRANCH  38  39
ENDBRANCH  35  38
BRANCH  37  44
HETATM   44  O4  UNL     1      55.923  31.676  14.566  1.00  0.00    -0.388 OA
ATOM     45  H4  UNL     1      56.137  32.045  15.415  1.00  0.00     0.210 HD
ENDBRANCH  37  44
ENDBRANCH   5  28
TORSDOF 11
ENDMDL
MODEL 4
REMARK VINA RESULT: -9.175937216      3.402      4.637
REMARK  11 active torsions:
REMARK  status: ('A' for Active; 'I' for Inactive)
REMARK    1  A    between atoms: C7_8  and  C8_9 
REMARK    2  A    between atoms: C8_9  and  O1_10 
REMARK    3  A    between atoms: C8_9  and  N1_12 
REMARK    4  A    between atoms: N1_12  and  C9_14 
REMARK    5  A    between atoms: C13_18  and  C14_19 
REMARK    6  A    between atoms: C14_19  and  N2_20 
REMARK       I    between atoms: N2_20  and  C15_22 
REMARK       I    between atoms: C15_22  and  N3_24 
REMARK    7  A    between atoms: N3_24  and  C16_26 
REMARK    8  A    between atoms: C21_31  and  C22_32 
REMARK    9  A    between atoms: C22_32  and  C23_33 
REMARK   10  A    between atoms: C23_33  and  O3_36 
REMARK   11  A    between atoms: C28_40  and  O4_41 
ROOT
HETATM    1  N2  UNL     1      55.782  23.737  12.172  1.00  0.00    -0.341 N 
ATOM      2  H2  UNL     1      56.189  22.981  11.621  1.00  0.00     0.164 HD
HETATM    3  C15 UNL     1      55.934  25.070  11.706  1.00  0.00     0.316 C 
HETATM    4  O2  UNL     1      55.407  25.990  12.370  1.00  0.00    -0.247 OA
HETATM    5  N3  UNL     1      56.647  25.390  10.539  1.00  0.00    -0.335 N 
ATOM      6  H3  UNL     1      57.084  24.615  10.041  1.00  0.00     0.164 HD
ENDROOT
BRANCH   1   7
HETATM    7  C14 UNL     1      55.075  23.398  13.393  1.00  0.00     0.156 C 
BRANCH   7   8
HETATM    8  C13 UNL     1      54.434  22.034  13.287  1.00  0.00     0.139 C 
HETATM    9  C12 UNL     1      53.748  21.552  14.509  1.00  0.00     0.034 C 
HETATM   10  C11 UNL     1      52.893  22.531  15.216  1.00  0.00     0.005 C 
HETATM   11  C10 UNL     1      51.732  23.078  14.464  1.00  0.00     0.027 C 
HETATM   12  C9  UNL     1      51.486  22.487  13.116  1.00  0.00     0.107 C 
HETATM   13  C30 UNL     1      52.588  22.816  12.135  1.00  0.00     0.193 C 
HETATM   14  O5  UNL     1      53.645  21.931  12.144  1.00  0.00    -0.382 OA
BRANCH  12  15
HETATM   15  N1  UNL     1      50.300  23.203  12.577  1.00  0.00    -0.364 N 
ATOM     16  H1  UNL     1      50.059  24.123  12.947  1.00  0.00     0.162 HD
BRANCH  15  17
HETATM   17  C8  UNL     1      49.511  22.639  11.573  1.00  0.00     0.147 C 
BRANCH  17  18
HETATM   18  C7  UNL     1      48.720  21.427  11.608  1.00  0.00     0.023 A 
HETATM   19  C2  UNL     1      49.147  20.182  11.249  1.00  0.00    -0.047 A 
HETATM   20  C1  UNL     1      50.582  19.942  10.899  1.00  0.00     0.049 C 
HETATM   21  C3  UNL     1      48.268  19.080  11.253  1.00  0.00     0.011 A 
HETATM   22  C4  UNL     1      46.952  19.197  11.616  1.00  0.00     0.043 A 
HETATM   23  C5  UNL     1      46.520  20.451  11.980  1.00  0.00     0.117 A 
HETATM   24  F1  UNL     1      45.201  20.565  12.346  1.00  0.00    -0.206 F 
HETATM   25  C6  UNL     1      47.356  21.531  11.981  1.00  0.00     0.058 A 
ENDBRANCH  17  18
BRANCH  17  26
HETATM   26  O1  UNL     1      49.508  23.315  10.457  1.00  0.00    -0.346 OA
ATOM     27  H1  UNL     1      49.267  24.233  10.509  1.00  0.00     0.219 HD
ENDBRANCH  17  26
ENDBRANCH  15  17
ENDBRANCH  12  15
ENDBRANCH   7   8
ENDBRANCH   1   7
BRANCH   5  28
HETATM   28  C16 UNL     1      56.820  26.686   9.985  1.00  0.00     0.124 C 
HETATM   29  C17 UNL     1      55.678  27.224   9.207  1.00  0.00     0.012 C 
HETATM   30  C18 UNL     1      55.565  26.658   7.810  1.00  0.00     0.011 C 
HETATM   31  C26 UNL     1      55.912  28.714   9.025  1.00  0.00     0.016 C 
HETATM   32  C19 UNL     1      56.866  26.811   7.070  1.00  0.00    -0.010 C 
HETATM   33  C20 UNL     1      57.171  28.264   6.936  1.00  0.00     0.014 C 
HETATM   34  C29 UNL     1      58.023  26.186   7.821  1.00  0.00     0.044 C 
HETATM   35  C21 UNL     1      57.230  28.968   8.315  1.00  0.00    -0.034 C 
HETATM   36  C27 UNL     1      58.373  28.324   9.018  1.00  0.00     0.049 C 
HETATM   37  C28 UNL     1      58.085  26.821   9.159  1.00  0.00     0.080 C 
BRANCH  35  38
HETATM   38  C22 UNL     1      57.337  30.399   7.992  1.00  0.00     0.046 C 
BRANCH  38  39
HETATM   39  C23 UNL     1      58.083  31.312   8.869  1.00  0.00     0.051 C 
HETATM   40  C24 UNL     1      59.568  31.415   8.626  1.00  0.00     0.045 C 
HETATM   41  C25 UNL     1      57.533  32.725   8.570  1.00  0.00     0.045 C 
BRANCH  39  42
HETATM   42  O3  UNL     1      57.797  31.144  10.231  1.00  0.00    -0.391 OA
ATOM     43  H3  UNL     1      57.021  31.610  10.519  1.00  0.00     0.210 HD
ENDBRANCH  39  42
ENDBRANCH  38  39
ENDBRANCH  35  38
BRANCH  37  44
HETATM   44  O4  UNL     1      59.149  26.303   9.924  1.00  0.00    -0.388 OA
ATOM     45  H4  UNL     1      59.721  25.827   9.333  1.00  0.00     0.210 HD
ENDBRANCH  37  44
ENDBRANCH   5  28
TORSDOF 11
ENDMDL
MODEL 5
REMARK VINA RESULT: -9.093336672      4.417      5.562
REMARK  11 active torsions:
REMARK  status: ('A' for Active; 'I' for Inactive)
REMARK    1  A    between atoms: C7_8  and  C8_9 
REMARK    2  A    between atoms: C8_9  and  O1_10 
REMARK    3  A    between atoms: C8_9  and  N1_12 
REMARK    4  A    between atoms: N1_12  and  C9_14 
REMARK    5  A    between atoms: C13_18  and  C14_19 
REMARK    6  A    between atoms: C14_19  and  N2_20 
REMARK       I    between atoms: N2_20  and  C15_22 
REMARK       I    between atoms: C15_22  and  N3_24 
REMARK    7  A    between atoms: N3_24  and  C16_26 
REMARK    8  A    between atoms: C21_31  and  C22_32 
REMARK    9  A    between atoms: C22_32  and  C23_33 
REMARK   10  A    between atoms: C23_33  and  O3_36 
REMARK   11  A    between atoms: C28_40  and  O4_41 
ROOT
HETATM    1  N2  UNL     1      55.138  27.322  10.956  1.00  0.00    -0.341 N 
ATOM      2  H2  UNL     1      55.747  27.790  11.627  1.00  0.00     0.164 HD
HETATM    3  C15 UNL     1      55.457  27.412   9.576  1.00  0.00     0.316 C 
HETATM    4  O2  UNL     1      54.722  26.811   8.760  1.00  0.00    -0.247 OA
HETATM    5  N3  UNL     1      56.556  28.142   9.096  1.00  0.00    -0.335 N 
ATOM      6  H3  UNL     1      57.115  28.639   9.789  1.00  0.00     0.164 HD
ENDROOT
BRANCH   1   7
HETATM    7  C14 UNL     1      53.986  26.596  11.459  1.00  0.00     0.156 C 
BRANCH   7   8
HETATM    8  C13 UNL     1      54.305  25.131  11.639  1.00  0.00     0.139 C 
HETATM    9  C12 UNL     1      54.419  24.667  13.041  1.00  0.00     0.034 C 
HETATM   10  C11 UNL     1      53.380  25.144  13.981  1.00  0.00     0.005 C 
HETATM   11  C10 UNL     1      51.976  24.750  13.690  1.00  0.00     0.027 C 
HETATM   12  C9  UNL     1      51.781  23.813  12.545  1.00  0.00     0.107 C 
HETATM   13  C30 UNL     1      52.136  24.445  11.219  1.00  0.00     0.193 C 
HETATM   14  O5  UNL     1      53.465  24.330  10.868  1.00  0.00    -0.382 OA
BRANCH  12  15
HETATM   15  N1  UNL     1      50.314  23.591  12.456  1.00  0.00    -0.364 N 
ATOM     16  H1  UNL     1      49.701  24.002  13.161  1.00  0.00     0.162 HD
BRANCH  15  17
HETATM   17  C8  UNL     1      49.760  22.832  11.423  1.00  0.00     0.147 C 
BRANCH  17  18
HETATM   18  C7  UNL     1      49.410  21.428  11.410  1.00  0.00     0.023 A 
HETATM   19  C2  UNL     1      50.257  20.395  11.135  1.00  0.00    -0.047 A 
HETATM   20  C1  UNL     1      51.721  20.641  10.946  1.00  0.00     0.049 C 
HETATM   21  C3  UNL     1      49.792  19.066  11.079  1.00  0.00     0.011 A 
HETATM   22  C4  UNL     1      48.478  18.741  11.299  1.00  0.00     0.043 A 
HETATM   23  C5  UNL     1      47.623  19.782  11.579  1.00  0.00     0.117 A 
HETATM   24  F1  UNL     1      46.309  19.453  11.800  1.00  0.00    -0.206 F 
HETATM   25  C6  UNL     1      48.055  21.076  11.635  1.00  0.00     0.058 A 
ENDBRANCH  17  18
BRANCH  17  26
HETATM   26  O1  UNL     1      49.542  23.506  10.327  1.00  0.00    -0.346 OA
ATOM     27  H1  UNL     1      48.797  24.096  10.324  1.00  0.00     0.219 HD
ENDBRANCH  17  26
ENDBRANCH  15  17
ENDBRANCH  12  15
ENDBRANCH   7   8
ENDBRANCH   1   7
BRANCH   5  28
HETATM   28  C16 UNL     1      56.967  28.258   7.741  1.00  0.00     0.124 C 
HETATM   29  C17 UNL     1      57.762  27.130   7.199  1.00  0.00     0.012 C 
HETATM   30  C18 UNL     1      59.213  27.140   7.623  1.00  0.00     0.011 C 
HETATM   31  C26 UNL     1      57.779  27.270   5.687  1.00  0.00     0.016 C 
HETATM   32  C19 UNL     1      59.845  28.469   7.314  1.00  0.00    -0.010 C 
HETATM   33  C20 UNL     1      59.815  28.681   5.838  1.00  0.00     0.014 C 
HETATM   34  C29 UNL     1      59.085  29.620   7.938  1.00  0.00     0.044 C 
HETATM   35  C21 UNL     1      58.372  28.608   5.278  1.00  0.00    -0.034 C 
HETATM   36  C27 UNL     1      57.661  29.749   5.918  1.00  0.00     0.049 C 
HETATM   37  C28 UNL     1      57.689  29.557   7.443  1.00  0.00     0.080 C 
BRANCH  35  38
HETATM   38  C22 UNL     1      58.543  28.635   3.817  1.00  0.00     0.046 C 
BRANCH  38  39
HETATM   39  C23 UNL     1      58.604  29.912   3.092  1.00  0.00     0.051 C 
HETATM   40  C24 UNL     1      59.883  30.700   3.224  1.00  0.00     0.045 C 
HETATM   41  C25 UNL     1      58.514  29.549   1.593  1.00  0.00     0.045 C 
BRANCH  39  42
HETATM   42  O3  UNL     1      57.479  30.725   3.289  1.00  0.00    -0.391 OA
ATOM     43  H3  UNL     1      56.654  30.269   3.172  1.00  0.00     0.210 HD
ENDBRANCH  39  42
ENDBRANCH  38  39
ENDBRANCH  35  38
BRANCH  37  44
HETATM   44  O4  UNL     1      56.910  30.607   7.969  1.00  0.00    -0.388 OA
ATOM     45  H4  UNL     1      56.716  30.393   8.874  1.00  0.00     0.210 HD
ENDBRANCH  37  44
ENDBRANCH   5  28
TORSDOF 11
ENDMDL
