MODEL 1
REMARK VINA RESULT: -9.026771521      0.000      0.000
REMARK  4 active torsions:
REMARK  status: ('A' for Active; 'I' for Inactive)
REMARK    1  A    between atoms: C2_2  and  C4_4 
REMARK    2  A    between atoms: C17_21  and  N2_22 
REMARK    3  A    between atoms: N2_22  and  C18_24 
REMARK    4  A    between atoms: C18_24  and  N3_26 
ROOT
HETATM    1  C4  UNL     1       0.242  14.132  -6.802  1.00  0.00     0.180 C 
HETATM    2  N1  UNL     1      -0.425  12.867  -6.577  1.00  0.00    -0.347 N 
ATOM      3  H1  UNL     1       0.173  12.061  -6.390  1.00  0.00     0.163 HD
HETATM    4  C5  UNL     1      -1.816  12.633  -6.588  1.00  0.00     0.227 C 
HETATM    5  O1  UNL     1      -2.260  11.628  -7.239  1.00  0.00    -0.273 OA
HETATM    6  C6  UNL     1      -2.848  13.448  -5.907  1.00  0.00     0.176 C 
HETATM    7  S1  UNL     1      -4.435  13.404  -6.781  1.00  0.00    -0.160 SA
HETATM    8  C7  UNL     1      -5.385  11.924  -6.429  1.00  0.00     0.074 C 
HETATM    9  C8  UNL     1      -6.653  11.968  -7.255  1.00  0.00     0.010 C 
HETATM   10  C9  UNL     1      -6.702  10.826  -8.239  1.00  0.00     0.001 C 
HETATM   11  C10 UNL     1      -5.482  10.762  -9.116  1.00  0.00     0.000 C 
HETATM   12  C11 UNL     1      -5.802  10.899 -10.586  1.00  0.00     0.000 C 
HETATM   13  C12 UNL     1      -6.099  12.331 -10.982  1.00  0.00     0.000 C 
HETATM   14  C13 UNL     1      -4.965  12.956 -11.752  1.00  0.00     0.000 C 
HETATM   15  C14 UNL     1      -4.462  14.204 -11.051  1.00  0.00     0.000 C 
HETATM   16  C15 UNL     1      -2.972  14.410 -11.324  1.00  0.00     0.004 C 
HETATM   17  C16 UNL     1      -2.132  13.589 -10.374  1.00  0.00     0.047 C 
HETATM   18  C17 UNL     1      -0.990  14.351  -9.771  1.00  0.00     0.186 C 
HETATM   19  N4  UNL     1      -1.409  14.993  -8.548  1.00  0.00    -0.338 N 
ATOM     20  H4  UNL     1      -2.366  15.346  -8.510  1.00  0.00     0.164 HD
HETATM   21  C23 UNL     1      -0.604  15.176  -7.396  1.00  0.00     0.242 C 
HETATM   22  O2  UNL     1      -0.624  16.311  -6.856  1.00  0.00    -0.271 OA
ENDROOT
BRANCH  18  23
HETATM   23  N2  UNL     1      -0.355  15.265 -10.690  1.00  0.00    -0.346 N 
ATOM     24  H2  UNL     1      -0.857  15.487 -11.550  1.00  0.00     0.164 HD
BRANCH  23  25
HETATM   25  C18 UNL     1       0.883  15.871 -10.503  1.00  0.00     0.171 C 
HETATM   26  S2  UNL     1       2.080  15.059  -9.758  1.00  0.00    -0.041 SA
BRANCH  25  27
HETATM   27  N3  UNL     1       1.119  17.191 -10.956  1.00  0.00    -0.358 N 
HETATM   28  C19 UNL     1       0.979  17.709 -12.326  1.00  0.00     0.125 C 
HETATM   29  C20 UNL     1       0.550  19.136 -12.168  1.00  0.00     0.021 C 
HETATM   30  C21 UNL     1       0.586  19.423 -10.680  1.00  0.00     0.021 C 
HETATM   31  C22 UNL     1       1.555  18.352 -10.194  1.00  0.00     0.125 C 
ENDBRANCH  25  27
ENDBRANCH  23  25
ENDBRANCH  18  23
BRANCH   1  32
HETATM   32  C2  UNL     1       1.008  14.597  -5.596  1.00  0.00     0.009 C 
HETATM   33  C1  UNL     1       0.822  13.789  -4.366  1.00  0.00     0.012 C 
HETATM   34  C3  UNL     1       2.496  14.524  -5.967  1.00  0.00     0.012 C 
ENDBRANCH   1  32
TORSDOF 4
ENDMDL
MODEL 2
REMARK VINA RESULT: -8.660742809      2.470      6.733
REMARK  4 active torsions:
REMARK  status: ('A' for Active; 'I' for Inactive)
REMARK    1  A    between atoms: C2_2  and  C4_4 
REMARK    2  A    between atoms: C17_21  and  N2_22 
REMARK    3  A    between atoms: N2_22  and  C18_24 
REMARK    4  A    between atoms: C18_24  and  N3_26 
ROOT
HETATM    1  C4  UNL     1      -1.029  14.594  -4.850  1.00  0.00     0.180 C 
HETATM    2  N1  UNL     1      -1.169  16.029  -4.985  1.00  0.00    -0.347 N 
ATOM      3  H1  UNL     1      -2.021  16.443  -4.607  1.00  0.00     0.163 HD
HETATM    4  C5  UNL     1      -0.248  16.913  -5.584  1.00  0.00     0.227 C 
HETATM    5  O1  UNL     1      -0.686  17.783  -6.410  1.00  0.00    -0.273 OA
HETATM    6  C6  UNL     1       1.215  16.946  -5.353  1.00  0.00     0.176 C 
HETATM    7  S1  UNL     1       2.119  17.536  -6.808  1.00  0.00    -0.160 SA
HETATM    8  C7  UNL     1       2.112  19.323  -6.955  1.00  0.00     0.074 C 
HETATM    9  C8  UNL     1       2.840  19.696  -8.230  1.00  0.00     0.010 C 
HETATM   10  C9  UNL     1       1.918  20.389  -9.201  1.00  0.00     0.001 C 
HETATM   11  C10 UNL     1       0.677  19.593  -9.494  1.00  0.00     0.000 C 
HETATM   12  C11 UNL     1       0.534  19.238 -10.956  1.00  0.00     0.000 C 
HETATM   13  C12 UNL     1       1.446  18.102 -11.368  1.00  0.00     0.000 C 
HETATM   14  C13 UNL     1       0.696  16.811 -11.566  1.00  0.00     0.000 C 
HETATM   15  C14 UNL     1       1.244  15.725 -10.658  1.00  0.00     0.000 C 
HETATM   16  C15 UNL     1       0.142  14.736 -10.277  1.00  0.00     0.004 C 
HETATM   17  C16 UNL     1      -0.662  15.251  -9.107  1.00  0.00     0.047 C 
HETATM   18  C17 UNL     1      -0.907  14.219  -8.048  1.00  0.00     0.186 C 
HETATM   19  N4  UNL     1       0.162  14.234  -7.078  1.00  0.00    -0.338 N 
ATOM     20  H4  UNL     1       1.102  14.433  -7.423  1.00  0.00     0.164 HD
HETATM   21  C23 UNL     1       0.019  13.997  -5.689  1.00  0.00     0.242 C 
HETATM   22  O2  UNL     1       0.849  13.221  -5.150  1.00  0.00    -0.271 OA
ENDROOT
BRANCH  18  23
HETATM   23  N2  UNL     1      -1.161  12.898  -8.573  1.00  0.00    -0.346 N 
ATOM     24  H2  UNL     1      -0.352  12.302  -8.747  1.00  0.00     0.164 HD
BRANCH  23  25
HETATM   25  C18 UNL     1      -2.414  12.368  -8.861  1.00  0.00     0.171 C 
HETATM   26  S2  UNL     1      -3.021  11.172  -7.940  1.00  0.00    -0.041 SA
BRANCH  25  27
HETATM   27  N3  UNL     1      -3.175  12.857  -9.949  1.00  0.00    -0.358 N 
HETATM   28  C19 UNL     1      -4.464  13.564  -9.898  1.00  0.00     0.125 C 
HETATM   29  C20 UNL     1      -4.443  14.512 -11.059  1.00  0.00     0.021 C 
HETATM   30  C21 UNL     1      -3.167  14.213 -11.822  1.00  0.00     0.021 C 
HETATM   31  C22 UNL     1      -2.880  12.786 -11.373  1.00  0.00     0.125 C 
ENDBRANCH  25  27
ENDBRANCH  23  25
ENDBRANCH  18  23
BRANCH   1  32
HETATM   32  C2  UNL     1      -0.966  14.158  -3.413  1.00  0.00     0.009 C 
HETATM   33  C1  UNL     1      -0.193  15.043  -2.507  1.00  0.00     0.012 C 
HETATM   34  C3  UNL     1      -2.412  14.133  -2.899  1.00  0.00     0.012 C 
ENDBRANCH   1  32
TORSDOF 4
ENDMDL
MODEL 3
REMARK VINA RESULT: -8.255393965      1.620      2.164
REMARK  4 active torsions:
REMARK  status: ('A' for Active; 'I' for Inactive)
REMARK    1  A    between atoms: C2_2  and  C4_4 
REMARK    2  A    between atoms: C17_21  and  N2_22 
REMARK    3  A    between atoms: N2_22  and  C18_24 
REMARK    4  A    between atoms: C18_24  and  N3_26 
ROOT
HETATM    1  C4  UNL     1       0.721  14.562  -5.989  1.00  0.00     0.180 C 
HETATM    2  N1  UNL     1       0.000  13.331  -5.739  1.00  0.00    -0.347 N 
ATOM      3  H1  UNL     1       0.551  12.536  -5.415  1.00  0.00     0.163 HD
HETATM    4  C5  UNL     1      -1.385  13.118  -5.897  1.00  0.00     0.227 C 
HETATM    5  O1  UNL     1      -1.775  12.068  -6.509  1.00  0.00    -0.273 OA
HETATM    6  C6  UNL     1      -2.469  14.006  -5.416  1.00  0.00     0.176 C 
HETATM    7  S1  UNL     1      -3.942  13.911  -6.467  1.00  0.00    -0.160 SA
HETATM    8  C7  UNL     1      -4.965  12.483  -6.107  1.00  0.00     0.074 C 
HETATM    9  C8  UNL     1      -6.125  12.474  -7.079  1.00  0.00     0.010 C 
HETATM   10  C9  UNL     1      -6.087  11.252  -7.962  1.00  0.00     0.001 C 
HETATM   11  C10 UNL     1      -4.775  11.092  -8.677  1.00  0.00     0.000 C 
HETATM   12  C11 UNL     1      -4.916  11.105 -10.182  1.00  0.00     0.000 C 
HETATM   13  C12 UNL     1      -5.126  12.502 -10.730  1.00  0.00     0.000 C 
HETATM   14  C13 UNL     1      -3.894  13.039 -11.409  1.00  0.00     0.000 C 
HETATM   15  C14 UNL     1      -3.445  14.336 -10.761  1.00  0.00     0.000 C 
HETATM   16  C15 UNL     1      -1.928  14.494 -10.870  1.00  0.00     0.004 C 
HETATM   17  C16 UNL     1      -1.228  13.746  -9.760  1.00  0.00     0.047 C 
HETATM   18  C17 UNL     1      -0.146  14.539  -9.092  1.00  0.00     0.186 C 
HETATM   19  N4  UNL     1      -0.689  15.292  -7.987  1.00  0.00    -0.338 N 
ATOM     20  H4  UNL     1      -1.634  15.662  -8.094  1.00  0.00     0.164 HD
HETATM   21  C23 UNL     1      -0.021  15.562  -6.766  1.00  0.00     0.242 C 
HETATM   22  O2  UNL     1      -0.075  16.741  -6.331  1.00  0.00    -0.271 OA
ENDROOT
BRANCH  18  23
HETATM   23  N2  UNL     1       0.618  15.360 -10.002  1.00  0.00    -0.346 N 
ATOM     24  H2  UNL     1       0.626  15.085 -10.984  1.00  0.00     0.164 HD
BRANCH  23  25
HETATM   25  C18 UNL     1       1.342  16.495  -9.655  1.00  0.00     0.171 C 
HETATM   26  S2  UNL     1       0.944  17.938 -10.291  1.00  0.00    -0.041 SA
BRANCH  25  27
HETATM   27  N3  UNL     1       2.428  16.413  -8.751  1.00  0.00    -0.358 N 
HETATM   28  C19 UNL     1       3.351  15.283  -8.558  1.00  0.00     0.125 C 
HETATM   29  C20 UNL     1       4.663  15.904  -8.183  1.00  0.00     0.021 C 
HETATM   30  C21 UNL     1       4.401  17.391  -8.047  1.00  0.00     0.021 C 
HETATM   31  C22 UNL     1       2.898  17.405  -7.796  1.00  0.00     0.125 C 
ENDBRANCH  25  27
ENDBRANCH  23  25
ENDBRANCH  18  23
BRANCH   1  32
HETATM   32  C2  UNL     1       1.353  15.118  -4.744  1.00  0.00     0.009 C 
HETATM   33  C1  UNL     1       1.030  14.401  -3.486  1.00  0.00     0.012 C 
HETATM   34  C3  UNL     1       2.872  15.025  -4.943  1.00  0.00     0.012 C 
ENDBRANCH   1  32
TORSDOF 4
ENDMDL
MODEL 4
REMARK VINA RESULT: -8.246863035      2.314      7.024
REMARK  4 active torsions:
REMARK  status: ('A' for Active; 'I' for Inactive)
REMARK    1  A    between atoms: C2_2  and  C4_4 
REMARK    2  A    between atoms: C17_21  and  N2_22 
REMARK    3  A    between atoms: N2_22  and  C18_24 
REMARK    4  A    between atoms: C18_24  and  N3_26 
ROOT
HETATM    1  C4  UNL     1      -2.009  14.094  -5.332  1.00  0.00     0.180 C 
HETATM    2  N1  UNL     1      -2.020  15.542  -5.300  1.00  0.00    -0.347 N 
ATOM      3  H1  UNL     1      -2.888  15.986  -4.997  1.00  0.00     0.163 HD
HETATM    4  C5  UNL     1      -0.957  16.402  -5.645  1.00  0.00     0.227 C 
HETATM    5  O1  UNL     1      -1.199  17.398  -6.406  1.00  0.00    -0.273 OA
HETATM    6  C6  UNL     1       0.452  16.272  -5.206  1.00  0.00     0.176 C 
HETATM    7  S1  UNL     1       1.608  16.941  -6.431  1.00  0.00    -0.160 SA
HETATM    8  C7  UNL     1       1.756  18.727  -6.347  1.00  0.00     0.074 C 
HETATM    9  C8  UNL     1       2.695  19.176  -7.447  1.00  0.00     0.010 C 
HETATM   10  C9  UNL     1       1.985  20.060  -8.443  1.00  0.00     0.001 C 
HETATM   11  C10 UNL     1       0.747  19.420  -9.008  1.00  0.00     0.000 C 
HETATM   12  C11 UNL     1       0.802  19.252 -10.509  1.00  0.00     0.000 C 
HETATM   13  C12 UNL     1       1.680  18.091 -10.929  1.00  0.00     0.000 C 
HETATM   14  C13 UNL     1       0.875  16.907 -11.396  1.00  0.00     0.000 C 
HETATM   15  C14 UNL     1       1.197  15.677 -10.566  1.00  0.00     0.000 C 
HETATM   16  C15 UNL     1      -0.020  14.756 -10.475  1.00  0.00     0.004 C 
HETATM   17  C16 UNL     1      -0.952  15.204  -9.374  1.00  0.00     0.047 C 
HETATM   18  C17 UNL     1      -1.431  14.083  -8.501  1.00  0.00     0.186 C 
HETATM   19  N4  UNL     1      -0.523  13.888  -7.396  1.00  0.00    -0.338 N 
ATOM     20  H4  UNL     1       0.470  14.038  -7.577  1.00  0.00     0.164 HD
HETATM   21  C23 UNL     1      -0.893  13.505  -6.083  1.00  0.00     0.242 C 
HETATM   22  O2  UNL     1      -0.213  12.599  -5.536  1.00  0.00    -0.271 OA
ENDROOT
BRANCH  18  23
HETATM   23  N2  UNL     1      -1.699  12.861  -9.222  1.00  0.00    -0.346 N 
ATOM     24  H2  UNL     1      -0.945  12.175  -9.275  1.00  0.00     0.164 HD
BRANCH  23  25
HETATM   25  C18 UNL     1      -2.897  12.537  -9.850  1.00  0.00     0.171 C 
HETATM   26  S2  UNL     1      -2.927  12.279 -11.456  1.00  0.00    -0.041 SA
BRANCH  25  27
HETATM   27  N3  UNL     1      -4.097  12.428  -9.108  1.00  0.00    -0.358 N 
HETATM   28  C19 UNL     1      -4.553  11.285  -8.302  1.00  0.00     0.125 C 
HETATM   29  C20 UNL     1      -5.335  11.884  -7.173  1.00  0.00     0.021 C 
HETATM   30  C21 UNL     1      -5.407  13.372  -7.454  1.00  0.00     0.021 C 
HETATM   31  C22 UNL     1      -5.169  13.401  -8.959  1.00  0.00     0.125 C 
ENDBRANCH  25  27
ENDBRANCH  23  25
ENDBRANCH  18  23
BRANCH   1  32
HETATM   32  C2  UNL     1      -2.198  13.491  -3.968  1.00  0.00     0.009 C 
HETATM   33  C1  UNL     1      -2.353  14.459  -2.855  1.00  0.00     0.012 C 
HETATM   34  C3  UNL     1      -3.486  12.660  -4.031  1.00  0.00     0.012 C 
ENDBRANCH   1  32
TORSDOF 4
ENDMDL
MODEL 5
REMARK VINA RESULT: -8.145312876      2.386      6.754
REMARK  4 active torsions:
REMARK  status: ('A' for Active; 'I' for Inactive)
REMARK    1  A    between atoms: C2_2  and  C4_4 
REMARK    2  A    between atoms: C17_21  and  N2_22 
REMARK    3  A    between atoms: N2_22  and  C18_24 
REMARK    4  A    between atoms: C18_24  and  N3_26 
ROOT
HETATM    1  C4  UNL     1      -3.405  13.110  -7.480  1.00  0.00     0.180 C 
HETATM    2  N1  UNL     1      -3.209  14.122  -6.463  1.00  0.00    -0.347 N 
ATOM      3  H1  UNL     1      -4.026  14.676  -6.205  1.00  0.00     0.163 HD
HETATM    4  C5  UNL     1      -2.005  14.423  -5.793  1.00  0.00     0.227 C 
HETATM    5  O1  UNL     1      -1.658  15.646  -5.680  1.00  0.00    -0.273 OA
HETATM    6  C6  UNL     1      -1.072  13.445  -5.186  1.00  0.00     0.176 C 
HETATM    7  S1  UNL     1       0.640  14.038  -5.205  1.00  0.00    -0.160 SA
HETATM    8  C7  UNL     1       0.995  15.188  -3.875  1.00  0.00     0.074 C 
HETATM    9  C8  UNL     1       2.426  15.660  -4.026  1.00  0.00     0.010 C 
HETATM   10  C9  UNL     1       2.485  17.145  -4.281  1.00  0.00     0.001 C 
HETATM   11  C10 UNL     1       1.645  17.568  -5.454  1.00  0.00     0.000 C 
HETATM   12  C11 UNL     1       2.449  18.226  -6.551  1.00  0.00     0.000 C 
HETATM   13  C12 UNL     1       3.227  17.224  -7.379  1.00  0.00     0.000 C 
HETATM   14  C13 UNL     1       2.614  17.008  -8.737  1.00  0.00     0.000 C 
HETATM   15  C14 UNL     1       2.262  15.546  -8.942  1.00  0.00     0.000 C 
HETATM   16  C15 UNL     1       1.052  15.410  -9.867  1.00  0.00     0.004 C 
HETATM   17  C16 UNL     1      -0.237  15.568  -9.095  1.00  0.00     0.047 C 
HETATM   18  C17 UNL     1      -1.266  14.530  -9.427  1.00  0.00     0.186 C 
HETATM   19  N4  UNL     1      -1.112  13.381  -8.567  1.00  0.00    -0.338 N 
ATOM     20  H4  UNL     1      -0.162  13.125  -8.298  1.00  0.00     0.164 HD
HETATM   21  C23 UNL     1      -2.167  12.579  -8.065  1.00  0.00     0.242 C 
HETATM   22  O2  UNL     1      -2.022  11.332  -8.132  1.00  0.00    -0.271 OA
ENDROOT
BRANCH  18  23
HETATM   23  N2  UNL     1      -1.302  14.176 -10.826  1.00  0.00    -0.346 N 
ATOM     24  H2  UNL     1      -0.480  14.401 -11.386  1.00  0.00     0.164 HD
BRANCH  23  25
HETATM   25  C18 UNL     1      -2.362  13.553 -11.477  1.00  0.00     0.171 C 
HETATM   26  S2  UNL     1      -2.171  12.060 -12.093  1.00  0.00    -0.041 SA
BRANCH  25  27
HETATM   27  N3  UNL     1      -3.612  14.203 -11.611  1.00  0.00    -0.358 N 
HETATM   28  C19 UNL     1      -4.132  14.912 -12.791  1.00  0.00     0.125 C 
HETATM   29  C20 UNL     1      -5.615  14.700 -12.757  1.00  0.00     0.021 C 
HETATM   30  C21 UNL     1      -5.907  13.971 -11.460  1.00  0.00     0.021 C 
HETATM   31  C22 UNL     1      -4.680  14.337 -10.633  1.00  0.00     0.125 C 
ENDBRANCH  25  27
ENDBRANCH  23  25
ENDBRANCH  18  23
BRANCH   1  32
HETATM   32  C2  UNL     1      -4.368  12.042  -7.045  1.00  0.00     0.009 C 
HETATM   33  C1  UNL     1      -5.092  12.308  -5.778  1.00  0.00     0.012 C 
HETATM   34  C3  UNL     1      -5.423  11.924  -8.154  1.00  0.00     0.012 C 
ENDBRANCH   1  32
TORSDOF 4
ENDMDL
