MODEL 1
REMARK VINA RESULT: -9.191021711      0.000      0.000
REMARK  9 active torsions:
REMARK  status: ('A' for Active; 'I' for Inactive)
REMARK    1  A    between atoms: C3_5  and  N2_6 
REMARK       I    between atoms: N2_6  and  C4_8 
REMARK    2  A    between atoms: C4_8  and  C5_10 
REMARK    3  A    between atoms: C5_10  and  O2_11 
REMARK    4  A    between atoms: C5_10  and  N3_13 
REMARK       I    between atoms: N3_13  and  C6_15 
REMARK       I    between atoms: C6_15  and  N4_17 
REMARK    5  A    between atoms: C9_20  and  N5_21 
REMARK    6  A    between atoms: N5_21  and  C10_23 
REMARK    7  A    between atoms: C10_23  and  N6_25 
REMARK    8  A    between atoms: N6_25  and  C11_27 
REMARK    9  A    between atoms: C15_31  and  C16_32 
ROOT
HETATM    1  C1  UNL     1       0.623  17.010  -6.659  1.00  0.00     0.069 C 
HETATM    2  C2  UNL     1       0.083  16.000  -7.643  1.00  0.00     0.019 A 
HETATM    3  N1  UNL     1      -0.805  15.112  -7.220  1.00  0.00    -0.343 N 
ATOM      4  H1  UNL     1      -1.065  15.182  -6.236  1.00  0.00     0.167 HD
HETATM    5  C3  UNL     1      -1.403  14.141  -7.907  1.00  0.00     0.143 A 
HETATM    6  C9  UNL     1      -1.155  13.910  -9.275  1.00  0.00     0.121 A 
HETATM    7  S2  UNL     1      -0.034  14.956 -10.001  1.00  0.00    -0.072 SA
HETATM    8  C21 UNL     1       0.594  16.117  -8.914  1.00  0.00     0.003 A 
HETATM    9  C22 UNL     1       1.589  17.145  -9.316  1.00  0.00     0.058 C 
ENDROOT
BRANCH   6  10
HETATM   10  N5  UNL     1      -1.804  12.972  -9.880  1.00  0.00    -0.324 N 
ATOM     11  H5  UNL     1      -1.521  12.014  -9.674  1.00  0.00     0.169 HD
BRANCH  10  12
HETATM   12  C10 UNL     1      -2.856  13.132 -10.786  1.00  0.00     0.177 C 
HETATM   13  S1  UNL     1      -2.473  12.667 -12.376  1.00  0.00    -0.040 SA
BRANCH  12  14
HETATM   14  N6  UNL     1      -4.154  13.595 -10.635  1.00  0.00    -0.333 N 
ATOM     15  H6  UNL     1      -4.239  14.522 -10.217  1.00  0.00     0.168 HD
BRANCH  14  16
HETATM   16  C11 UNL     1      -5.384  12.971 -10.974  1.00  0.00     0.034 A 
HETATM   17  C12 UNL     1      -6.223  13.368 -11.962  1.00  0.00     0.029 A 
HETATM   18  C13 UNL     1      -7.434  12.725 -12.258  1.00  0.00     0.003 A 
HETATM   19  C14 UNL     1      -7.790  11.636 -11.506  1.00  0.00     0.008 A 
HETATM   20  C15 UNL     1      -6.961  11.187 -10.476  1.00  0.00    -0.048 A 
HETATM   21  C20 UNL     1      -5.787  11.844 -10.223  1.00  0.00     0.037 A 
BRANCH  20  22
HETATM   22  C16 UNL     1      -7.414  10.003  -9.684  1.00  0.00    -0.024 C 
HETATM   23  C17 UNL     1      -6.256   9.314  -9.004  1.00  0.00     0.019 C 
HETATM   24  C18 UNL     1      -8.084   8.987 -10.602  1.00  0.00     0.019 C 
HETATM   25  C19 UNL     1      -8.393  10.432  -8.601  1.00  0.00     0.019 C 
ENDBRANCH  20  22
ENDBRANCH  14  16
ENDBRANCH  12  14
ENDBRANCH  10  12
ENDBRANCH   6  10
BRANCH   5  26
HETATM   26  N2  UNL     1      -2.242  13.320  -7.409  1.00  0.00    -0.304 N 
HETATM   27  C4  UNL     1      -3.519  13.643  -6.820  1.00  0.00     0.298 C 
HETATM   28  O1  UNL     1      -4.360  14.200  -7.565  1.00  0.00    -0.263 OA
ATOM     29  H2  UNL     1      -1.984  12.333  -7.429  1.00  0.00     0.171 HD
BRANCH  27  30
HETATM   30  C5  UNL     1      -3.744  13.308  -5.432  1.00  0.00     0.214 C 
BRANCH  30  31
HETATM   31  O2  UNL     1      -4.656  12.383  -5.250  1.00  0.00    -0.342 OA
ATOM     32  H2  UNL     1      -4.306  11.547  -4.968  1.00  0.00     0.219 HD
ENDBRANCH  30  31
BRANCH  30  33
HETATM   33  N3  UNL     1      -3.173  13.787  -4.262  1.00  0.00    -0.285 N 
HETATM   34  C6  UNL     1      -1.816  13.897  -3.915  1.00  0.00     0.323 C 
HETATM   35  O3  UNL     1      -0.854  13.553  -4.612  1.00  0.00    -0.247 OA
HETATM   36  N4  UNL     1      -1.502  14.461  -2.622  1.00  0.00    -0.343 N 
HETATM   37  C7  UNL     1      -2.554  14.898  -1.725  1.00  0.00     0.154 C 
HETATM   38  C8  UNL     1      -0.138  14.601  -2.222  1.00  0.00     0.154 C 
ATOM     39  H3  UNL     1      -3.833  14.106  -3.552  1.00  0.00     0.172 HD
ENDBRANCH  30  33
ENDBRANCH  27  30
ENDBRANCH   5  26
TORSDOF 9
ENDMDL
MODEL 2
REMARK VINA RESULT: -9.021772602      1.979      6.939
REMARK  9 active torsions:
REMARK  status: ('A' for Active; 'I' for Inactive)
REMARK    1  A    between atoms: C3_5  and  N2_6 
REMARK       I    between atoms: N2_6  and  C4_8 
REMARK    2  A    between atoms: C4_8  and  C5_10 
REMARK    3  A    between atoms: C5_10  and  O2_11 
REMARK    4  A    between atoms: C5_10  and  N3_13 
REMARK       I    between atoms: N3_13  and  C6_15 
REMARK       I    between atoms: C6_15  and  N4_17 
REMARK    5  A    between atoms: C9_20  and  N5_21 
REMARK    6  A    between atoms: N5_21  and  C10_23 
REMARK    7  A    between atoms: C10_23  and  N6_25 
REMARK    8  A    between atoms: N6_25  and  C11_27 
REMARK    9  A    between atoms: C15_31  and  C16_32 
ROOT
HETATM    1  C1  UNL     1      -7.703   9.307  -9.508  1.00  0.00     0.069 C 
HETATM    2  C2  UNL     1      -6.756  10.477  -9.635  1.00  0.00     0.019 A 
HETATM    3  N1  UNL     1      -5.889  10.702  -8.658  1.00  0.00    -0.343 N 
ATOM      4  H1  UNL     1      -5.926  10.049  -7.875  1.00  0.00     0.167 HD
HETATM    5  C3  UNL     1      -4.976  11.666  -8.562  1.00  0.00     0.143 A 
HETATM    6  C9  UNL     1      -4.794  12.647  -9.557  1.00  0.00     0.121 A 
HETATM    7  S2  UNL     1      -5.824  12.525 -10.900  1.00  0.00    -0.072 SA
HETATM    8  C21 UNL     1      -6.907  11.206 -10.791  1.00  0.00     0.003 A 
HETATM    9  C22 UNL     1      -7.903  10.890 -11.846  1.00  0.00     0.058 C 
ENDROOT
BRANCH   6  10
HETATM   10  N5  UNL     1      -3.861  13.526  -9.407  1.00  0.00    -0.324 N 
ATOM     11  H5  UNL     1      -4.123  14.397  -8.946  1.00  0.00     0.169 HD
BRANCH  10  12
HETATM   12  C10 UNL     1      -2.528  13.409  -9.810  1.00  0.00     0.177 C 
HETATM   13  S1  UNL     1      -2.326  12.634 -11.310  1.00  0.00    -0.040 SA
BRANCH  12  14
HETATM   14  N6  UNL     1      -1.338  13.808  -9.221  1.00  0.00    -0.333 N 
ATOM     15  H6  UNL     1      -0.811  14.512  -9.739  1.00  0.00     0.168 HD
BRANCH  14  16
HETATM   16  C11 UNL     1      -0.742  13.383  -8.003  1.00  0.00     0.034 A 
HETATM   17  C12 UNL     1      -0.903  12.165  -7.431  1.00  0.00     0.029 A 
HETATM   18  C13 UNL     1      -0.301  11.790  -6.221  1.00  0.00     0.003 A 
HETATM   19  C14 UNL     1       0.493  12.707  -5.581  1.00  0.00     0.008 A 
HETATM   20  C15 UNL     1       0.690  13.975  -6.129  1.00  0.00    -0.048 A 
HETATM   21  C20 UNL     1       0.084  14.298  -7.313  1.00  0.00     0.037 A 
BRANCH  20  22
HETATM   22  C16 UNL     1       1.556  14.933  -5.374  1.00  0.00    -0.024 C 
HETATM   23  C17 UNL     1       1.557  14.633  -3.895  1.00  0.00     0.019 C 
HETATM   24  C18 UNL     1       1.042  16.355  -5.558  1.00  0.00     0.019 C 
HETATM   25  C19 UNL     1       2.994  14.844  -5.861  1.00  0.00     0.019 C 
ENDBRANCH  20  22
ENDBRANCH  14  16
ENDBRANCH  12  14
ENDBRANCH  10  12
ENDBRANCH   6  10
BRANCH   5  26
HETATM   26  N2  UNL     1      -4.187  11.812  -7.571  1.00  0.00    -0.304 N 
HETATM   27  C4  UNL     1      -4.504  12.418  -6.300  1.00  0.00     0.298 C 
HETATM   28  O1  UNL     1      -5.408  11.873  -5.624  1.00  0.00    -0.263 OA
ATOM     29  H2  UNL     1      -3.235  11.466  -7.688  1.00  0.00     0.171 HD
BRANCH  27  30
HETATM   30  C5  UNL     1      -3.768  13.594  -5.893  1.00  0.00     0.214 C 
BRANCH  30  31
HETATM   31  O2  UNL     1      -3.656  14.503  -6.832  1.00  0.00    -0.342 OA
ATOM     32  H2  UNL     1      -4.487  14.843  -7.141  1.00  0.00     0.219 HD
ENDBRANCH  30  31
BRANCH  30  33
HETATM   33  N3  UNL     1      -3.160  13.933  -4.693  1.00  0.00    -0.285 N 
HETATM   34  C6  UNL     1      -2.533  15.136  -4.324  1.00  0.00     0.323 C 
HETATM   35  O3  UNL     1      -2.391  16.135  -5.038  1.00  0.00    -0.247 OA
HETATM   36  N4  UNL     1      -1.997  15.224  -2.984  1.00  0.00    -0.343 N 
HETATM   37  C7  UNL     1      -2.109  14.110  -2.063  1.00  0.00     0.154 C 
HETATM   38  C8  UNL     1      -1.356  16.426  -2.555  1.00  0.00     0.154 C 
ATOM     39  H3  UNL     1      -3.168  13.207  -3.977  1.00  0.00     0.172 HD
ENDBRANCH  30  33
ENDBRANCH  27  30
ENDBRANCH   5  26
TORSDOF 9
ENDMDL
MODEL 3
REMARK VINA RESULT: -8.903330336      3.283      5.908
REMARK  9 active torsions:
REMARK  status: ('A' for Active; 'I' for Inactive)
REMARK    1  A    between atoms: C3_5  and  N2_6 
REMARK       I    between atoms: N2_6  and  C4_8 
REMARK    2  A    between atoms: C4_8  and  C5_10 
REMARK    3  A    between atoms: C5_10  and  O2_11 
REMARK    4  A    between atoms: C5_10  and  N3_13 
REMARK       I    between atoms: N3_13  and  C6_15 
REMARK       I    between atoms: C6_15  and  N4_17 
REMARK    5  A    between atoms: C9_20  and  N5_21 
REMARK    6  A    between atoms: N5_21  and  C10_23 
REMARK    7  A    between atoms: C10_23  and  N6_25 
REMARK    8  A    between atoms: N6_25  and  C11_27 
REMARK    9  A    between atoms: C15_31  and  C16_32 
ROOT
HETATM    1  C1  UNL     1      -0.395  12.701  -5.705  1.00  0.00     0.069 C 
HETATM    2  C2  UNL     1      -1.130  13.142  -6.949  1.00  0.00     0.019 A 
HETATM    3  N1  UNL     1      -0.424  13.466  -8.023  1.00  0.00    -0.343 N 
ATOM      4  H1  UNL     1       0.589  13.388  -7.926  1.00  0.00     0.167 HD
HETATM    5  C3  UNL     1      -0.860  13.880  -9.211  1.00  0.00     0.143 A 
HETATM    6  C9  UNL     1      -2.228  14.040  -9.509  1.00  0.00     0.121 A 
HETATM    7  S2  UNL     1      -3.298  13.670  -8.246  1.00  0.00    -0.072 SA
HETATM    8  C21 UNL     1      -2.499  13.162  -6.822  1.00  0.00     0.003 A 
HETATM    9  C22 UNL     1      -3.222  12.780  -5.582  1.00  0.00     0.058 C 
ENDROOT
BRANCH   6  10
HETATM   10  N5  UNL     1      -2.571  14.408 -10.697  1.00  0.00    -0.324 N 
ATOM     11  H5  UNL     1      -2.191  15.295 -11.028  1.00  0.00     0.169 HD
BRANCH  10  12
HETATM   12  C10 UNL     1      -3.408  13.718 -11.579  1.00  0.00     0.177 C 
HETATM   13  S1  UNL     1      -2.630  12.477 -12.440  1.00  0.00    -0.040 SA
BRANCH  12  14
HETATM   14  N6  UNL     1      -4.754  13.853 -11.882  1.00  0.00    -0.333 N 
ATOM     15  H6  UNL     1      -5.020  14.749 -12.291  1.00  0.00     0.168 HD
BRANCH  14  16
HETATM   16  C11 UNL     1      -5.819  12.929 -11.707  1.00  0.00     0.034 A 
HETATM   17  C12 UNL     1      -6.807  12.687 -12.602  1.00  0.00     0.029 A 
HETATM   18  C13 UNL     1      -7.845  11.769 -12.384  1.00  0.00     0.003 A 
HETATM   19  C14 UNL     1      -7.863  11.080 -11.199  1.00  0.00     0.008 A 
HETATM   20  C15 UNL     1      -6.868  11.294 -10.243  1.00  0.00    -0.048 A 
HETATM   21  C20 UNL     1      -5.873  12.198 -10.499  1.00  0.00     0.037 A 
BRANCH  20  22
HETATM   22  C16 UNL     1      -6.953  10.521  -8.966  1.00  0.00    -0.024 C 
HETATM   23  C17 UNL     1      -8.360  10.502  -8.420  1.00  0.00     0.019 C 
HETATM   24  C18 UNL     1      -6.056  11.158  -7.912  1.00  0.00     0.019 C 
HETATM   25  C19 UNL     1      -6.529   9.078  -9.191  1.00  0.00     0.019 C 
ENDBRANCH  20  22
ENDBRANCH  14  16
ENDBRANCH  12  14
ENDBRANCH  10  12
ENDBRANCH   6  10
BRANCH   5  26
HETATM   26  N2  UNL     1      -0.100  14.183 -10.189  1.00  0.00    -0.304 N 
HETATM   27  C4  UNL     1       0.823  15.291 -10.252  1.00  0.00     0.298 C 
HETATM   28  O1  UNL     1       1.746  15.306  -9.404  1.00  0.00    -0.263 OA
ATOM     29  H2  UNL     1      -0.149  13.581 -11.011  1.00  0.00     0.171 HD
BRANCH  27  30
HETATM   30  C5  UNL     1       0.627  16.295 -11.274  1.00  0.00     0.214 C 
BRANCH  30  31
HETATM   31  O2  UNL     1      -0.258  15.963 -12.183  1.00  0.00    -0.342 OA
ATOM     32  H2  UNL     1      -0.664  16.706 -12.615  1.00  0.00     0.219 HD
ENDBRANCH  30  31
BRANCH  30  33
HETATM   33  N3  UNL     1       1.207  17.540 -11.468  1.00  0.00    -0.285 N 
HETATM   34  C6  UNL     1       1.468  18.222 -12.669  1.00  0.00     0.323 C 
HETATM   35  O3  UNL     1       1.235  17.806 -13.810  1.00  0.00    -0.247 OA
HETATM   36  N4  UNL     1       2.068  19.533 -12.574  1.00  0.00    -0.343 N 
HETATM   37  C7  UNL     1       2.382  20.117 -11.285  1.00  0.00     0.154 C 
HETATM   38  C8  UNL     1       2.348  20.273 -13.764  1.00  0.00     0.154 C 
ATOM     39  H3  UNL     1       1.484  18.031 -10.617  1.00  0.00     0.172 HD
ENDBRANCH  30  33
ENDBRANCH  27  30
ENDBRANCH   5  26
TORSDOF 9
ENDMDL
MODEL 4
REMARK VINA RESULT: -8.843438087      2.007      4.605
REMARK  9 active torsions:
REMARK  status: ('A' for Active; 'I' for Inactive)
REMARK    1  A    between atoms: C3_5  and  N2_6 
REMARK       I    between atoms: N2_6  and  C4_8 
REMARK    2  A    between atoms: C4_8  and  C5_10 
REMARK    3  A    between atoms: C5_10  and  O2_11 
REMARK    4  A    between atoms: C5_10  and  N3_13 
REMARK       I    between atoms: N3_13  and  C6_15 
REMARK       I    between atoms: C6_15  and  N4_17 
REMARK    5  A    between atoms: C9_20  and  N5_21 
REMARK    6  A    between atoms: N5_21  and  C10_23 
REMARK    7  A    between atoms: C10_23  and  N6_25 
REMARK    8  A    between atoms: N6_25  and  C11_27 
REMARK    9  A    between atoms: C15_31  and  C16_32 
ROOT
HETATM    1  C1  UNL     1       0.567  14.162  -2.878  1.00  0.00     0.069 C 
HETATM    2  C2  UNL     1      -0.059  14.286  -4.247  1.00  0.00     0.019 A 
HETATM    3  N1  UNL     1      -1.380  14.255  -4.346  1.00  0.00    -0.343 N 
ATOM      4  H1  UNL     1      -1.887  14.150  -3.468  1.00  0.00     0.167 HD
HETATM    5  C3  UNL     1      -2.134  14.343  -5.441  1.00  0.00     0.143 A 
HETATM    6  C9  UNL     1      -1.590  14.492  -6.732  1.00  0.00     0.121 A 
HETATM    7  S2  UNL     1       0.104  14.551  -6.809  1.00  0.00    -0.072 SA
HETATM    8  C21 UNL     1       0.845  14.418  -5.274  1.00  0.00     0.003 A 
HETATM    9  C22 UNL     1       2.318  14.448  -5.083  1.00  0.00     0.058 C 
ENDROOT
BRANCH   6  10
HETATM   10  N5  UNL     1      -2.390  14.608  -7.739  1.00  0.00    -0.324 N 
ATOM     11  H5  UNL     1      -3.197  15.219  -7.612  1.00  0.00     0.169 HD
BRANCH  10  12
HETATM   12  C10 UNL     1      -2.266  13.985  -8.984  1.00  0.00     0.177 C 
HETATM   13  S1  UNL     1      -0.733  14.165  -9.696  1.00  0.00    -0.040 SA
BRANCH  12  14
HETATM   14  N6  UNL     1      -3.156  13.244  -9.747  1.00  0.00    -0.333 N 
ATOM     15  H6  UNL     1      -3.306  12.286  -9.430  1.00  0.00     0.168 HD
BRANCH  14  16
HETATM   16  C11 UNL     1      -3.890  13.621 -10.903  1.00  0.00     0.034 A 
HETATM   17  C12 UNL     1      -3.594  14.660 -11.721  1.00  0.00     0.029 A 
HETATM   18  C13 UNL     1      -4.352  15.001 -12.850  1.00  0.00     0.003 A 
HETATM   19  C14 UNL     1      -5.456  14.242 -13.143  1.00  0.00     0.008 A 
HETATM   20  C15 UNL     1      -5.804  13.161 -12.332  1.00  0.00    -0.048 A 
HETATM   21  C20 UNL     1      -5.034  12.863 -11.240  1.00  0.00     0.037 A 
BRANCH  20  22
HETATM   22  C16 UNL     1      -7.027  12.382 -12.697  1.00  0.00    -0.024 C 
HETATM   23  C17 UNL     1      -8.287  13.165 -12.422  1.00  0.00     0.019 C 
HETATM   24  C18 UNL     1      -7.092  11.099 -11.878  1.00  0.00     0.019 C 
HETATM   25  C19 UNL     1      -7.014  12.039 -14.179  1.00  0.00     0.019 C 
ENDBRANCH  20  22
ENDBRANCH  14  16
ENDBRANCH  12  14
ENDBRANCH  10  12
ENDBRANCH   6  10
BRANCH   5  26
HETATM   26  N2  UNL     1      -3.408  14.291  -5.442  1.00  0.00    -0.304 N 
HETATM   27  C4  UNL     1      -4.222  13.126  -5.691  1.00  0.00     0.298 C 
HETATM   28  O1  UNL     1      -4.087  12.162  -4.900  1.00  0.00    -0.263 OA
ATOM     29  H2  UNL     1      -3.902  15.162  -5.247  1.00  0.00     0.171 HD
BRANCH  27  30
HETATM   30  C5  UNL     1      -5.129  13.145  -6.816  1.00  0.00     0.214 C 
BRANCH  30  31
HETATM   31  O2  UNL     1      -5.157  14.289  -7.457  1.00  0.00    -0.342 OA
ATOM     32  H2  UNL     1      -4.821  14.242  -8.345  1.00  0.00     0.219 HD
ENDBRANCH  30  31
BRANCH  30  33
HETATM   33  N3  UNL     1      -5.975  12.177  -7.338  1.00  0.00    -0.285 N 
HETATM   34  C6  UNL     1      -5.656  11.011  -8.056  1.00  0.00     0.323 C 
HETATM   35  O3  UNL     1      -4.521  10.640  -8.379  1.00  0.00    -0.247 OA
HETATM   36  N4  UNL     1      -6.750  10.159  -8.464  1.00  0.00    -0.343 N 
HETATM   37  C7  UNL     1      -8.120  10.500  -8.137  1.00  0.00     0.154 C 
HETATM   38  C8  UNL     1      -6.480   8.959  -9.190  1.00  0.00     0.154 C 
ATOM     39  H3  UNL     1      -6.970  12.333  -7.177  1.00  0.00     0.172 HD
ENDBRANCH  30  33
ENDBRANCH  27  30
ENDBRANCH   5  26
TORSDOF 9
ENDMDL
MODEL 5
REMARK VINA RESULT: -8.843169112      2.286      3.311
REMARK  9 active torsions:
REMARK  status: ('A' for Active; 'I' for Inactive)
REMARK    1  A    between atoms: C3_5  and  N2_6 
REMARK       I    between atoms: N2_6  and  C4_8 
REMARK    2  A    between atoms: C4_8  and  C5_10 
REMARK    3  A    between atoms: C5_10  and  O2_11 
REMARK    4  A    between atoms: C5_10  and  N3_13 
REMARK       I    between atoms: N3_13  and  C6_15 
REMARK       I    between atoms: C6_15  and  N4_17 
REMARK    5  A    between atoms: C9_20  and  N5_21 
REMARK    6  A    between atoms: N5_21  and  C10_23 
REMARK    7  A    between atoms: C10_23  and  N6_25 
REMARK    8  A    between atoms: N6_25  and  C11_27 
REMARK    9  A    between atoms: C15_31  and  C16_32 
ROOT
HETATM    1  C1  UNL     1       0.729  17.598  -7.838  1.00  0.00     0.069 C 
HETATM    2  C2  UNL     1      -0.053  16.309  -7.749  1.00  0.00     0.019 A 
HETATM    3  N1  UNL     1      -0.909  16.154  -6.750  1.00  0.00    -0.343 N 
ATOM      4  H1  UNL     1      -0.979  16.938  -6.101  1.00  0.00     0.167 HD
HETATM    5  C3  UNL     1      -1.691  15.110  -6.479  1.00  0.00     0.143 A 
HETATM    6  C9  UNL     1      -1.715  13.948  -7.276  1.00  0.00     0.121 A 
HETATM    7  S2  UNL     1      -0.674  13.959  -8.615  1.00  0.00    -0.072 SA
HETATM    8  C21 UNL     1       0.224  15.408  -8.749  1.00  0.00     0.003 A 
HETATM    9  C22 UNL     1       1.199  15.655  -9.842  1.00  0.00     0.058 C 
ENDROOT
BRANCH   6  10
HETATM   10  N5  UNL     1      -2.530  12.995  -6.968  1.00  0.00    -0.324 N 
ATOM     11  H5  UNL     1      -2.316  12.467  -6.122  1.00  0.00     0.169 HD
BRANCH  10  12
HETATM   12  C10 UNL     1      -3.674  12.611  -7.673  1.00  0.00     0.177 C 
HETATM   13  S1  UNL     1      -5.106  12.690  -6.761  1.00  0.00    -0.040 SA
BRANCH  12  14
HETATM   14  N6  UNL     1      -3.863  12.180  -8.978  1.00  0.00    -0.333 N 
ATOM     15  H6  UNL     1      -3.595  11.212  -9.159  1.00  0.00     0.168 HD
BRANCH  14  16
HETATM   16  C11 UNL     1      -4.373  12.885 -10.100  1.00  0.00     0.034 A 
HETATM   17  C12 UNL     1      -3.894  14.059 -10.578  1.00  0.00     0.029 A 
HETATM   18  C13 UNL     1      -4.435  14.726 -11.686  1.00  0.00     0.003 A 
HETATM   19  C14 UNL     1      -5.510  14.160 -12.322  1.00  0.00     0.008 A 
HETATM   20  C15 UNL     1      -6.042  12.951 -11.869  1.00  0.00    -0.048 A 
HETATM   21  C20 UNL     1      -5.481  12.334 -10.784  1.00  0.00     0.037 A 
BRANCH  20  22
HETATM   22  C16 UNL     1      -7.223  12.394 -12.598  1.00  0.00    -0.024 C 
HETATM   23  C17 UNL     1      -7.624  11.044 -12.054  1.00  0.00     0.019 C 
HETATM   24  C18 UNL     1      -6.889  12.218 -14.074  1.00  0.00     0.019 C 
HETATM   25  C19 UNL     1      -8.420  13.321 -12.454  1.00  0.00     0.019 C 
ENDBRANCH  20  22
ENDBRANCH  14  16
ENDBRANCH  12  14
ENDBRANCH  10  12
ENDBRANCH   6  10
BRANCH   5  26
HETATM   26  N2  UNL     1      -2.481  15.044  -5.480  1.00  0.00    -0.304 N 
HETATM   27  C4  UNL     1      -2.490  15.916  -4.331  1.00  0.00     0.298 C 
HETATM   28  O1  UNL     1      -2.709  17.132  -4.545  1.00  0.00    -0.263 OA
ATOM     29  H2  UNL     1      -3.177  14.298  -5.495  1.00  0.00     0.171 HD
BRANCH  27  30
HETATM   30  C5  UNL     1      -2.255  15.340  -3.025  1.00  0.00     0.214 C 
BRANCH  30  31
HETATM   31  O2  UNL     1      -1.321  15.952  -2.336  1.00  0.00    -0.342 OA
ATOM     32  H2  UNL     1      -0.440  15.790  -2.652  1.00  0.00     0.219 HD
ENDBRANCH  30  31
BRANCH  30  33
HETATM   33  N3  UNL     1      -2.833  14.261  -2.374  1.00  0.00    -0.285 N 
HETATM   34  C6  UNL     1      -2.647  13.816  -1.053  1.00  0.00     0.323 C 
HETATM   35  O3  UNL     1      -1.889  14.317  -0.214  1.00  0.00    -0.247 OA
HETATM   36  N4  UNL     1      -3.405  12.662  -0.626  1.00  0.00    -0.343 N 
HETATM   37  C7  UNL     1      -4.324  11.999  -1.530  1.00  0.00     0.154 C 
HETATM   38  C8  UNL     1      -3.259  12.173   0.708  1.00  0.00     0.154 C 
ATOM     39  H3  UNL     1      -3.487  13.712  -2.932  1.00  0.00     0.172 HD
ENDBRANCH  30  33
ENDBRANCH  27  30
ENDBRANCH   5  26
TORSDOF 9
ENDMDL
