MODEL 1
REMARK VINA RESULT: -9.306932970      0.000      0.000
REMARK  8 active torsions:
REMARK  status: ('A' for Active; 'I' for Inactive)
REMARK    1  A    between atoms: C3_3  and  C4_4 
REMARK    2  A    between atoms: C3_3  and  N7_36 
REMARK    3  A    between atoms: C6_6  and  N1_7 
REMARK       I    between atoms: N1_7  and  C7_9 
REMARK    4  A    between atoms: C7_9  and  C8_11 
REMARK    5  A    between atoms: C12_16  and  N2_17 
REMARK    6  A    between atoms: N2_17  and  C13_19 
REMARK    7  A    between atoms: C13_19  and  O2_23 
REMARK    8  A    between atoms: O2_23  and  C15_24 
REMARK       I    between atoms: N7_36  and  C22_38 
ROOT
HETATM    1  C8  UNL     1      -0.012  15.050  -9.504  1.00  0.00     0.034 A 
HETATM    2  C9  UNL     1      -0.129  15.275  -8.156  1.00  0.00     0.018 A 
HETATM    3  C10 UNL     1      -1.163  14.660  -7.491  1.00  0.00     0.022 A 
HETATM    4  C11 UNL     1      -2.067  13.832  -8.177  1.00  0.00     0.035 A 
HETATM    5  S1  UNL     1      -3.441  12.910  -7.755  1.00  0.00    -0.052 SA
HETATM    6  C12 UNL     1      -3.802  12.287  -9.302  1.00  0.00     0.152 A 
HETATM    7  N4  UNL     1      -2.857  12.811 -10.071  1.00  0.00    -0.335 N 
ATOM      8  H4  UNL     1      -2.824  12.605 -11.070  1.00  0.00     0.168 HD
HETATM    9  C19 UNL     1      -1.968  13.596  -9.522  1.00  0.00     0.052 A 
HETATM   10  C20 UNL     1      -0.894  14.245 -10.160  1.00  0.00     0.048 A 
ENDROOT
BRANCH   1  11
HETATM   11  C7  UNL     1       1.097  15.698 -10.265  1.00  0.00     0.257 C 
HETATM   12  N1  UNL     1       1.000  15.846 -11.662  1.00  0.00    -0.308 N 
ATOM     13  H1  UNL     1       0.942  15.023 -12.262  1.00  0.00     0.170 HD
HETATM   14  O1  UNL     1       2.125  16.119  -9.683  1.00  0.00    -0.267 OA
BRANCH  12  15
HETATM   15  C6  UNL     1       0.986  17.025 -12.178  1.00  0.00     0.124 A 
HETATM   16  C5  UNL     1       1.281  17.395 -13.457  1.00  0.00     0.083 A 
HETATM   17  C4  UNL     1       1.132  18.790 -13.577  1.00  0.00     0.078 A 
HETATM   18  N6  UNL     1       0.753  19.189 -12.354  1.00  0.00    -0.297 N 
HETATM   19  N5  UNL     1       0.669  18.138 -11.531  1.00  0.00    -0.285 N 
ATOM     20  H6  UNL     1       0.557  20.154 -12.089  1.00  0.00     0.187 HD
ATOM     21  H5  UNL     1       0.399  18.186 -10.549  1.00  0.00     0.188 HD
BRANCH  17  22
HETATM   22  C3  UNL     1       1.376  19.547 -14.784  1.00  0.00     0.060 C 
HETATM   23  C2  UNL     1       2.452  20.147 -15.110  1.00  0.00     0.001 C 
HETATM   24  C1  UNL     1       3.703  20.236 -14.378  1.00  0.00     0.038 C 
BRANCH  22  25
HETATM   25  N7  UNL     1       0.265  19.622 -15.725  1.00  0.00    -0.321 N 
HETATM   26  C21 UNL     1      -0.812  20.532 -15.470  1.00  0.00     0.159 C 
HETATM   27  C22 UNL     1       0.256  18.782 -16.867  1.00  0.00     0.220 C 
HETATM   28  C23 UNL     1       1.376  17.844 -17.080  1.00  0.00     0.117 C 
HETATM   29  O3  UNL     1      -0.712  18.867 -17.658  1.00  0.00    -0.274 OA
ENDBRANCH  22  25
ENDBRANCH  17  22
ENDBRANCH  12  15
ENDBRANCH   1  11
BRANCH   6  30
HETATM   30  N2  UNL     1      -4.778  11.480  -9.668  1.00  0.00    -0.302 N 
ATOM     31  H2  UNL     1      -4.679  10.473  -9.534  1.00  0.00     0.171 HD
BRANCH  30  32
HETATM   32  C13 UNL     1      -5.952  11.995 -10.241  1.00  0.00     0.221 C 
HETATM   33  N3  UNL     1      -7.061  11.346 -10.229  1.00  0.00    -0.360 N 
HETATM   34  C14 UNL     1      -7.122  10.040  -9.610  1.00  0.00     0.150 C 
ATOM     35  H3  UNL     1      -7.896  11.751 -10.654  1.00  0.00     0.162 HD
BRANCH  32  36
HETATM   36  O2  UNL     1      -5.921  13.240 -10.838  1.00  0.00    -0.312 OA
BRANCH  36  37
HETATM   37  C15 UNL     1      -5.828  13.448 -12.220  1.00  0.00     0.060 C 
HETATM   38  C16 UNL     1      -7.254  13.465 -12.772  1.00  0.00     0.046 C 
HETATM   39  C17 UNL     1      -5.102  12.332 -12.941  1.00  0.00     0.046 C 
HETATM   40  C18 UNL     1      -5.159  14.779 -12.467  1.00  0.00     0.046 C 
ENDBRANCH  36  37
ENDBRANCH  32  36
ENDBRANCH  30  32
ENDBRANCH   6  30
TORSDOF 8
ENDMDL
MODEL 2
REMARK VINA RESULT: -8.645540708      0.939      2.151
REMARK  8 active torsions:
REMARK  status: ('A' for Active; 'I' for Inactive)
REMARK    1  A    between atoms: C3_3  and  C4_4 
REMARK    2  A    between atoms: C3_3  and  N7_36 
REMARK    3  A    between atoms: C6_6  and  N1_7 
REMARK       I    between atoms: N1_7  and  C7_9 
REMARK    4  A    between atoms: C7_9  and  C8_11 
REMARK    5  A    between atoms: C12_16  and  N2_17 
REMARK    6  A    between atoms: N2_17  and  C13_19 
REMARK    7  A    between atoms: C13_19  and  O2_23 
REMARK    8  A    between atoms: O2_23  and  C15_24 
REMARK       I    between atoms: N7_36  and  C22_38 
ROOT
HETATM    1  C8  UNL     1      -0.116  15.039  -9.863  1.00  0.00     0.034 A 
HETATM    2  C9  UNL     1      -0.212  14.759  -8.524  1.00  0.00     0.018 A 
HETATM    3  C10 UNL     1      -1.244  13.950  -8.112  1.00  0.00     0.022 A 
HETATM    4  C11 UNL     1      -2.166  13.432  -9.036  1.00  0.00     0.035 A 
HETATM    5  S1  UNL     1      -3.543  12.427  -8.956  1.00  0.00    -0.052 SA
HETATM    6  C12 UNL     1      -3.932  12.410 -10.617  1.00  0.00     0.152 A 
HETATM    7  N4  UNL     1      -2.992  13.173 -11.158  1.00  0.00    -0.335 N 
ATOM      8  H4  UNL     1      -2.974  13.344 -12.164  1.00  0.00     0.168 HD
HETATM    9  C19 UNL     1      -2.087  13.701 -10.377  1.00  0.00     0.052 A 
HETATM   10  C20 UNL     1      -1.015  14.532 -10.753  1.00  0.00     0.048 A 
ENDROOT
BRANCH   1  11
HETATM   11  C7  UNL     1       0.989  15.914 -10.355  1.00  0.00     0.257 C 
HETATM   12  N1  UNL     1       1.203  16.069 -11.738  1.00  0.00    -0.308 N 
ATOM     13  H1  UNL     1       1.458  15.264 -12.311  1.00  0.00     0.170 HD
HETATM   14  O1  UNL     1       1.740  16.522  -9.557  1.00  0.00    -0.267 OA
BRANCH  12  15
HETATM   15  C6  UNL     1       1.076  17.231 -12.277  1.00  0.00     0.124 A 
HETATM   16  C5  UNL     1       1.382  17.615 -13.549  1.00  0.00     0.083 A 
HETATM   17  C4  UNL     1       1.079  18.981 -13.701  1.00  0.00     0.078 A 
HETATM   18  N6  UNL     1       0.603  19.350 -12.503  1.00  0.00    -0.297 N 
HETATM   19  N5  UNL     1       0.604  18.309 -11.665  1.00  0.00    -0.285 N 
ATOM     20  H6  UNL     1       0.286  20.290 -12.265  1.00  0.00     0.187 HD
ATOM     21  H5  UNL     1       0.288  18.339 -10.696  1.00  0.00     0.188 HD
BRANCH  17  22
HETATM   22  C3  UNL     1       1.287  19.745 -14.911  1.00  0.00     0.060 C 
HETATM   23  C2  UNL     1       2.347  20.364 -15.256  1.00  0.00     0.001 C 
HETATM   24  C1  UNL     1       3.610  20.473 -14.547  1.00  0.00     0.038 C 
BRANCH  22  25
HETATM   25  N7  UNL     1       0.158  19.803 -15.830  1.00  0.00    -0.321 N 
HETATM   26  C21 UNL     1      -0.848  20.807 -15.645  1.00  0.00     0.159 C 
HETATM   27  C22 UNL     1       0.060  18.856 -16.881  1.00  0.00     0.220 C 
HETATM   28  C23 UNL     1       1.108  17.826 -17.022  1.00  0.00     0.117 C 
HETATM   29  O3  UNL     1      -0.922  18.930 -17.656  1.00  0.00    -0.274 OA
ENDBRANCH  22  25
ENDBRANCH  17  22
ENDBRANCH  12  15
ENDBRANCH   1  11
BRANCH   6  30
HETATM   30  N2  UNL     1      -4.920  11.795 -11.235  1.00  0.00    -0.302 N 
ATOM     31  H2  UNL     1      -4.715  11.091 -11.944  1.00  0.00     0.171 HD
BRANCH  30  32
HETATM   32  C13 UNL     1      -6.255  12.104 -10.925  1.00  0.00     0.221 C 
HETATM   33  N3  UNL     1      -7.010  12.765 -11.729  1.00  0.00    -0.360 N 
HETATM   34  C14 UNL     1      -6.483  13.216 -12.999  1.00  0.00     0.150 C 
ATOM     35  H3  UNL     1      -7.975  12.971 -11.473  1.00  0.00     0.162 HD
BRANCH  32  36
HETATM   36  O2  UNL     1      -6.782  11.685  -9.719  1.00  0.00    -0.312 OA
BRANCH  36  37
HETATM   37  C15 UNL     1      -7.298  10.403  -9.489  1.00  0.00     0.060 C 
HETATM   38  C16 UNL     1      -6.148   9.539  -8.967  1.00  0.00     0.046 C 
HETATM   39  C17 UNL     1      -7.801   9.730 -10.749  1.00  0.00     0.046 C 
HETATM   40  C18 UNL     1      -8.390  10.498  -8.451  1.00  0.00     0.046 C 
ENDBRANCH  36  37
ENDBRANCH  32  36
ENDBRANCH  30  32
ENDBRANCH   6  30
TORSDOF 8
ENDMDL
MODEL 3
REMARK VINA RESULT: -8.501464915      4.749      6.751
REMARK  8 active torsions:
REMARK  status: ('A' for Active; 'I' for Inactive)
REMARK    1  A    between atoms: C3_3  and  C4_4 
REMARK    2  A    between atoms: C3_3  and  N7_36 
REMARK    3  A    between atoms: C6_6  and  N1_7 
REMARK       I    between atoms: N1_7  and  C7_9 
REMARK    4  A    between atoms: C7_9  and  C8_11 
REMARK    5  A    between atoms: C12_16  and  N2_17 
REMARK    6  A    between atoms: N2_17  and  C13_19 
REMARK    7  A    between atoms: C13_19  and  O2_23 
REMARK    8  A    between atoms: O2_23  and  C15_24 
REMARK       I    between atoms: N7_36  and  C22_38 
ROOT
HETATM    1  C8  UNL     1       0.125  14.904  -7.784  1.00  0.00     0.034 A 
HETATM    2  C9  UNL     1       0.517  15.463  -8.973  1.00  0.00     0.018 A 
HETATM    3  C10 UNL     1      -0.159  15.088 -10.110  1.00  0.00     0.022 A 
HETATM    4  C11 UNL     1      -1.214  14.164 -10.048  1.00  0.00     0.035 A 
HETATM    5  S1  UNL     1      -2.280  13.448 -11.173  1.00  0.00    -0.052 SA
HETATM    6  C12 UNL     1      -3.169  12.479 -10.087  1.00  0.00     0.152 A 
HETATM    7  N4  UNL     1      -2.611  12.745  -8.913  1.00  0.00    -0.335 N 
ATOM      8  H4  UNL     1      -2.949  12.296  -8.062  1.00  0.00     0.168 HD
HETATM    9  C19 UNL     1      -1.620  13.595  -8.870  1.00  0.00     0.052 A 
HETATM   10  C20 UNL     1      -0.900  14.008  -7.733  1.00  0.00     0.048 A 
ENDROOT
BRANCH   1  11
HETATM   11  C7  UNL     1       0.832  15.283  -6.524  1.00  0.00     0.257 C 
HETATM   12  N1  UNL     1       1.896  14.492  -6.049  1.00  0.00    -0.308 N 
ATOM     13  H1  UNL     1       1.733  13.523  -5.778  1.00  0.00     0.170 HD
HETATM   14  O1  UNL     1       0.497  16.300  -5.872  1.00  0.00    -0.267 OA
BRANCH  12  15
HETATM   15  C6  UNL     1       3.075  15.000  -5.957  1.00  0.00     0.124 A 
HETATM   16  C5  UNL     1       4.086  14.968  -6.871  1.00  0.00     0.083 A 
HETATM   17  C4  UNL     1       5.199  15.653  -6.347  1.00  0.00     0.078 A 
HETATM   18  N6  UNL     1       4.796  16.063  -5.136  1.00  0.00    -0.297 N 
HETATM   19  N5  UNL     1       3.537  15.673  -4.912  1.00  0.00    -0.285 N 
ATOM     20  H6  UNL     1       5.367  16.596  -4.480  1.00  0.00     0.187 HD
ATOM     21  H5  UNL     1       3.009  15.865  -4.061  1.00  0.00     0.188 HD
BRANCH  17  22
HETATM   22  C3  UNL     1       6.467  15.813  -7.025  1.00  0.00     0.060 C 
HETATM   23  C2  UNL     1       6.768  16.699  -7.890  1.00  0.00     0.001 C 
HETATM   24  C1  UNL     1       5.943  17.768  -8.425  1.00  0.00     0.038 C 
BRANCH  22  25
HETATM   25  N7  UNL     1       7.505  14.854  -6.669  1.00  0.00    -0.321 N 
HETATM   26  C21 UNL     1       8.306  15.086  -5.503  1.00  0.00     0.159 C 
HETATM   27  C22 UNL     1       7.722  13.718  -7.489  1.00  0.00     0.220 C 
HETATM   28  C23 UNL     1       6.888  13.530  -8.693  1.00  0.00     0.117 C 
HETATM   29  O3  UNL     1       8.622  12.911  -7.159  1.00  0.00    -0.274 OA
ENDBRANCH  22  25
ENDBRANCH  17  22
ENDBRANCH  12  15
ENDBRANCH   1  11
BRANCH   6  30
HETATM   30  N2  UNL     1      -4.170  11.657 -10.331  1.00  0.00    -0.302 N 
ATOM     31  H2  UNL     1      -3.980  10.683 -10.571  1.00  0.00     0.171 HD
BRANCH  30  32
HETATM   32  C13 UNL     1      -5.497  12.112 -10.264  1.00  0.00     0.221 C 
HETATM   33  N3  UNL     1      -6.384  11.531  -9.536  1.00  0.00    -0.360 N 
HETATM   34  C14 UNL     1      -6.021  10.369  -8.754  1.00  0.00     0.150 C 
ATOM     35  H3  UNL     1      -7.339  11.888  -9.510  1.00  0.00     0.162 HD
BRANCH  32  36
HETATM   36  O2  UNL     1      -5.870  13.219 -11.001  1.00  0.00    -0.312 OA
BRANCH  36  37
HETATM   37  C15 UNL     1      -6.192  13.185 -12.364  1.00  0.00     0.060 C 
HETATM   38  C16 UNL     1      -7.714  13.295 -12.472  1.00  0.00     0.046 C 
HETATM   39  C17 UNL     1      -5.808  11.882 -13.033  1.00  0.00     0.046 C 
HETATM   40  C18 UNL     1      -5.535  14.360 -13.048  1.00  0.00     0.046 C 
ENDBRANCH  36  37
ENDBRANCH  32  36
ENDBRANCH  30  32
ENDBRANCH   6  30
TORSDOF 8
ENDMDL
MODEL 4
REMARK VINA RESULT: -8.444109229      5.561      9.839
REMARK  8 active torsions:
REMARK  status: ('A' for Active; 'I' for Inactive)
REMARK    1  A    between atoms: C3_3  and  C4_4 
REMARK    2  A    between atoms: C3_3  and  N7_36 
REMARK    3  A    between atoms: C6_6  and  N1_7 
REMARK       I    between atoms: N1_7  and  C7_9 
REMARK    4  A    between atoms: C7_9  and  C8_11 
REMARK    5  A    between atoms: C12_16  and  N2_17 
REMARK    6  A    between atoms: N2_17  and  C13_19 
REMARK    7  A    between atoms: C13_19  and  O2_23 
REMARK    8  A    between atoms: O2_23  and  C15_24 
REMARK       I    between atoms: N7_36  and  C22_38 
ROOT
HETATM    1  C8  UNL     1      -1.204  13.247  -7.654  1.00  0.00     0.034 A 
HETATM    2  C9  UNL     1      -0.528  14.069  -8.520  1.00  0.00     0.018 A 
HETATM    3  C10 UNL     1      -1.013  14.187  -9.801  1.00  0.00     0.022 A 
HETATM    4  C11 UNL     1      -2.161  13.485 -10.203  1.00  0.00     0.035 A 
HETATM    5  S1  UNL     1      -3.068  13.348 -11.642  1.00  0.00    -0.052 SA
HETATM    6  C12 UNL     1      -4.256  12.258 -11.082  1.00  0.00     0.152 A 
HETATM    7  N4  UNL     1      -3.906  12.049  -9.820  1.00  0.00    -0.335 N 
ATOM      8  H4  UNL     1      -4.450  11.423  -9.225  1.00  0.00     0.168 HD
HETATM    9  C19 UNL     1      -2.848  12.659  -9.353  1.00  0.00     0.052 A 
HETATM   10  C20 UNL     1      -2.316  12.570  -8.053  1.00  0.00     0.048 A 
ENDROOT
BRANCH   1  11
HETATM   11  C7  UNL     1      -0.711  13.090  -6.254  1.00  0.00     0.257 C 
HETATM   12  N1  UNL     1      -0.713  14.193  -5.378  1.00  0.00    -0.308 N 
ATOM     13  H1  UNL     1      -0.145  15.014  -5.587  1.00  0.00     0.170 HD
HETATM   14  O1  UNL     1      -0.292  11.986  -5.833  1.00  0.00    -0.267 OA
BRANCH  12  15
HETATM   15  C6  UNL     1      -1.435  14.160  -4.313  1.00  0.00     0.124 A 
HETATM   16  C5  UNL     1      -1.126  14.611  -3.065  1.00  0.00     0.083 A 
HETATM   17  C4  UNL     1      -2.217  14.370  -2.207  1.00  0.00     0.078 A 
HETATM   18  N6  UNL     1      -3.131  13.782  -2.991  1.00  0.00    -0.297 N 
HETATM   19  N5  UNL     1      -2.661  13.661  -4.237  1.00  0.00    -0.285 N 
ATOM     20  H6  UNL     1      -4.052  13.471  -2.683  1.00  0.00     0.187 HD
ATOM     21  H5  UNL     1      -3.172  13.245  -5.016  1.00  0.00     0.188 HD
BRANCH  17  22
HETATM   22  C3  UNL     1      -2.250  14.697  -0.799  1.00  0.00     0.060 C 
HETATM   23  C2  UNL     1      -2.319  15.861  -0.282  1.00  0.00     0.001 C 
HETATM   24  C1  UNL     1      -2.381  17.151  -0.947  1.00  0.00     0.038 C 
BRANCH  22  25
HETATM   25  N7  UNL     1      -2.204  13.567   0.120  1.00  0.00    -0.321 N 
HETATM   26  C21 UNL     1      -3.417  12.877   0.447  1.00  0.00     0.159 C 
HETATM   27  C22 UNL     1      -0.966  13.177   0.690  1.00  0.00     0.220 C 
HETATM   28  C23 UNL     1       0.256  13.929   0.341  1.00  0.00     0.117 C 
HETATM   29  O3  UNL     1      -0.956  12.201   1.477  1.00  0.00    -0.274 OA
ENDBRANCH  22  25
ENDBRANCH  17  22
ENDBRANCH  12  15
ENDBRANCH   1  11
BRANCH   6  30
HETATM   30  N2  UNL     1      -5.280  11.738 -11.727  1.00  0.00    -0.302 N 
ATOM     31  H2  UNL     1      -5.123  11.212 -12.587  1.00  0.00     0.171 HD
BRANCH  30  32
HETATM   32  C13 UNL     1      -6.587  11.903 -11.240  1.00  0.00     0.221 C 
HETATM   33  N3  UNL     1      -7.531  12.392 -11.963  1.00  0.00    -0.360 N 
HETATM   34  C14 UNL     1      -7.256  12.793 -13.326  1.00  0.00     0.150 C 
ATOM     35  H3  UNL     1      -8.470  12.497 -11.578  1.00  0.00     0.162 HD
BRANCH  32  36
HETATM   36  O2  UNL     1      -6.877  11.528  -9.942  1.00  0.00    -0.312 OA
BRANCH  36  37
HETATM   37  C15 UNL     1      -7.334  10.257  -9.574  1.00  0.00     0.060 C 
HETATM   38  C16 UNL     1      -6.131   9.482  -9.034  1.00  0.00     0.046 C 
HETATM   39  C17 UNL     1      -7.869   9.456 -10.743  1.00  0.00     0.046 C 
HETATM   40  C18 UNL     1      -8.381  10.410  -8.497  1.00  0.00     0.046 C 
ENDBRANCH  36  37
ENDBRANCH  32  36
ENDBRANCH  30  32
ENDBRANCH   6  30
TORSDOF 8
ENDMDL
MODEL 5
REMARK VINA RESULT: -8.330911587      1.591      2.092
REMARK  8 active torsions:
REMARK  status: ('A' for Active; 'I' for Inactive)
REMARK    1  A    between atoms: C3_3  and  C4_4 
REMARK    2  A    between atoms: C3_3  and  N7_36 
REMARK    3  A    between atoms: C6_6  and  N1_7 
REMARK       I    between atoms: N1_7  and  C7_9 
REMARK    4  A    between atoms: C7_9  and  C8_11 
REMARK    5  A    between atoms: C12_16  and  N2_17 
REMARK    6  A    between atoms: N2_17  and  C13_19 
REMARK    7  A    between atoms: C13_19  and  O2_23 
REMARK    8  A    between atoms: O2_23  and  C15_24 
REMARK       I    between atoms: N7_36  and  C22_38 
ROOT
HETATM    1  C8  UNL     1       0.710  16.229  -8.954  1.00  0.00     0.034 A 
HETATM    2  C9  UNL     1       0.536  16.932  -7.790  1.00  0.00     0.018 A 
HETATM    3  C10 UNL     1      -0.313  16.407  -6.845  1.00  0.00     0.022 A 
HETATM    4  C11 UNL     1      -0.978  15.191  -7.072  1.00  0.00     0.035 A 
HETATM    5  S1  UNL     1      -2.078  14.219  -6.201  1.00  0.00    -0.052 SA
HETATM    6  C12 UNL     1      -2.266  12.971  -7.351  1.00  0.00     0.152 A 
HETATM    7  N4  UNL     1      -1.480  13.354  -8.348  1.00  0.00    -0.335 N 
ATOM      8  H4  UNL     1      -1.393  12.786  -9.191  1.00  0.00     0.168 HD
HETATM    9  C19 UNL     1      -0.818  14.475  -8.229  1.00  0.00     0.052 A 
HETATM   10  C20 UNL     1       0.060  15.050  -9.166  1.00  0.00     0.048 A 
ENDROOT
BRANCH   1  11
HETATM   11  C7  UNL     1       1.623  16.763 -10.008  1.00  0.00     0.257 C 
HETATM   12  N1  UNL     1       1.261  16.674 -11.366  1.00  0.00    -0.308 N 
ATOM     13  H1  UNL     1       1.134  15.762 -11.804  1.00  0.00     0.170 HD
HETATM   14  O1  UNL     1       2.718  17.296  -9.709  1.00  0.00    -0.267 OA
BRANCH  12  15
HETATM   15  C6  UNL     1       1.090  17.750 -12.052  1.00  0.00     0.124 A 
HETATM   16  C5  UNL     1       1.391  17.977 -13.362  1.00  0.00     0.083 A 
HETATM   17  C4  UNL     1       1.033  19.298 -13.692  1.00  0.00     0.078 A 
HETATM   18  N6  UNL     1       0.532  19.799 -12.554  1.00  0.00    -0.297 N 
HETATM   19  N5  UNL     1       0.569  18.877 -11.587  1.00  0.00    -0.285 N 
ATOM     20  H6  UNL     1       0.174  20.748 -12.441  1.00  0.00     0.187 HD
ATOM     21  H5  UNL     1       0.244  19.019 -10.631  1.00  0.00     0.188 HD
BRANCH  17  22
HETATM   22  C3  UNL     1       1.219  19.906 -14.991  1.00  0.00     0.060 C 
HETATM   23  C2  UNL     1       2.277  20.460 -15.435  1.00  0.00     0.001 C 
HETATM   24  C1  UNL     1       3.560  20.634 -14.776  1.00  0.00     0.038 C 
BRANCH  22  25
HETATM   25  N7  UNL     1       0.066  19.870 -15.882  1.00  0.00    -0.321 N 
HETATM   26  C21 UNL     1      -0.995  20.815 -15.697  1.00  0.00     0.159 C 
HETATM   27  C22 UNL     1       0.002  18.892 -16.906  1.00  0.00     0.220 C 
HETATM   28  C23 UNL     1       1.108  17.924 -17.048  1.00  0.00     0.117 C 
HETATM   29  O3  UNL     1      -1.002  18.885 -17.658  1.00  0.00    -0.274 OA
ENDBRANCH  22  25
ENDBRANCH  17  22
ENDBRANCH  12  15
ENDBRANCH   1  11
BRANCH   6  30
HETATM   30  N2  UNL     1      -3.007  11.883  -7.285  1.00  0.00    -0.302 N 
ATOM     31  H2  UNL     1      -2.701  11.096  -6.712  1.00  0.00     0.171 HD
BRANCH  30  32
HETATM   32  C13 UNL     1      -4.213  11.799  -7.999  1.00  0.00     0.221 C 
HETATM   33  N3  UNL     1      -5.357  11.944  -7.430  1.00  0.00    -0.360 N 
HETATM   34  C14 UNL     1      -5.423  12.202  -6.008  1.00  0.00     0.150 C 
ATOM     35  H3  UNL     1      -6.214  11.877  -7.979  1.00  0.00     0.162 HD
BRANCH  32  36
HETATM   36  O2  UNL     1      -4.178  11.554  -9.358  1.00  0.00    -0.312 OA
BRANCH  36  37
HETATM   37  C15 UNL     1      -4.545  12.487 -10.335  1.00  0.00     0.060 C 
HETATM   38  C16 UNL     1      -3.415  12.531 -11.366  1.00  0.00     0.046 C 
HETATM   39  C17 UNL     1      -4.684  13.893  -9.792  1.00  0.00     0.046 C 
HETATM   40  C18 UNL     1      -5.827  12.029 -10.989  1.00  0.00     0.046 C 
ENDBRANCH  36  37
ENDBRANCH  32  36
ENDBRANCH  30  32
ENDBRANCH   6  30
TORSDOF 8
ENDMDL
