MODEL 1
REMARK VINA RESULT: -5.266678469      0.000      0.000
REMARK  2 active torsions:
REMARK  status: ('A' for Active; 'I' for Inactive)
REMARK    1  A    between atoms: C3_4  and  C4_5 
REMARK    2  A    between atoms: C4_5  and  N2_6 
ROOT
HETATM    1  N1  UNL     1      -9.285  -5.051  43.046  1.00  0.00    -0.191 NA
HETATM    2  C1  UNL     1     -10.220  -5.405  42.429  1.00  0.00     0.107 C 
HETATM    3  C2  UNL     1     -11.373  -5.830  41.689  1.00  0.00     0.136 A 
HETATM    4  C3  UNL     1     -12.388  -4.919  41.435  1.00  0.00     0.063 A 
HETATM    5  N3  UNL     1     -13.449  -5.357  40.740  1.00  0.00    -0.331 N 
ATOM      6  H3  UNL     1     -14.215  -4.714  40.535  1.00  0.00     0.168 HD
HETATM    7  C5  UNL     1     -13.522  -6.628  40.310  1.00  0.00     0.195 A 
HETATM    8  N4  UNL     1     -14.661  -7.099  39.564  1.00  0.00    -0.063 NA
HETATM    9  N5  UNL     1     -12.552  -7.531  40.542  1.00  0.00    -0.296 N 
ATOM     10  H5  UNL     1     -12.633  -8.490  40.204  1.00  0.00     0.171 HD
HETATM   11  C6  UNL     1     -11.471  -7.125  41.238  1.00  0.00     0.270 A 
HETATM   12  O1  UNL     1     -10.546  -7.977  41.463  1.00  0.00    -0.266 OA
ENDROOT
BRANCH   4  13
HETATM   13  C4  UNL     1     -12.273  -3.524  41.927  1.00  0.00     0.288 C 
BRANCH  13  14
HETATM   14  N2  UNL     1     -12.035  -2.681  40.779  1.00  0.00    -0.074 N 
ATOM     15  H23 UNL     1     -11.533  -3.159  40.031  1.00  0.00     0.274 HD
ATOM     16  H22 UNL     1     -12.885  -2.472  40.255  1.00  0.00     0.274 HD
ATOM     17  H21 UNL     1     -11.555  -1.844  41.110  1.00  0.00     0.274 HD
ENDBRANCH  13  14
ENDBRANCH   4  13
TORSDOF 2
ENDMDL
MODEL 2
REMARK VINA RESULT: -5.205258075      1.592      1.806
REMARK  2 active torsions:
REMARK  status: ('A' for Active; 'I' for Inactive)
REMARK    1  A    between atoms: C3_4  and  C4_5 
REMARK    2  A    between atoms: C4_5  and  N2_6 
ROOT
HETATM    1  N1  UNL     1     -10.250  -2.433  42.708  1.00  0.00    -0.191 NA
HETATM    2  C1  UNL     1     -10.724  -3.421  42.284  1.00  0.00     0.107 C 
HETATM    3  C2  UNL     1     -11.319  -4.622  41.775  1.00  0.00     0.136 A 
HETATM    4  C3  UNL     1     -12.515  -4.542  41.076  1.00  0.00     0.063 A 
HETATM    5  N3  UNL     1     -13.039  -5.689  40.617  1.00  0.00    -0.331 N 
ATOM      6  H3  UNL     1     -13.917  -5.667  40.098  1.00  0.00     0.168 HD
HETATM    7  C5  UNL     1     -12.426  -6.866  40.828  1.00  0.00     0.195 A 
HETATM    8  N4  UNL     1     -12.987  -8.098  40.336  1.00  0.00    -0.063 NA
HETATM    9  N5  UNL     1     -11.267  -6.972  41.502  1.00  0.00    -0.296 N 
ATOM     10  H5  UNL     1     -10.823  -7.879  41.649  1.00  0.00     0.171 HD
HETATM   11  C6  UNL     1     -10.712  -5.839  41.978  1.00  0.00     0.270 A 
HETATM   12  O1  UNL     1      -9.611  -5.932  42.619  1.00  0.00    -0.266 OA
ENDROOT
BRANCH   4  13
HETATM   13  C4  UNL     1     -13.162  -3.224  40.862  1.00  0.00     0.288 C 
BRANCH  13  14
HETATM   14  N2  UNL     1     -13.815  -3.268  39.575  1.00  0.00    -0.074 N 
ATOM     15  H23 UNL     1     -13.829  -2.363  39.105  1.00  0.00     0.274 HD
ATOM     16  H22 UNL     1     -13.276  -3.774  38.873  1.00  0.00     0.274 HD
ATOM     17  H21 UNL     1     -14.747  -3.656  39.719  1.00  0.00     0.274 HD
ENDBRANCH  13  14
ENDBRANCH   4  13
TORSDOF 2
ENDMDL
MODEL 3
REMARK VINA RESULT: -5.075356318      1.456      3.612
REMARK  2 active torsions:
REMARK  status: ('A' for Active; 'I' for Inactive)
REMARK    1  A    between atoms: C3_4  and  C4_5 
REMARK    2  A    between atoms: C4_5  and  N2_6 
ROOT
HETATM    1  N1  UNL     1     -12.831  -7.911  40.470  1.00  0.00    -0.191 NA
HETATM    2  C1  UNL     1     -12.375  -6.894  40.844  1.00  0.00     0.107 C 
HETATM    3  C2  UNL     1     -11.820  -5.647  41.283  1.00  0.00     0.136 A 
HETATM    4  C3  UNL     1     -12.492  -4.467  40.994  1.00  0.00     0.063 A 
HETATM    5  N3  UNL     1     -11.939  -3.322  41.423  1.00  0.00    -0.331 N 
ATOM      6  H3  UNL     1     -12.406  -2.436  41.229  1.00  0.00     0.168 HD
HETATM    7  C5  UNL     1     -10.780  -3.322  42.104  1.00  0.00     0.195 A 
HETATM    8  N4  UNL     1     -10.186  -2.093  42.564  1.00  0.00    -0.063 NA
HETATM    9  N5  UNL     1     -10.108  -4.450  42.397  1.00  0.00    -0.296 N 
ATOM     10  H5  UNL     1      -9.231  -4.422  42.915  1.00  0.00     0.171 HD
HETATM   11  C6  UNL     1     -10.636  -5.620  41.982  1.00  0.00     0.270 A 
HETATM   12  O1  UNL     1     -10.004  -6.696  42.257  1.00  0.00    -0.266 OA
ENDROOT
BRANCH   4  13
HETATM   13  C4  UNL     1     -13.769  -4.507  40.240  1.00  0.00     0.288 C 
BRANCH  13  14
HETATM   14  N2  UNL     1     -13.882  -3.261  39.519  1.00  0.00    -0.074 N 
ATOM     15  H23 UNL     1     -13.547  -2.460  40.053  1.00  0.00     0.274 HD
ATOM     16  H22 UNL     1     -13.223  -3.189  38.743  1.00  0.00     0.274 HD
ATOM     17  H21 UNL     1     -14.855  -3.166  39.226  1.00  0.00     0.274 HD
ENDBRANCH  13  14
ENDBRANCH   4  13
TORSDOF 2
ENDMDL
MODEL 4
REMARK VINA RESULT: -4.998038292      1.446      3.508
REMARK  2 active torsions:
REMARK  status: ('A' for Active; 'I' for Inactive)
REMARK    1  A    between atoms: C3_4  and  C4_5 
REMARK    2  A    between atoms: C4_5  and  N2_6 
ROOT
HETATM    1  N1  UNL     1     -15.594  -6.018  39.505  1.00  0.00    -0.191 NA
HETATM    2  C1  UNL     1     -14.554  -6.023  40.052  1.00  0.00     0.107 C 
HETATM    3  C2  UNL     1     -13.279  -6.013  40.709  1.00  0.00     0.136 A 
HETATM    4  C3  UNL     1     -12.827  -4.838  41.293  1.00  0.00     0.063 A 
HETATM    5  N3  UNL     1     -11.629  -4.872  41.898  1.00  0.00    -0.331 N 
ATOM      6  H3  UNL     1     -11.266  -4.027  42.338  1.00  0.00     0.168 HD
HETATM    7  C5  UNL     1     -10.900  -6.001  41.933  1.00  0.00     0.195 A 
HETATM    8  N4  UNL     1      -9.615  -6.038  42.582  1.00  0.00    -0.063 NA
HETATM    9  N5  UNL     1     -11.315  -7.153  41.375  1.00  0.00    -0.296 N 
ATOM     10  H5  UNL     1     -10.741  -7.995  41.417  1.00  0.00     0.171 HD
HETATM   11  C6  UNL     1     -12.514  -7.155  40.760  1.00  0.00     0.270 A 
HETATM   12  O1  UNL     1     -12.915  -8.245  40.227  1.00  0.00    -0.266 OA
ENDROOT
BRANCH   4  13
HETATM   13  C4  UNL     1     -13.659  -3.612  41.233  1.00  0.00     0.288 C 
BRANCH  13  14
HETATM   14  N2  UNL     1     -12.946  -2.645  40.433  1.00  0.00    -0.074 N 
ATOM     15  H23 UNL     1     -13.166  -1.681  40.683  1.00  0.00     0.274 HD
ATOM     16  H22 UNL     1     -11.948  -2.612  40.645  1.00  0.00     0.274 HD
ATOM     17  H21 UNL     1     -13.138  -2.857  39.454  1.00  0.00     0.274 HD
ENDBRANCH  13  14
ENDBRANCH   4  13
TORSDOF 2
ENDMDL
MODEL 5
REMARK VINA RESULT: -4.932326601      2.115      4.441
REMARK  2 active torsions:
REMARK  status: ('A' for Active; 'I' for Inactive)
REMARK    1  A    between atoms: C3_4  and  C4_5 
REMARK    2  A    between atoms: C4_5  and  N2_6 
ROOT
HETATM    1  N1  UNL     1     -13.717  -7.410  40.408  1.00  0.00    -0.191 NA
HETATM    2  C1  UNL     1     -13.058  -6.460  40.620  1.00  0.00     0.107 C 
HETATM    3  C2  UNL     1     -12.253  -5.307  40.897  1.00  0.00     0.136 A 
HETATM    4  C3  UNL     1     -11.054  -5.465  41.579  1.00  0.00     0.063 A 
HETATM    5  N3  UNL     1     -10.331  -4.360  41.819  1.00  0.00    -0.331 N 
ATOM      6  H3  UNL     1      -9.444  -4.440  42.317  1.00  0.00     0.168 HD
HETATM    7  C5  UNL     1     -10.755  -3.151  41.414  1.00  0.00     0.195 A 
HETATM    8  N4  UNL     1      -9.979  -1.965  41.671  1.00  0.00    -0.063 NA
HETATM    9  N5  UNL     1     -11.912  -2.969  40.752  1.00  0.00    -0.296 N 
ATOM     10  H5  UNL     1     -12.210  -2.040  40.457  1.00  0.00     0.171 HD
HETATM   11  C6  UNL     1     -12.664  -4.058  40.494  1.00  0.00     0.270 A 
HETATM   12  O1  UNL     1     -13.764  -3.894  39.865  1.00  0.00    -0.266 OA
ENDROOT
BRANCH   4  13
HETATM   13  C4  UNL     1     -10.620  -6.816  42.010  1.00  0.00     0.288 C 
BRANCH  13  14
HETATM   14  N2  UNL     1      -9.907  -7.413  40.906  1.00  0.00    -0.074 N 
ATOM     15  H23 UNL     1     -10.196  -7.044  40.000  1.00  0.00     0.274 HD
ATOM     16  H22 UNL     1      -8.929  -7.126  40.861  1.00  0.00     0.274 HD
ATOM     17  H21 UNL     1     -10.023  -8.424  40.979  1.00  0.00     0.274 HD
ENDBRANCH  13  14
ENDBRANCH   4  13
TORSDOF 2
ENDMDL
