MODEL 1
REMARK VINA RESULT: -5.191339641      0.000      0.000
REMARK  2 active torsions:
REMARK  status: ('A' for Active; 'I' for Inactive)
REMARK    1  A    between atoms: N1_1  and  C1_4 
REMARK    2  A    between atoms: C3_10  and  N4_11 
ROOT
HETATM    1  C1  UNL     1     -10.335  -5.182  41.234  1.00  0.00     0.691 A 
HETATM    2  N2  UNL     1      -9.790  -6.389  41.484  1.00  0.00    -0.187 N 
ATOM      3  H2  UNL     1      -8.801  -6.467  41.723  1.00  0.00     0.185 HD
HETATM    4  C2  UNL     1     -10.565  -7.499  41.418  1.00  0.00     0.215 A 
HETATM    5  N3  UNL     1     -11.873  -7.386  41.103  1.00  0.00    -0.187 N 
ATOM      6  H3  UNL     1     -12.449  -8.227  41.056  1.00  0.00     0.185 HD
HETATM    7  C3  UNL     1     -12.438  -6.188  40.848  1.00  0.00     0.695 A 
HETATM    8  N6  UNL     1     -11.643  -5.106  40.922  1.00  0.00    -0.022 N 
ATOM      9  H6  UNL     1     -12.047  -4.189  40.733  1.00  0.00     0.203 HD
ENDROOT
BRANCH   7  10
HETATM   10  N4  UNL     1     -13.810  -6.075  40.518  1.00  0.00    -0.214 N 
HETATM   11  C4  UNL     1     -14.430  -7.098  39.752  1.00  0.00     0.160 C 
HETATM   12  C5  UNL     1     -15.862  -6.918  39.444  1.00  0.00     0.134 C 
HETATM   13  N5  UNL     1     -16.543  -5.875  40.130  1.00  0.00    -0.418 N 
HETATM   14  C6  UNL     1     -15.941  -5.422  41.342  1.00  0.00     0.134 C 
ATOM     15  H5  UNL     1     -17.413  -5.475  39.777  1.00  0.00     0.153 HD
HETATM   16  C7  UNL     1     -14.539  -4.918  40.974  1.00  0.00     0.160 C 
ENDBRANCH   7  10
BRANCH   1  17
HETATM   17  N1  UNL     1      -9.578  -4.127  41.301  1.00  0.00    -0.234 N 
ATOM     18  H12 UNL     1      -8.747  -4.092  41.891  1.00  0.00     0.174 HD
ATOM     19  H11 UNL     1      -9.825  -3.308  40.744  1.00  0.00     0.174 HD
ENDBRANCH   1  17
TORSDOF 2
ENDMDL
MODEL 2
REMARK VINA RESULT: -5.138382621      0.441      1.407
REMARK  2 active torsions:
REMARK  status: ('A' for Active; 'I' for Inactive)
REMARK    1  A    between atoms: N1_1  and  C1_4 
REMARK    2  A    between atoms: C3_10  and  N4_11 
ROOT
HETATM    1  C1  UNL     1     -10.311  -5.158  41.255  1.00  0.00     0.691 A 
HETATM    2  N2  UNL     1      -9.779  -6.374  41.490  1.00  0.00    -0.187 N 
ATOM      3  H2  UNL     1      -8.791  -6.466  41.727  1.00  0.00     0.185 HD
HETATM    4  C2  UNL     1     -10.566  -7.475  41.411  1.00  0.00     0.215 A 
HETATM    5  N3  UNL     1     -11.874  -7.343  41.097  1.00  0.00    -0.187 N 
ATOM      6  H3  UNL     1     -12.458  -8.178  41.041  1.00  0.00     0.185 HD
HETATM    7  C3  UNL     1     -12.426  -6.137  40.858  1.00  0.00     0.695 A 
HETATM    8  N6  UNL     1     -11.618  -5.064  40.945  1.00  0.00    -0.022 N 
ATOM      9  H6  UNL     1     -12.013  -4.140  40.768  1.00  0.00     0.203 HD
ENDROOT
BRANCH   7  10
HETATM   10  N4  UNL     1     -13.796  -6.005  40.531  1.00  0.00    -0.214 N 
HETATM   11  C4  UNL     1     -14.435  -4.747  40.696  1.00  0.00     0.160 C 
HETATM   12  C5  UNL     1     -15.865  -4.678  40.335  1.00  0.00     0.134 C 
HETATM   13  N5  UNL     1     -16.409  -5.793  39.641  1.00  0.00    -0.418 N 
HETATM   14  C6  UNL     1     -15.472  -6.633  38.967  1.00  0.00     0.134 C 
ATOM     15  H5  UNL     1     -17.411  -5.982  39.625  1.00  0.00     0.153 HD
HETATM   16  C7  UNL     1     -14.505  -7.158  40.036  1.00  0.00     0.160 C 
ENDBRANCH   7  10
BRANCH   1  17
HETATM   17  N1  UNL     1      -9.543  -4.113  41.335  1.00  0.00    -0.234 N 
ATOM     18  H12 UNL     1      -9.343  -3.523  40.526  1.00  0.00     0.174 HD
ATOM     19  H11 UNL     1      -9.126  -3.876  42.235  1.00  0.00     0.174 HD
ENDBRANCH   1  17
TORSDOF 2
ENDMDL
MODEL 3
REMARK VINA RESULT: -4.903005672      1.779      4.829
REMARK  2 active torsions:
REMARK  status: ('A' for Active; 'I' for Inactive)
REMARK    1  A    between atoms: N1_1  and  C1_4 
REMARK    2  A    between atoms: C3_10  and  N4_11 
ROOT
HETATM    1  C1  UNL     1     -14.631  -3.406  39.338  1.00  0.00     0.691 A 
HETATM    2  N2  UNL     1     -15.746  -4.149  39.485  1.00  0.00    -0.187 N 
ATOM      3  H2  UNL     1     -16.624  -3.845  39.065  1.00  0.00     0.185 HD
HETATM    4  C2  UNL     1     -15.691  -5.303  40.193  1.00  0.00     0.215 A 
HETATM    5  N3  UNL     1     -14.523  -5.697  40.745  1.00  0.00    -0.187 N 
ATOM      6  H3  UNL     1     -14.492  -6.568  41.277  1.00  0.00     0.185 HD
HETATM    7  C3  UNL     1     -13.396  -4.969  40.612  1.00  0.00     0.695 A 
HETATM    8  N6  UNL     1     -13.483  -3.829  39.902  1.00  0.00    -0.022 N 
ATOM      9  H6  UNL     1     -12.644  -3.260  39.787  1.00  0.00     0.203 HD
ENDROOT
BRANCH   7  10
HETATM   10  N4  UNL     1     -12.175  -5.387  41.192  1.00  0.00    -0.214 N 
HETATM   11  C4  UNL     1     -11.754  -6.734  41.037  1.00  0.00     0.160 C 
HETATM   12  C5  UNL     1     -10.471  -7.103  41.666  1.00  0.00     0.134 C 
HETATM   13  N5  UNL     1      -9.665  -6.040  42.159  1.00  0.00    -0.418 N 
HETATM   14  C6  UNL     1      -9.925  -4.748  41.612  1.00  0.00     0.134 C 
ATOM     15  H5  UNL     1      -8.943  -6.193  42.864  1.00  0.00     0.153 HD
HETATM   16  C7  UNL     1     -11.391  -4.425  41.926  1.00  0.00     0.160 C 
ENDBRANCH   7  10
BRANCH   1  17
HETATM   17  N1  UNL     1     -14.699  -2.301  38.656  1.00  0.00    -0.234 N 
ATOM     18  H12 UNL     1     -13.888  -1.698  38.518  1.00  0.00     0.174 HD
ATOM     19  H11 UNL     1     -15.593  -2.030  38.247  1.00  0.00     0.174 HD
ENDBRANCH   1  17
TORSDOF 2
ENDMDL
MODEL 4
REMARK VINA RESULT: -4.824808892      1.210      5.132
REMARK  2 active torsions:
REMARK  status: ('A' for Active; 'I' for Inactive)
REMARK    1  A    between atoms: N1_1  and  C1_4 
REMARK    2  A    between atoms: C3_10  and  N4_11 
ROOT
HETATM    1  C1  UNL     1     -15.856  -6.335  40.103  1.00  0.00     0.691 A 
HETATM    2  N2  UNL     1     -16.197  -5.091  39.712  1.00  0.00    -0.187 N 
ATOM      3  H2  UNL     1     -17.138  -4.901  39.368  1.00  0.00     0.185 HD
HETATM    4  C2  UNL     1     -15.282  -4.094  39.781  1.00  0.00     0.215 A 
HETATM    5  N3  UNL     1     -14.038  -4.355  40.240  1.00  0.00    -0.187 N 
ATOM      6  H3  UNL     1     -13.356  -3.597  40.289  1.00  0.00     0.185 HD
HETATM    7  C3  UNL     1     -13.676  -5.592  40.636  1.00  0.00     0.695 A 
HETATM    8  N6  UNL     1     -14.607  -6.559  40.555  1.00  0.00    -0.022 N 
ATOM      9  H6  UNL     1     -14.356  -7.504  40.849  1.00  0.00     0.203 HD
ENDROOT
BRANCH   7  10
HETATM   10  N4  UNL     1     -12.372  -5.860  41.116  1.00  0.00    -0.214 N 
HETATM   11  C4  UNL     1     -11.833  -7.167  40.980  1.00  0.00     0.160 C 
HETATM   12  C5  UNL     1     -10.468  -7.377  41.501  1.00  0.00     0.134 C 
HETATM   13  N5  UNL     1      -9.733  -6.219  41.872  1.00  0.00    -0.418 N 
HETATM   14  C6  UNL     1     -10.169  -4.987  41.297  1.00  0.00     0.134 C 
ATOM     15  H5  UNL     1      -8.940  -6.265  42.512  1.00  0.00     0.153 HD
HETATM   16  C7  UNL     1     -11.627  -4.791  41.732  1.00  0.00     0.160 C 
ENDBRANCH   7  10
BRANCH   1  17
HETATM   17  N1  UNL     1     -16.745  -7.281  40.031  1.00  0.00    -0.234 N 
ATOM     18  H12 UNL     1     -17.745  -7.084  40.011  1.00  0.00     0.174 HD
ATOM     19  H11 UNL     1     -16.429  -8.250  39.993  1.00  0.00     0.174 HD
ENDBRANCH   1  17
TORSDOF 2
ENDMDL
MODEL 5
REMARK VINA RESULT: -4.766511836      2.411      4.741
REMARK  2 active torsions:
REMARK  status: ('A' for Active; 'I' for Inactive)
REMARK    1  A    between atoms: N1_1  and  C1_4 
REMARK    2  A    between atoms: C3_10  and  N4_11 
ROOT
HETATM    1  C1  UNL     1     -12.528  -6.560  40.850  1.00  0.00     0.691 A 
HETATM    2  N2  UNL     1     -11.574  -7.485  41.076  1.00  0.00    -0.187 N 
ATOM      3  H2  UNL     1     -11.712  -8.449  40.775  1.00  0.00     0.185 HD
HETATM    4  C2  UNL     1     -10.429  -7.124  41.705  1.00  0.00     0.215 A 
HETATM    5  N3  UNL     1     -10.255  -5.843  42.099  1.00  0.00    -0.187 N 
ATOM      6  H3  UNL     1      -9.389  -5.581  42.571  1.00  0.00     0.185 HD
HETATM    7  C3  UNL     1     -11.197  -4.903  41.883  1.00  0.00     0.695 A 
HETATM    8  N6  UNL     1     -12.322  -5.293  41.257  1.00  0.00    -0.022 N 
ATOM      9  H6  UNL     1     -13.049  -4.600  41.082  1.00  0.00     0.203 HD
ENDROOT
BRANCH   7  10
HETATM   10  N4  UNL     1     -11.009  -3.563  42.298  1.00  0.00    -0.214 N 
HETATM   11  C4  UNL     1     -10.354  -2.649  41.430  1.00  0.00     0.160 C 
HETATM   12  C5  UNL     1     -10.192  -1.268  41.923  1.00  0.00     0.134 C 
HETATM   13  N5  UNL     1     -10.904  -0.916  43.102  1.00  0.00    -0.418 N 
HETATM   14  C6  UNL     1     -12.027  -1.736  43.427  1.00  0.00     0.134 C 
ATOM     15  H5  UNL     1     -10.629  -0.124  43.683  1.00  0.00     0.153 HD
HETATM   16  C7  UNL     1     -11.493  -3.164  43.596  1.00  0.00     0.160 C 
ENDBRANCH   7  10
BRANCH   1  17
HETATM   17  N1  UNL     1     -13.621  -6.923  40.246  1.00  0.00    -0.234 N 
ATOM     18  H12 UNL     1     -13.688  -6.972  39.229  1.00  0.00     0.174 HD
ATOM     19  H11 UNL     1     -14.437  -7.164  40.809  1.00  0.00     0.174 HD
ENDBRANCH   1  17
TORSDOF 2
ENDMDL
