MODEL 1
REMARK VINA RESULT: -5.442839320      0.000      0.000
REMARK  2 active torsions:
REMARK  status: ('A' for Active; 'I' for Inactive)
REMARK    1  A    between atoms: N1_1  and  N2_4 
REMARK    2  A    between atoms: C1_5  and  C2_6 
ROOT
HETATM    1  N2  UNL     1     -11.942  -5.863  41.401  1.00  0.00    -0.190 N 
HETATM    2  C1  UNL     1     -10.882  -5.175  41.889  1.00  0.00     0.178 A 
HETATM    3  N5  UNL     1      -9.858  -6.043  41.906  1.00  0.00    -0.278 N 
ATOM      4  H5  UNL     1      -8.915  -5.819  42.225  1.00  0.00     0.189 HD
HETATM    5  N6  UNL     1     -10.237  -7.230  41.454  1.00  0.00    -0.248 N 
ATOM      6  H6  UNL     1      -9.657  -8.065  41.362  1.00  0.00     0.192 HD
HETATM    7  C6  UNL     1     -11.546  -7.111  41.138  1.00  0.00     0.361 A 
HETATM    8  O2  UNL     1     -12.301  -8.010  40.669  1.00  0.00    -0.243 OA
ENDROOT
BRANCH   2   9
HETATM    9  C2  UNL     1     -10.929  -3.782  42.288  1.00  0.00     0.148 A 
HETATM   10  N3  UNL     1     -11.339  -3.390  43.500  1.00  0.00    -0.357 N 
HETATM   11  C3  UNL     1     -11.386  -2.100  43.879  1.00  0.00     0.105 A 
ATOM     12  H3  UNL     1     -11.630  -4.104  44.168  1.00  0.00     0.165 HD
HETATM   13  C4  UNL     1     -10.995  -1.147  42.982  1.00  0.00     0.108 A 
HETATM   14  N4  UNL     1     -10.579  -1.519  41.759  1.00  0.00    -0.330 N 
HETATM   15  C5  UNL     1     -10.535  -2.823  41.383  1.00  0.00     0.276 A 
ATOM     16  H4  UNL     1     -10.289  -0.801  41.094  1.00  0.00     0.168 HD
HETATM   17  O1  UNL     1     -10.138  -3.107  40.225  1.00  0.00    -0.266 OA
ENDBRANCH   2   9
BRANCH   1  18
HETATM   18  N1  UNL     1     -13.221  -5.326  41.218  1.00  0.00    -0.333 N 
ATOM     19  H12 UNL     1     -13.619  -4.962  40.352  1.00  0.00     0.177 HD
ATOM     20  H11 UNL     1     -13.921  -5.236  41.955  1.00  0.00     0.177 HD
ENDBRANCH   1  18
TORSDOF 2
ENDMDL
MODEL 2
REMARK VINA RESULT: -5.272565278      1.196      2.068
REMARK  2 active torsions:
REMARK  status: ('A' for Active; 'I' for Inactive)
REMARK    1  A    between atoms: N1_1  and  N2_4 
REMARK    2  A    between atoms: C1_5  and  C2_6 
ROOT
HETATM    1  N2  UNL     1     -12.187  -6.403  41.016  1.00  0.00    -0.190 N 
HETATM    2  C1  UNL     1     -12.701  -5.154  41.127  1.00  0.00     0.178 A 
HETATM    3  N5  UNL     1     -13.967  -5.240  40.686  1.00  0.00    -0.278 N 
ATOM      4  H5  UNL     1     -14.619  -4.457  40.645  1.00  0.00     0.189 HD
HETATM    5  N6  UNL     1     -14.254  -6.478  40.309  1.00  0.00    -0.248 N 
ATOM      6  H6  UNL     1     -15.142  -6.815  39.936  1.00  0.00     0.192 HD
HETATM    7  C6  UNL     1     -13.133  -7.204  40.520  1.00  0.00     0.361 A 
HETATM    8  O2  UNL     1     -12.971  -8.437  40.295  1.00  0.00    -0.243 OA
ENDROOT
BRANCH   2   9
HETATM    9  C2  UNL     1     -11.966  -4.012  41.631  1.00  0.00     0.148 A 
HETATM   10  N3  UNL     1     -12.188  -3.484  42.840  1.00  0.00    -0.357 N 
HETATM   11  C3  UNL     1     -11.510  -2.425  43.316  1.00  0.00     0.105 A 
ATOM     12  H3  UNL     1     -12.907  -3.906  43.429  1.00  0.00     0.165 HD
HETATM   13  C4  UNL     1     -10.548  -1.863  42.525  1.00  0.00     0.108 A 
HETATM   14  N4  UNL     1     -10.308  -2.378  41.307  1.00  0.00    -0.330 N 
HETATM   15  C5  UNL     1     -10.997  -3.448  40.833  1.00  0.00     0.276 A 
ATOM     16  H4  UNL     1      -9.588  -1.952  40.722  1.00  0.00     0.168 HD
HETATM   17  O1  UNL     1     -10.727  -3.882  39.684  1.00  0.00    -0.266 OA
ENDBRANCH   2   9
BRANCH   1  18
HETATM   18  N1  UNL     1     -10.881  -6.757  41.371  1.00  0.00    -0.333 N 
ATOM     19  H12 UNL     1     -10.112  -6.989  40.743  1.00  0.00     0.177 HD
ATOM     20  H11 UNL     1     -10.541  -6.824  42.331  1.00  0.00     0.177 HD
ENDBRANCH   1  18
TORSDOF 2
ENDMDL
MODEL 3
REMARK VINA RESULT: -5.260189467      1.762      4.823
REMARK  2 active torsions:
REMARK  status: ('A' for Active; 'I' for Inactive)
REMARK    1  A    between atoms: N1_1  and  N2_4 
REMARK    2  A    between atoms: C1_5  and  C2_6 
ROOT
HETATM    1  N2  UNL     1     -10.749  -2.589  41.911  1.00  0.00    -0.190 N 
HETATM    2  C1  UNL     1     -11.189  -3.669  42.601  1.00  0.00     0.178 A 
HETATM    3  N5  UNL     1     -11.554  -3.208  43.808  1.00  0.00    -0.278 N 
ATOM      4  H5  UNL     1     -11.930  -3.787  44.558  1.00  0.00     0.189 HD
HETATM    5  N6  UNL     1     -11.358  -1.900  43.894  1.00  0.00    -0.248 N 
ATOM      6  H6  UNL     1     -11.550  -1.303  44.698  1.00  0.00     0.192 HD
HETATM    7  C6  UNL     1     -10.853  -1.517  42.700  1.00  0.00     0.361 A 
HETATM    8  O2  UNL     1     -10.522  -0.347  42.352  1.00  0.00    -0.243 OA
ENDROOT
BRANCH   2   9
HETATM    9  C2  UNL     1     -11.227  -5.016  42.067  1.00  0.00     0.148 A 
HETATM   10  N3  UNL     1     -12.224  -5.461  41.294  1.00  0.00    -0.357 N 
HETATM   11  C3  UNL     1     -12.268  -6.709  40.795  1.00  0.00     0.105 A 
ATOM     12  H3  UNL     1     -12.989  -4.822  41.073  1.00  0.00     0.165 HD
HETATM   13  C4  UNL     1     -11.243  -7.562  41.092  1.00  0.00     0.108 A 
HETATM   14  N4  UNL     1     -10.230  -7.135  41.867  1.00  0.00    -0.330 N 
HETATM   15  C5  UNL     1     -10.194  -5.873  42.368  1.00  0.00     0.276 A 
ATOM     16  H4  UNL     1      -9.468  -7.778  42.085  1.00  0.00     0.168 HD
HETATM   17  O1  UNL     1      -9.219  -5.535  43.088  1.00  0.00    -0.266 OA
ENDBRANCH   2   9
BRANCH   1  18
HETATM   18  N1  UNL     1     -10.272  -2.628  40.596  1.00  0.00    -0.333 N 
ATOM     19  H12 UNL     1     -10.545  -3.279  39.860  1.00  0.00     0.177 HD
ATOM     20  H11 UNL     1      -9.575  -1.988  40.215  1.00  0.00     0.177 HD
ENDBRANCH   1  18
TORSDOF 2
ENDMDL
MODEL 4
REMARK VINA RESULT: -5.231526010      2.201      4.628
REMARK  2 active torsions:
REMARK  status: ('A' for Active; 'I' for Inactive)
REMARK    1  A    between atoms: N1_1  and  N2_4 
REMARK    2  A    between atoms: C1_5  and  C2_6 
ROOT
HETATM    1  N2  UNL     1     -11.408  -4.103  41.093  1.00  0.00    -0.190 N 
HETATM    2  C1  UNL     1     -11.817  -5.375  41.320  1.00  0.00     0.178 A 
HETATM    3  N5  UNL     1     -10.815  -5.968  41.989  1.00  0.00    -0.278 N 
ATOM      4  H5  UNL     1     -10.824  -6.938  42.305  1.00  0.00     0.189 HD
HETATM    5  N6  UNL     1      -9.811  -5.124  42.182  1.00  0.00    -0.248 N 
ATOM      6  H6  UNL     1      -8.931  -5.318  42.661  1.00  0.00     0.192 HD
HETATM    7  C6  UNL     1     -10.189  -3.956  41.618  1.00  0.00     0.361 A 
HETATM    8  O2  UNL     1      -9.525  -2.880  41.575  1.00  0.00    -0.243 OA
ENDROOT
BRANCH   2   9
HETATM    9  C2  UNL     1     -13.095  -5.908  40.894  1.00  0.00     0.148 A 
HETATM   10  N3  UNL     1     -14.262  -5.341  41.222  1.00  0.00    -0.357 N 
HETATM   11  C3  UNL     1     -15.453  -5.827  40.831  1.00  0.00     0.105 A 
ATOM     12  H3  UNL     1     -14.246  -4.497  41.797  1.00  0.00     0.165 HD
HETATM   13  C4  UNL     1     -15.470  -6.956  40.062  1.00  0.00     0.108 A 
HETATM   14  N4  UNL     1     -14.310  -7.543  39.720  1.00  0.00    -0.330 N 
HETATM   15  C5  UNL     1     -13.111  -7.045  40.119  1.00  0.00     0.276 A 
ATOM     16  H4  UNL     1     -14.331  -8.386  39.145  1.00  0.00     0.168 HD
HETATM   17  O1  UNL     1     -12.060  -7.640  39.767  1.00  0.00    -0.266 OA
ENDBRANCH   2   9
BRANCH   1  18
HETATM   18  N1  UNL     1     -12.161  -3.137  40.418  1.00  0.00    -0.333 N 
ATOM     19  H12 UNL     1     -13.175  -3.033  40.421  1.00  0.00     0.177 HD
ATOM     20  H11 UNL     1     -11.766  -2.404  39.829  1.00  0.00     0.177 HD
ENDBRANCH   1  18
TORSDOF 2
ENDMDL
MODEL 5
REMARK VINA RESULT: -5.221968146      2.486      4.304
REMARK  2 active torsions:
REMARK  status: ('A' for Active; 'I' for Inactive)
REMARK    1  A    between atoms: N1_1  and  N2_4 
REMARK    2  A    between atoms: C1_5  and  C2_6 
ROOT
HETATM    1  N2  UNL     1     -11.191  -5.109  42.112  1.00  0.00    -0.190 N 
HETATM    2  C1  UNL     1     -11.852  -5.907  41.238  1.00  0.00     0.178 A 
HETATM    3  N5  UNL     1     -11.053  -6.965  41.032  1.00  0.00    -0.278 N 
ATOM      4  H5  UNL     1     -11.277  -7.748  40.417  1.00  0.00     0.189 HD
HETATM    5  N6  UNL     1      -9.934  -6.857  41.734  1.00  0.00    -0.248 N 
ATOM      6  H6  UNL     1      -9.159  -7.521  41.759  1.00  0.00     0.192 HD
HETATM    7  C6  UNL     1     -10.026  -5.691  42.410  1.00  0.00     0.361 A 
HETATM    8  O2  UNL     1      -9.172  -5.199  43.202  1.00  0.00    -0.243 OA
ENDROOT
BRANCH   2   9
HETATM    9  C2  UNL     1     -13.158  -5.604  40.687  1.00  0.00     0.148 A 
HETATM   10  N3  UNL     1     -13.588  -4.352  40.491  1.00  0.00    -0.357 N 
HETATM   11  C3  UNL     1     -14.798  -4.061  39.980  1.00  0.00     0.105 A 
ATOM     12  H3  UNL     1     -12.969  -3.581  40.742  1.00  0.00     0.165 HD
HETATM   13  C4  UNL     1     -15.625  -5.096  39.645  1.00  0.00     0.108 A 
HETATM   14  N4  UNL     1     -15.212  -6.362  39.832  1.00  0.00    -0.330 N 
HETATM   15  C5  UNL     1     -13.989  -6.647  40.349  1.00  0.00     0.276 A 
ATOM     16  H4  UNL     1     -15.836  -7.129  39.579  1.00  0.00     0.168 HD
HETATM   17  O1  UNL     1     -13.662  -7.852  40.502  1.00  0.00    -0.266 OA
ENDBRANCH   2   9
BRANCH   1  18
HETATM   18  N1  UNL     1     -11.676  -3.890  42.596  1.00  0.00    -0.333 N 
ATOM     19  H12 UNL     1     -12.609  -3.501  42.464  1.00  0.00     0.177 HD
ATOM     20  H11 UNL     1     -11.132  -3.233  43.155  1.00  0.00     0.177 HD
ENDBRANCH   1  18
TORSDOF 2
ENDMDL
