MODEL 1
REMARK VINA RESULT: -5.673229955      0.000      0.000
REMARK  8 active torsions:
REMARK  status: ('A' for Active; 'I' for Inactive)
REMARK    1  A    between atoms: N2_6  and  C5_7 
REMARK    2  A    between atoms: C5_7  and  C6_8 
REMARK    3  A    between atoms: C6_8  and  N3_9 
REMARK    4  A    between atoms: N3_9  and  C7_11 
REMARK    5  A    between atoms: C7_11  and  C8_13 
REMARK    6  A    between atoms: N6_20  and  C11_21 
REMARK    7  A    between atoms: C13_23  and  C14_24 
REMARK    8  A    between atoms: C14_24  and  N7_25 
ROOT
HETATM    1  C8  UNL     1      -6.700  46.886 -11.193  1.00  0.00     0.146 A 
HETATM    2  N4  UNL     1      -6.582  47.829 -12.158  1.00  0.00    -0.336 N 
ATOM      3  H4  UNL     1      -7.243  47.965 -12.922  1.00  0.00     0.168 HD
HETATM    4  C9  UNL     1      -5.489  48.551 -11.967  1.00  0.00     0.097 A 
HETATM    5  C10 UNL     1      -4.699  49.589 -12.417  1.00  0.00     0.141 A 
HETATM    6  N5  UNL     1      -3.640  49.734 -11.601  1.00  0.00    -0.301 N 
ATOM      7  H5  UNL     1      -2.895  50.424 -11.697  1.00  0.00     0.186 HD
HETATM    8  N6  UNL     1      -3.742  48.814 -10.648  1.00  0.00    -0.234 N 
HETATM    9  C17 UNL     1      -4.867  48.067 -10.840  1.00  0.00     0.157 A 
HETATM   10  N10 UNL     1      -5.616  47.055 -10.381  1.00  0.00    -0.323 N 
ATOM     11  H10 UNL     1      -5.409  46.498  -9.552  1.00  0.00     0.169 HD
ENDROOT
BRANCH   8  12
HETATM   12  C11 UNL     1      -2.853  48.598  -9.575  1.00  0.00     0.102 A 
HETATM   13  C12 UNL     1      -1.605  48.057  -9.772  1.00  0.00     0.045 A 
HETATM   14  C13 UNL     1      -0.733  47.856  -8.693  1.00  0.00    -0.015 A 
HETATM   15  C15 UNL     1      -1.154  48.211  -7.429  1.00  0.00     0.098 A 
HETATM   16  N8  UNL     1      -2.382  48.739  -7.264  1.00  0.00    -0.350 N 
HETATM   17  C16 UNL     1      -3.225  48.935  -8.299  1.00  0.00     0.128 A 
ATOM     18  H8  UNL     1      -2.684  49.000  -6.325  1.00  0.00     0.166 HD
HETATM   19  N9  UNL     1      -4.382  49.440  -8.098  1.00  0.00    -0.384 N 
ATOM     20  H92 UNL     1      -5.018  49.588  -8.881  1.00  0.00     0.157 HD
ATOM     21  H91 UNL     1      -4.658  49.690  -7.148  1.00  0.00     0.157 HD
BRANCH  14  22
HETATM   22  C14 UNL     1       0.595  47.277  -8.914  1.00  0.00     0.269 C 
BRANCH  22  23
HETATM   23  N7  UNL     1       1.578  48.342  -8.960  1.00  0.00    -0.075 N 
ATOM     24  H73 UNL     1       1.489  48.915  -9.799  1.00  0.00     0.274 HD
ATOM     25  H72 UNL     1       1.393  49.069  -8.269  1.00  0.00     0.274 HD
ATOM     26  H71 UNL     1       2.511  47.942  -8.861  1.00  0.00     0.274 HD
ENDBRANCH  22  23
ENDBRANCH  14  22
ENDBRANCH   8  12
BRANCH   1  27
HETATM   27  C7  UNL     1      -7.740  45.889 -11.022  1.00  0.00     0.141 C 
HETATM   28  S1  UNL     1      -9.145  46.327 -10.344  1.00  0.00    -0.057 SA
BRANCH  27  29
HETATM   29  N3  UNL     1      -7.538  44.559 -11.437  1.00  0.00    -0.376 N 
ATOM     30  H3  UNL     1      -7.671  43.784 -10.787  1.00  0.00     0.160 HD
BRANCH  29  31
HETATM   31  C6  UNL     1      -7.136  44.318 -12.812  1.00  0.00     0.151 C 
BRANCH  31  32
HETATM   32  C5  UNL     1      -5.810  43.624 -12.810  1.00  0.00     0.292 C 
BRANCH  32  33
HETATM   33  N2  UNL     1      -4.710  44.506 -12.567  1.00  0.00     0.091 N 
HETATM   34  C4  UNL     1      -4.034  44.782 -13.795  1.00  0.00     0.274 C 
HETATM   35  C3  UNL     1      -3.504  46.192 -13.877  1.00  0.00     0.060 C 
HETATM   36  C2  UNL     1      -2.289  46.366 -12.993  1.00  0.00     0.273 C 
HETATM   37  N1  UNL     1      -1.983  45.099 -12.404  1.00  0.00     0.086 N 
HETATM   38  C1  UNL     1      -0.580  44.832 -12.292  1.00  0.00     0.309 C 
HETATM   39  C19 UNL     1      -2.721  44.922 -11.196  1.00  0.00     0.302 C 
HETATM   40  C18 UNL     1      -3.888  43.987 -11.522  1.00  0.00     0.302 C 
ENDBRANCH  32  33
ENDBRANCH  31  32
ENDBRANCH  29  31
ENDBRANCH  27  29
ENDBRANCH   1  27
TORSDOF 8
ENDMDL
MODEL 2
REMARK VINA RESULT: -5.661327239      4.748      6.766
REMARK  8 active torsions:
REMARK  status: ('A' for Active; 'I' for Inactive)
REMARK    1  A    between atoms: N2_6  and  C5_7 
REMARK    2  A    between atoms: C5_7  and  C6_8 
REMARK    3  A    between atoms: C6_8  and  N3_9 
REMARK    4  A    between atoms: N3_9  and  C7_11 
REMARK    5  A    between atoms: C7_11  and  C8_13 
REMARK    6  A    between atoms: N6_20  and  C11_21 
REMARK    7  A    between atoms: C13_23  and  C14_24 
REMARK    8  A    between atoms: C14_24  and  N7_25 
ROOT
HETATM    1  C8  UNL     1      -4.791  52.021 -13.516  1.00  0.00     0.146 A 
HETATM    2  N4  UNL     1      -5.218  53.300 -13.643  1.00  0.00    -0.336 N 
ATOM      3  H4  UNL     1      -6.174  53.614 -13.474  1.00  0.00     0.168 HD
HETATM    4  C9  UNL     1      -4.220  54.085 -14.017  1.00  0.00     0.097 A 
HETATM    5  C10 UNL     1      -3.818  55.365 -14.339  1.00  0.00     0.141 A 
HETATM    6  N5  UNL     1      -2.509  55.361 -14.645  1.00  0.00    -0.301 N 
ATOM      7  H5  UNL     1      -1.951  56.170 -14.920  1.00  0.00     0.186 HD
HETATM    8  N6  UNL     1      -2.074  54.111 -14.524  1.00  0.00    -0.234 N 
HETATM    9  C17 UNL     1      -3.100  53.298 -14.140  1.00  0.00     0.157 A 
HETATM   10  N10 UNL     1      -3.463  52.045 -13.830  1.00  0.00    -0.323 N 
ATOM     11  H10 UNL     1      -2.843  51.236 -13.831  1.00  0.00     0.169 HD
ENDROOT
BRANCH   8  12
HETATM   12  C11 UNL     1      -0.764  53.640 -14.745  1.00  0.00     0.102 A 
HETATM   13  C12 UNL     1      -0.473  52.782 -15.778  1.00  0.00     0.045 A 
HETATM   14  C13 UNL     1       0.838  52.330 -15.986  1.00  0.00    -0.015 A 
HETATM   15  C15 UNL     1       1.829  52.764 -15.130  1.00  0.00     0.098 A 
HETATM   16  N8  UNL     1       1.516  53.605 -14.126  1.00  0.00    -0.350 N 
HETATM   17  C16 UNL     1       0.256  54.043 -13.922  1.00  0.00     0.128 A 
ATOM     18  H8  UNL     1       2.256  53.921 -13.499  1.00  0.00     0.166 HD
HETATM   19  N9  UNL     1       0.003  54.841 -12.957  1.00  0.00    -0.384 N 
ATOM     20  H92 UNL     1      -0.950  55.172 -12.804  1.00  0.00     0.157 HD
ATOM     21  H91 UNL     1       0.762  55.140 -12.345  1.00  0.00     0.157 HD
BRANCH  14  22
HETATM   22  C14 UNL     1       1.139  51.413 -17.089  1.00  0.00     0.269 C 
BRANCH  22  23
HETATM   23  N7  UNL     1       1.245  50.063 -16.572  1.00  0.00    -0.075 N 
ATOM     24  H73 UNL     1       2.136  49.627 -16.807  1.00  0.00     0.274 HD
ATOM     25  H72 UNL     1       1.338  50.043 -15.557  1.00  0.00     0.274 HD
ATOM     26  H71 UNL     1       0.448  49.516 -16.898  1.00  0.00     0.274 HD
ENDBRANCH  22  23
ENDBRANCH  14  22
ENDBRANCH   8  12
BRANCH   1  27
HETATM   27  C7  UNL     1      -5.550  50.846 -13.129  1.00  0.00     0.141 C 
HETATM   28  S1  UNL     1      -6.388  50.045 -14.260  1.00  0.00    -0.057 SA
BRANCH  27  29
HETATM   29  N3  UNL     1      -5.563  50.405 -11.793  1.00  0.00    -0.376 N 
ATOM     30  H3  UNL     1      -6.161  50.855 -11.100  1.00  0.00     0.160 HD
BRANCH  29  31
HETATM   31  C6  UNL     1      -4.703  49.294 -11.423  1.00  0.00     0.151 C 
BRANCH  31  32
HETATM   32  C5  UNL     1      -4.541  49.285  -9.936  1.00  0.00     0.292 C 
BRANCH  32  33
HETATM   33  N2  UNL     1      -3.510  48.401  -9.484  1.00  0.00     0.091 N 
HETATM   34  C4  UNL     1      -2.997  48.861  -8.232  1.00  0.00     0.274 C 
HETATM   35  C3  UNL     1      -2.617  47.738  -7.298  1.00  0.00     0.060 C 
HETATM   36  C2  UNL     1      -1.337  47.070  -7.750  1.00  0.00     0.273 C 
HETATM   37  N1  UNL     1      -0.850  47.771  -8.898  1.00  0.00     0.086 N 
HETATM   38  C1  UNL     1       0.575  47.901  -8.941  1.00  0.00     0.309 C 
HETATM   39  C19 UNL     1      -1.436  47.243 -10.087  1.00  0.00     0.302 C 
HETATM   40  C18 UNL     1      -2.537  48.218 -10.511  1.00  0.00     0.302 C 
ENDBRANCH  32  33
ENDBRANCH  31  32
ENDBRANCH  29  31
ENDBRANCH  27  29
ENDBRANCH   1  27
TORSDOF 8
ENDMDL
MODEL 3
REMARK VINA RESULT: -5.528148059      2.225      4.472
REMARK  8 active torsions:
REMARK  status: ('A' for Active; 'I' for Inactive)
REMARK    1  A    between atoms: N2_6  and  C5_7 
REMARK    2  A    between atoms: C5_7  and  C6_8 
REMARK    3  A    between atoms: C6_8  and  N3_9 
REMARK    4  A    between atoms: N3_9  and  C7_11 
REMARK    5  A    between atoms: C7_11  and  C8_13 
REMARK    6  A    between atoms: N6_20  and  C11_21 
REMARK    7  A    between atoms: C13_23  and  C14_24 
REMARK    8  A    between atoms: C14_24  and  N7_25 
ROOT
HETATM    1  C8  UNL     1      -6.391  44.145 -12.405  1.00  0.00     0.146 A 
HETATM    2  N4  UNL     1      -5.953  44.632 -13.590  1.00  0.00    -0.336 N 
ATOM      3  H4  UNL     1      -6.302  44.341 -14.503  1.00  0.00     0.168 HD
HETATM    4  C9  UNL     1      -5.009  45.539 -13.396  1.00  0.00     0.097 A 
HETATM    5  C10 UNL     1      -4.125  46.427 -13.975  1.00  0.00     0.141 A 
HETATM    6  N5  UNL     1      -3.427  47.057 -13.015  1.00  0.00    -0.301 N 
ATOM      7  H5  UNL     1      -2.706  47.764 -13.159  1.00  0.00     0.186 HD
HETATM    8  N6  UNL     1      -3.846  46.589 -11.844  1.00  0.00    -0.234 N 
HETATM    9  C17 UNL     1      -4.819  45.653 -12.039  1.00  0.00     0.157 A 
HETATM   10  N10 UNL     1      -5.668  44.799 -11.450  1.00  0.00    -0.323 N 
ATOM     11  H10 UNL     1      -5.759  44.660 -10.444  1.00  0.00     0.169 HD
ENDROOT
BRANCH   8  12
HETATM   12  C11 UNL     1      -3.391  46.968 -10.565  1.00  0.00     0.102 A 
HETATM   13  C12 UNL     1      -3.871  48.090  -9.933  1.00  0.00     0.045 A 
HETATM   14  C13 UNL     1      -3.411  48.446  -8.657  1.00  0.00    -0.015 A 
HETATM   15  C15 UNL     1      -2.466  47.646  -8.050  1.00  0.00     0.098 A 
HETATM   16  N8  UNL     1      -2.012  46.552  -8.691  1.00  0.00    -0.350 N 
HETATM   17  C16 UNL     1      -2.452  46.206  -9.919  1.00  0.00     0.128 A 
ATOM     18  H8  UNL     1      -1.314  45.966  -8.234  1.00  0.00     0.166 HD
HETATM   19  N9  UNL     1      -1.996  45.158 -10.492  1.00  0.00    -0.384 N 
ATOM     20  H92 UNL     1      -2.329  44.896 -11.420  1.00  0.00     0.157 HD
ATOM     21  H91 UNL     1      -1.297  44.591 -10.011  1.00  0.00     0.157 HD
BRANCH  14  22
HETATM   22  C14 UNL     1      -3.927  49.646  -7.992  1.00  0.00     0.269 C 
BRANCH  22  23
HETATM   23  N7  UNL     1      -3.496  49.645  -6.608  1.00  0.00    -0.075 N 
ATOM     24  H73 UNL     1      -2.649  49.096  -6.466  1.00  0.00     0.274 HD
ATOM     25  H72 UNL     1      -3.131  50.552  -6.316  1.00  0.00     0.274 HD
ATOM     26  H71 UNL     1      -4.266  49.330  -6.017  1.00  0.00     0.274 HD
ENDBRANCH  22  23
ENDBRANCH  14  22
ENDBRANCH   8  12
BRANCH   1  27
HETATM   27  C7  UNL     1      -7.410  43.142 -12.158  1.00  0.00     0.141 C 
HETATM   28  S1  UNL     1      -7.005  41.575 -12.233  1.00  0.00    -0.057 SA
BRANCH  27  29
HETATM   29  N3  UNL     1      -8.732  43.518 -11.858  1.00  0.00    -0.376 N 
ATOM     30  H3  UNL     1      -9.118  43.371 -10.925  1.00  0.00     0.160 HD
BRANCH  29  31
HETATM   31  C6  UNL     1      -9.535  44.119 -12.908  1.00  0.00     0.151 C 
BRANCH  31  32
HETATM   32  C5  UNL     1      -9.926  45.500 -12.484  1.00  0.00     0.292 C 
BRANCH  32  33
HETATM   33  N2  UNL     1      -8.860  46.449 -12.591  1.00  0.00     0.091 N 
HETATM   34  C4  UNL     1      -8.905  47.349 -11.483  1.00  0.00     0.274 C 
HETATM   35  C3  UNL     1      -7.537  47.771 -11.005  1.00  0.00     0.060 C 
HETATM   36  C2  UNL     1      -6.906  48.750 -11.970  1.00  0.00     0.273 C 
HETATM   37  N1  UNL     1      -7.850  49.021 -13.009  1.00  0.00     0.086 N 
HETATM   38  C1  UNL     1      -7.854  50.384 -13.451  1.00  0.00     0.309 C 
HETATM   39  C19 UNL     1      -7.729  48.058 -14.054  1.00  0.00     0.302 C 
HETATM   40  C18 UNL     1      -8.881  47.065 -13.878  1.00  0.00     0.302 C 
ENDBRANCH  32  33
ENDBRANCH  31  32
ENDBRANCH  29  31
ENDBRANCH  27  29
ENDBRANCH   1  27
TORSDOF 8
ENDMDL
MODEL 4
REMARK VINA RESULT: -5.514140190      2.762      4.979
REMARK  8 active torsions:
REMARK  status: ('A' for Active; 'I' for Inactive)
REMARK    1  A    between atoms: N2_6  and  C5_7 
REMARK    2  A    between atoms: C5_7  and  C6_8 
REMARK    3  A    between atoms: C6_8  and  N3_9 
REMARK    4  A    between atoms: N3_9  and  C7_11 
REMARK    5  A    between atoms: C7_11  and  C8_13 
REMARK    6  A    between atoms: N6_20  and  C11_21 
REMARK    7  A    between atoms: C13_23  and  C14_24 
REMARK    8  A    between atoms: C14_24  and  N7_25 
ROOT
HETATM    1  C8  UNL     1      -6.228  46.241 -11.570  1.00  0.00     0.146 A 
HETATM    2  N4  UNL     1      -6.285  47.296 -12.417  1.00  0.00    -0.336 N 
ATOM      3  H4  UNL     1      -6.941  47.383 -13.194  1.00  0.00     0.168 HD
HETATM    4  C9  UNL     1      -5.371  48.196 -12.096  1.00  0.00     0.097 A 
HETATM    5  C10 UNL     1      -4.803  49.420 -12.389  1.00  0.00     0.141 A 
HETATM    6  N5  UNL     1      -3.818  49.680 -11.512  1.00  0.00    -0.301 N 
ATOM      7  H5  UNL     1      -3.231  50.513 -11.495  1.00  0.00     0.186 HD
HETATM    8  N6  UNL     1      -3.750  48.653 -10.672  1.00  0.00    -0.234 N 
HETATM    9  C17 UNL     1      -4.690  47.720 -11.001  1.00  0.00     0.157 A 
HETATM   10  N10 UNL     1      -5.224  46.530 -10.692  1.00  0.00    -0.323 N 
ATOM     11  H10 UNL     1      -4.925  45.933  -9.921  1.00  0.00     0.169 HD
ENDROOT
BRANCH   8  12
HETATM   12  C11 UNL     1      -2.862  48.497  -9.588  1.00  0.00     0.102 A 
HETATM   13  C12 UNL     1      -1.602  47.975  -9.759  1.00  0.00     0.045 A 
HETATM   14  C13 UNL     1      -0.732  47.834  -8.669  1.00  0.00    -0.015 A 
HETATM   15  C15 UNL     1      -1.167  48.229  -7.422  1.00  0.00     0.098 A 
HETATM   16  N8  UNL     1      -2.406  48.738  -7.282  1.00  0.00    -0.350 N 
HETATM   17  C16 UNL     1      -3.248  48.875  -8.328  1.00  0.00     0.128 A 
ATOM     18  H8  UNL     1      -2.719  49.028  -6.356  1.00  0.00     0.166 HD
HETATM   19  N9  UNL     1      -4.415  49.364  -8.151  1.00  0.00    -0.384 N 
ATOM     20  H92 UNL     1      -5.051  49.468  -8.942  1.00  0.00     0.157 HD
ATOM     21  H91 UNL     1      -4.702  49.644  -7.214  1.00  0.00     0.157 HD
BRANCH  14  22
HETATM   22  C14 UNL     1       0.610  47.275  -8.861  1.00  0.00     0.269 C 
BRANCH  22  23
HETATM   23  N7  UNL     1       1.580  48.353  -8.861  1.00  0.00    -0.075 N 
ATOM     24  H73 UNL     1       2.302  48.224  -8.153  1.00  0.00     0.274 HD
ATOM     25  H72 UNL     1       2.180  48.333  -9.685  1.00  0.00     0.274 HD
ATOM     26  H71 UNL     1       1.092  49.243  -8.758  1.00  0.00     0.274 HD
ENDBRANCH  22  23
ENDBRANCH  14  22
ENDBRANCH   8  12
BRANCH   1  27
HETATM   27  C7  UNL     1      -7.043  45.040 -11.561  1.00  0.00     0.141 C 
HETATM   28  S1  UNL     1      -6.403  43.653 -12.102  1.00  0.00    -0.057 SA
BRANCH  27  29
HETATM   29  N3  UNL     1      -8.369  45.073 -11.092  1.00  0.00    -0.376 N 
ATOM     30  H3  UNL     1      -9.005  44.295 -11.268  1.00  0.00     0.160 HD
BRANCH  29  31
HETATM   31  C6  UNL     1      -8.810  46.241 -10.349  1.00  0.00     0.151 C 
BRANCH  31  32
HETATM   32  C5  UNL     1     -10.289  46.391 -10.522  1.00  0.00     0.292 C 
BRANCH  32  33
HETATM   33  N2  UNL     1     -10.660  46.902 -11.806  1.00  0.00     0.091 N 
HETATM   34  C4  UNL     1      -9.854  48.038 -12.123  1.00  0.00     0.274 C 
HETATM   35  C3  UNL     1      -9.515  48.134 -13.590  1.00  0.00     0.060 C 
HETATM   36  C2  UNL     1     -10.718  48.573 -14.396  1.00  0.00     0.273 C 
HETATM   37  N1  UNL     1     -11.792  48.828 -13.487  1.00  0.00     0.086 N 
HETATM   38  C1  UNL     1     -12.603  49.953 -13.844  1.00  0.00     0.309 C 
HETATM   39  C19 UNL     1     -12.520  47.628 -13.229  1.00  0.00     0.302 C 
HETATM   40  C18 UNL     1     -12.069  47.122 -11.856  1.00  0.00     0.302 C 
ENDBRANCH  32  33
ENDBRANCH  31  32
ENDBRANCH  29  31
ENDBRANCH  27  29
ENDBRANCH   1  27
TORSDOF 8
ENDMDL
MODEL 5
REMARK VINA RESULT: -5.447809136      5.126      7.639
REMARK  8 active torsions:
REMARK  status: ('A' for Active; 'I' for Inactive)
REMARK    1  A    between atoms: N2_6  and  C5_7 
REMARK    2  A    between atoms: C5_7  and  C6_8 
REMARK    3  A    between atoms: C6_8  and  N3_9 
REMARK    4  A    between atoms: N3_9  and  C7_11 
REMARK    5  A    between atoms: C7_11  and  C8_13 
REMARK    6  A    between atoms: N6_20  and  C11_21 
REMARK    7  A    between atoms: C13_23  and  C14_24 
REMARK    8  A    between atoms: C14_24  and  N7_25 
ROOT
HETATM    1  C8  UNL     1      -5.727  52.251 -13.403  1.00  0.00     0.146 A 
HETATM    2  N4  UNL     1      -6.888  51.565 -13.528  1.00  0.00    -0.336 N 
ATOM      3  H4  UNL     1      -7.692  51.877 -14.072  1.00  0.00     0.168 HD
HETATM    4  C9  UNL     1      -6.832  50.433 -12.845  1.00  0.00     0.097 A 
HETATM    5  C10 UNL     1      -7.487  49.277 -12.469  1.00  0.00     0.141 A 
HETATM    6  N5  UNL     1      -6.684  48.542 -11.681  1.00  0.00    -0.301 N 
ATOM      7  H5  UNL     1      -6.913  47.641 -11.261  1.00  0.00     0.186 HD
HETATM    8  N6  UNL     1      -5.539  49.202 -11.549  1.00  0.00    -0.234 N 
HETATM    9  C17 UNL     1      -5.593  50.371 -12.251  1.00  0.00     0.157 A 
HETATM   10  N10 UNL     1      -4.933  51.484 -12.601  1.00  0.00    -0.323 N 
ATOM     11  H10 UNL     1      -3.984  51.721 -12.312  1.00  0.00     0.169 HD
ENDROOT
BRANCH   8  12
HETATM   12  C11 UNL     1      -4.407  48.804 -10.810  1.00  0.00     0.102 A 
HETATM   13  C12 UNL     1      -4.329  48.999  -9.452  1.00  0.00     0.045 A 
HETATM   14  C13 UNL     1      -3.196  48.590  -8.733  1.00  0.00    -0.015 A 
HETATM   15  C15 UNL     1      -2.162  47.988  -9.419  1.00  0.00     0.098 A 
HETATM   16  N8  UNL     1      -2.264  47.809 -10.750  1.00  0.00    -0.350 N 
HETATM   17  C16 UNL     1      -3.352  48.201 -11.445  1.00  0.00     0.128 A 
ATOM     18  H8  UNL     1      -1.495  47.362 -11.248  1.00  0.00     0.166 HD
HETATM   19  N9  UNL     1      -3.408  48.011 -12.708  1.00  0.00    -0.384 N 
ATOM     20  H92 UNL     1      -4.231  48.307 -13.234  1.00  0.00     0.157 HD
ATOM     21  H91 UNL     1      -2.623  47.563 -13.180  1.00  0.00     0.157 HD
BRANCH  14  22
HETATM   22  C14 UNL     1      -3.121  48.804  -7.285  1.00  0.00     0.269 C 
BRANCH  22  23
HETATM   23  N7  UNL     1      -3.628  50.126  -6.972  1.00  0.00    -0.075 N 
ATOM     24  H73 UNL     1      -4.010  50.181  -6.028  1.00  0.00     0.274 HD
ATOM     25  H72 UNL     1      -2.881  50.811  -6.865  1.00  0.00     0.274 HD
ATOM     26  H71 UNL     1      -4.307  50.401  -7.681  1.00  0.00     0.274 HD
ENDBRANCH  22  23
ENDBRANCH  14  22
ENDBRANCH   8  12
BRANCH   1  27
HETATM   27  C7  UNL     1      -5.364  53.531 -13.982  1.00  0.00     0.141 C 
HETATM   28  S1  UNL     1      -6.363  54.221 -15.054  1.00  0.00    -0.057 SA
BRANCH  27  29
HETATM   29  N3  UNL     1      -4.162  54.168 -13.622  1.00  0.00    -0.376 N 
ATOM     30  H3  UNL     1      -3.983  54.439 -12.655  1.00  0.00     0.160 HD
BRANCH  29  31
HETATM   31  C6  UNL     1      -3.181  54.430 -14.661  1.00  0.00     0.151 C 
BRANCH  31  32
HETATM   32  C5  UNL     1      -1.977  53.576 -14.413  1.00  0.00     0.292 C 
BRANCH  32  33
HETATM   33  N2  UNL     1      -0.741  54.258 -14.646  1.00  0.00     0.091 N 
HETATM   34  C4  UNL     1       0.236  53.818 -13.702  1.00  0.00     0.274 C 
HETATM   35  C3  UNL     1       1.629  53.745 -14.279  1.00  0.00     0.060 C 
HETATM   36  C2  UNL     1       2.210  55.129 -14.464  1.00  0.00     0.273 C 
HETATM   37  N1  UNL     1       1.266  56.079 -13.960  1.00  0.00     0.086 N 
HETATM   38  C1  UNL     1       1.862  57.189 -13.279  1.00  0.00     0.309 C 
HETATM   39  C19 UNL     1       0.332  56.437 -14.977  1.00  0.00     0.302 C 
HETATM   40  C18 UNL     1      -0.959  55.668 -14.685  1.00  0.00     0.302 C 
ENDBRANCH  32  33
ENDBRANCH  31  32
ENDBRANCH  29  31
ENDBRANCH  27  29
ENDBRANCH   1  27
TORSDOF 8
ENDMDL
