MODEL 1
REMARK VINA RESULT: -5.603052903      0.000      0.000
REMARK  11 active torsions:
REMARK  status: ('A' for Active; 'I' for Inactive)
REMARK    1  A    between atoms: N1_1  and  C1_4 
REMARK    2  A    between atoms: N3_8  and  C3_10 
REMARK    3  A    between atoms: C3_10  and  C4_11 
REMARK    4  A    between atoms: C4_11  and  C5_12 
REMARK    5  A    between atoms: C5_12  and  N4_13 
REMARK    6  A    between atoms: C12_23  and  C13_24 
REMARK    7  A    between atoms: C13_24  and  C14_25 
REMARK    8  A    between atoms: C14_25  and  C15_26 
REMARK    9  A    between atoms: C15_26  and  C16_27 
REMARK   10  A    between atoms: C18_31  and  C19_32 
REMARK   11  A    between atoms: C19_32  and  N7_33 
ROOT
HETATM    1  C1  UNL     1      -5.739  49.344 -12.942  1.00  0.00     0.679 A 
HETATM    2  N2  UNL     1      -4.743  48.455 -12.709  1.00  0.00    -0.175 N 
ATOM      3  H2  UNL     1      -3.811  48.662 -13.067  1.00  0.00     0.186 HD
HETATM    4  C2  UNL     1      -4.926  47.321 -12.032  1.00  0.00     0.147 A 
HETATM    5  N3  UNL     1      -3.988  46.468 -11.803  1.00  0.00    -0.374 N 
ATOM      6  H3  UNL     1      -4.204  45.621 -11.277  1.00  0.00     0.161 HD
HETATM    7  C10 UNL     1      -6.217  47.080 -11.563  1.00  0.00     0.122 A 
HETATM    8  N5  UNL     1      -6.447  45.961 -10.882  1.00  0.00    -0.357 N 
ATOM      9  H5  UNL     1      -5.692  45.298 -10.709  1.00  0.00     0.165 HD
HETATM   10  C11 UNL     1      -7.688  45.713 -10.423  1.00  0.00     0.127 A 
HETATM   11  C12 UNL     1      -8.748  46.570 -10.623  1.00  0.00     0.103 A 
HETATM   12  N9  UNL     1      -8.490  47.709 -11.320  1.00  0.00    -0.332 N 
ATOM     13  H9  UNL     1      -9.238  48.379 -11.496  1.00  0.00     0.168 HD
HETATM   14  C20 UNL     1      -7.239  47.953 -11.782  1.00  0.00     0.152 A 
HETATM   15  N10 UNL     1      -6.974  49.085 -12.478  1.00  0.00    -0.174 N 
ATOM     16  H10 UNL     1      -7.725  49.752 -12.653  1.00  0.00     0.186 HD
ENDROOT
BRANCH  11  17
HETATM   17  C13 UNL     1     -10.063  46.285 -10.122  1.00  0.00    -0.047 C 
BRANCH  17  18
HETATM   18  C14 UNL     1     -11.179  46.064  -9.694  1.00  0.00    -0.093 C 
BRANCH  18  19
HETATM   19  C15 UNL     1     -12.530  45.820  -9.167  1.00  0.00     0.152 C 
BRANCH  19  20
HETATM   20  C16 UNL     1     -12.610  44.545  -8.420  1.00  0.00     0.037 A 
HETATM   21  C17 UNL     1     -12.827  44.453  -7.064  1.00  0.00     0.115 A 
HETATM   22  N6  UNL     1     -12.836  43.151  -6.735  1.00  0.00    -0.352 N 
HETATM   23  C18 UNL     1     -12.628  42.467  -7.871  1.00  0.00     0.107 A 
ATOM     24  H6  UNL     1     -12.974  42.758  -5.804  1.00  0.00     0.166 HD
HETATM   25  N8  UNL     1     -12.487  43.308  -8.911  1.00  0.00    -0.346 N 
ATOM     26  H8  UNL     1     -12.319  43.052  -9.884  1.00  0.00     0.167 HD
BRANCH  23  27
HETATM   27  C19 UNL     1     -12.563  40.964  -7.960  1.00  0.00     0.305 C 
BRANCH  27  28
HETATM   28  N7  UNL     1     -11.370  40.573  -8.678  1.00  0.00    -0.073 N 
ATOM     29  H73 UNL     1     -11.200  41.163  -9.493  1.00  0.00     0.274 HD
ATOM     30  H72 UNL     1     -10.519  40.792  -8.160  1.00  0.00     0.274 HD
ATOM     31  H71 UNL     1     -11.428  39.585  -8.924  1.00  0.00     0.274 HD
ENDBRANCH  27  28
ENDBRANCH  23  27
ENDBRANCH  19  20
ENDBRANCH  18  19
ENDBRANCH  17  18
ENDBRANCH  11  17
BRANCH   1  32
HETATM   32  N1  UNL     1      -5.493  50.421 -13.604  1.00  0.00    -0.234 N 
ATOM     33  H12 UNL     1      -4.692  50.480 -14.232  1.00  0.00     0.174 HD
ATOM     34  H11 UNL     1      -6.105  51.231 -13.500  1.00  0.00     0.174 HD
ENDBRANCH   1  32
BRANCH   5  35
HETATM   35  C3  UNL     1      -2.656  46.679 -12.266  1.00  0.00     0.123 C 
BRANCH  35  36
HETATM   36  C4  UNL     1      -1.713  47.113 -11.156  1.00  0.00     0.050 C 
BRANCH  36  37
HETATM   37  C5  UNL     1      -2.361  46.932  -9.795  1.00  0.00     0.274 C 
BRANCH  37  38
HETATM   38  N4  UNL     1      -2.192  48.125  -8.991  1.00  0.00     0.092 N 
HETATM   39  C6  UNL     1      -2.751  49.241  -9.761  1.00  0.00     0.298 C 
HETATM   40  C7  UNL     1      -4.183  49.420  -9.300  1.00  0.00     0.198 C 
HETATM   41  O1  UNL     1      -4.140  50.010  -8.039  1.00  0.00    -0.388 OA
HETATM   42  C8  UNL     1      -3.331  49.295  -7.160  1.00  0.00     0.198 C 
HETATM   43  C9  UNL     1      -2.891  47.972  -7.745  1.00  0.00     0.298 C 
ENDBRANCH  37  38
ENDBRANCH  36  37
ENDBRANCH  35  36
ENDBRANCH   5  35
TORSDOF 11
ENDMDL
MODEL 2
REMARK VINA RESULT: -5.490165813      2.200      3.214
REMARK  11 active torsions:
REMARK  status: ('A' for Active; 'I' for Inactive)
REMARK    1  A    between atoms: N1_1  and  C1_4 
REMARK    2  A    between atoms: N3_8  and  C3_10 
REMARK    3  A    between atoms: C3_10  and  C4_11 
REMARK    4  A    between atoms: C4_11  and  C5_12 
REMARK    5  A    between atoms: C5_12  and  N4_13 
REMARK    6  A    between atoms: C12_23  and  C13_24 
REMARK    7  A    between atoms: C13_24  and  C14_25 
REMARK    8  A    between atoms: C14_25  and  C15_26 
REMARK    9  A    between atoms: C15_26  and  C16_27 
REMARK   10  A    between atoms: C18_31  and  C19_32 
REMARK   11  A    between atoms: C19_32  and  N7_33 
ROOT
HETATM    1  C1  UNL     1      -5.728  49.514 -12.892  1.00  0.00     0.679 A 
HETATM    2  N2  UNL     1      -4.718  48.629 -12.701  1.00  0.00    -0.175 N 
ATOM      3  H2  UNL     1      -3.790  48.867 -13.049  1.00  0.00     0.186 HD
HETATM    4  C2  UNL     1      -4.883  47.462 -12.078  1.00  0.00     0.147 A 
HETATM    5  N3  UNL     1      -3.933  46.613 -11.889  1.00  0.00    -0.374 N 
ATOM      6  H3  UNL     1      -4.136  45.740 -11.403  1.00  0.00     0.161 HD
HETATM    7  C10 UNL     1      -6.171  47.180 -11.619  1.00  0.00     0.122 A 
HETATM    8  N5  UNL     1      -6.383  46.028 -10.992  1.00  0.00    -0.357 N 
ATOM      9  H5  UNL     1      -5.618  45.369 -10.850  1.00  0.00     0.165 HD
HETATM   10  C11 UNL     1      -7.619  45.741 -10.544  1.00  0.00     0.127 A 
HETATM   11  C12 UNL     1      -8.692  46.590 -10.702  1.00  0.00     0.103 A 
HETATM   12  N9  UNL     1      -8.452  47.764 -11.346  1.00  0.00    -0.332 N 
ATOM     13  H9  UNL     1      -9.210  48.431 -11.490  1.00  0.00     0.168 HD
HETATM   14  C20 UNL     1      -7.205  48.048 -11.797  1.00  0.00     0.152 A 
HETATM   15  N10 UNL     1      -6.958  49.215 -12.439  1.00  0.00    -0.174 N 
ATOM     16  H10 UNL     1      -7.719  49.878 -12.583  1.00  0.00     0.186 HD
ENDROOT
BRANCH  11  17
HETATM   17  C13 UNL     1     -10.002  46.263 -10.215  1.00  0.00    -0.047 C 
BRANCH  17  18
HETATM   18  C14 UNL     1     -11.103  45.972  -9.789  1.00  0.00    -0.093 C 
BRANCH  18  19
HETATM   19  C15 UNL     1     -12.424  45.609  -9.254  1.00  0.00     0.152 C 
BRANCH  19  20
HETATM   20  C16 UNL     1     -13.487  46.515  -9.745  1.00  0.00     0.037 A 
HETATM   21  C17 UNL     1     -13.593  46.952 -11.045  1.00  0.00     0.115 A 
HETATM   22  N6  UNL     1     -14.668  47.754 -11.124  1.00  0.00    -0.352 N 
HETATM   23  C18 UNL     1     -15.202  47.801  -9.893  1.00  0.00     0.107 A 
ATOM     24  H6  UNL     1     -15.010  48.234 -11.956  1.00  0.00     0.166 HD
HETATM   25  N8  UNL     1     -14.489  47.048  -9.038  1.00  0.00    -0.346 N 
ATOM     26  H8  UNL     1     -14.676  46.910  -8.045  1.00  0.00     0.167 HD
BRANCH  23  27
HETATM   27  C19 UNL     1     -16.431  48.593  -9.530  1.00  0.00     0.305 C 
BRANCH  27  28
HETATM   28  N7  UNL     1     -16.282  49.957  -9.990  1.00  0.00    -0.073 N 
ATOM     29  H73 UNL     1     -17.172  50.370 -10.266  1.00  0.00     0.274 HD
ATOM     30  H72 UNL     1     -16.054  50.597  -9.230  1.00  0.00     0.274 HD
ATOM     31  H71 UNL     1     -15.593  49.990 -10.741  1.00  0.00     0.274 HD
ENDBRANCH  27  28
ENDBRANCH  23  27
ENDBRANCH  19  20
ENDBRANCH  18  19
ENDBRANCH  17  18
ENDBRANCH  11  17
BRANCH   1  32
HETATM   32  N1  UNL     1      -5.498  50.624 -13.503  1.00  0.00    -0.234 N 
ATOM     33  H12 UNL     1      -5.304  50.642 -14.503  1.00  0.00     0.174 HD
ATOM     34  H11 UNL     1      -5.509  51.501 -12.981  1.00  0.00     0.174 HD
ENDBRANCH   1  32
BRANCH   5  35
HETATM   35  C3  UNL     1      -2.605  46.865 -12.342  1.00  0.00     0.123 C 
BRANCH  35  36
HETATM   36  C4  UNL     1      -1.672  47.284 -11.218  1.00  0.00     0.050 C 
BRANCH  36  37
HETATM   37  C5  UNL     1      -2.304  47.016  -9.864  1.00  0.00     0.274 C 
BRANCH  37  38
HETATM   38  N4  UNL     1      -2.185  48.179  -9.009  1.00  0.00     0.092 N 
HETATM   39  C6  UNL     1      -2.853  49.286  -9.701  1.00  0.00     0.298 C 
HETATM   40  C7  UNL     1      -4.274  49.341  -9.177  1.00  0.00     0.198 C 
HETATM   41  O1  UNL     1      -4.219  49.873  -7.891  1.00  0.00    -0.388 OA
HETATM   42  C8  UNL     1      -3.325  49.179  -7.080  1.00  0.00     0.198 C 
HETATM   43  C9  UNL     1      -2.819  47.919  -7.746  1.00  0.00     0.298 C 
ENDBRANCH  37  38
ENDBRANCH  36  37
ENDBRANCH  35  36
ENDBRANCH   5  35
TORSDOF 11
ENDMDL
MODEL 3
REMARK VINA RESULT: -5.473864016      1.856      2.881
REMARK  11 active torsions:
REMARK  status: ('A' for Active; 'I' for Inactive)
REMARK    1  A    between atoms: N1_1  and  C1_4 
REMARK    2  A    between atoms: N3_8  and  C3_10 
REMARK    3  A    between atoms: C3_10  and  C4_11 
REMARK    4  A    between atoms: C4_11  and  C5_12 
REMARK    5  A    between atoms: C5_12  and  N4_13 
REMARK    6  A    between atoms: C12_23  and  C13_24 
REMARK    7  A    between atoms: C13_24  and  C14_25 
REMARK    8  A    between atoms: C14_25  and  C15_26 
REMARK    9  A    between atoms: C15_26  and  C16_27 
REMARK   10  A    between atoms: C18_31  and  C19_32 
REMARK   11  A    between atoms: C19_32  and  N7_33 
ROOT
HETATM    1  C1  UNL     1      -8.806  49.345 -13.593  1.00  0.00     0.679 A 
HETATM    2  N2  UNL     1      -7.580  49.293 -13.018  1.00  0.00    -0.175 N 
ATOM      3  H2  UNL     1      -6.827  49.849 -13.424  1.00  0.00     0.186 HD
HETATM    4  C2  UNL     1      -7.311  48.548 -11.946  1.00  0.00     0.147 A 
HETATM    5  N3  UNL     1      -6.151  48.489 -11.390  1.00  0.00    -0.374 N 
ATOM      6  H3  UNL     1      -6.021  47.896 -10.571  1.00  0.00     0.161 HD
HETATM    7  C10 UNL     1      -8.371  47.804 -11.426  1.00  0.00     0.122 A 
HETATM    8  N5  UNL     1      -8.151  47.045 -10.357  1.00  0.00    -0.357 N 
ATOM      9  H5  UNL     1      -7.225  47.013  -9.929  1.00  0.00     0.165 HD
HETATM   10  C11 UNL     1      -9.162  46.321  -9.844  1.00  0.00     0.127 A 
HETATM   11  C12 UNL     1     -10.434  46.325 -10.375  1.00  0.00     0.103 A 
HETATM   12  N9  UNL     1     -10.637  47.108 -11.468  1.00  0.00    -0.332 N 
ATOM     13  H9  UNL     1     -11.559  47.149 -11.901  1.00  0.00     0.168 HD
HETATM   14  C20 UNL     1      -9.614  47.835 -11.982  1.00  0.00     0.152 A 
HETATM   15  N10 UNL     1      -9.808  48.617 -13.071  1.00  0.00    -0.174 N 
ATOM     16  H10 UNL     1     -10.732  48.654 -13.502  1.00  0.00     0.186 HD
ENDROOT
BRANCH  11  17
HETATM   17  C13 UNL     1     -11.498  45.545  -9.810  1.00  0.00    -0.047 C 
BRANCH  17  18
HETATM   18  C14 UNL     1     -12.395  44.891  -9.312  1.00  0.00    -0.093 C 
BRANCH  18  19
HETATM   19  C15 UNL     1     -13.470  44.107  -8.687  1.00  0.00     0.152 C 
BRANCH  19  20
HETATM   20  C16 UNL     1     -13.105  43.656  -7.325  1.00  0.00     0.037 A 
HETATM   21  C17 UNL     1     -12.791  42.357  -6.998  1.00  0.00     0.115 A 
HETATM   22  N6  UNL     1     -12.515  42.318  -5.684  1.00  0.00    -0.352 N 
HETATM   23  C18 UNL     1     -12.659  43.571  -5.225  1.00  0.00     0.107 A 
ATOM     24  H6  UNL     1     -12.249  41.497  -5.140  1.00  0.00     0.166 HD
HETATM   25  N8  UNL     1     -13.021  44.401  -6.219  1.00  0.00    -0.346 N 
ATOM     26  H8  UNL     1     -13.196  45.404  -6.144  1.00  0.00     0.167 HD
BRANCH  23  27
HETATM   27  C19 UNL     1     -12.444  43.982  -3.791  1.00  0.00     0.305 C 
BRANCH  27  28
HETATM   28  N7  UNL     1     -11.081  44.436  -3.618  1.00  0.00    -0.073 N 
ATOM     29  H73 UNL     1     -10.412  43.845  -4.110  1.00  0.00     0.274 HD
ATOM     30  H72 UNL     1     -10.899  45.307  -4.116  1.00  0.00     0.274 HD
ATOM     31  H71 UNL     1     -10.870  44.510  -2.623  1.00  0.00     0.274 HD
ENDBRANCH  27  28
ENDBRANCH  23  27
ENDBRANCH  19  20
ENDBRANCH  18  19
ENDBRANCH  17  18
ENDBRANCH  11  17
BRANCH   1  32
HETATM   32  N1  UNL     1      -8.996  50.087 -14.629  1.00  0.00    -0.234 N 
ATOM     33  H12 UNL     1      -8.209  50.439 -15.173  1.00  0.00     0.174 HD
ATOM     34  H11 UNL     1      -9.946  50.330 -14.911  1.00  0.00     0.174 HD
ENDBRANCH   1  32
BRANCH   5  35
HETATM   35  C3  UNL     1      -5.043  49.235 -11.891  1.00  0.00     0.123 C 
BRANCH  35  36
HETATM   36  C4  UNL     1      -3.735  48.868 -11.211  1.00  0.00     0.050 C 
BRANCH  36  37
HETATM   37  C5  UNL     1      -3.941  48.658  -9.721  1.00  0.00     0.274 C 
BRANCH  37  38
HETATM   38  N4  UNL     1      -2.703  48.878  -9.002  1.00  0.00     0.092 N 
HETATM   39  C6  UNL     1      -3.031  48.855  -7.573  1.00  0.00     0.298 C 
HETATM   40  C7  UNL     1      -2.785  47.441  -7.087  1.00  0.00     0.198 C 
HETATM   41  O1  UNL     1      -1.406  47.265  -7.009  1.00  0.00    -0.388 OA
HETATM   42  C8  UNL     1      -0.774  47.587  -8.206  1.00  0.00     0.198 C 
HETATM   43  C9  UNL     1      -1.766  47.836  -9.320  1.00  0.00     0.298 C 
ENDBRANCH  37  38
ENDBRANCH  36  37
ENDBRANCH  35  36
ENDBRANCH   5  35
TORSDOF 11
ENDMDL
MODEL 4
REMARK VINA RESULT: -5.450279776      0.822      1.356
REMARK  11 active torsions:
REMARK  status: ('A' for Active; 'I' for Inactive)
REMARK    1  A    between atoms: N1_1  and  C1_4 
REMARK    2  A    between atoms: N3_8  and  C3_10 
REMARK    3  A    between atoms: C3_10  and  C4_11 
REMARK    4  A    between atoms: C4_11  and  C5_12 
REMARK    5  A    between atoms: C5_12  and  N4_13 
REMARK    6  A    between atoms: C12_23  and  C13_24 
REMARK    7  A    between atoms: C13_24  and  C14_25 
REMARK    8  A    between atoms: C14_25  and  C15_26 
REMARK    9  A    between atoms: C15_26  and  C16_27 
REMARK   10  A    between atoms: C18_31  and  C19_32 
REMARK   11  A    between atoms: C19_32  and  N7_33 
ROOT
HETATM    1  C1  UNL     1      -5.759  49.277 -13.073  1.00  0.00     0.679 A 
HETATM    2  N2  UNL     1      -4.761  48.411 -12.774  1.00  0.00    -0.175 N 
ATOM      3  H2  UNL     1      -3.823  48.609 -13.122  1.00  0.00     0.186 HD
HETATM    4  C2  UNL     1      -4.948  47.310 -12.045  1.00  0.00     0.147 A 
HETATM    5  N3  UNL     1      -4.008  46.480 -11.753  1.00  0.00    -0.374 N 
ATOM      6  H3  UNL     1      -4.227  45.658 -11.190  1.00  0.00     0.161 HD
HETATM    7  C10 UNL     1      -6.247  47.080 -11.592  1.00  0.00     0.122 A 
HETATM    8  N5  UNL     1      -6.482  45.995 -10.861  1.00  0.00    -0.357 N 
ATOM      9  H5  UNL     1      -5.724  45.349 -10.639  1.00  0.00     0.165 HD
HETATM   10  C11 UNL     1      -7.730  45.758 -10.417  1.00  0.00     0.127 A 
HETATM   11  C12 UNL     1      -8.793  46.593 -10.682  1.00  0.00     0.103 A 
HETATM   12  N9  UNL     1      -8.530  47.697 -11.430  1.00  0.00    -0.332 N 
ATOM     13  H9  UNL     1      -9.280  48.351 -11.656  1.00  0.00     0.168 HD
HETATM   14  C20 UNL     1      -7.272  47.931 -11.877  1.00  0.00     0.152 A 
HETATM   15  N10 UNL     1      -7.001  49.029 -12.623  1.00  0.00    -0.174 N 
ATOM     16  H10 UNL     1      -7.755  49.679 -12.848  1.00  0.00     0.186 HD
ENDROOT
BRANCH  11  17
HETATM   17  C13 UNL     1     -10.116  46.320 -10.196  1.00  0.00    -0.047 C 
BRANCH  17  18
HETATM   18  C14 UNL     1     -11.243  46.107  -9.793  1.00  0.00    -0.093 C 
BRANCH  18  19
HETATM   19  C15 UNL     1     -12.604  45.868  -9.291  1.00  0.00     0.152 C 
BRANCH  19  20
HETATM   20  C16 UNL     1     -12.652  44.731  -8.345  1.00  0.00     0.037 A 
HETATM   21  C17 UNL     1     -12.890  43.427  -8.713  1.00  0.00     0.115 A 
HETATM   22  N6  UNL     1     -12.862  42.673  -7.601  1.00  0.00    -0.352 N 
HETATM   23  C18 UNL     1     -12.612  43.507  -6.579  1.00  0.00     0.107 A 
ATOM     24  H6  UNL     1     -13.004  41.665  -7.544  1.00  0.00     0.166 HD
HETATM   25  N8  UNL     1     -12.482  44.770  -7.019  1.00  0.00    -0.346 N 
ATOM     26  H8  UNL     1     -12.290  45.597  -6.453  1.00  0.00     0.167 HD
BRANCH  23  27
HETATM   27  C19 UNL     1     -12.496  43.077  -5.140  1.00  0.00     0.305 C 
BRANCH  27  28
HETATM   28  N7  UNL     1     -11.797  44.095  -4.385  1.00  0.00    -0.073 N 
ATOM     29  H73 UNL     1     -10.919  43.753  -3.998  1.00  0.00     0.274 HD
ATOM     30  H72 UNL     1     -11.416  44.826  -4.986  1.00  0.00     0.274 HD
ATOM     31  H71 UNL     1     -12.415  44.470  -3.666  1.00  0.00     0.274 HD
ENDBRANCH  27  28
ENDBRANCH  23  27
ENDBRANCH  19  20
ENDBRANCH  18  19
ENDBRANCH  17  18
ENDBRANCH  11  17
BRANCH   1  32
HETATM   32  N1  UNL     1      -5.508  50.322 -13.783  1.00  0.00    -0.234 N 
ATOM     33  H12 UNL     1      -4.855  51.034 -13.457  1.00  0.00     0.174 HD
ATOM     34  H11 UNL     1      -5.968  50.444 -14.686  1.00  0.00     0.174 HD
ENDBRANCH   1  32
BRANCH   5  35
HETATM   35  C3  UNL     1      -2.668  46.680 -12.197  1.00  0.00     0.123 C 
BRANCH  35  36
HETATM   36  C4  UNL     1      -1.748  47.159 -11.086  1.00  0.00     0.050 C 
BRANCH  36  37
HETATM   37  C5  UNL     1      -2.394  46.958  -9.727  1.00  0.00     0.274 C 
BRANCH  37  38
HETATM   38  N4  UNL     1      -2.252  48.150  -8.917  1.00  0.00     0.092 N 
HETATM   39  C6  UNL     1      -2.786  49.266  -9.704  1.00  0.00     0.298 C 
HETATM   40  C7  UNL     1      -4.233  49.445  -9.290  1.00  0.00     0.198 C 
HETATM   41  O1  UNL     1      -4.231  50.034  -8.028  1.00  0.00    -0.388 OA
HETATM   42  C8  UNL     1      -3.450  49.320  -7.124  1.00  0.00     0.198 C 
HETATM   43  C9  UNL     1      -2.992  47.997  -7.694  1.00  0.00     0.298 C 
ENDBRANCH  37  38
ENDBRANCH  36  37
ENDBRANCH  35  36
ENDBRANCH   5  35
TORSDOF 11
ENDMDL
MODEL 5
REMARK VINA RESULT: -5.420770981      1.972      2.947
REMARK  11 active torsions:
REMARK  status: ('A' for Active; 'I' for Inactive)
REMARK    1  A    between atoms: N1_1  and  C1_4 
REMARK    2  A    between atoms: N3_8  and  C3_10 
REMARK    3  A    between atoms: C3_10  and  C4_11 
REMARK    4  A    between atoms: C4_11  and  C5_12 
REMARK    5  A    between atoms: C5_12  and  N4_13 
REMARK    6  A    between atoms: C12_23  and  C13_24 
REMARK    7  A    between atoms: C13_24  and  C14_25 
REMARK    8  A    between atoms: C14_25  and  C15_26 
REMARK    9  A    between atoms: C15_26  and  C16_27 
REMARK   10  A    between atoms: C18_31  and  C19_32 
REMARK   11  A    between atoms: C19_32  and  N7_33 
ROOT
HETATM    1  C1  UNL     1      -4.840  43.174 -12.073  1.00  0.00     0.679 A 
HETATM    2  N2  UNL     1      -3.999  44.227 -11.923  1.00  0.00    -0.175 N 
ATOM      3  H2  UNL     1      -3.003  44.082 -12.088  1.00  0.00     0.186 HD
HETATM    4  C2  UNL     1      -4.413  45.443 -11.569  1.00  0.00     0.147 A 
HETATM    5  N3  UNL     1      -3.626  46.452 -11.423  1.00  0.00    -0.374 N 
ATOM      6  H3  UNL     1      -4.016  47.353 -11.150  1.00  0.00     0.161 HD
HETATM    7  C10 UNL     1      -5.784  45.593 -11.353  1.00  0.00     0.122 A 
HETATM    8  N5  UNL     1      -6.244  46.789 -10.998  1.00  0.00    -0.357 N 
ATOM      9  H5  UNL     1      -5.604  47.576 -10.889  1.00  0.00     0.165 HD
HETATM   10  C11 UNL     1      -7.563  46.950 -10.786  1.00  0.00     0.127 A 
HETATM   11  C12 UNL     1      -8.476  45.927 -10.919  1.00  0.00     0.103 A 
HETATM   12  N9  UNL     1      -7.984  44.713 -11.283  1.00  0.00    -0.332 N 
ATOM     13  H9  UNL     1      -8.615  43.920 -11.397  1.00  0.00     0.168 HD
HETATM   14  C20 UNL     1      -6.654  44.555 -11.495  1.00  0.00     0.152 A 
HETATM   15  N10 UNL     1      -6.156  43.349 -11.858  1.00  0.00    -0.174 N 
ATOM     16  H10 UNL     1      -6.790  42.558 -11.969  1.00  0.00     0.186 HD
ENDROOT
BRANCH  11  17
HETATM   17  C13 UNL     1      -9.879  46.123 -10.687  1.00  0.00    -0.047 C 
BRANCH  17  18
HETATM   18  C14 UNL     1     -11.068  46.271 -10.481  1.00  0.00    -0.093 C 
BRANCH  18  19
HETATM   19  C15 UNL     1     -12.506  46.429 -10.217  1.00  0.00     0.152 C 
BRANCH  19  20
HETATM   20  C16 UNL     1     -12.927  45.703  -8.997  1.00  0.00     0.037 A 
HETATM   21  C17 UNL     1     -14.237  45.495  -8.633  1.00  0.00     0.115 A 
HETATM   22  N6  UNL     1     -14.239  44.806  -7.478  1.00  0.00    -0.352 N 
HETATM   23  C18 UNL     1     -12.953  44.602  -7.152  1.00  0.00     0.107 A 
ATOM     24  H6  UNL     1     -15.058  44.500  -6.953  1.00  0.00     0.166 HD
HETATM   25  N8  UNL     1     -12.138  45.146  -8.072  1.00  0.00    -0.346 N 
ATOM     26  H8  UNL     1     -11.118  45.135  -8.066  1.00  0.00     0.167 HD
BRANCH  23  27
HETATM   27  C19 UNL     1     -12.496  43.864  -5.921  1.00  0.00     0.305 C 
BRANCH  27  28
HETATM   28  N7  UNL     1     -13.174  44.395  -4.758  1.00  0.00    -0.073 N 
ATOM     29  H73 UNL     1     -13.140  45.413  -4.724  1.00  0.00     0.274 HD
ATOM     30  H72 UNL     1     -14.186  44.285  -4.819  1.00  0.00     0.274 HD
ATOM     31  H71 UNL     1     -12.790  43.969  -3.915  1.00  0.00     0.274 HD
ENDBRANCH  27  28
ENDBRANCH  23  27
ENDBRANCH  19  20
ENDBRANCH  18  19
ENDBRANCH  17  18
ENDBRANCH  11  17
BRANCH   1  32
HETATM   32  N1  UNL     1      -4.371  42.025 -12.417  1.00  0.00    -0.234 N 
ATOM     33  H12 UNL     1      -3.651  41.564 -11.861  1.00  0.00     0.174 HD
ATOM     34  H11 UNL     1      -4.723  41.566 -13.258  1.00  0.00     0.174 HD
ENDBRANCH   1  32
BRANCH   5  35
HETATM   35  C3  UNL     1      -2.220  46.338 -11.636  1.00  0.00     0.123 C 
BRANCH  35  36
HETATM   36  C4  UNL     1      -1.407  47.039 -10.559  1.00  0.00     0.050 C 
BRANCH  36  37
HETATM   37  C5  UNL     1      -2.111  46.963  -9.216  1.00  0.00     0.274 C 
BRANCH  37  38
HETATM   38  N4  UNL     1      -2.122  48.262  -8.576  1.00  0.00     0.092 N 
HETATM   39  C6  UNL     1      -2.746  49.196  -9.519  1.00  0.00     0.298 C 
HETATM   40  C7  UNL     1      -4.216  49.270  -9.159  1.00  0.00     0.198 C 
HETATM   41  O1  UNL     1      -4.318  50.020  -7.990  1.00  0.00    -0.388 OA
HETATM   42  C8  UNL     1      -3.496  49.524  -6.982  1.00  0.00     0.198 C 
HETATM   43  C9  UNL     1      -2.881  48.195  -7.357  1.00  0.00     0.298 C 
ENDBRANCH  37  38
ENDBRANCH  36  37
ENDBRANCH  35  36
ENDBRANCH   5  35
TORSDOF 11
ENDMDL
