MODEL 1
REMARK VINA RESULT: -5.811817699      0.000      0.000
REMARK  9 active torsions:
REMARK  status: ('A' for Active; 'I' for Inactive)
REMARK    1  A    between atoms: C2_2  and  C4_4 
REMARK    2  A    between atoms: C4_4  and  N1_5 
REMARK    3  A    between atoms: N1_5  and  C5_7 
REMARK    4  A    between atoms: C6_10  and  N3_11 
REMARK    5  A    between atoms: C13_21  and  N6_22 
REMARK    6  A    between atoms: C14_27  and  N8_28 
REMARK    7  A    between atoms: N8_28  and  C15_30 
REMARK    8  A    between atoms: C15_30  and  C16_31 
REMARK    9  A    between atoms: C16_31  and  C17_32 
ROOT
HETATM    1  C5  UNL     1      -7.169  47.982 -11.495  1.00  0.00     0.146 A 
HETATM    2  N2  UNL     1      -6.097  47.809 -10.737  1.00  0.00    -0.174 N 
ATOM      3  H2  UNL     1      -6.005  46.964 -10.172  1.00  0.00     0.186 HD
HETATM    4  C6  UNL     1      -5.129  48.743 -10.709  1.00  0.00     0.682 A 
HETATM    5  N5  UNL     1      -5.194  49.875 -11.431  1.00  0.00    -0.185 N 
ATOM      6  H5  UNL     1      -4.441  50.561 -11.385  1.00  0.00     0.184 HD
HETATM    7  C12 UNL     1      -6.264  50.090 -12.211  1.00  0.00     0.124 A 
HETATM    8  C13 UNL     1      -6.420  51.216 -12.983  1.00  0.00     0.144 A 
HETATM    9  N7  UNL     1      -7.543  51.303 -13.720  1.00  0.00    -0.175 N 
ATOM     10  H7  UNL     1      -7.665  52.136 -14.295  1.00  0.00     0.186 HD
HETATM   11  C14 UNL     1      -8.510  50.381 -13.754  1.00  0.00     0.680 A 
HETATM   12  N11 UNL     1      -8.379  49.272 -13.008  1.00  0.00    -0.186 N 
ATOM     13  H11 UNL     1      -9.100  48.551 -13.015  1.00  0.00     0.184 HD
HETATM   14  C20 UNL     1      -7.277  49.133 -12.253  1.00  0.00     0.124 A 
ENDROOT
BRANCH  11  15
HETATM   15  N8  UNL     1      -9.564  50.553 -14.501  1.00  0.00    -0.226 N 
ATOM     16  H8  UNL     1     -10.199  49.776 -14.686  1.00  0.00     0.177 HD
BRANCH  15  17
HETATM   17  C15 UNL     1      -9.822  51.863 -15.065  1.00  0.00     0.144 C 
BRANCH  17  18
HETATM   18  C16 UNL     1     -10.837  52.536 -14.132  1.00  0.00     0.078 C 
BRANCH  18  19
HETATM   19  C17 UNL     1     -10.323  53.905 -13.870  1.00  0.00     0.027 A 
HETATM   20  C18 UNL     1     -11.126  54.952 -13.405  1.00  0.00     0.114 A 
HETATM   21  N9  UNL     1     -10.377  56.055 -13.268  1.00  0.00    -0.360 N 
HETATM   22  C19 UNL     1      -9.134  55.715 -13.637  1.00  0.00     0.180 A 
ATOM     23  H9  UNL     1     -10.690  56.971 -12.946  1.00  0.00     0.166 HD
HETATM   24  N10 UNL     1      -9.097  54.413 -14.002  1.00  0.00    -0.355 N 
ATOM     25  H10 UNL     1      -8.273  53.906 -14.323  1.00  0.00     0.166 HD
ENDBRANCH  18  19
ENDBRANCH  17  18
ENDBRANCH  15  17
ENDBRANCH  11  15
BRANCH   8  26
HETATM   26  N6  UNL     1      -5.517  52.117 -12.975  1.00  0.00    -0.383 N 
ATOM     27  H62 UNL     1      -4.532  51.921 -12.796  1.00  0.00     0.157 HD
ATOM     28  H61 UNL     1      -5.771  53.088 -13.153  1.00  0.00     0.157 HD
ENDBRANCH   8  26
BRANCH   1  29
HETATM   29  N1  UNL     1      -8.096  47.101 -11.531  1.00  0.00    -0.374 N 
ATOM     30  H1  UNL     1      -8.403  46.700 -12.417  1.00  0.00     0.161 HD
BRANCH  29  31
HETATM   31  C4  UNL     1      -8.699  46.689 -10.283  1.00  0.00     0.125 C 
BRANCH  31  32
HETATM   32  C2  UNL     1     -10.047  46.055 -10.627  1.00  0.00    -0.005 C 
HETATM   33  C1  UNL     1     -10.727  47.003 -11.601  1.00  0.00     0.011 C 
HETATM   34  C3  UNL     1     -10.923  45.952  -9.417  1.00  0.00     0.011 C 
ENDBRANCH  31  32
ENDBRANCH  29  31
ENDBRANCH   1  29
BRANCH   4  35
HETATM   35  N3  UNL     1      -4.004  48.463  -9.856  1.00  0.00    -0.214 N 
HETATM   36  C7  UNL     1      -3.236  47.262 -10.021  1.00  0.00     0.160 C 
HETATM   37  C8  UNL     1      -3.109  46.617  -8.645  1.00  0.00     0.136 C 
HETATM   38  N4  UNL     1      -2.550  47.524  -7.695  1.00  0.00    -0.414 N 
HETATM   39  C9  UNL     1      -1.125  47.643  -7.738  1.00  0.00     0.143 C 
HETATM   40  C10 UNL     1      -3.256  48.755  -7.541  1.00  0.00     0.136 C 
HETATM   41  C11 UNL     1      -3.656  49.413  -8.822  1.00  0.00     0.160 C 
ENDBRANCH   4  35
TORSDOF 9
ENDMDL
MODEL 2
REMARK VINA RESULT: -5.789002638      1.291      1.600
REMARK  9 active torsions:
REMARK  status: ('A' for Active; 'I' for Inactive)
REMARK    1  A    between atoms: C2_2  and  C4_4 
REMARK    2  A    between atoms: C4_4  and  N1_5 
REMARK    3  A    between atoms: N1_5  and  C5_7 
REMARK    4  A    between atoms: C6_10  and  N3_11 
REMARK    5  A    between atoms: C13_21  and  N6_22 
REMARK    6  A    between atoms: C14_27  and  N8_28 
REMARK    7  A    between atoms: N8_28  and  C15_30 
REMARK    8  A    between atoms: C15_30  and  C16_31 
REMARK    9  A    between atoms: C16_31  and  C17_32 
ROOT
HETATM    1  C5  UNL     1      -7.199  47.933 -11.478  1.00  0.00     0.146 A 
HETATM    2  N2  UNL     1      -6.121  47.791 -10.723  1.00  0.00    -0.174 N 
ATOM      3  H2  UNL     1      -6.004  46.951 -10.155  1.00  0.00     0.186 HD
HETATM    4  C6  UNL     1      -5.178  48.751 -10.703  1.00  0.00     0.682 A 
HETATM    5  N5  UNL     1      -5.274  49.878 -11.428  1.00  0.00    -0.185 N 
ATOM      6  H5  UNL     1      -4.540  50.583 -11.388  1.00  0.00     0.184 HD
HETATM    7  C12 UNL     1      -6.352  50.061 -12.206  1.00  0.00     0.124 A 
HETATM    8  C13 UNL     1      -6.541  51.179 -12.982  1.00  0.00     0.144 A 
HETATM    9  N7  UNL     1      -7.667  51.234 -13.715  1.00  0.00    -0.175 N 
ATOM     10  H7  UNL     1      -7.814  52.061 -14.294  1.00  0.00     0.186 HD
HETATM   11  C14 UNL     1      -8.610  50.286 -13.743  1.00  0.00     0.680 A 
HETATM   12  N11 UNL     1      -8.447  49.184 -12.993  1.00  0.00    -0.186 N 
ATOM     13  H11 UNL     1      -9.150  48.445 -12.995  1.00  0.00     0.184 HD
HETATM   14  C20 UNL     1      -7.340  49.077 -12.241  1.00  0.00     0.124 A 
ENDROOT
BRANCH  11  15
HETATM   15  N8  UNL     1      -9.671  50.427 -14.487  1.00  0.00    -0.226 N 
ATOM     16  H8  UNL     1     -10.036  49.639 -15.021  1.00  0.00     0.177 HD
BRANCH  15  17
HETATM   17  C15 UNL     1     -10.325  51.719 -14.544  1.00  0.00     0.144 C 
BRANCH  17  18
HETATM   18  C16 UNL     1     -11.827  51.433 -14.661  1.00  0.00     0.078 C 
BRANCH  18  19
HETATM   19  C17 UNL     1     -12.505  52.347 -13.706  1.00  0.00     0.027 A 
HETATM   20  C18 UNL     1     -12.018  53.617 -13.380  1.00  0.00     0.114 A 
HETATM   21  N9  UNL     1     -12.846  54.193 -12.498  1.00  0.00    -0.360 N 
HETATM   22  C19 UNL     1     -13.829  53.311 -12.271  1.00  0.00     0.180 A 
ATOM     23  H9  UNL     1     -12.748  55.119 -12.082  1.00  0.00     0.166 HD
HETATM   24  N10 UNL     1     -13.627  52.191 -13.002  1.00  0.00    -0.355 N 
ATOM     25  H10 UNL     1     -14.229  51.369 -13.013  1.00  0.00     0.166 HD
ENDBRANCH  18  19
ENDBRANCH  17  18
ENDBRANCH  15  17
ENDBRANCH  11  15
BRANCH   8  26
HETATM   26  N6  UNL     1      -5.661  52.104 -12.981  1.00  0.00    -0.383 N 
ATOM     27  H62 UNL     1      -4.710  51.971 -12.637  1.00  0.00     0.157 HD
ATOM     28  H61 UNL     1      -5.901  53.029 -13.336  1.00  0.00     0.157 HD
ENDBRANCH   8  26
BRANCH   1  29
HETATM   29  N1  UNL     1      -8.103  47.028 -11.507  1.00  0.00    -0.374 N 
ATOM     30  H1  UNL     1      -8.363  46.576 -12.384  1.00  0.00     0.161 HD
BRANCH  29  31
HETATM   31  C4  UNL     1      -8.747  46.662 -10.265  1.00  0.00     0.125 C 
BRANCH  31  32
HETATM   32  C2  UNL     1     -10.098  46.045 -10.629  1.00  0.00    -0.005 C 
HETATM   33  C1  UNL     1     -10.773  47.026 -11.573  1.00  0.00     0.011 C 
HETATM   34  C3  UNL     1     -10.975  45.910  -9.422  1.00  0.00     0.011 C 
ENDBRANCH  31  32
ENDBRANCH  29  31
ENDBRANCH   1  29
BRANCH   4  35
HETATM   35  N3  UNL     1      -4.043  48.503  -9.852  1.00  0.00    -0.214 N 
HETATM   36  C7  UNL     1      -3.218  47.345 -10.043  1.00  0.00     0.160 C 
HETATM   37  C8  UNL     1      -3.064  46.674  -8.682  1.00  0.00     0.136 C 
HETATM   38  N4  UNL     1      -2.551  47.583  -7.709  1.00  0.00    -0.414 N 
HETATM   39  C9  UNL     1      -1.134  47.771  -7.743  1.00  0.00     0.143 C 
HETATM   40  C10 UNL     1      -3.315  48.775  -7.528  1.00  0.00     0.136 C 
HETATM   41  C11 UNL     1      -3.744  49.444  -8.794  1.00  0.00     0.160 C 
ENDBRANCH   4  35
TORSDOF 9
ENDMDL
MODEL 3
REMARK VINA RESULT: -5.759226167      1.998      3.314
REMARK  9 active torsions:
REMARK  status: ('A' for Active; 'I' for Inactive)
REMARK    1  A    between atoms: C2_2  and  C4_4 
REMARK    2  A    between atoms: C4_4  and  N1_5 
REMARK    3  A    between atoms: N1_5  and  C5_7 
REMARK    4  A    between atoms: C6_10  and  N3_11 
REMARK    5  A    between atoms: C13_21  and  N6_22 
REMARK    6  A    between atoms: C14_27  and  N8_28 
REMARK    7  A    between atoms: N8_28  and  C15_30 
REMARK    8  A    between atoms: C15_30  and  C16_31 
REMARK    9  A    between atoms: C16_31  and  C17_32 
ROOT
HETATM    1  C5  UNL     1      -7.182  47.982 -11.491  1.00  0.00     0.146 A 
HETATM    2  N2  UNL     1      -6.113  47.832 -10.725  1.00  0.00    -0.174 N 
ATOM      3  H2  UNL     1      -6.010  46.993 -10.154  1.00  0.00     0.186 HD
HETATM    4  C6  UNL     1      -5.161  48.783 -10.698  1.00  0.00     0.682 A 
HETATM    5  N5  UNL     1      -5.240  49.909 -11.428  1.00  0.00    -0.185 N 
ATOM      6  H5  UNL     1      -4.499  50.608 -11.383  1.00  0.00     0.184 HD
HETATM    7  C12 UNL     1      -6.308  50.100 -12.217  1.00  0.00     0.124 A 
HETATM    8  C13 UNL     1      -6.479  51.217 -12.999  1.00  0.00     0.144 A 
HETATM    9  N7  UNL     1      -7.598  51.280 -13.743  1.00  0.00    -0.175 N 
ATOM     10  H7  UNL     1      -7.731  52.106 -14.326  1.00  0.00     0.186 HD
HETATM   11  C14 UNL     1      -8.549  50.341 -13.777  1.00  0.00     0.680 A 
HETATM   12  N11 UNL     1      -8.404  49.240 -13.022  1.00  0.00    -0.186 N 
ATOM     13  H11 UNL     1      -9.113  48.507 -13.028  1.00  0.00     0.184 HD
HETATM   14  C20 UNL     1      -7.305  49.125 -12.259  1.00  0.00     0.124 A 
ENDROOT
BRANCH  11  15
HETATM   15  N8  UNL     1      -9.601  50.490 -14.532  1.00  0.00    -0.226 N 
ATOM     16  H8  UNL     1      -9.713  51.328 -15.103  1.00  0.00     0.177 HD
BRANCH  15  17
HETATM   17  C15 UNL     1     -10.609  49.448 -14.550  1.00  0.00     0.144 C 
BRANCH  17  18
HETATM   18  C16 UNL     1     -11.918  50.114 -14.106  1.00  0.00     0.078 C 
BRANCH  18  19
HETATM   19  C17 UNL     1     -12.873  49.012 -13.820  1.00  0.00     0.027 A 
HETATM   20  C18 UNL     1     -12.914  47.821 -14.553  1.00  0.00     0.114 A 
HETATM   21  N9  UNL     1     -13.877  47.032 -14.056  1.00  0.00    -0.360 N 
HETATM   22  C19 UNL     1     -14.430  47.705 -13.038  1.00  0.00     0.180 A 
ATOM     23  H9  UNL     1     -14.136  46.102 -14.386  1.00  0.00     0.166 HD
HETATM   24  N10 UNL     1     -13.824  48.906 -12.892  1.00  0.00    -0.355 N 
ATOM     25  H10 UNL     1     -14.055  49.609 -12.191  1.00  0.00     0.166 HD
ENDBRANCH  18  19
ENDBRANCH  17  18
ENDBRANCH  15  17
ENDBRANCH  11  15
BRANCH   8  26
HETATM   26  N6  UNL     1      -5.591  52.133 -12.992  1.00  0.00    -0.383 N 
ATOM     27  H62 UNL     1      -5.075  52.406 -12.155  1.00  0.00     0.157 HD
ATOM     28  H61 UNL     1      -5.371  52.630 -13.855  1.00  0.00     0.157 HD
ENDBRANCH   8  26
BRANCH   1  29
HETATM   29  N1  UNL     1      -8.095  47.085 -11.526  1.00  0.00    -0.374 N 
ATOM     30  H1  UNL     1      -8.394  46.678 -12.413  1.00  0.00     0.161 HD
BRANCH  29  31
HETATM   31  C4  UNL     1      -8.691  46.664 -10.278  1.00  0.00     0.125 C 
BRANCH  31  32
HETATM   32  C2  UNL     1     -10.046  46.046 -10.618  1.00  0.00    -0.005 C 
HETATM   33  C1  UNL     1     -10.730  47.015 -11.567  1.00  0.00     0.011 C 
HETATM   34  C3  UNL     1     -10.910  45.928  -9.400  1.00  0.00     0.011 C 
ENDBRANCH  31  32
ENDBRANCH  29  31
ENDBRANCH   1  29
BRANCH   4  35
HETATM   35  N3  UNL     1      -4.037  48.528  -9.836  1.00  0.00    -0.214 N 
HETATM   36  C7  UNL     1      -3.211  47.370 -10.026  1.00  0.00     0.160 C 
HETATM   37  C8  UNL     1      -3.074  46.689  -8.668  1.00  0.00     0.136 C 
HETATM   38  N4  UNL     1      -2.573  47.590  -7.682  1.00  0.00    -0.414 N 
HETATM   39  C9  UNL     1      -1.155  47.776  -7.697  1.00  0.00     0.143 C 
HETATM   40  C10 UNL     1      -3.338  48.781  -7.501  1.00  0.00     0.136 C 
HETATM   41  C11 UNL     1      -3.750  49.460  -8.767  1.00  0.00     0.160 C 
ENDBRANCH   4  35
TORSDOF 9
ENDMDL
MODEL 4
REMARK VINA RESULT: -5.684356805      1.558      7.718
REMARK  9 active torsions:
REMARK  status: ('A' for Active; 'I' for Inactive)
REMARK    1  A    between atoms: C2_2  and  C4_4 
REMARK    2  A    between atoms: C4_4  and  N1_5 
REMARK    3  A    between atoms: N1_5  and  C5_7 
REMARK    4  A    between atoms: C6_10  and  N3_11 
REMARK    5  A    between atoms: C13_21  and  N6_22 
REMARK    6  A    between atoms: C14_27  and  N8_28 
REMARK    7  A    between atoms: N8_28  and  C15_30 
REMARK    8  A    between atoms: C15_30  and  C16_31 
REMARK    9  A    between atoms: C16_31  and  C17_32 
ROOT
HETATM    1  C5  UNL     1      -7.736  48.950 -13.002  1.00  0.00     0.146 A 
HETATM    2  N2  UNL     1      -8.705  49.765 -13.389  1.00  0.00    -0.174 N 
ATOM      3  H2  UNL     1      -9.671  49.438 -13.401  1.00  0.00     0.186 HD
HETATM    4  C6  UNL     1      -8.419  51.025 -13.769  1.00  0.00     0.682 A 
HETATM    5  N5  UNL     1      -7.167  51.513 -13.775  1.00  0.00    -0.185 N 
ATOM      6  H5  UNL     1      -6.988  52.473 -14.068  1.00  0.00     0.184 HD
HETATM    7  C12 UNL     1      -6.156  50.719 -13.390  1.00  0.00     0.124 A 
HETATM    8  C13 UNL     1      -4.845  51.128 -13.364  1.00  0.00     0.144 A 
HETATM    9  N7  UNL     1      -3.930  50.229 -12.956  1.00  0.00    -0.175 N 
ATOM     10  H7  UNL     1      -2.955  50.525 -12.934  1.00  0.00     0.186 HD
HETATM   11  C14 UNL     1      -4.204  48.976 -12.577  1.00  0.00     0.680 A 
HETATM   12  N11 UNL     1      -5.478  48.555 -12.594  1.00  0.00    -0.186 N 
ATOM     13  H11 UNL     1      -5.717  47.605 -12.310  1.00  0.00     0.184 HD
HETATM   14  C20 UNL     1      -6.433  49.412 -12.993  1.00  0.00     0.124 A 
ENDROOT
BRANCH  11  15
HETATM   15  N8  UNL     1      -3.249  48.175 -12.196  1.00  0.00    -0.226 N 
ATOM     16  H8  UNL     1      -2.401  48.080 -12.754  1.00  0.00     0.177 HD
BRANCH  15  17
HETATM   17  C15 UNL     1      -3.408  47.423 -10.967  1.00  0.00     0.144 C 
BRANCH  17  18
HETATM   18  C16 UNL     1      -2.226  47.814 -10.071  1.00  0.00     0.078 C 
BRANCH  18  19
HETATM   19  C17 UNL     1      -2.804  48.518  -8.897  1.00  0.00     0.027 A 
HETATM   20  C18 UNL     1      -2.347  48.334  -7.588  1.00  0.00     0.114 A 
HETATM   21  N9  UNL     1      -3.064  49.104  -6.758  1.00  0.00    -0.360 N 
HETATM   22  C19 UNL     1      -3.952  49.756  -7.521  1.00  0.00     0.180 A 
ATOM     23  H9  UNL     1      -2.956  49.178  -5.747  1.00  0.00     0.166 HD
HETATM   24  N10 UNL     1      -3.797  49.405  -8.818  1.00  0.00    -0.355 N 
ATOM     25  H10 UNL     1      -4.345  49.758  -9.601  1.00  0.00     0.166 HD
ENDBRANCH  18  19
ENDBRANCH  17  18
ENDBRANCH  15  17
ENDBRANCH  11  15
BRANCH   8  26
HETATM   26  N6  UNL     1      -4.547  52.317 -13.719  1.00  0.00    -0.383 N 
ATOM     27  H62 UNL     1      -5.147  53.122 -13.539  1.00  0.00     0.157 HD
ATOM     28  H61 UNL     1      -3.669  52.493 -14.208  1.00  0.00     0.157 HD
ENDBRANCH   8  26
BRANCH   1  29
HETATM   29  N1  UNL     1      -7.994  47.751 -12.638  1.00  0.00    -0.374 N 
ATOM     30  H1  UNL     1      -7.457  46.966 -13.006  1.00  0.00     0.161 HD
BRANCH  29  31
HETATM   31  C4  UNL     1      -9.067  47.537 -11.693  1.00  0.00     0.125 C 
BRANCH  31  32
HETATM   32  C2  UNL     1      -8.434  46.970 -10.423  1.00  0.00    -0.005 C 
HETATM   33  C1  UNL     1      -7.441  45.913 -10.877  1.00  0.00     0.011 C 
HETATM   34  C3  UNL     1      -9.456  46.285  -9.567  1.00  0.00     0.011 C 
ENDBRANCH  31  32
ENDBRANCH  29  31
ENDBRANCH   1  29
BRANCH   4  35
HETATM   35  N3  UNL     1      -9.540  51.833 -14.172  1.00  0.00    -0.214 N 
HETATM   36  C7  UNL     1      -9.475  53.266 -14.111  1.00  0.00     0.160 C 
HETATM   37  C8  UNL     1     -10.728  53.741 -13.385  1.00  0.00     0.136 C 
HETATM   38  N4  UNL     1     -11.912  53.252 -14.016  1.00  0.00    -0.414 N 
HETATM   39  C9  UNL     1     -12.334  53.989 -15.166  1.00  0.00     0.143 C 
HETATM   40  C10 UNL     1     -11.990  51.833 -14.144  1.00  0.00     0.136 C 
HETATM   41  C11 UNL     1     -10.742  51.179 -14.641  1.00  0.00     0.160 C 
ENDBRANCH   4  35
TORSDOF 9
ENDMDL
MODEL 5
REMARK VINA RESULT: -5.660197697      1.892      8.207
REMARK  9 active torsions:
REMARK  status: ('A' for Active; 'I' for Inactive)
REMARK    1  A    between atoms: C2_2  and  C4_4 
REMARK    2  A    between atoms: C4_4  and  N1_5 
REMARK    3  A    between atoms: N1_5  and  C5_7 
REMARK    4  A    between atoms: C6_10  and  N3_11 
REMARK    5  A    between atoms: C13_21  and  N6_22 
REMARK    6  A    between atoms: C14_27  and  N8_28 
REMARK    7  A    between atoms: N8_28  and  C15_30 
REMARK    8  A    between atoms: C15_30  and  C16_31 
REMARK    9  A    between atoms: C16_31  and  C17_32 
ROOT
HETATM    1  C5  UNL     1      -8.711  48.921 -13.124  1.00  0.00     0.146 A 
HETATM    2  N2  UNL     1      -9.818  49.414 -13.657  1.00  0.00    -0.174 N 
ATOM      3  H2  UNL     1     -10.631  48.812 -13.788  1.00  0.00     0.186 HD
HETATM    4  C6  UNL     1      -9.873  50.707 -14.027  1.00  0.00     0.682 A 
HETATM    5  N5  UNL     1      -8.836  51.549 -13.879  1.00  0.00    -0.185 N 
ATOM      6  H5  UNL     1      -8.915  52.523 -14.170  1.00  0.00     0.184 HD
HETATM    7  C12 UNL     1      -7.695  51.089 -13.344  1.00  0.00     0.124 A 
HETATM    8  C13 UNL     1      -6.582  51.871 -13.154  1.00  0.00     0.144 A 
HETATM    9  N7  UNL     1      -5.504  51.281 -12.606  1.00  0.00    -0.175 N 
ATOM     10  H7  UNL     1      -4.674  51.856 -12.462  1.00  0.00     0.186 HD
HETATM   11  C14 UNL     1      -5.439  49.998 -12.236  1.00  0.00     0.680 A 
HETATM   12  N11 UNL     1      -6.514  49.215 -12.411  1.00  0.00    -0.186 N 
ATOM     13  H11 UNL     1      -6.493  48.232 -12.137  1.00  0.00     0.184 HD
HETATM   14  C20 UNL     1      -7.619  49.752 -12.954  1.00  0.00     0.124 A 
ENDROOT
BRANCH  11  15
HETATM   15  N8  UNL     1      -4.348  49.515 -11.711  1.00  0.00    -0.226 N 
ATOM     16  H8  UNL     1      -3.434  49.844 -12.023  1.00  0.00     0.177 HD
BRANCH  15  17
HETATM   17  C15 UNL     1      -4.451  48.504 -10.677  1.00  0.00     0.144 C 
BRANCH  17  18
HETATM   18  C16 UNL     1      -4.383  49.252  -9.340  1.00  0.00     0.078 C 
BRANCH  18  19
HETATM   19  C17 UNL     1      -3.209  48.706  -8.612  1.00  0.00     0.027 A 
HETATM   20  C18 UNL     1      -3.038  48.824  -7.229  1.00  0.00     0.114 A 
HETATM   21  N9  UNL     1      -1.889  48.234  -6.874  1.00  0.00    -0.360 N 
HETATM   22  C19 UNL     1      -1.346  47.755  -8.002  1.00  0.00     0.180 A 
ATOM     23  H9  UNL     1      -1.504  48.162  -5.932  1.00  0.00     0.166 HD
HETATM   24  N10 UNL     1      -2.143  48.039  -9.057  1.00  0.00    -0.355 N 
ATOM     25  H10 UNL     1      -1.961  47.785 -10.028  1.00  0.00     0.166 HD
ENDBRANCH  18  19
ENDBRANCH  17  18
ENDBRANCH  15  17
ENDBRANCH  11  15
BRANCH   8  26
HETATM   26  N6  UNL     1      -6.609  53.100 -13.496  1.00  0.00    -0.383 N 
ATOM     27  H62 UNL     1      -6.458  53.867 -12.841  1.00  0.00     0.157 HD
ATOM     28  H61 UNL     1      -6.790  53.350 -14.468  1.00  0.00     0.157 HD
ENDBRANCH   8  26
BRANCH   1  29
HETATM   29  N1  UNL     1      -8.644  47.694 -12.768  1.00  0.00    -0.374 N 
ATOM     30  H1  UNL     1      -7.995  47.052 -13.223  1.00  0.00     0.161 HD
BRANCH  29  31
HETATM   31  C4  UNL     1      -9.513  47.241 -11.705  1.00  0.00     0.125 C 
BRANCH  31  32
HETATM   32  C2  UNL     1      -8.623  46.948 -10.497  1.00  0.00    -0.005 C 
HETATM   33  C1  UNL     1      -7.593  45.932 -10.963  1.00  0.00     0.011 C 
HETATM   34  C3  UNL     1      -9.405  46.315  -9.387  1.00  0.00     0.011 C 
ENDBRANCH  31  32
ENDBRANCH  29  31
ENDBRANCH   1  29
BRANCH   4  35
HETATM   35  N3  UNL     1     -11.121  51.148 -14.595  1.00  0.00    -0.214 N 
HETATM   36  C7  UNL     1     -11.148  52.149 -15.624  1.00  0.00     0.160 C 
HETATM   37  C8  UNL     1     -12.170  53.198 -15.202  1.00  0.00     0.136 C 
HETATM   38  N4  UNL     1     -13.445  52.610 -14.946  1.00  0.00    -0.414 N 
HETATM   39  C9  UNL     1     -14.236  52.351 -16.109  1.00  0.00     0.143 C 
HETATM   40  C10 UNL     1     -13.451  51.572 -13.966  1.00  0.00     0.136 C 
HETATM   41  C11 UNL     1     -12.354  50.567 -14.112  1.00  0.00     0.160 C 
ENDBRANCH   4  35
TORSDOF 9
ENDMDL
