MODEL 1
REMARK VINA RESULT: -7.171170915      0.000      0.000
REMARK  8 active torsions:
REMARK  status: ('A' for Active; 'I' for Inactive)
REMARK    1  A    between atoms: C3_5  and  N2_6 
REMARK       I    between atoms: N2_6  and  C4_8 
REMARK    2  A    between atoms: C4_8  and  C5_10 
REMARK    3  A    between atoms: C5_10  and  C6_11 
REMARK    4  A    between atoms: C6_11  and  C7_12 
REMARK    5  A    between atoms: C7_12  and  C8_13 
REMARK       I    between atoms: N5_19  and  C10_21 
REMARK    6  A    between atoms: C10_21  and  C11_23 
REMARK    7  A    between atoms: C11_23  and  C12_24 
REMARK    8  A    between atoms: C15_29  and  O3_30 
ROOT
HETATM    1  C8  UNL     1      -8.390  46.213 -12.203  1.00  0.00     0.069 A 
HETATM    2  N3  UNL     1      -7.893  46.361 -10.986  1.00  0.00    -0.296 N 
ATOM      3  H3  UNL     1      -8.489  46.704 -10.233  1.00  0.00     0.187 HD
HETATM    4  N4  UNL     1      -6.680  46.077 -10.750  1.00  0.00    -0.279 N 
ATOM      5  H4  UNL     1      -6.297  46.191  -9.811  1.00  0.00     0.189 HD
HETATM    6  C9  UNL     1      -5.912  45.629 -11.741  1.00  0.00     0.167 A 
HETATM    7  N5  UNL     1      -4.649  45.276 -11.742  1.00  0.00    -0.306 N 
ATOM      8  H5  UNL     1      -4.190  44.946 -12.591  1.00  0.00     0.171 HD
HETATM    9  C10 UNL     1      -3.954  45.371 -10.521  1.00  0.00     0.228 C 
HETATM   10  O2  UNL     1      -4.339  44.665  -9.562  1.00  0.00    -0.273 OA
HETATM   11  S1  UNL     1      -7.032  45.632 -13.058  1.00  0.00    -0.038 SA
ENDROOT
BRANCH   9  12
HETATM   12  C11 UNL     1      -2.805  46.262 -10.351  1.00  0.00     0.149 C 
BRANCH  12  13
HETATM   13  C12 UNL     1      -2.975  47.336  -9.387  1.00  0.00     0.041 A 
HETATM   14  C13 UNL     1      -3.527  48.543  -9.737  1.00  0.00     0.021 A 
HETATM   15  C14 UNL     1      -3.958  48.771 -11.121  1.00  0.00     0.069 C 
HETATM   16  N6  UNL     1      -3.680  49.539  -8.810  1.00  0.00    -0.326 N 
HETATM   17  C15 UNL     1      -3.291  49.351  -7.547  1.00  0.00     0.224 A 
ATOM     18  H6  UNL     1      -4.093  50.429  -9.087  1.00  0.00     0.169 HD
HETATM   19  N7  UNL     1      -2.751  48.193  -7.171  1.00  0.00    -0.289 N 
HETATM   20  C16 UNL     1      -2.588  47.188  -8.072  1.00  0.00     0.257 A 
ATOM     21  H7  UNL     1      -2.458  48.061  -6.204  1.00  0.00     0.172 HD
HETATM   22  O4  UNL     1      -2.076  46.131  -7.659  1.00  0.00    -0.267 OA
BRANCH  17  23
HETATM   23  O3  UNL     1      -3.445  50.366  -6.592  1.00  0.00    -0.332 OA
ATOM     24  H3  UNL     1      -2.692  50.713  -6.127  1.00  0.00     0.221 HD
ENDBRANCH  17  23
ENDBRANCH  12  13
ENDBRANCH   9  12
BRANCH   1  25
HETATM   25  C7  UNL     1      -9.799  46.496 -12.681  1.00  0.00     0.067 C 
BRANCH  25  26
HETATM   26  C6  UNL     1     -10.539  47.015 -11.499  1.00  0.00     0.016 C 
BRANCH  26  27
HETATM   27  C5  UNL     1     -11.485  46.076 -10.841  1.00  0.00     0.104 C 
BRANCH  27  28
HETATM   28  C4  UNL     1     -11.214  45.967  -9.402  1.00  0.00     0.235 C 
HETATM   29  N2  UNL     1     -12.272  45.692  -8.510  1.00  0.00    -0.158 N 
ATOM     30  H2  UNL     1     -12.896  46.437  -8.198  1.00  0.00     0.187 HD
HETATM   31  O1  UNL     1     -10.063  46.112  -8.955  1.00  0.00    -0.273 OA
BRANCH  29  32
HETATM   32  C3  UNL     1     -12.435  44.475  -8.094  1.00  0.00     0.700 A 
HETATM   33  N1  UNL     1     -12.684  44.088  -6.818  1.00  0.00    -0.178 N 
HETATM   34  C2  UNL     1     -12.780  42.753  -6.843  1.00  0.00     0.108 A 
ATOM     35  H1  UNL     1     -12.780  44.693  -6.002  1.00  0.00     0.185 HD
HETATM   36  C1  UNL     1     -13.043  41.808  -5.722  1.00  0.00     0.091 C 
HETATM   37  N9  UNL     1     -12.592  42.358  -8.107  1.00  0.00    -0.275 N 
HETATM   38  N8  UNL     1     -12.381  43.400  -8.878  1.00  0.00    -0.130 N 
ATOM     39  H9  UNL     1     -12.611  41.389  -8.425  1.00  0.00     0.189 HD
ATOM     40  H8  UNL     1     -12.209  43.388  -9.884  1.00  0.00     0.205 HD
ENDBRANCH  29  32
ENDBRANCH  27  28
ENDBRANCH  26  27
ENDBRANCH  25  26
ENDBRANCH   1  25
TORSDOF 8
ENDMDL
MODEL 2
REMARK VINA RESULT: -7.030354333      6.367      9.251
REMARK  8 active torsions:
REMARK  status: ('A' for Active; 'I' for Inactive)
REMARK    1  A    between atoms: C3_5  and  N2_6 
REMARK       I    between atoms: N2_6  and  C4_8 
REMARK    2  A    between atoms: C4_8  and  C5_10 
REMARK    3  A    between atoms: C5_10  and  C6_11 
REMARK    4  A    between atoms: C6_11  and  C7_12 
REMARK    5  A    between atoms: C7_12  and  C8_13 
REMARK       I    between atoms: N5_19  and  C10_21 
REMARK    6  A    between atoms: C10_21  and  C11_23 
REMARK    7  A    between atoms: C11_23  and  C12_24 
REMARK    8  A    between atoms: C15_29  and  O3_30 
ROOT
HETATM    1  C8  UNL     1      -3.681  47.490 -11.021  1.00  0.00     0.069 A 
HETATM    2  N3  UNL     1      -2.474  47.781 -11.477  1.00  0.00    -0.296 N 
ATOM      3  H3  UNL     1      -2.228  48.751 -11.677  1.00  0.00     0.187 HD
HETATM    4  N4  UNL     1      -1.620  46.863 -11.665  1.00  0.00    -0.279 N 
ATOM      5  H4  UNL     1      -0.689  47.088 -12.017  1.00  0.00     0.189 HD
HETATM    6  C9  UNL     1      -1.953  45.602 -11.400  1.00  0.00     0.167 A 
HETATM    7  N5  UNL     1      -1.253  44.498 -11.513  1.00  0.00    -0.306 N 
ATOM      8  H5  UNL     1      -1.648  43.591 -11.266  1.00  0.00     0.171 HD
HETATM    9  C10 UNL     1       0.067  44.620 -11.989  1.00  0.00     0.228 C 
HETATM   10  O2  UNL     1       0.883  45.284 -11.313  1.00  0.00    -0.273 OA
HETATM   11  S1  UNL     1      -3.582  45.795 -10.855  1.00  0.00    -0.038 SA
ENDROOT
BRANCH   9  12
HETATM   12  C11 UNL     1       0.500  43.993 -13.240  1.00  0.00     0.149 C 
BRANCH  12  13
HETATM   13  C12 UNL     1       1.641  43.099 -13.137  1.00  0.00     0.041 A 
HETATM   14  C13 UNL     1       2.900  43.484 -13.525  1.00  0.00     0.021 A 
HETATM   15  C14 UNL     1       3.114  44.832 -14.065  1.00  0.00     0.069 C 
HETATM   16  N6  UNL     1       3.960  42.626 -13.417  1.00  0.00    -0.326 N 
HETATM   17  C15 UNL     1       3.785  41.394 -12.931  1.00  0.00     0.224 A 
ATOM     18  H6  UNL     1       4.889  42.929 -13.709  1.00  0.00     0.169 HD
HETATM   19  N7  UNL     1       2.578  40.986 -12.545  1.00  0.00    -0.289 N 
HETATM   20  C16 UNL     1       1.508  41.819 -12.642  1.00  0.00     0.257 A 
ATOM     21  H7  UNL     1       2.456  40.044 -12.175  1.00  0.00     0.172 HD
HETATM   22  O4  UNL     1       0.406  41.378 -12.266  1.00  0.00    -0.267 OA
BRANCH  17  23
HETATM   23  O3  UNL     1       4.867  40.509 -12.816  1.00  0.00    -0.332 OA
ATOM     24  H3  UNL     1       5.017  40.028 -12.011  1.00  0.00     0.221 HD
ENDBRANCH  17  23
ENDBRANCH  12  13
ENDBRANCH   9  12
BRANCH   1  25
HETATM   25  C7  UNL     1      -4.828  48.435 -10.734  1.00  0.00     0.067 C 
BRANCH  25  26
HETATM   26  C6  UNL     1      -4.301  49.444  -9.775  1.00  0.00     0.016 C 
BRANCH  26  27
HETATM   27  C5  UNL     1      -4.594  49.211  -8.337  1.00  0.00     0.104 C 
BRANCH  27  28
HETATM   28  C4  UNL     1      -3.394  49.397  -7.512  1.00  0.00     0.235 C 
HETATM   29  N2  UNL     1      -2.709  48.271  -7.009  1.00  0.00    -0.158 N 
ATOM     30  H2  UNL     1      -3.042  47.789  -6.174  1.00  0.00     0.187 HD
HETATM   31  O1  UNL     1      -2.968  50.535  -7.250  1.00  0.00    -0.273 OA
BRANCH  29  32
HETATM   32  C3  UNL     1      -1.647  47.860  -7.630  1.00  0.00     0.700 A 
HETATM   33  N1  UNL     1      -0.635  48.637  -8.093  1.00  0.00    -0.178 N 
HETATM   34  C2  UNL     1       0.246  47.804  -8.661  1.00  0.00     0.108 A 
ATOM     35  H1  UNL     1      -0.562  49.652  -8.022  1.00  0.00     0.185 HD
HETATM   36  C1  UNL     1       1.539  48.119  -9.330  1.00  0.00     0.091 C 
HETATM   37  N9  UNL     1      -0.232  46.562  -8.537  1.00  0.00    -0.275 N 
HETATM   38  N8  UNL     1      -1.386  46.584  -7.909  1.00  0.00    -0.130 N 
ATOM     39  H9  UNL     1       0.231  45.720  -8.879  1.00  0.00     0.189 HD
ATOM     40  H8  UNL     1      -1.970  45.780  -7.679  1.00  0.00     0.205 HD
ENDBRANCH  29  32
ENDBRANCH  27  28
ENDBRANCH  26  27
ENDBRANCH  25  26
ENDBRANCH   1  25
TORSDOF 8
ENDMDL
MODEL 3
REMARK VINA RESULT: -7.002402563      3.697      5.989
REMARK  8 active torsions:
REMARK  status: ('A' for Active; 'I' for Inactive)
REMARK    1  A    between atoms: C3_5  and  N2_6 
REMARK       I    between atoms: N2_6  and  C4_8 
REMARK    2  A    between atoms: C4_8  and  C5_10 
REMARK    3  A    between atoms: C5_10  and  C6_11 
REMARK    4  A    between atoms: C6_11  and  C7_12 
REMARK    5  A    between atoms: C7_12  and  C8_13 
REMARK       I    between atoms: N5_19  and  C10_21 
REMARK    6  A    between atoms: C10_21  and  C11_23 
REMARK    7  A    between atoms: C11_23  and  C12_24 
REMARK    8  A    between atoms: C15_29  and  O3_30 
ROOT
HETATM    1  C8  UNL     1      -7.586  45.691 -11.874  1.00  0.00     0.069 A 
HETATM    2  N3  UNL     1      -6.895  45.616 -10.749  1.00  0.00    -0.296 N 
ATOM      3  H3  UNL     1      -7.380  45.459  -9.865  1.00  0.00     0.187 HD
HETATM    4  N4  UNL     1      -5.633  45.739 -10.761  1.00  0.00    -0.279 N 
ATOM      5  H4  UNL     1      -5.100  45.681  -9.892  1.00  0.00     0.189 HD
HETATM    6  C9  UNL     1      -5.011  45.943 -11.920  1.00  0.00     0.167 A 
HETATM    7  N5  UNL     1      -3.736  46.098 -12.183  1.00  0.00    -0.306 N 
ATOM      8  H5  UNL     1      -3.403  46.247 -13.135  1.00  0.00     0.171 HD
HETATM    9  C10 UNL     1      -2.844  46.049 -11.093  1.00  0.00     0.228 C 
HETATM   10  O2  UNL     1      -2.767  44.987 -10.437  1.00  0.00    -0.273 OA
HETATM   11  S1  UNL     1      -6.347  45.952 -13.017  1.00  0.00    -0.038 SA
ENDROOT
BRANCH   9  12
HETATM   12  C11 UNL     1      -2.016  47.197 -10.718  1.00  0.00     0.149 C 
BRANCH  12  13
HETATM   13  C12 UNL     1      -2.441  47.923  -9.534  1.00  0.00     0.041 A 
HETATM   14  C13 UNL     1      -1.701  47.920  -8.377  1.00  0.00     0.021 A 
HETATM   15  C14 UNL     1      -0.446  47.162  -8.320  1.00  0.00     0.069 C 
HETATM   16  N6  UNL     1      -2.120  48.615  -7.275  1.00  0.00    -0.326 N 
HETATM   17  C15 UNL     1      -3.260  49.308  -7.307  1.00  0.00     0.224 A 
ATOM     18  H6  UNL     1      -1.557  48.602  -6.425  1.00  0.00     0.169 HD
HETATM   19  N7  UNL     1      -4.004  49.334  -8.411  1.00  0.00    -0.289 N 
HETATM   20  C16 UNL     1      -3.611  48.652  -9.520  1.00  0.00     0.257 A 
ATOM     21  H7  UNL     1      -4.873  49.867  -8.424  1.00  0.00     0.172 HD
HETATM   22  O4  UNL     1      -4.350  48.715 -10.520  1.00  0.00    -0.267 OA
BRANCH  17  23
HETATM   23  O3  UNL     1      -3.696  50.022  -6.182  1.00  0.00    -0.332 OA
ATOM     24  H3  UNL     1      -3.208  50.774  -5.865  1.00  0.00     0.221 HD
ENDBRANCH  17  23
ENDBRANCH  12  13
ENDBRANCH   9  12
BRANCH   1  25
HETATM   25  C7  UNL     1      -9.083  45.572 -12.064  1.00  0.00     0.067 C 
BRANCH  25  26
HETATM   26  C6  UNL     1      -9.497  46.770 -12.844  1.00  0.00     0.016 C 
BRANCH  26  27
HETATM   27  C5  UNL     1      -9.205  48.094 -12.234  1.00  0.00     0.104 C 
BRANCH  27  28
HETATM   28  C4  UNL     1      -8.768  49.062 -13.247  1.00  0.00     0.235 C 
HETATM   29  N2  UNL     1      -7.982  50.169 -12.864  1.00  0.00    -0.158 N 
ATOM     30  H2  UNL     1      -8.415  50.998 -12.455  1.00  0.00     0.187 HD
HETATM   31  O1  UNL     1      -9.078  48.921 -14.443  1.00  0.00    -0.273 OA
BRANCH  29  32
HETATM   32  C3  UNL     1      -6.699  50.113 -13.041  1.00  0.00     0.700 A 
HETATM   33  N1  UNL     1      -6.050  49.404 -13.999  1.00  0.00    -0.178 N 
HETATM   34  C2  UNL     1      -4.744  49.634 -13.814  1.00  0.00     0.108 A 
ATOM     35  H1  UNL     1      -6.473  48.816 -14.717  1.00  0.00     0.185 HD
HETATM   36  C1  UNL     1      -3.580  49.107 -14.580  1.00  0.00     0.091 C 
HETATM   37  N9  UNL     1      -4.622  50.460 -12.770  1.00  0.00    -0.275 N 
HETATM   38  N8  UNL     1      -5.808  50.759 -12.291  1.00  0.00    -0.130 N 
ATOM     39  H9  UNL     1      -3.737  50.808 -12.400  1.00  0.00     0.189 HD
ATOM     40  H8  UNL     1      -6.009  51.368 -11.498  1.00  0.00     0.205 HD
ENDBRANCH  29  32
ENDBRANCH  27  28
ENDBRANCH  26  27
ENDBRANCH  25  26
ENDBRANCH   1  25
TORSDOF 8
ENDMDL
MODEL 4
REMARK VINA RESULT: -7.002326173      1.197      1.696
REMARK  8 active torsions:
REMARK  status: ('A' for Active; 'I' for Inactive)
REMARK    1  A    between atoms: C3_5  and  N2_6 
REMARK       I    between atoms: N2_6  and  C4_8 
REMARK    2  A    between atoms: C4_8  and  C5_10 
REMARK    3  A    between atoms: C5_10  and  C6_11 
REMARK    4  A    between atoms: C6_11  and  C7_12 
REMARK    5  A    between atoms: C7_12  and  C8_13 
REMARK       I    between atoms: N5_19  and  C10_21 
REMARK    6  A    between atoms: C10_21  and  C11_23 
REMARK    7  A    between atoms: C11_23  and  C12_24 
REMARK    8  A    between atoms: C15_29  and  O3_30 
ROOT
HETATM    1  C8  UNL     1      -7.507  45.833 -12.347  1.00  0.00     0.069 A 
HETATM    2  N3  UNL     1      -6.932  45.776 -11.157  1.00  0.00    -0.296 N 
ATOM      3  H3  UNL     1      -7.507  45.682 -10.320  1.00  0.00     0.187 HD
HETATM    4  N4  UNL     1      -5.670  45.839 -11.050  1.00  0.00    -0.279 N 
ATOM      5  H4  UNL     1      -5.227  45.795 -10.132  1.00  0.00     0.189 HD
HETATM    6  C9  UNL     1      -4.930  45.962 -12.150  1.00  0.00     0.167 A 
HETATM    7  N5  UNL     1      -3.629  46.046 -12.292  1.00  0.00    -0.306 N 
ATOM      8  H5  UNL     1      -3.199  46.137 -13.212  1.00  0.00     0.171 HD
HETATM    9  C10 UNL     1      -2.850  46.004 -11.118  1.00  0.00     0.228 C 
HETATM   10  O2  UNL     1      -2.891  44.970 -10.416  1.00  0.00    -0.273 OA
HETATM   11  S1  UNL     1      -6.152  45.985 -13.373  1.00  0.00    -0.038 SA
ENDROOT
BRANCH   9  12
HETATM   12  C11 UNL     1      -2.005  47.128 -10.710  1.00  0.00     0.149 C 
BRANCH  12  13
HETATM   13  C12 UNL     1      -2.454  47.864  -9.540  1.00  0.00     0.041 A 
HETATM   14  C13 UNL     1      -1.760  47.835  -8.356  1.00  0.00     0.021 A 
HETATM   15  C14 UNL     1      -0.533  47.037  -8.252  1.00  0.00     0.069 C 
HETATM   16  N6  UNL     1      -2.200  48.539  -7.268  1.00  0.00    -0.326 N 
HETATM   17  C15 UNL     1      -3.316  49.268  -7.342  1.00  0.00     0.224 A 
ATOM     18  H6  UNL     1      -1.672  48.507  -6.397  1.00  0.00     0.169 HD
HETATM   19  N7  UNL     1      -4.015  49.320  -8.475  1.00  0.00    -0.289 N 
HETATM   20  C16 UNL     1      -3.600  48.630  -9.570  1.00  0.00     0.257 A 
ATOM     21  H7  UNL     1      -4.866  49.880  -8.520  1.00  0.00     0.172 HD
HETATM   22  O4  UNL     1      -4.297  48.718 -10.598  1.00  0.00    -0.267 OA
BRANCH  17  23
HETATM   23  O3  UNL     1      -3.773  49.993  -6.232  1.00  0.00    -0.332 OA
ATOM     24  H3  UNL     1      -3.355  49.898  -5.384  1.00  0.00     0.221 HD
ENDBRANCH  17  23
ENDBRANCH  12  13
ENDBRANCH   9  12
BRANCH   1  25
HETATM   25  C7  UNL     1      -8.983  45.775 -12.679  1.00  0.00     0.067 C 
BRANCH  25  26
HETATM   26  C6  UNL     1      -9.635  46.821 -11.844  1.00  0.00     0.016 C 
BRANCH  26  27
HETATM   27  C5  UNL     1     -10.883  46.428 -11.139  1.00  0.00     0.104 C 
BRANCH  27  28
HETATM   28  C4  UNL     1     -10.634  46.182  -9.713  1.00  0.00     0.235 C 
HETATM   29  N2  UNL     1     -11.723  46.074  -8.822  1.00  0.00    -0.158 N 
ATOM     30  H2  UNL     1     -12.182  46.909  -8.459  1.00  0.00     0.187 HD
HETATM   31  O1  UNL     1      -9.477  46.066  -9.276  1.00  0.00    -0.273 OA
BRANCH  29  32
HETATM   32  C3  UNL     1     -12.127  44.892  -8.474  1.00  0.00     0.700 A 
HETATM   33  N1  UNL     1     -12.595  44.531  -7.252  1.00  0.00    -0.178 N 
HETATM   34  C2  UNL     1     -12.896  43.229  -7.338  1.00  0.00     0.108 A 
ATOM     35  H1  UNL     1     -12.697  45.130  -6.434  1.00  0.00     0.185 HD
HETATM   36  C1  UNL     1     -13.445  42.321  -6.292  1.00  0.00     0.091 C 
HETATM   37  N9  UNL     1     -12.613  42.829  -8.582  1.00  0.00    -0.275 N 
HETATM   38  N8  UNL     1     -12.144  43.835  -9.283  1.00  0.00    -0.130 N 
ATOM     39  H9  UNL     1     -12.743  41.880  -8.934  1.00  0.00     0.189 HD
ATOM     40  H8  UNL     1     -11.849  43.812 -10.260  1.00  0.00     0.205 HD
ENDBRANCH  29  32
ENDBRANCH  27  28
ENDBRANCH  26  27
ENDBRANCH  25  26
ENDBRANCH   1  25
TORSDOF 8
ENDMDL
MODEL 5
REMARK VINA RESULT: -6.954016610      5.303      7.759
REMARK  8 active torsions:
REMARK  status: ('A' for Active; 'I' for Inactive)
REMARK    1  A    between atoms: C3_5  and  N2_6 
REMARK       I    between atoms: N2_6  and  C4_8 
REMARK    2  A    between atoms: C4_8  and  C5_10 
REMARK    3  A    between atoms: C5_10  and  C6_11 
REMARK    4  A    between atoms: C6_11  and  C7_12 
REMARK    5  A    between atoms: C7_12  and  C8_13 
REMARK       I    between atoms: N5_19  and  C10_21 
REMARK    6  A    between atoms: C10_21  and  C11_23 
REMARK    7  A    between atoms: C11_23  and  C12_24 
REMARK    8  A    between atoms: C15_29  and  O3_30 
ROOT
HETATM    1  C8  UNL     1      -4.786  43.967 -12.533  1.00  0.00     0.069 A 
HETATM    2  N3  UNL     1      -4.376  45.084 -13.110  1.00  0.00    -0.296 N 
ATOM      3  H3  UNL     1      -3.984  45.054 -14.051  1.00  0.00     0.187 HD
HETATM    4  N4  UNL     1      -4.467  46.193 -12.501  1.00  0.00    -0.279 N 
ATOM      5  H4  UNL     1      -4.150  47.054 -12.947  1.00  0.00     0.189 HD
HETATM    6  C9  UNL     1      -4.980  46.219 -11.273  1.00  0.00     0.167 A 
HETATM    7  N5  UNL     1      -5.174  47.227 -10.456  1.00  0.00    -0.306 N 
ATOM      8  H5  UNL     1      -5.585  47.091  -9.532  1.00  0.00     0.171 HD
HETATM    9  C10 UNL     1      -4.790  48.504 -10.908  1.00  0.00     0.228 C 
HETATM   10  O2  UNL     1      -5.363  48.974 -11.915  1.00  0.00    -0.273 OA
HETATM   11  S1  UNL     1      -5.336  44.546 -11.025  1.00  0.00    -0.038 SA
ENDROOT
BRANCH   9  12
HETATM   12  C11 UNL     1      -3.750  49.284 -10.234  1.00  0.00     0.149 C 
BRANCH  12  13
HETATM   13  C12 UNL     1      -2.831  48.527  -9.401  1.00  0.00     0.041 A 
HETATM   14  C13 UNL     1      -2.833  48.638  -8.033  1.00  0.00     0.021 A 
HETATM   15  C14 UNL     1      -3.781  49.549  -7.380  1.00  0.00     0.069 C 
HETATM   16  N6  UNL     1      -1.960  47.912  -7.269  1.00  0.00    -0.326 N 
HETATM   17  C15 UNL     1      -1.088  47.081  -7.845  1.00  0.00     0.224 A 
ATOM     18  H6  UNL     1      -1.976  48.007  -6.254  1.00  0.00     0.169 HD
HETATM   19  N7  UNL     1      -1.057  46.947  -9.170  1.00  0.00    -0.289 N 
HETATM   20  C16 UNL     1      -1.914  47.657  -9.952  1.00  0.00     0.257 A 
ATOM     21  H7  UNL     1      -0.388  46.310  -9.600  1.00  0.00     0.172 HD
HETATM   22  O4  UNL     1      -1.835  47.489 -11.183  1.00  0.00    -0.267 OA
BRANCH  17  23
HETATM   23  O3  UNL     1      -0.191  46.334  -7.070  1.00  0.00    -0.332 OA
ATOM     24  H3  UNL     1       0.742  46.512  -7.100  1.00  0.00     0.221 HD
ENDBRANCH  17  23
ENDBRANCH  12  13
ENDBRANCH   9  12
BRANCH   1  25
HETATM   25  C7  UNL     1      -4.761  42.560 -13.090  1.00  0.00     0.067 C 
BRANCH  25  26
HETATM   26  C6  UNL     1      -4.618  41.654 -11.918  1.00  0.00     0.016 C 
BRANCH  26  27
HETATM   27  C5  UNL     1      -3.726  40.478 -12.092  1.00  0.00     0.104 C 
BRANCH  27  28
HETATM   28  C4  UNL     1      -2.363  40.770 -11.631  1.00  0.00     0.235 C 
HETATM   29  N2  UNL     1      -1.409  41.274 -12.540  1.00  0.00    -0.158 N 
ATOM     30  H2  UNL     1      -0.914  40.647 -13.175  1.00  0.00     0.187 HD
HETATM   31  O1  UNL     1      -2.034  40.582 -10.447  1.00  0.00    -0.273 OA
BRANCH  29  32
HETATM   32  C3  UNL     1      -1.175  42.549 -12.553  1.00  0.00     0.700 A 
HETATM   33  N1  UNL     1      -1.172  43.355 -13.645  1.00  0.00    -0.178 N 
HETATM   34  C2  UNL     1      -0.884  44.585 -13.201  1.00  0.00     0.108 A 
ATOM     35  H1  UNL     1      -1.352  43.079 -14.610  1.00  0.00     0.185 HD
HETATM   36  C1  UNL     1      -0.750  45.854 -13.971  1.00  0.00     0.091 C 
HETATM   37  N9  UNL     1      -0.722  44.510 -11.876  1.00  0.00    -0.275 N 
HETATM   38  N8  UNL     1      -0.897  43.273 -11.470  1.00  0.00    -0.130 N 
ATOM     39  H9  UNL     1      -0.495  45.298 -11.269  1.00  0.00     0.189 HD
ATOM     40  H8  UNL     1      -0.832  42.932 -10.511  1.00  0.00     0.205 HD
ENDBRANCH  29  32
ENDBRANCH  27  28
ENDBRANCH  26  27
ENDBRANCH  25  26
ENDBRANCH   1  25
TORSDOF 8
ENDMDL
