MODEL 1
REMARK VINA RESULT: -6.860918965      0.000      0.000
REMARK  4 active torsions:
REMARK  status: ('A' for Active; 'I' for Inactive)
REMARK       I    between atoms: N1_2  and  C2_4 
REMARK    1  A    between atoms: C2_4  and  C3_6 
REMARK    2  A    between atoms: C4_9  and  C5_10 
REMARK    3  A    between atoms: C7_12  and  C8_13 
REMARK    4  A    between atoms: C13_23  and  N5_24 
ROOT
HETATM    1  C3  UNL     1      -6.039   9.298  10.731  1.00  0.00     0.130 A 
HETATM    2  N2  UNL     1      -6.692   8.232  11.299  1.00  0.00    -0.334 N 
ATOM      3  H2  UNL     1      -7.595   8.386  11.746  1.00  0.00     0.168 HD
HETATM    4  C4  UNL     1      -6.175   6.987  11.283  1.00  0.00     0.134 A 
HETATM    5  N4  UNL     1      -4.994   6.845  10.672  1.00  0.00    -0.325 N 
ATOM      6  H4  UNL     1      -4.584   5.911  10.646  1.00  0.00     0.169 HD
HETATM    7  C13 UNL     1      -4.311   7.834  10.093  1.00  0.00     0.132 A 
HETATM    8  C19 UNL     1      -4.829   9.123  10.109  1.00  0.00     0.122 A 
HETATM    9  N7  UNL     1      -4.124  10.223   9.501  1.00  0.00    -0.096 NA
ENDROOT
BRANCH   4  10
HETATM   10  C5  UNL     1      -6.859   5.835  11.900  1.00  0.00     0.077 A 
HETATM   11  C6  UNL     1      -8.188   5.679  11.988  1.00  0.00     0.044 A 
HETATM   12  C7  UNL     1      -8.758   4.618  12.641  1.00  0.00    -0.012 A 
HETATM   13  C11 UNL     1      -7.900   3.675  13.233  1.00  0.00     0.138 A 
HETATM   14  F1  UNL     1      -8.461   2.646  13.884  1.00  0.00    -0.204 F 
HETATM   15  C12 UNL     1      -6.558   3.830  13.141  1.00  0.00     0.131 A 
HETATM   16  N3  UNL     1      -6.074   4.884  12.487  1.00  0.00    -0.360 N 
ATOM     17  H3  UNL     1      -5.062   4.987  12.421  1.00  0.00     0.165 HD
BRANCH  12  18
HETATM   18  C8  UNL     1     -10.184   4.479  12.907  1.00  0.00     0.013 C 
HETATM   19  C9  UNL     1     -10.987   3.679  11.901  1.00  0.00     0.015 C 
HETATM   20  C10 UNL     1     -10.713   5.962  12.651  1.00  0.00     0.015 C 
ENDBRANCH  12  18
ENDBRANCH   4  10
BRANCH   1  21
HETATM   21  C2  UNL     1      -6.570  10.629  10.971  1.00  0.00     0.269 C 
HETATM   22  N1  UNL     1      -5.855  11.754  11.362  1.00  0.00    -0.360 N 
HETATM   23  C1  UNL     1      -6.483  13.049  11.528  1.00  0.00     0.149 C 
ATOM     24  H1  UNL     1      -4.854  11.665  11.539  1.00  0.00     0.162 HD
HETATM   25  O1  UNL     1      -7.839  10.718  10.775  1.00  0.00    -0.266 OA
ENDBRANCH   1  21
BRANCH   7  26
HETATM   26  N5  UNL     1      -3.078   7.606   9.430  1.00  0.00    -0.364 N 
HETATM   27  C14 UNL     1      -3.074   6.992   8.103  1.00  0.00     0.126 C 
HETATM   28  C15 UNL     1      -2.886   8.091   7.088  1.00  0.00     0.047 C 
HETATM   29  C16 UNL     1      -1.464   8.566   7.026  1.00  0.00     0.234 C 
HETATM   30  N6  UNL     1      -1.035   9.142   8.291  1.00  0.00    -0.074 N 
HETATM   31  C17 UNL     1      -0.720   8.137   9.294  1.00  0.00     0.252 C 
ATOM     32  H62 UNL     1      -0.250   9.779   8.154  1.00  0.00     0.277 HD
ATOM     33  H61 UNL     1      -1.726   9.804   8.644  1.00  0.00     0.277 HD
HETATM   34  C18 UNL     1      -1.923   8.035  10.191  1.00  0.00     0.152 C 
ENDBRANCH   7  26
TORSDOF 4
ENDMDL
MODEL 2
REMARK VINA RESULT: -6.380288142      0.961      2.274
REMARK  4 active torsions:
REMARK  status: ('A' for Active; 'I' for Inactive)
REMARK       I    between atoms: N1_2  and  C2_4 
REMARK    1  A    between atoms: C2_4  and  C3_6 
REMARK    2  A    between atoms: C4_9  and  C5_10 
REMARK    3  A    between atoms: C7_12  and  C8_13 
REMARK    4  A    between atoms: C13_23  and  N5_24 
ROOT
HETATM    1  C3  UNL     1      -6.178   9.031  10.817  1.00  0.00     0.130 A 
HETATM    2  N2  UNL     1      -6.744   7.939  11.427  1.00  0.00    -0.334 N 
ATOM      3  H2  UNL     1      -7.662   8.035  11.860  1.00  0.00     0.168 HD
HETATM    4  C4  UNL     1      -6.122   6.743  11.472  1.00  0.00     0.134 A 
HETATM    5  N4  UNL     1      -4.926   6.676  10.877  1.00  0.00    -0.325 N 
ATOM      6  H4  UNL     1      -4.438   5.780  10.896  1.00  0.00     0.169 HD
HETATM    7  C13 UNL     1      -4.324   7.694  10.259  1.00  0.00     0.132 A 
HETATM    8  C19 UNL     1      -4.950   8.933  10.213  1.00  0.00     0.122 A 
HETATM    9  N7  UNL     1      -4.335  10.061   9.561  1.00  0.00    -0.096 NA
ENDROOT
BRANCH   4  10
HETATM   10  C5  UNL     1      -6.713   5.565  12.135  1.00  0.00     0.077 A 
HETATM   11  C6  UNL     1      -6.064   4.735  12.964  1.00  0.00     0.044 A 
HETATM   12  C7  UNL     1      -6.655   3.616  13.489  1.00  0.00    -0.012 A 
HETATM   13  C11 UNL     1      -7.986   3.348  13.129  1.00  0.00     0.138 A 
HETATM   14  F1  UNL     1      -8.556   2.244  13.633  1.00  0.00    -0.204 F 
HETATM   15  C12 UNL     1      -8.644   4.188  12.295  1.00  0.00     0.131 A 
HETATM   16  N3  UNL     1      -8.008   5.260  11.827  1.00  0.00    -0.360 N 
ATOM     17  H3  UNL     1      -8.516   5.887  11.203  1.00  0.00     0.165 HD
BRANCH  12  18
HETATM   18  C8  UNL     1      -5.956   2.597  14.262  1.00  0.00     0.013 C 
HETATM   19  C9  UNL     1      -4.745   3.055  15.050  1.00  0.00     0.015 C 
HETATM   20  C10 UNL     1      -5.291   1.710  13.114  1.00  0.00     0.015 C 
ENDBRANCH  12  18
ENDBRANCH   4  10
BRANCH   1  21
HETATM   21  C2  UNL     1      -6.824  10.320  10.992  1.00  0.00     0.269 C 
HETATM   22  N1  UNL     1      -6.293  11.439  11.621  1.00  0.00    -0.360 N 
HETATM   23  C1  UNL     1      -7.011  12.696  11.698  1.00  0.00     0.149 C 
ATOM     24  H1  UNL     1      -5.366  11.374  12.043  1.00  0.00     0.162 HD
HETATM   25  O1  UNL     1      -8.004  10.377  10.484  1.00  0.00    -0.266 OA
ENDBRANCH   1  21
BRANCH   7  26
HETATM   26  N5  UNL     1      -3.069   7.543   9.617  1.00  0.00    -0.364 N 
HETATM   27  C14 UNL     1      -2.999   6.890   8.309  1.00  0.00     0.126 C 
HETATM   28  C15 UNL     1      -2.885   7.969   7.263  1.00  0.00     0.047 C 
HETATM   29  C16 UNL     1      -1.504   8.553   7.200  1.00  0.00     0.234 C 
HETATM   30  N6  UNL     1      -1.137   9.199   8.451  1.00  0.00    -0.074 N 
HETATM   31  C17 UNL     1      -0.758   8.254   9.489  1.00  0.00     0.252 C 
ATOM     32  H62 UNL     1      -0.403   9.891   8.302  1.00  0.00     0.277 HD
ATOM     33  H61 UNL     1      -1.883   9.815   8.775  1.00  0.00     0.277 HD
HETATM   34  C18 UNL     1      -1.961   8.084  10.375  1.00  0.00     0.152 C 
ENDBRANCH   7  26
TORSDOF 4
ENDMDL
MODEL 3
REMARK VINA RESULT: -6.303137964      3.131      7.487
REMARK  4 active torsions:
REMARK  status: ('A' for Active; 'I' for Inactive)
REMARK       I    between atoms: N1_2  and  C2_4 
REMARK    1  A    between atoms: C2_4  and  C3_6 
REMARK    2  A    between atoms: C4_9  and  C5_10 
REMARK    3  A    between atoms: C7_12  and  C8_13 
REMARK    4  A    between atoms: C13_23  and  N5_24 
ROOT
HETATM    1  C3  UNL     1      -6.796   5.883  12.025  1.00  0.00     0.130 A 
HETATM    2  N2  UNL     1      -5.769   5.939  11.116  1.00  0.00    -0.334 N 
ATOM      3  H2  UNL     1      -5.364   5.068  10.773  1.00  0.00     0.168 HD
HETATM    4  C4  UNL     1      -5.278   7.110  10.664  1.00  0.00     0.134 A 
HETATM    5  N4  UNL     1      -5.858   8.217  11.140  1.00  0.00    -0.325 N 
ATOM      6  H4  UNL     1      -5.504   9.116  10.810  1.00  0.00     0.169 HD
HETATM    7  C13 UNL     1      -6.864   8.235  12.016  1.00  0.00     0.132 A 
HETATM    8  C19 UNL     1      -7.373   7.034  12.496  1.00  0.00     0.122 A 
HETATM    9  N7  UNL     1      -8.456   7.005  13.447  1.00  0.00    -0.096 NA
ENDROOT
BRANCH   4  10
HETATM   10  C5  UNL     1      -4.166   7.185   9.697  1.00  0.00     0.077 A 
HETATM   11  C6  UNL     1      -3.005   7.824   9.899  1.00  0.00     0.044 A 
HETATM   12  C7  UNL     1      -2.042   7.915   8.928  1.00  0.00    -0.012 A 
HETATM   13  C11 UNL     1      -2.305   7.315   7.686  1.00  0.00     0.138 A 
HETATM   14  F1  UNL     1      -1.367   7.419   6.734  1.00  0.00    -0.204 F 
HETATM   15  C12 UNL     1      -3.477   6.666   7.483  1.00  0.00     0.131 A 
HETATM   16  N3  UNL     1      -4.364   6.613   8.473  1.00  0.00    -0.360 N 
ATOM     17  H3  UNL     1      -5.240   6.117   8.308  1.00  0.00     0.165 HD
BRANCH  12  18
HETATM   18  C8  UNL     1      -0.836   8.727   9.034  1.00  0.00     0.013 C 
HETATM   19  C9  UNL     1       0.476   7.979   9.166  1.00  0.00     0.015 C 
HETATM   20  C10 UNL     1      -0.999   9.373  10.484  1.00  0.00     0.015 C 
ENDBRANCH  12  18
ENDBRANCH   4  10
BRANCH   1  21
HETATM   21  C2  UNL     1      -7.122   4.592  12.606  1.00  0.00     0.269 C 
HETATM   22  N1  UNL     1      -8.257   3.829  12.360  1.00  0.00    -0.360 N 
HETATM   23  C1  UNL     1      -8.458   2.526  12.962  1.00  0.00     0.149 C 
ATOM     24  H1  UNL     1      -8.973   4.199  11.734  1.00  0.00     0.162 HD
HETATM   25  O1  UNL     1      -6.225   4.153  13.418  1.00  0.00    -0.266 OA
ENDBRANCH   1  21
BRANCH   7  26
HETATM   26  N5  UNL     1      -7.456   9.447  12.453  1.00  0.00    -0.364 N 
HETATM   27  C14 UNL     1      -6.987  10.077  13.688  1.00  0.00     0.126 C 
HETATM   28  C15 UNL     1      -6.063  11.205  13.305  1.00  0.00     0.047 C 
HETATM   29  C16 UNL     1      -6.812  12.408  12.812  1.00  0.00     0.234 C 
HETATM   30  N6  UNL     1      -7.567  12.111  11.603  1.00  0.00    -0.074 N 
HETATM   31  C17 UNL     1      -8.795  11.377  11.867  1.00  0.00     0.252 C 
ATOM     32  H62 UNL     1      -7.758  12.962  11.074  1.00  0.00     0.277 HD
ATOM     33  H61 UNL     1      -6.988  11.618  10.923  1.00  0.00     0.277 HD
HETATM   34  C18 UNL     1      -8.500   9.931  11.575  1.00  0.00     0.152 C 
ENDBRANCH   7  26
TORSDOF 4
ENDMDL
MODEL 4
REMARK VINA RESULT: -6.238021179      1.225      1.841
REMARK  4 active torsions:
REMARK  status: ('A' for Active; 'I' for Inactive)
REMARK       I    between atoms: N1_2  and  C2_4 
REMARK    1  A    between atoms: C2_4  and  C3_6 
REMARK    2  A    between atoms: C4_9  and  C5_10 
REMARK    3  A    between atoms: C7_12  and  C8_13 
REMARK    4  A    between atoms: C13_23  and  N5_24 
ROOT
HETATM    1  C3  UNL     1      -6.620  10.573  11.019  1.00  0.00     0.130 A 
HETATM    2  N2  UNL     1      -7.048   9.349  11.469  1.00  0.00    -0.334 N 
ATOM      3  H2  UNL     1      -7.979   9.270  11.879  1.00  0.00     0.168 HD
HETATM    4  C4  UNL     1      -6.276   8.247  11.384  1.00  0.00     0.134 A 
HETATM    5  N4  UNL     1      -5.072   8.410  10.826  1.00  0.00    -0.325 N 
ATOM      6  H4  UNL     1      -4.471   7.589  10.749  1.00  0.00     0.169 HD
HETATM    7  C13 UNL     1      -4.597   9.567  10.361  1.00  0.00     0.132 A 
HETATM    8  C19 UNL     1      -5.380  10.712  10.450  1.00  0.00     0.122 A 
HETATM    9  N7  UNL     1      -4.907  11.984   9.966  1.00  0.00    -0.096 NA
ENDROOT
BRANCH   4  10
HETATM   10  C5  UNL     1      -6.719   6.927  11.874  1.00  0.00     0.077 A 
HETATM   11  C6  UNL     1      -7.994   6.549  12.038  1.00  0.00     0.044 A 
HETATM   12  C7  UNL     1      -8.334   5.332  12.568  1.00  0.00    -0.012 A 
HETATM   13  C11 UNL     1      -7.292   4.469  12.948  1.00  0.00     0.138 A 
HETATM   14  F1  UNL     1      -7.629   3.285  13.479  1.00  0.00    -0.204 F 
HETATM   15  C12 UNL     1      -6.003   4.849  12.778  1.00  0.00     0.131 A 
HETATM   16  N3  UNL     1      -5.748   6.045  12.252  1.00  0.00    -0.360 N 
ATOM     17  H3  UNL     1      -4.773   6.316  12.126  1.00  0.00     0.165 HD
BRANCH  12  18
HETATM   18  C8  UNL     1      -9.691   4.932  12.917  1.00  0.00     0.013 C 
HETATM   19  C9  UNL     1     -10.360   3.929  11.999  1.00  0.00     0.015 C 
HETATM   20  C10 UNL     1     -10.516   6.264  12.614  1.00  0.00     0.015 C 
ENDBRANCH  12  18
ENDBRANCH   4  10
BRANCH   1  21
HETATM   21  C2  UNL     1      -7.432  11.736  11.334  1.00  0.00     0.269 C 
HETATM   22  N1  UNL     1      -6.989  12.946  11.854  1.00  0.00    -0.360 N 
HETATM   23  C1  UNL     1      -7.885  14.061  12.085  1.00  0.00     0.149 C 
ATOM     24  H1  UNL     1      -6.000  13.053  12.080  1.00  0.00     0.162 HD
HETATM   25  O1  UNL     1      -8.681  11.576  11.073  1.00  0.00    -0.266 OA
ENDBRANCH   1  21
BRANCH   7  26
HETATM   26  N5  UNL     1      -3.322   9.662   9.748  1.00  0.00    -0.364 N 
HETATM   27  C14 UNL     1      -2.151   9.992  10.560  1.00  0.00     0.126 C 
HETATM   28  C15 UNL     1      -1.409   8.710  10.839  1.00  0.00     0.047 C 
HETATM   29  C16 UNL     1      -0.625   8.240   9.650  1.00  0.00     0.234 C 
HETATM   30  N6  UNL     1      -1.492   7.938   8.520  1.00  0.00    -0.074 N 
HETATM   31  C17 UNL     1      -1.953   9.128   7.824  1.00  0.00     0.252 C 
ATOM     32  H62 UNL     1      -1.038   7.291   7.875  1.00  0.00     0.277 HD
ATOM     33  H61 UNL     1      -2.280   7.358   8.811  1.00  0.00     0.277 HD
HETATM   34  C18 UNL     1      -3.345   9.405   8.323  1.00  0.00     0.152 C 
ENDBRANCH   7  26
TORSDOF 4
ENDMDL
MODEL 5
REMARK VINA RESULT: -6.228756388      3.294      7.748
REMARK  4 active torsions:
REMARK  status: ('A' for Active; 'I' for Inactive)
REMARK       I    between atoms: N1_2  and  C2_4 
REMARK    1  A    between atoms: C2_4  and  C3_6 
REMARK    2  A    between atoms: C4_9  and  C5_10 
REMARK    3  A    between atoms: C7_12  and  C8_13 
REMARK    4  A    between atoms: C13_23  and  N5_24 
ROOT
HETATM    1  C3  UNL     1      -6.698   5.758  12.093  1.00  0.00     0.130 A 
HETATM    2  N2  UNL     1      -5.690   5.850  11.165  1.00  0.00    -0.334 N 
ATOM      3  H2  UNL     1      -5.274   4.994  10.800  1.00  0.00     0.168 HD
HETATM    4  C4  UNL     1      -5.233   7.039  10.723  1.00  0.00     0.134 A 
HETATM    5  N4  UNL     1      -5.826   8.126  11.228  1.00  0.00    -0.325 N 
ATOM      6  H4  UNL     1      -5.497   9.036  10.906  1.00  0.00     0.169 HD
HETATM    7  C13 UNL     1      -6.814   8.108  12.124  1.00  0.00     0.132 A 
HETATM    8  C19 UNL     1      -7.289   6.890  12.594  1.00  0.00     0.122 A 
HETATM    9  N7  UNL     1      -8.352   6.822  13.565  1.00  0.00    -0.096 NA
ENDROOT
BRANCH   4  10
HETATM   10  C5  UNL     1      -4.142   7.152   9.736  1.00  0.00     0.077 A 
HETATM   11  C6  UNL     1      -2.983   7.797   9.932  1.00  0.00     0.044 A 
HETATM   12  C7  UNL     1      -2.042   7.926   8.945  1.00  0.00    -0.012 A 
HETATM   13  C11 UNL     1      -2.325   7.358   7.691  1.00  0.00     0.138 A 
HETATM   14  F1  UNL     1      -1.408   7.499   6.723  1.00  0.00    -0.204 F 
HETATM   15  C12 UNL     1      -3.494   6.703   7.494  1.00  0.00     0.131 A 
HETATM   16  N3  UNL     1      -4.360   6.613   8.500  1.00  0.00    -0.360 N 
ATOM     17  H3  UNL     1      -5.234   6.113   8.340  1.00  0.00     0.165 HD
BRANCH  12  18
HETATM   18  C8  UNL     1      -0.842   8.747   9.048  1.00  0.00     0.013 C 
HETATM   19  C9  UNL     1       0.481   8.009   9.119  1.00  0.00     0.015 C 
HETATM   20  C10 UNL     1      -0.973   9.338  10.524  1.00  0.00     0.015 C 
ENDBRANCH  12  18
ENDBRANCH   4  10
BRANCH   1  21
HETATM   21  C2  UNL     1      -6.985   4.452  12.660  1.00  0.00     0.269 C 
HETATM   22  N1  UNL     1      -8.150   3.711  12.499  1.00  0.00    -0.360 N 
HETATM   23  C1  UNL     1      -8.311   2.391  13.074  1.00  0.00     0.149 C 
ATOM     24  H1  UNL     1      -8.918   4.111  11.958  1.00  0.00     0.162 HD
HETATM   25  O1  UNL     1      -6.021   3.975  13.365  1.00  0.00    -0.266 OA
ENDBRANCH   1  21
BRANCH   7  26
HETATM   26  N5  UNL     1      -7.423   9.300  12.592  1.00  0.00    -0.364 N 
HETATM   27  C14 UNL     1      -8.409   9.986  11.757  1.00  0.00     0.126 C 
HETATM   28  C15 UNL     1      -9.778   9.630  12.278  1.00  0.00     0.047 C 
HETATM   29  C16 UNL     1     -10.118  10.377  13.534  1.00  0.00     0.234 C 
HETATM   30  N6  UNL     1      -9.203  10.048  14.618  1.00  0.00    -0.074 N 
HETATM   31  C17 UNL     1      -7.915  10.713  14.496  1.00  0.00     0.252 C 
ATOM     32  H62 UNL     1      -9.628  10.241  15.525  1.00  0.00     0.277 HD
ATOM     33  H61 UNL     1      -9.084   9.038  14.701  1.00  0.00     0.277 HD
HETATM   34  C18 UNL     1      -6.967   9.706  13.905  1.00  0.00     0.152 C 
ENDBRANCH   7  26
TORSDOF 4
ENDMDL
