MODEL 1
REMARK VINA RESULT: -7.451605810      0.000      0.000
REMARK  6 active torsions:
REMARK  status: ('A' for Active; 'I' for Inactive)
REMARK    1  A    between atoms: O1_1  and  C1_3 
REMARK    2  A    between atoms: C2_7  and  N2_8 
REMARK    3  A    between atoms: N2_8  and  C3_10 
REMARK    4  A    between atoms: C9_16  and  O2_17 
REMARK    5  A    between atoms: C10_20  and  O4_21 
REMARK    6  A    between atoms: C11_23  and  O5_24 
ROOT
HETATM    1  C1  UNL     1      -2.548   2.267  58.699  1.00  0.00     0.355 C 
HETATM    2  N1  UNL     1      -1.693   1.229  58.135  1.00  0.00    -0.021 N 
ATOM      3  H11 UNL     1      -1.708   0.353  58.657  1.00  0.00     0.283 HD
ATOM      4  H12 UNL     1      -0.695   1.413  58.241  1.00  0.00     0.283 HD
HETATM    5  C2  UNL     1      -2.128   1.095  56.731  1.00  0.00     0.343 C 
HETATM    6  C9  UNL     1      -3.375   0.290  56.692  1.00  0.00     0.310 C 
HETATM    7  O3  UNL     1      -4.467   1.144  56.556  1.00  0.00    -0.325 OA
HETATM    8  C10 UNL     1      -4.811   1.840  57.677  1.00  0.00     0.293 C 
HETATM    9  C11 UNL     1      -3.921   1.698  58.857  1.00  0.00     0.229 C 
ENDROOT
BRANCH   5  10
HETATM   10  N2  UNL     1      -1.045   0.649  55.924  1.00  0.00    -0.359 N 
ATOM     11  H2  UNL     1      -0.889  -0.359  55.900  1.00  0.00     0.162 HD
BRANCH  10  12
HETATM   12  C3  UNL     1      -0.161   1.433  55.152  1.00  0.00     0.029 A 
HETATM   13  C4  UNL     1       0.012   1.144  53.809  1.00  0.00     0.029 A 
HETATM   14  C5  UNL     1       0.850   1.849  52.971  1.00  0.00     0.002 A 
HETATM   15  C6  UNL     1       1.545   2.895  53.525  1.00  0.00     0.000 A 
HETATM   16  C7  UNL     1       1.399   3.211  54.854  1.00  0.00     0.002 A 
HETATM   17  C8  UNL     1       0.553   2.488  55.666  1.00  0.00     0.029 A 
ENDBRANCH  10  12
ENDBRANCH   5  10
BRANCH   6  18
HETATM   18  O2  UNL     1      -3.385  -0.518  55.530  1.00  0.00    -0.367 OA
ATOM     19  H2  UNL     1      -2.852  -1.292  55.672  1.00  0.00     0.212 HD
ENDBRANCH   6  18
BRANCH   1  20
HETATM   20  O1  UNL     1      -2.561   3.420  57.951  1.00  0.00    -0.368 OA
ATOM     21  H1  UNL     1      -2.533   4.209  58.480  1.00  0.00     0.212 HD
ENDBRANCH   1  20
BRANCH   9  22
HETATM   22  O5  UNL     1      -4.519   2.410  59.924  1.00  0.00    -0.386 OA
ATOM     23  H5  UNL     1      -5.427   2.542  59.677  1.00  0.00     0.210 HD
ENDBRANCH   9  22
BRANCH   8  24
HETATM   24  O4  UNL     1      -4.849   3.212  57.344  1.00  0.00    -0.368 OA
ATOM     25  H4  UNL     1      -4.171   3.654  57.841  1.00  0.00     0.212 HD
ENDBRANCH   8  24
TORSDOF 6
ENDMDL
MODEL 2
REMARK VINA RESULT: -7.241740682      4.351      6.893
REMARK  6 active torsions:
REMARK  status: ('A' for Active; 'I' for Inactive)
REMARK    1  A    between atoms: O1_1  and  C1_3 
REMARK    2  A    between atoms: C2_7  and  N2_8 
REMARK    3  A    between atoms: N2_8  and  C3_10 
REMARK    4  A    between atoms: C9_16  and  O2_17 
REMARK    5  A    between atoms: C10_20  and  O4_21 
REMARK    6  A    between atoms: C11_23  and  O5_24 
ROOT
HETATM    1  C1  UNL     1       3.636   2.894  53.347  1.00  0.00     0.355 C 
HETATM    2  N1  UNL     1       2.426   3.533  53.850  1.00  0.00    -0.021 N 
ATOM      3  H11 UNL     1       2.083   4.291  53.260  1.00  0.00     0.283 HD
ATOM      4  H12 UNL     1       2.574   4.095  54.689  1.00  0.00     0.283 HD
HETATM    5  C2  UNL     1       1.460   2.433  54.033  1.00  0.00     0.343 C 
HETATM    6  C9  UNL     1       0.890   2.073  52.710  1.00  0.00     0.310 C 
HETATM    7  O3  UNL     1       1.530   0.931  52.233  1.00  0.00    -0.325 OA
HETATM    8  C10 UNL     1       2.797   1.118  51.768  1.00  0.00     0.293 C 
HETATM    9  C11 UNL     1       3.382   2.474  51.935  1.00  0.00     0.229 C 
ENDROOT
BRANCH   5  10
HETATM   10  N2  UNL     1       0.537   2.759  55.066  1.00  0.00    -0.359 N 
ATOM     11  H2  UNL     1       0.070   3.662  54.981  1.00  0.00     0.162 HD
BRANCH  10  12
HETATM   12  C3  UNL     1       0.191   1.983  56.193  1.00  0.00     0.029 A 
HETATM   13  C4  UNL     1       0.122   0.605  56.077  1.00  0.00     0.029 A 
HETATM   14  C5  UNL     1      -0.206  -0.240  57.116  1.00  0.00     0.002 A 
HETATM   15  C6  UNL     1      -0.477   0.344  58.329  1.00  0.00     0.000 A 
HETATM   16  C7  UNL     1      -0.419   1.708  58.481  1.00  0.00     0.002 A 
HETATM   17  C8  UNL     1      -0.088   2.526  57.423  1.00  0.00     0.029 A 
ENDBRANCH  10  12
ENDBRANCH   5  10
BRANCH   6  18
HETATM   18  O2  UNL     1      -0.469   1.707  52.858  1.00  0.00    -0.367 OA
ATOM     19  H2  UNL     1      -0.980   2.072  52.145  1.00  0.00     0.212 HD
ENDBRANCH   6  18
BRANCH   1  20
HETATM   20  O1  UNL     1       4.051   1.838  54.123  1.00  0.00    -0.368 OA
ATOM     21  H1  UNL     1       3.922   0.995  53.705  1.00  0.00     0.212 HD
ENDBRANCH   1  20
BRANCH   9  22
HETATM   22  O5  UNL     1       4.645   2.469  51.294  1.00  0.00    -0.386 OA
ATOM     23  H5  UNL     1       4.787   3.357  50.986  1.00  0.00     0.210 HD
ENDBRANCH   9  22
BRANCH   8  24
HETATM   24  O4  UNL     1       3.646   0.210  52.440  1.00  0.00    -0.368 OA
ATOM     25  H4  UNL     1       3.101  -0.397  52.926  1.00  0.00     0.212 HD
ENDBRANCH   8  24
TORSDOF 6
ENDMDL
MODEL 3
REMARK VINA RESULT: -7.234834282      4.113      6.455
REMARK  6 active torsions:
REMARK  status: ('A' for Active; 'I' for Inactive)
REMARK    1  A    between atoms: O1_1  and  C1_3 
REMARK    2  A    between atoms: C2_7  and  N2_8 
REMARK    3  A    between atoms: N2_8  and  C3_10 
REMARK    4  A    between atoms: C9_16  and  O2_17 
REMARK    5  A    between atoms: C10_20  and  O4_21 
REMARK    6  A    between atoms: C11_23  and  O5_24 
ROOT
HETATM    1  C1  UNL     1       1.740   3.896  54.362  1.00  0.00     0.355 C 
HETATM    2  N1  UNL     1       0.461   3.287  54.018  1.00  0.00    -0.021 N 
ATOM      3  H11 UNL     1      -0.012   3.735  53.233  1.00  0.00     0.283 HD
ATOM      4  H12 UNL     1      -0.274   3.452  54.706  1.00  0.00     0.283 HD
HETATM    5  C2  UNL     1       0.762   1.860  53.798  1.00  0.00     0.343 C 
HETATM    6  C9  UNL     1       1.363   1.701  52.449  1.00  0.00     0.310 C 
HETATM    7  O3  UNL     1       2.746   1.587  52.575  1.00  0.00    -0.325 OA
HETATM    8  C10 UNL     1       3.406   2.744  52.863  1.00  0.00     0.293 C 
HETATM    9  C11 UNL     1       2.575   3.948  53.123  1.00  0.00     0.229 C 
ENDROOT
BRANCH   5  10
HETATM   10  N2  UNL     1      -0.382   1.067  54.092  1.00  0.00    -0.359 N 
ATOM     11  H2  UNL     1      -1.006   0.872  53.310  1.00  0.00     0.162 HD
BRANCH  10  12
HETATM   12  C3  UNL     1      -0.756   0.519  55.338  1.00  0.00     0.029 A 
HETATM   13  C4  UNL     1      -2.098   0.326  55.622  1.00  0.00     0.029 A 
HETATM   14  C5  UNL     1      -2.566  -0.203  56.807  1.00  0.00     0.002 A 
HETATM   15  C6  UNL     1      -1.626  -0.550  57.745  1.00  0.00     0.000 A 
HETATM   16  C7  UNL     1      -0.286  -0.372  57.498  1.00  0.00     0.002 A 
HETATM   17  C8  UNL     1       0.151   0.158  56.304  1.00  0.00     0.029 A 
ENDBRANCH  10  12
ENDBRANCH   5  10
BRANCH   6  18
HETATM   18  O2  UNL     1       0.938   0.478  51.877  1.00  0.00    -0.367 OA
ATOM     19  H2  UNL     1       1.005   0.525  50.931  1.00  0.00     0.212 HD
ENDBRANCH   6  18
BRANCH   1  20
HETATM   20  O1  UNL     1       2.390   3.244  55.383  1.00  0.00    -0.368 OA
ATOM     21  H1  UNL     1       2.614   2.345  55.170  1.00  0.00     0.212 HD
ENDBRANCH   1  20
BRANCH   9  22
HETATM   22  O5  UNL     1       3.457   5.042  53.291  1.00  0.00    -0.386 OA
ATOM     23  H5  UNL     1       3.718   5.306  52.416  1.00  0.00     0.210 HD
ENDBRANCH   9  22
BRANCH   8  24
HETATM   24  O4  UNL     1       4.194   2.523  54.015  1.00  0.00    -0.368 OA
ATOM     25  H4  UNL     1       4.668   3.323  54.204  1.00  0.00     0.212 HD
ENDBRANCH   8  24
TORSDOF 6
ENDMDL
MODEL 4
REMARK VINA RESULT: -7.177257253      1.791      2.489
REMARK  6 active torsions:
REMARK  status: ('A' for Active; 'I' for Inactive)
REMARK    1  A    between atoms: O1_1  and  C1_3 
REMARK    2  A    between atoms: C2_7  and  N2_8 
REMARK    3  A    between atoms: N2_8  and  C3_10 
REMARK    4  A    between atoms: C9_16  and  O2_17 
REMARK    5  A    between atoms: C10_20  and  O4_21 
REMARK    6  A    between atoms: C11_23  and  O5_24 
ROOT
HETATM    1  C1  UNL     1      -0.670   0.142  57.247  1.00  0.00     0.355 C 
HETATM    2  N1  UNL     1      -0.229   0.115  55.857  1.00  0.00    -0.021 N 
ATOM      3  H11 UNL     1      -0.283  -0.807  55.425  1.00  0.00     0.283 HD
ATOM      4  H12 UNL     1       0.776   0.242  55.740  1.00  0.00     0.283 HD
HETATM    5  C2  UNL     1      -1.043   1.141  55.178  1.00  0.00     0.343 C 
HETATM    6  C9  UNL     1      -2.393   0.582  54.910  1.00  0.00     0.310 C 
HETATM    7  O3  UNL     1      -3.282   1.052  55.875  1.00  0.00    -0.325 OA
HETATM    8  C10 UNL     1      -3.162   0.487  57.109  1.00  0.00     0.293 C 
HETATM    9  C11 UNL     1      -2.036  -0.461  57.309  1.00  0.00     0.229 C 
ENDROOT
BRANCH   5  10
HETATM   10  N2  UNL     1      -0.332   1.672  54.066  1.00  0.00    -0.359 N 
ATOM     11  H2  UNL     1      -0.578   1.290  53.153  1.00  0.00     0.162 HD
BRANCH  10  12
HETATM   12  C3  UNL     1       0.672   2.664  54.075  1.00  0.00     0.029 A 
HETATM   13  C4  UNL     1       1.507   2.799  52.978  1.00  0.00     0.029 A 
HETATM   14  C5  UNL     1       2.516   3.735  52.889  1.00  0.00     0.002 A 
HETATM   15  C6  UNL     1       2.682   4.572  53.965  1.00  0.00     0.000 A 
HETATM   16  C7  UNL     1       1.873   4.467  55.069  1.00  0.00     0.002 A 
HETATM   17  C8  UNL     1       0.873   3.521  55.129  1.00  0.00     0.029 A 
ENDBRANCH  10  12
ENDBRANCH   5  10
BRANCH   6  18
HETATM   18  O2  UNL     1      -2.880   1.078  53.678  1.00  0.00    -0.367 OA
ATOM     19  H2  UNL     1      -3.291   0.375  53.189  1.00  0.00     0.212 HD
ENDBRANCH   6  18
BRANCH   1  20
HETATM   20  O1  UNL     1      -0.647   1.402  57.796  1.00  0.00    -0.368 OA
ATOM     21  H1  UNL     1      -0.547   1.396  58.741  1.00  0.00     0.212 HD
ENDBRANCH   1  20
BRANCH   9  22
HETATM   22  O5  UNL     1      -2.167  -1.001  58.612  1.00  0.00    -0.386 OA
ATOM     23  H5  UNL     1      -1.284  -1.085  58.952  1.00  0.00     0.210 HD
ENDBRANCH   9  22
BRANCH   8  24
HETATM   24  O4  UNL     1      -3.006   1.528  58.052  1.00  0.00    -0.368 OA
ATOM     25  H4  UNL     1      -2.585   1.165  58.822  1.00  0.00     0.212 HD
ENDBRANCH   8  24
TORSDOF 6
ENDMDL
MODEL 5
REMARK VINA RESULT: -7.171458937      1.611      1.968
REMARK  6 active torsions:
REMARK  status: ('A' for Active; 'I' for Inactive)
REMARK    1  A    between atoms: O1_1  and  C1_3 
REMARK    2  A    between atoms: C2_7  and  N2_8 
REMARK    3  A    between atoms: N2_8  and  C3_10 
REMARK    4  A    between atoms: C9_16  and  O2_17 
REMARK    5  A    between atoms: C10_20  and  O4_21 
REMARK    6  A    between atoms: C11_23  and  O5_24 
ROOT
HETATM    1  C1  UNL     1      -0.730   3.410  58.981  1.00  0.00     0.355 C 
HETATM    2  N1  UNL     1      -0.033   2.417  58.171  1.00  0.00    -0.021 N 
ATOM      3  H11 UNL     1       0.077   1.513  58.630  1.00  0.00     0.283 HD
ATOM      4  H12 UNL     1       0.961   2.609  58.049  1.00  0.00     0.283 HD
HETATM    5  C2  UNL     1      -0.789   2.357  56.905  1.00  0.00     0.343 C 
HETATM    6  C9  UNL     1      -2.009   1.537  57.116  1.00  0.00     0.310 C 
HETATM    7  O3  UNL     1      -3.103   2.383  57.293  1.00  0.00    -0.325 OA
HETATM    8  C10 UNL     1      -3.171   3.009  58.501  1.00  0.00     0.293 C 
HETATM    9  C11 UNL     1      -2.026   2.813  59.427  1.00  0.00     0.229 C 
ENDROOT
BRANCH   5  10
HETATM   10  N2  UNL     1       0.072   1.972  55.840  1.00  0.00    -0.359 N 
ATOM     11  H2  UNL     1       0.079   0.979  55.606  1.00  0.00     0.162 HD
BRANCH  10  12
HETATM   12  C3  UNL     1       0.916   2.799  55.068  1.00  0.00     0.029 A 
HETATM   13  C4  UNL     1       1.292   2.394  53.798  1.00  0.00     0.029 A 
HETATM   14  C5  UNL     1       2.110   3.128  52.967  1.00  0.00     0.002 A 
HETATM   15  C6  UNL     1       2.570   4.329  53.450  1.00  0.00     0.000 A 
HETATM   16  C7  UNL     1       2.219   4.762  54.705  1.00  0.00     0.002 A 
HETATM   17  C8  UNL     1       1.399   4.005  55.513  1.00  0.00     0.029 A 
ENDBRANCH  10  12
ENDBRANCH   5  10
BRANCH   6  18
HETATM   18  O2  UNL     1      -2.295   0.796  55.945  1.00  0.00    -0.367 OA
ATOM     19  H2  UNL     1      -1.832  -0.033  55.969  1.00  0.00     0.212 HD
ENDBRANCH   6  18
BRANCH   1  20
HETATM   20  O1  UNL     1      -0.921   4.603  58.326  1.00  0.00    -0.368 OA
ATOM     21  H1  UNL     1      -1.792   4.962  58.450  1.00  0.00     0.212 HD
ENDBRANCH   1  20
BRANCH   9  22
HETATM   22  O5  UNL     1      -2.354   3.456  60.645  1.00  0.00    -0.386 OA
ATOM     23  H5  UNL     1      -1.648   3.255  61.248  1.00  0.00     0.210 HD
ENDBRANCH   9  22
BRANCH   8  24
HETATM   24  O4  UNL     1      -3.287   4.398  58.267  1.00  0.00    -0.368 OA
ATOM     25  H4  UNL     1      -3.276   4.839  59.108  1.00  0.00     0.212 HD
ENDBRANCH   8  24
TORSDOF 6
ENDMDL
