MODEL 1
REMARK VINA RESULT: -6.673556294      0.000      0.000
REMARK  1 active torsions:
REMARK  status: ('A' for Active; 'I' for Inactive)
REMARK    1  A    between atoms: N3_4  and  N4_6 
ROOT
HETATM    1  N4  UNL     1      99.233  10.995   7.531  1.00  0.00    -0.136 N 
HETATM    2  N5  UNL     1      98.928  12.240   7.856  1.00  0.00    -0.225 N 
ATOM      3  H5  UNL     1      99.304  12.734   8.666  1.00  0.00     0.194 HD
HETATM    4  C2  UNL     1      98.059  12.771   6.981  1.00  0.00     0.344 A 
HETATM    5  O1  UNL     1      97.557  13.933   6.988  1.00  0.00    -0.245 OA
HETATM    6  N6  UNL     1      97.802  11.822   6.065  1.00  0.00    -0.257 N 
ATOM      7  H6  UNL     1      97.179  11.903   5.261  1.00  0.00     0.175 HD
HETATM    8  C3  UNL     1      98.525  10.749   6.413  1.00  0.00     0.365 A 
HETATM    9  O2  UNL     1      98.534   9.669   5.781  1.00  0.00    -0.243 OA
ENDROOT
BRANCH   1  10
HETATM   10  N3  UNL     1     100.102  10.165   8.226  1.00  0.00    -0.250 N 
HETATM   11  C1  UNL     1     101.367  10.228   8.156  1.00  0.00     0.217 C 
HETATM   12  N1  UNL     1     101.986  11.192   7.328  1.00  0.00    -0.065 NA
HETATM   13  N2  UNL     1     102.191   9.345   8.897  1.00  0.00    -0.065 NA
ATOM     14  H3  UNL     1      99.696   9.456   8.836  1.00  0.00     0.191 HD
ENDBRANCH   1  10
TORSDOF 1
ENDMDL
MODEL 2
REMARK VINA RESULT: -6.269405166      2.019      4.197
REMARK  1 active torsions:
REMARK  status: ('A' for Active; 'I' for Inactive)
REMARK    1  A    between atoms: N3_4  and  N4_6 
ROOT
HETATM    1  N4  UNL     1      98.956  11.964   6.344  1.00  0.00    -0.136 N 
HETATM    2  N5  UNL     1      99.927  11.918   7.241  1.00  0.00    -0.225 N 
ATOM      3  H5  UNL     1     100.392  12.739   7.629  1.00  0.00     0.194 HD
HETATM    4  C2  UNL     1     100.220  10.651   7.575  1.00  0.00     0.344 A 
HETATM    5  O1  UNL     1     101.090  10.244   8.398  1.00  0.00    -0.245 OA
HETATM    6  N6  UNL     1      99.402   9.862   6.859  1.00  0.00    -0.257 N 
ATOM      7  H6  UNL     1      99.368   8.842   6.878  1.00  0.00     0.175 HD
HETATM    8  C3  UNL     1      98.639  10.676   6.116  1.00  0.00     0.365 A 
HETATM    9  O2  UNL     1      97.755  10.283   5.321  1.00  0.00    -0.243 OA
ENDROOT
BRANCH   1  10
HETATM   10  N3  UNL     1      98.417  13.117   5.789  1.00  0.00    -0.250 N 
HETATM   11  C1  UNL     1      97.679  13.938   6.414  1.00  0.00     0.217 C 
HETATM   12  N1  UNL     1      97.352  13.711   7.771  1.00  0.00    -0.065 NA
HETATM   13  N2  UNL     1      97.165  15.096   5.780  1.00  0.00    -0.065 NA
ATOM     14  H3  UNL     1      98.630  13.318   4.812  1.00  0.00     0.191 HD
ENDBRANCH   1  10
TORSDOF 1
ENDMDL
MODEL 3
REMARK VINA RESULT: -6.129689720      2.103      2.243
REMARK  1 active torsions:
REMARK  status: ('A' for Active; 'I' for Inactive)
REMARK    1  A    between atoms: N3_4  and  N4_6 
ROOT
HETATM    1  N4  UNL     1      99.542  12.170   6.560  1.00  0.00    -0.136 N 
HETATM    2  N5  UNL     1      99.291  12.834   7.675  1.00  0.00    -0.225 N 
ATOM      3  H5  UNL     1      99.995  13.078   8.373  1.00  0.00     0.194 HD
HETATM    4  C2  UNL     1      97.988  13.146   7.771  1.00  0.00     0.344 A 
HETATM    5  O1  UNL     1      97.404  13.774   8.701  1.00  0.00    -0.245 OA
HETATM    6  N6  UNL     1      97.391  12.658   6.671  1.00  0.00    -0.257 N 
ATOM      7  H6  UNL     1      96.400  12.724   6.436  1.00  0.00     0.175 HD
HETATM    8  C3  UNL     1      98.350  12.068   5.945  1.00  0.00     0.365 A 
HETATM    9  O2  UNL     1      98.154  11.502   4.846  1.00  0.00    -0.243 OA
ENDROOT
BRANCH   1  10
HETATM   10  N3  UNL     1     100.786  11.701   6.157  1.00  0.00    -0.250 N 
HETATM   11  C1  UNL     1     101.839  12.407   6.109  1.00  0.00     0.217 C 
HETATM   12  N1  UNL     1     101.799  13.771   6.481  1.00  0.00    -0.065 NA
HETATM   13  N2  UNL     1     103.075  11.858   5.687  1.00  0.00    -0.065 NA
ATOM     14  H3  UNL     1     100.858  10.722   5.882  1.00  0.00     0.191 HD
ENDBRANCH   1  10
TORSDOF 1
ENDMDL
MODEL 4
REMARK VINA RESULT: -5.896923704      1.885      2.088
REMARK  1 active torsions:
REMARK  status: ('A' for Active; 'I' for Inactive)
REMARK    1  A    between atoms: N3_4  and  N4_6 
ROOT
HETATM    1  N4  UNL     1     100.437  10.634   7.789  1.00  0.00    -0.136 N 
HETATM    2  N5  UNL     1     101.146  11.751   7.778  1.00  0.00    -0.225 N 
ATOM      3  H5  UNL     1     101.824  12.011   8.496  1.00  0.00     0.194 HD
HETATM    4  C2  UNL     1     100.859  12.497   6.700  1.00  0.00     0.344 A 
HETATM    5  O1  UNL     1     101.348  13.619   6.376  1.00  0.00    -0.245 OA
HETATM    6  N6  UNL     1      99.929  11.827   6.000  1.00  0.00    -0.257 N 
ATOM      7  H6  UNL     1      99.494  12.121   5.125  1.00  0.00     0.175 HD
HETATM    8  C3  UNL     1      99.684  10.696   6.675  1.00  0.00     0.365 A 
HETATM    9  O2  UNL     1      98.865   9.821   6.313  1.00  0.00    -0.243 OA
ENDROOT
BRANCH   1  10
HETATM   10  N3  UNL     1     100.496   9.646   8.762  1.00  0.00    -0.250 N 
HETATM   11  C1  UNL     1     101.564   9.089   9.158  1.00  0.00     0.217 C 
HETATM   12  N1  UNL     1     102.809   9.464   8.604  1.00  0.00    -0.065 NA
HETATM   13  N2  UNL     1     101.545   8.085  10.158  1.00  0.00    -0.065 NA
ATOM     14  H3  UNL     1      99.618   9.347   9.188  1.00  0.00     0.191 HD
ENDBRANCH   1  10
TORSDOF 1
ENDMDL
MODEL 5
REMARK VINA RESULT: -5.884513956      2.421      4.029
REMARK  1 active torsions:
REMARK  status: ('A' for Active; 'I' for Inactive)
REMARK    1  A    between atoms: N3_4  and  N4_6 
ROOT
HETATM    1  N4  UNL     1      99.018  11.597   6.763  1.00  0.00    -0.136 N 
HETATM    2  N5  UNL     1      98.467  10.596   6.096  1.00  0.00    -0.225 N 
ATOM      3  H5  UNL     1      97.576  10.162   6.340  1.00  0.00     0.194 HD
HETATM    4  C2  UNL     1      99.232  10.226   5.057  1.00  0.00     0.344 A 
HETATM    5  O1  UNL     1      99.010   9.309   4.214  1.00  0.00    -0.245 OA
HETATM    6  N6  UNL     1     100.312  11.024   5.066  1.00  0.00    -0.257 N 
ATOM      7  H6  UNL     1     101.092  11.004   4.408  1.00  0.00     0.175 HD
HETATM    8  C3  UNL     1     100.166  11.853   6.110  1.00  0.00     0.365 A 
HETATM    9  O2  UNL     1     100.991  12.740   6.427  1.00  0.00    -0.243 OA
ENDROOT
BRANCH   1  10
HETATM   10  N3  UNL     1      98.486  12.213   7.888  1.00  0.00    -0.250 N 
HETATM   11  C1  UNL     1      97.812  13.288   7.867  1.00  0.00     0.217 C 
HETATM   12  N1  UNL     1      97.556  13.943   6.640  1.00  0.00    -0.065 NA
HETATM   13  N2  UNL     1      97.299  13.859   9.058  1.00  0.00    -0.065 NA
ATOM     14  H3  UNL     1      98.647  11.771   8.793  1.00  0.00     0.191 HD
ENDBRANCH   1  10
TORSDOF 1
ENDMDL
