MODEL 1
REMARK VINA RESULT: -6.444648624      0.000      0.000
REMARK  2 active torsions:
REMARK  status: ('A' for Active; 'I' for Inactive)
REMARK    1  A    between atoms: N1_1  and  N2_4 
REMARK       I    between atoms: N2_4  and  C1_6 
REMARK       I    between atoms: C1_6  and  N3_8 
REMARK    2  A    between atoms: N3_8  and  C2_10 
ROOT
HETATM    1  C2  UNL     1      98.944  11.830   7.077  1.00  0.00     0.705 A 
HETATM    2  N4  UNL     1      98.091  11.939   8.102  1.00  0.00    -0.128 N 
ATOM      3  H4  UNL     1      98.020  11.305   8.898  1.00  0.00     0.205 HD
HETATM    4  N5  UNL     1      97.361  13.015   7.894  1.00  0.00    -0.237 N 
ATOM      5  H5  UNL     1      96.624  13.349   8.515  1.00  0.00     0.192 HD
HETATM    6  C3  UNL     1      97.726  13.605   6.748  1.00  0.00     0.353 A 
HETATM    7  O2  UNL     1      97.256  14.663   6.208  1.00  0.00    -0.245 OA
HETATM    8  N6  UNL     1      98.718  12.856   6.244  1.00  0.00    -0.138 N 
ATOM      9  H6  UNL     1      99.216  13.037   5.373  1.00  0.00     0.189 HD
ENDROOT
BRANCH   1  10
HETATM   10  N3  UNL     1      99.814  10.890   6.949  1.00  0.00    -0.138 N 
HETATM   11  C1  UNL     1     100.823  10.600   7.878  1.00  0.00     0.352 C 
HETATM   12  N2  UNL     1     101.720  11.605   8.379  1.00  0.00    -0.258 N 
HETATM   13  O1  UNL     1     100.949   9.419   8.291  1.00  0.00    -0.245 OA
ATOM     14  H2  UNL     1     101.631  12.568   8.055  1.00  0.00     0.191 HD
ATOM     15  H3  UNL     1      99.766  10.313   6.109  1.00  0.00     0.189 HD
BRANCH  12  16
HETATM   16  N1  UNL     1     102.713  11.277   9.306  1.00  0.00    -0.341 N 
ATOM     17  H12 UNL     1     102.677  10.364   9.760  1.00  0.00     0.177 HD
ATOM     18  H11 UNL     1     103.460  11.937   9.525  1.00  0.00     0.177 HD
ENDBRANCH  12  16
ENDBRANCH   1  10
TORSDOF 2
ENDMDL
MODEL 2
REMARK VINA RESULT: -6.310243734      1.539      4.955
REMARK  2 active torsions:
REMARK  status: ('A' for Active; 'I' for Inactive)
REMARK    1  A    between atoms: N1_1  and  N2_4 
REMARK       I    between atoms: N2_4  and  C1_6 
REMARK       I    between atoms: C1_6  and  N3_8 
REMARK    2  A    between atoms: N3_8  and  C2_10 
ROOT
HETATM    1  C2  UNL     1     100.867  10.582   8.023  1.00  0.00     0.705 A 
HETATM    2  N4  UNL     1     101.898  11.122   8.684  1.00  0.00    -0.128 N 
ATOM      3  H4  UNL     1     102.311  12.038   8.513  1.00  0.00     0.205 HD
HETATM    4  N5  UNL     1     102.279  10.251   9.596  1.00  0.00    -0.237 N 
ATOM      5  H5  UNL     1     103.047  10.391  10.252  1.00  0.00     0.192 HD
HETATM    6  C3  UNL     1     101.512   9.154   9.536  1.00  0.00     0.353 A 
HETATM    7  O2  UNL     1     101.570   8.097  10.250  1.00  0.00    -0.245 OA
HETATM    8  N6  UNL     1     100.631   9.371   8.548  1.00  0.00    -0.138 N 
ATOM      9  H6  UNL     1      99.903   8.724   8.247  1.00  0.00     0.189 HD
ENDROOT
BRANCH   1  10
HETATM   10  N3  UNL     1     100.239  11.158   7.057  1.00  0.00    -0.138 N 
HETATM   11  C1  UNL     1      99.294  12.181   7.214  1.00  0.00     0.352 C 
HETATM   12  N2  UNL     1      98.176  12.066   8.110  1.00  0.00    -0.258 N 
HETATM   13  O1  UNL     1      99.427  13.240   6.549  1.00  0.00    -0.245 OA
ATOM     14  H2  UNL     1      98.053  11.214   8.657  1.00  0.00     0.191 HD
ATOM     15  H3  UNL     1     100.444  10.845   6.108  1.00  0.00     0.189 HD
BRANCH  12  16
HETATM   16  N1  UNL     1      97.255  13.109   8.240  1.00  0.00    -0.341 N 
ATOM     17  H12 UNL     1      96.626  13.307   7.460  1.00  0.00     0.177 HD
ATOM     18  H11 UNL     1      97.211  13.662   9.096  1.00  0.00     0.177 HD
ENDBRANCH  12  16
ENDBRANCH   1  10
TORSDOF 2
ENDMDL
MODEL 3
REMARK VINA RESULT: -6.184571897      0.897      1.375
REMARK  2 active torsions:
REMARK  status: ('A' for Active; 'I' for Inactive)
REMARK    1  A    between atoms: N1_1  and  N2_4 
REMARK       I    between atoms: N2_4  and  C1_6 
REMARK       I    between atoms: C1_6  and  N3_8 
REMARK    2  A    between atoms: N3_8  and  C2_10 
ROOT
HETATM    1  C2  UNL     1      99.437  11.481   6.899  1.00  0.00     0.705 A 
HETATM    2  N4  UNL     1      99.315  12.158   5.752  1.00  0.00    -0.128 N 
ATOM      3  H4  UNL     1      99.809  11.964   4.881  1.00  0.00     0.205 HD
HETATM    4  N5  UNL     1      98.441  13.122   5.955  1.00  0.00    -0.237 N 
ATOM      5  H5  UNL     1      98.148  13.802   5.253  1.00  0.00     0.192 HD
HETATM    6  C3  UNL     1      97.994  13.081   7.217  1.00  0.00     0.353 A 
HETATM    7  O2  UNL     1      97.145  13.843   7.791  1.00  0.00    -0.245 OA
HETATM    8  N6  UNL     1      98.623  12.049   7.800  1.00  0.00    -0.138 N 
ATOM      9  H6  UNL     1      98.502  11.748   8.767  1.00  0.00     0.189 HD
ENDROOT
BRANCH   1  10
HETATM   10  N3  UNL     1     100.210  10.465   7.068  1.00  0.00    -0.138 N 
HETATM   11  C1  UNL     1     101.017  10.252   8.194  1.00  0.00     0.352 C 
HETATM   12  N2  UNL     1     101.924  11.249   8.692  1.00  0.00    -0.258 N 
HETATM   13  O1  UNL     1     100.947   9.148   8.792  1.00  0.00    -0.245 OA
ATOM     14  H2  UNL     1     101.993  12.150   8.219  1.00  0.00     0.191 HD
ATOM     15  H3  UNL     1     100.238   9.764   6.327  1.00  0.00     0.189 HD
BRANCH  12  16
HETATM   16  N1  UNL     1     102.712  10.999   9.819  1.00  0.00    -0.341 N 
ATOM     17  H12 UNL     1     103.032  10.045   9.990  1.00  0.00     0.177 HD
ATOM     18  H11 UNL     1     102.962  11.754  10.458  1.00  0.00     0.177 HD
ENDBRANCH  12  16
ENDBRANCH   1  10
TORSDOF 2
ENDMDL
MODEL 4
REMARK VINA RESULT: -6.177996097      2.612      3.238
REMARK  2 active torsions:
REMARK  status: ('A' for Active; 'I' for Inactive)
REMARK    1  A    between atoms: N1_1  and  N2_4 
REMARK       I    between atoms: N2_4  and  C1_6 
REMARK       I    between atoms: C1_6  and  N3_8 
REMARK    2  A    between atoms: N3_8  and  C2_10 
ROOT
HETATM    1  C2  UNL     1      97.933  11.282   6.480  1.00  0.00     0.705 A 
HETATM    2  N4  UNL     1      98.488  10.946   7.650  1.00  0.00    -0.128 N 
ATOM      3  H4  UNL     1      98.940  10.059   7.871  1.00  0.00     0.205 HD
HETATM    4  N5  UNL     1      98.342  11.971   8.463  1.00  0.00    -0.237 N 
ATOM      5  H5  UNL     1      98.670  12.002   9.428  1.00  0.00     0.192 HD
HETATM    6  C3  UNL     1      97.701  12.968   7.839  1.00  0.00     0.353 A 
HETATM    7  O2  UNL     1      97.375  14.117   8.291  1.00  0.00    -0.245 OA
HETATM    8  N6  UNL     1      97.449  12.527   6.597  1.00  0.00    -0.138 N 
ATOM      9  H6  UNL     1      96.969  13.051   5.866  1.00  0.00     0.189 HD
ENDROOT
BRANCH   1  10
HETATM   10  N3  UNL     1      97.891  10.516   5.445  1.00  0.00    -0.138 N 
HETATM   11  C1  UNL     1      98.985  10.232   4.615  1.00  0.00     0.352 C 
HETATM   12  N2  UNL     1      99.804  11.263   4.040  1.00  0.00    -0.258 N 
HETATM   13  O1  UNL     1      99.262   9.031   4.365  1.00  0.00    -0.245 OA
ATOM     14  H2  UNL     1      99.593  12.242   4.233  1.00  0.00     0.191 HD
ATOM     15  H3  UNL     1      96.997  10.085   5.213  1.00  0.00     0.189 HD
BRANCH  12  16
HETATM   16  N1  UNL     1     100.886  10.939   3.218  1.00  0.00    -0.341 N 
ATOM     17  H12 UNL     1     101.551  11.673   2.972  1.00  0.00     0.177 HD
ATOM     18  H11 UNL     1     101.010   9.988   2.870  1.00  0.00     0.177 HD
ENDBRANCH  12  16
ENDBRANCH   1  10
TORSDOF 2
ENDMDL
MODEL 5
REMARK VINA RESULT: -5.950936824      2.023      2.296
REMARK  2 active torsions:
REMARK  status: ('A' for Active; 'I' for Inactive)
REMARK    1  A    between atoms: N1_1  and  N2_4 
REMARK       I    between atoms: N2_4  and  C1_6 
REMARK       I    between atoms: C1_6  and  N3_8 
REMARK    2  A    between atoms: N3_8  and  C2_10 
ROOT
HETATM    1  C2  UNL     1      99.115  11.636   7.008  1.00  0.00     0.705 A 
HETATM    2  N4  UNL     1      97.939  11.550   6.376  1.00  0.00    -0.128 N 
ATOM      3  H4  UNL     1      97.690  10.875   5.653  1.00  0.00     0.205 HD
HETATM    4  N5  UNL     1      97.163  12.498   6.859  1.00  0.00    -0.237 N 
ATOM      5  H5  UNL     1      96.203  12.673   6.564  1.00  0.00     0.192 HD
HETATM    6  C3  UNL     1      97.817  13.197   7.795  1.00  0.00     0.353 A 
HETATM    7  O2  UNL     1      97.406  14.188   8.489  1.00  0.00    -0.245 OA
HETATM    8  N6  UNL     1      99.039  12.650   7.882  1.00  0.00    -0.138 N 
ATOM      9  H6  UNL     1      99.785  12.955   8.507  1.00  0.00     0.189 HD
ENDROOT
BRANCH   1  10
HETATM   10  N3  UNL     1     100.120  10.860   6.788  1.00  0.00    -0.138 N 
HETATM   11  C1  UNL     1     101.363  11.280   6.297  1.00  0.00     0.352 C 
HETATM   12  N2  UNL     1     101.492  12.078   5.108  1.00  0.00    -0.258 N 
HETATM   13  O1  UNL     1     102.406  10.949   6.917  1.00  0.00    -0.245 OA
ATOM     14  H2  UNL     1     100.656  12.356   4.594  1.00  0.00     0.191 HD
ATOM     15  H3  UNL     1     100.001   9.866   6.987  1.00  0.00     0.189 HD
BRANCH  12  16
HETATM   16  N1  UNL     1     102.750  12.478   4.650  1.00  0.00    -0.341 N 
ATOM     17  H12 UNL     1     103.570  12.256   5.215  1.00  0.00     0.177 HD
ATOM     18  H11 UNL     1     102.848  12.983   3.768  1.00  0.00     0.177 HD
ENDBRANCH  12  16
ENDBRANCH   1  10
TORSDOF 2
ENDMDL
