MODEL 1
REMARK VINA RESULT: -6.226466686      0.000      0.000
REMARK  4 active torsions:
REMARK  status: ('A' for Active; 'I' for Inactive)
REMARK    1  A    between atoms: N1_1  and  N2_4 
REMARK       I    between atoms: N2_4  and  C1_6 
REMARK       I    between atoms: C1_6  and  N5_15 
REMARK    2  A    between atoms: N3_7  and  S1_9 
REMARK    3  A    between atoms: S1_9  and  N4_10 
REMARK    4  A    between atoms: N5_15  and  N6_17 
ROOT
HETATM    1  N2  UNL     1      40.326 -48.824   5.867  1.00  0.00    -0.137 N 
ATOM      2  H2  UNL     1      40.051 -49.758   6.173  1.00  0.00     0.205 HD
HETATM    3  C1  UNL     1      40.416 -47.795   6.821  1.00  0.00     0.721 C 
HETATM    4  N3  UNL     1      39.801 -46.694   6.642  1.00  0.00    -0.097 N 
ATOM      5  H3  UNL     1      39.251 -46.601   5.788  1.00  0.00     0.199 HD
HETATM    6  N5  UNL     1      41.188 -47.978   7.983  1.00  0.00    -0.137 N 
ATOM      7  H5  UNL     1      40.888 -48.658   8.682  1.00  0.00     0.205 HD
ENDROOT
BRANCH   1   8
HETATM    8  N1  UNL     1      40.602 -48.604   4.500  1.00  0.00    -0.331 N 
ATOM      9  H12 UNL     1      39.817 -48.404   3.880  1.00  0.00     0.177 HD
ATOM     10  H11 UNL     1      41.551 -48.640   4.127  1.00  0.00     0.177 HD
ENDBRANCH   1   8
BRANCH   4  11
HETATM   11  S1  UNL     1      39.819 -45.362   7.708  1.00  0.00     0.330 S 
HETATM   12  O1  UNL     1      38.888 -44.263   7.277  1.00  0.00    -0.182 OA
HETATM   13  O2  UNL     1      41.218 -44.902   7.893  1.00  0.00    -0.182 OA
BRANCH  11  14
HETATM   14  N4  UNL     1      39.268 -45.943   9.260  1.00  0.00    -0.311 N 
ATOM     15  H42 UNL     1      39.702 -46.688   9.806  1.00  0.00     0.170 HD
ATOM     16  H41 UNL     1      38.441 -45.399   9.506  1.00  0.00     0.170 HD
ENDBRANCH  11  14
ENDBRANCH   4  11
BRANCH   6  17
HETATM   17  N6  UNL     1      42.363 -47.241   8.200  1.00  0.00    -0.331 N 
ATOM     18  H62 UNL     1      43.200 -47.739   8.502  1.00  0.00     0.177 HD
ATOM     19  H61 UNL     1      42.387 -46.231   8.060  1.00  0.00     0.177 HD
ENDBRANCH   6  17
TORSDOF 4
ENDMDL
MODEL 2
REMARK VINA RESULT: -6.142791897      2.242      3.660
REMARK  4 active torsions:
REMARK  status: ('A' for Active; 'I' for Inactive)
REMARK    1  A    between atoms: N1_1  and  N2_4 
REMARK       I    between atoms: N2_4  and  C1_6 
REMARK       I    between atoms: C1_6  and  N5_15 
REMARK    2  A    between atoms: N3_7  and  S1_9 
REMARK    3  A    between atoms: S1_9  and  N4_10 
REMARK    4  A    between atoms: N5_15  and  N6_17 
ROOT
HETATM    1  N2  UNL     1      42.624 -48.383   8.932  1.00  0.00    -0.137 N 
ATOM      2  H2  UNL     1      42.477 -49.178   9.555  1.00  0.00     0.205 HD
HETATM    3  C1  UNL     1      41.591 -48.004   8.058  1.00  0.00     0.721 C 
HETATM    4  N3  UNL     1      41.817 -47.873   6.811  1.00  0.00    -0.097 N 
ATOM      5  H3  UNL     1      42.768 -48.054   6.488  1.00  0.00     0.199 HD
HETATM    6  N5  UNL     1      40.296 -47.768   8.557  1.00  0.00    -0.137 N 
ATOM      7  H5  UNL     1      39.754 -48.548   8.930  1.00  0.00     0.205 HD
ENDROOT
BRANCH   1   8
HETATM    8  N1  UNL     1      43.858 -47.699   8.974  1.00  0.00    -0.331 N 
ATOM      9  H12 UNL     1      44.274 -47.408   8.089  1.00  0.00     0.177 HD
ATOM     10  H11 UNL     1      44.334 -47.494   9.853  1.00  0.00     0.177 HD
ENDBRANCH   1   8
BRANCH   4  11
HETATM   11  S1  UNL     1      40.667 -47.420   5.635  1.00  0.00     0.330 S 
HETATM   12  O1  UNL     1      40.166 -46.016   5.825  1.00  0.00    -0.182 OA
HETATM   13  O2  UNL     1      39.578 -48.429   5.603  1.00  0.00    -0.182 OA
BRANCH  11  14
HETATM   14  N4  UNL     1      41.468 -47.490   4.084  1.00  0.00    -0.311 N 
ATOM     15  H42 UNL     1      42.364 -47.940   3.896  1.00  0.00     0.170 HD
ATOM     16  H41 UNL     1      40.871 -47.000   3.418  1.00  0.00     0.170 HD
ENDBRANCH  11  14
ENDBRANCH   4  11
BRANCH   6  17
HETATM   17  N6  UNL     1      39.737 -46.481   8.551  1.00  0.00    -0.331 N 
ATOM     18  H62 UNL     1      40.283 -45.717   8.153  1.00  0.00     0.177 HD
ATOM     19  H61 UNL     1      38.809 -46.306   8.934  1.00  0.00     0.177 HD
ENDBRANCH   6  17
TORSDOF 4
ENDMDL
MODEL 3
REMARK VINA RESULT: -5.947282394      2.339      3.812
REMARK  4 active torsions:
REMARK  status: ('A' for Active; 'I' for Inactive)
REMARK    1  A    between atoms: N1_1  and  N2_4 
REMARK       I    between atoms: N2_4  and  C1_6 
REMARK       I    between atoms: C1_6  and  N5_15 
REMARK    2  A    between atoms: N3_7  and  S1_9 
REMARK    3  A    between atoms: S1_9  and  N4_10 
REMARK    4  A    between atoms: N5_15  and  N6_17 
ROOT
HETATM    1  N2  UNL     1      42.433 -49.162   9.227  1.00  0.00    -0.137 N 
ATOM      2  H2  UNL     1      42.026 -50.096   9.291  1.00  0.00     0.205 HD
HETATM    3  C1  UNL     1      41.946 -48.274   8.251  1.00  0.00     0.721 C 
HETATM    4  N3  UNL     1      42.749 -47.699   7.446  1.00  0.00    -0.097 N 
ATOM      5  H3  UNL     1      43.741 -47.913   7.545  1.00  0.00     0.199 HD
HETATM    6  N5  UNL     1      40.566 -48.016   8.158  1.00  0.00    -0.137 N 
ATOM      7  H5  UNL     1      39.937 -48.761   7.857  1.00  0.00     0.205 HD
ENDROOT
BRANCH   1   8
HETATM    8  N1  UNL     1      43.465 -48.802  10.119  1.00  0.00    -0.331 N 
ATOM      9  H12 UNL     1      44.314 -48.391   9.729  1.00  0.00     0.177 HD
ATOM     10  H11 UNL     1      43.383 -48.940  11.127  1.00  0.00     0.177 HD
ENDBRANCH   1   8
BRANCH   4  11
HETATM   11  S1  UNL     1      42.306 -46.602   6.217  1.00  0.00     0.330 S 
HETATM   12  O1  UNL     1      41.949 -45.244   6.754  1.00  0.00    -0.182 OA
HETATM   13  O2  UNL     1      41.230 -47.203   5.390  1.00  0.00    -0.182 OA
BRANCH  11  14
HETATM   14  N4  UNL     1      43.697 -46.410   5.178  1.00  0.00    -0.311 N 
ATOM     15  H42 UNL     1      44.119 -45.522   4.906  1.00  0.00     0.170 HD
ATOM     16  H41 UNL     1      43.995 -47.346   4.904  1.00  0.00     0.170 HD
ENDBRANCH  11  14
ENDBRANCH   4  11
BRANCH   6  17
HETATM   17  N6  UNL     1      40.039 -46.754   8.473  1.00  0.00    -0.331 N 
ATOM     18  H62 UNL     1      39.613 -46.207   7.725  1.00  0.00     0.177 HD
ATOM     19  H61 UNL     1      40.079 -46.386   9.423  1.00  0.00     0.177 HD
ENDBRANCH   6  17
TORSDOF 4
ENDMDL
MODEL 4
REMARK VINA RESULT: -5.781031550      2.211      2.998
REMARK  4 active torsions:
REMARK  status: ('A' for Active; 'I' for Inactive)
REMARK    1  A    between atoms: N1_1  and  N2_4 
REMARK       I    between atoms: N2_4  and  C1_6 
REMARK       I    between atoms: C1_6  and  N5_15 
REMARK    2  A    between atoms: N3_7  and  S1_9 
REMARK    3  A    between atoms: S1_9  and  N4_10 
REMARK    4  A    between atoms: N5_15  and  N6_17 
ROOT
HETATM    1  N2  UNL     1      39.756 -47.767   6.281  1.00  0.00    -0.137 N 
ATOM      2  H2  UNL     1      38.843 -47.652   6.721  1.00  0.00     0.205 HD
HETATM    3  C1  UNL     1      40.882 -47.183   6.887  1.00  0.00     0.721 C 
HETATM    4  N3  UNL     1      41.656 -46.425   6.216  1.00  0.00    -0.097 N 
ATOM      5  H3  UNL     1      41.419 -46.267   5.236  1.00  0.00     0.199 HD
HETATM    6  N5  UNL     1      41.162 -47.433   8.243  1.00  0.00    -0.137 N 
ATOM      7  H5  UNL     1      40.533 -47.069   8.959  1.00  0.00     0.205 HD
ENDROOT
BRANCH   1   8
HETATM    8  N1  UNL     1      39.850 -48.506   5.081  1.00  0.00    -0.331 N 
ATOM      9  H12 UNL     1      40.667 -48.355   4.489  1.00  0.00     0.177 HD
ATOM     10  H11 UNL     1      39.132 -49.174   4.800  1.00  0.00     0.177 HD
ENDBRANCH   1   8
BRANCH   4  11
HETATM   11  S1  UNL     1      43.053 -45.651   6.814  1.00  0.00     0.330 S 
HETATM   12  O1  UNL     1      44.132 -46.622   7.203  1.00  0.00    -0.182 OA
HETATM   13  O2  UNL     1      42.669 -44.734   7.917  1.00  0.00    -0.182 OA
BRANCH  11  14
HETATM   14  N4  UNL     1      43.678 -44.656   5.523  1.00  0.00    -0.311 N 
ATOM     15  H42 UNL     1      44.436 -44.910   4.888  1.00  0.00     0.170 HD
ATOM     16  H41 UNL     1      43.144 -43.786   5.531  1.00  0.00     0.170 HD
ENDBRANCH  11  14
ENDBRANCH   4  11
BRANCH   6  17
HETATM   17  N6  UNL     1      42.289 -48.175   8.629  1.00  0.00    -0.331 N 
ATOM     18  H62 UNL     1      42.546 -48.992   8.075  1.00  0.00     0.177 HD
ATOM     19  H61 UNL     1      42.843 -47.910   9.443  1.00  0.00     0.177 HD
ENDBRANCH   6  17
TORSDOF 4
ENDMDL
MODEL 5
REMARK VINA RESULT: -5.610602064      2.547      3.803
REMARK  4 active torsions:
REMARK  status: ('A' for Active; 'I' for Inactive)
REMARK    1  A    between atoms: N1_1  and  N2_4 
REMARK       I    between atoms: N2_4  and  C1_6 
REMARK       I    between atoms: C1_6  and  N5_15 
REMARK    2  A    between atoms: N3_7  and  S1_9 
REMARK    3  A    between atoms: S1_9  and  N4_10 
REMARK    4  A    between atoms: N5_15  and  N6_17 
ROOT
HETATM    1  N2  UNL     1      40.255 -45.238   8.600  1.00  0.00    -0.137 N 
ATOM      2  H2  UNL     1      40.823 -44.458   8.932  1.00  0.00     0.205 HD
HETATM    3  C1  UNL     1      40.846 -46.204   7.767  1.00  0.00     0.721 C 
HETATM    4  N3  UNL     1      40.308 -46.511   6.654  1.00  0.00    -0.097 N 
ATOM      5  H3  UNL     1      39.445 -46.028   6.404  1.00  0.00     0.199 HD
HETATM    6  N5  UNL     1      42.039 -46.838   8.160  1.00  0.00    -0.137 N 
ATOM      7  H5  UNL     1      42.900 -46.294   8.214  1.00  0.00     0.205 HD
ENDROOT
BRANCH   1   8
HETATM    8  N1  UNL     1      38.900 -45.313   8.990  1.00  0.00    -0.331 N 
ATOM      9  H12 UNL     1      38.357 -46.119   8.681  1.00  0.00     0.177 HD
ATOM     10  H11 UNL     1      38.461 -44.592   9.564  1.00  0.00     0.177 HD
ENDBRANCH   1   8
BRANCH   4  11
HETATM   11  S1  UNL     1      40.908 -47.660   5.545  1.00  0.00     0.330 S 
HETATM   12  O1  UNL     1      40.565 -49.071   5.929  1.00  0.00    -0.182 OA
HETATM   13  O2  UNL     1      42.365 -47.444   5.358  1.00  0.00    -0.182 OA
BRANCH  11  14
HETATM   14  N4  UNL     1      40.147 -47.331   4.007  1.00  0.00    -0.311 N 
ATOM     15  H42 UNL     1      39.522 -47.963   3.505  1.00  0.00     0.170 HD
ATOM     16  H41 UNL     1      40.446 -46.400   3.719  1.00  0.00     0.170 HD
ENDBRANCH  11  14
ENDBRANCH   4  11
BRANCH   6  17
HETATM   17  N6  UNL     1      42.065 -48.205   8.479  1.00  0.00    -0.331 N 
ATOM     18  H62 UNL     1      42.932 -48.721   8.331  1.00  0.00     0.177 HD
ATOM     19  H61 UNL     1      41.241 -48.677   8.850  1.00  0.00     0.177 HD
ENDBRANCH   6  17
TORSDOF 4
ENDMDL
