MODEL 1
REMARK VINA RESULT: -6.414164720      0.000      0.000
REMARK  3 active torsions:
REMARK  status: ('A' for Active; 'I' for Inactive)
REMARK    1  A    between atoms: C1_2  and  C2_4 
REMARK    2  A    between atoms: C3_5  and  C4_6 
REMARK    3  A    between atoms: C4_6  and  O3_7 
ROOT
HETATM    1  C4  UNL     1       8.992  14.694  26.402  1.00  0.00     0.079 C 
HETATM    2  C5  UNL     1       8.857  15.579  25.197  1.00  0.00     0.072 C 
HETATM    3  C6  UNL     1       7.568  15.266  24.463  1.00  0.00     0.276 C 
HETATM    4  N1  UNL     1       6.737  14.502  25.329  1.00  0.00     0.093 N 
HETATM    5  C7  UNL     1       5.346  14.499  25.003  1.00  0.00     0.273 C 
HETATM    6  C8  UNL     1       4.793  13.123  24.826  1.00  0.00     0.030 C 
HETATM    7  C9  UNL     1       5.686  12.223  24.012  1.00  0.00     0.004 C 
HETATM    8  C10 UNL     1       7.121  12.300  24.414  1.00  0.00     0.036 C 
HETATM    9  C11 UNL     1       7.228  13.199  25.632  1.00  0.00     0.226 C 
HETATM   10  C12 UNL     1       8.654  13.244  26.104  1.00  0.00     0.077 C 
ENDROOT
BRANCH   1  11
HETATM   11  C3  UNL     1      10.348  14.745  26.960  1.00  0.00     0.017 C 
HETATM   12  C2  UNL     1      11.372  14.430  26.193  1.00  0.00     0.083 C 
BRANCH  12  13
HETATM   13  C1  UNL     1      12.750  14.468  26.719  1.00  0.00     0.198 C 
HETATM   14  O1  UNL     1      12.896  14.601  27.944  1.00  0.00    -0.645 OA
HETATM   15  O2  UNL     1      13.765  14.354  25.808  1.00  0.00    -0.645 OA
ENDBRANCH  12  13
ENDBRANCH   1  11
BRANCH   1  16
HETATM   16  O3  UNL     1       8.043  15.123  27.349  1.00  0.00    -0.386 OA
ATOM     17  H3  UNL     1       7.160  15.044  27.005  1.00  0.00     0.211 HD
ENDBRANCH   1  16
TORSDOF 3
ENDMDL
MODEL 2
REMARK VINA RESULT: -6.382691830      8.802      9.909
REMARK  3 active torsions:
REMARK  status: ('A' for Active; 'I' for Inactive)
REMARK    1  A    between atoms: C1_2  and  C2_4 
REMARK    2  A    between atoms: C3_5  and  C4_6 
REMARK    3  A    between atoms: C4_6  and  O3_7 
ROOT
HETATM    1  C4  UNL     1       0.385   8.974  25.658  1.00  0.00     0.079 C 
HETATM    2  C5  UNL     1      -0.456   9.789  26.596  1.00  0.00     0.072 C 
HETATM    3  C6  UNL     1      -0.950  11.041  25.899  1.00  0.00     0.276 C 
HETATM    4  N1  UNL     1      -0.765  10.873  24.498  1.00  0.00     0.093 N 
HETATM    5  C7  UNL     1      -1.559  11.720  23.666  1.00  0.00     0.273 C 
HETATM    6  C8  UNL     1      -0.745  12.524  22.708  1.00  0.00     0.030 C 
HETATM    7  C9  UNL     1       0.478  13.140  23.337  1.00  0.00     0.004 C 
HETATM    8  C10 UNL     1       1.239  12.187  24.197  1.00  0.00     0.036 C 
HETATM    9  C11 UNL     1       0.595  10.817  24.077  1.00  0.00     0.226 C 
HETATM   10  C12 UNL     1       1.380   9.818  24.880  1.00  0.00     0.077 C 
ENDROOT
BRANCH   1  11
HETATM   11  C3  UNL     1       1.128   7.927  26.369  1.00  0.00     0.017 C 
HETATM   12  C2  UNL     1       1.741   8.226  27.496  1.00  0.00     0.083 C 
BRANCH  12  13
HETATM   13  C1  UNL     1       2.498   7.200  28.239  1.00  0.00     0.198 C 
HETATM   14  O1  UNL     1       2.895   6.207  27.609  1.00  0.00    -0.645 OA
HETATM   15  O2  UNL     1       2.704   7.426  29.572  1.00  0.00    -0.645 OA
ENDBRANCH  12  13
ENDBRANCH   1  11
BRANCH   1  16
HETATM   16  O3  UNL     1      -0.477   8.413  24.696  1.00  0.00    -0.386 OA
ATOM     17  H3  UNL     1      -1.169   9.022  24.465  1.00  0.00     0.211 HD
ENDBRANCH   1  16
TORSDOF 3
ENDMDL
MODEL 3
REMARK VINA RESULT: -6.382563115      5.656      7.246
REMARK  3 active torsions:
REMARK  status: ('A' for Active; 'I' for Inactive)
REMARK    1  A    between atoms: C1_2  and  C2_4 
REMARK    2  A    between atoms: C3_5  and  C4_6 
REMARK    3  A    between atoms: C4_6  and  O3_7 
ROOT
HETATM    1  C4  UNL     1       4.026  10.927  24.020  1.00  0.00     0.079 C 
HETATM    2  C5  UNL     1       3.659  10.195  22.763  1.00  0.00     0.072 C 
HETATM    3  C6  UNL     1       4.626   9.052  22.524  1.00  0.00     0.276 C 
HETATM    4  N1  UNL     1       5.341   8.815  23.730  1.00  0.00     0.093 N 
HETATM    5  C7  UNL     1       5.950   7.528  23.842  1.00  0.00     0.273 C 
HETATM    6  C8  UNL     1       7.417   7.599  24.112  1.00  0.00     0.030 C 
HETATM    7  C9  UNL     1       8.129   8.617  23.261  1.00  0.00     0.004 C 
HETATM    8  C10 UNL     1       7.417   9.927  23.192  1.00  0.00     0.036 C 
HETATM    9  C11 UNL     1       6.219   9.868  24.122  1.00  0.00     0.226 C 
HETATM   10  C12 UNL     1       5.517  11.196  24.127  1.00  0.00     0.077 C 
ENDROOT
BRANCH   1  11
HETATM   11  C3  UNL     1       3.318  12.208  24.126  1.00  0.00     0.017 C 
HETATM   12  C2  UNL     1       3.891  13.208  24.765  1.00  0.00     0.083 C 
BRANCH  12  13
HETATM   13  C1  UNL     1       3.209  14.511  24.893  1.00  0.00     0.198 C 
HETATM   14  O1  UNL     1       3.865  15.462  25.347  1.00  0.00    -0.645 OA
HETATM   15  O2  UNL     1       1.901  14.568  24.497  1.00  0.00    -0.645 OA
ENDBRANCH  12  13
ENDBRANCH   1  11
BRANCH   1  16
HETATM   16  O3  UNL     1       3.709  10.087  25.106  1.00  0.00    -0.386 OA
ATOM     17  H3  UNL     1       3.982   9.193  24.933  1.00  0.00     0.211 HD
ENDBRANCH   1  16
TORSDOF 3
ENDMDL
MODEL 4
REMARK VINA RESULT: -6.281780636      5.005      6.705
REMARK  3 active torsions:
REMARK  status: ('A' for Active; 'I' for Inactive)
REMARK    1  A    between atoms: C1_2  and  C2_4 
REMARK    2  A    between atoms: C3_5  and  C4_6 
REMARK    3  A    between atoms: C4_6  and  O3_7 
ROOT
HETATM    1  C4  UNL     1       4.039  10.246  23.863  1.00  0.00     0.079 C 
HETATM    2  C5  UNL     1       3.232   9.747  25.025  1.00  0.00     0.072 C 
HETATM    3  C6  UNL     1       1.883  10.439  25.058  1.00  0.00     0.276 C 
HETATM    4  N1  UNL     1       1.672  11.062  23.797  1.00  0.00     0.093 N 
HETATM    5  C7  UNL     1       0.312  11.366  23.481  1.00  0.00     0.273 C 
HETATM    6  C8  UNL     1       0.100  12.807  23.152  1.00  0.00     0.030 C 
HETATM    7  C9  UNL     1       0.805  13.744  24.098  1.00  0.00     0.004 C 
HETATM    8  C10 UNL     1       2.215  13.343  24.379  1.00  0.00     0.036 C 
HETATM    9  C11 UNL     1       2.553  12.145  23.510  1.00  0.00     0.226 C 
HETATM   10  C12 UNL     1       3.989  11.757  23.720  1.00  0.00     0.077 C 
ENDROOT
BRANCH   1  11
HETATM   11  C3  UNL     1       5.445   9.839  23.967  1.00  0.00     0.017 C 
HETATM   12  C2  UNL     1       6.388  10.687  23.608  1.00  0.00     0.083 C 
BRANCH  12  13
HETATM   13  C1  UNL     1       7.813  10.314  23.699  1.00  0.00     0.198 C 
HETATM   14  O1  UNL     1       8.117   9.135  23.458  1.00  0.00    -0.645 OA
HETATM   15  O2  UNL     1       8.692  11.304  24.043  1.00  0.00    -0.645 OA
ENDBRANCH  12  13
ENDBRANCH   1  11
BRANCH   1  16
HETATM   16  O3  UNL     1       3.453   9.730  22.690  1.00  0.00    -0.386 OA
ATOM     17  H3  UNL     1       2.721   9.162  22.898  1.00  0.00     0.211 HD
ENDBRANCH   1  16
TORSDOF 3
ENDMDL
MODEL 5
REMARK VINA RESULT: -6.214680944      6.182      8.287
REMARK  3 active torsions:
REMARK  status: ('A' for Active; 'I' for Inactive)
REMARK    1  A    between atoms: C1_2  and  C2_4 
REMARK    2  A    between atoms: C3_5  and  C4_6 
REMARK    3  A    between atoms: C4_6  and  O3_7 
ROOT
HETATM    1  C4  UNL     1       3.626  10.908  24.042  1.00  0.00     0.079 C 
HETATM    2  C5  UNL     1       3.328  10.065  22.837  1.00  0.00     0.072 C 
HETATM    3  C6  UNL     1       4.459   9.085  22.593  1.00  0.00     0.276 C 
HETATM    4  N1  UNL     1       5.258   9.027  23.769  1.00  0.00     0.093 N 
HETATM    5  C7  UNL     1       6.076   7.863  23.901  1.00  0.00     0.273 C 
HETATM    6  C8  UNL     1       7.522   8.186  24.090  1.00  0.00     0.030 C 
HETATM    7  C9  UNL     1       8.016   9.264  23.161  1.00  0.00     0.004 C 
HETATM    8  C10 UNL     1       7.095  10.435  23.077  1.00  0.00     0.036 C 
HETATM    9  C11 UNL     1       5.966  10.227  24.070  1.00  0.00     0.226 C 
HETATM   10  C12 UNL     1       5.056  11.421  24.059  1.00  0.00     0.077 C 
ENDROOT
BRANCH   1  11
HETATM   11  C3  UNL     1       2.722  12.059  24.133  1.00  0.00     0.017 C 
HETATM   12  C2  UNL     1       1.542  11.998  23.551  1.00  0.00     0.083 C 
BRANCH  12  13
HETATM   13  C1  UNL     1       0.605  13.136  23.620  1.00  0.00     0.198 C 
HETATM   14  O1  UNL     1       1.046  14.221  24.031  1.00  0.00    -0.645 OA
HETATM   15  O2  UNL     1      -0.683  12.904  23.222  1.00  0.00    -0.645 OA
ENDBRANCH  12  13
ENDBRANCH   1  11
BRANCH   1  16
HETATM   16  O3  UNL     1       3.502  10.081  25.176  1.00  0.00    -0.386 OA
ATOM     17  H3  UNL     1       3.143  10.566  25.910  1.00  0.00     0.211 HD
ENDBRANCH   1  16
TORSDOF 3
ENDMDL
