MODEL 1
REMARK VINA RESULT: -8.047707052      0.000      0.000
REMARK  6 active torsions:
REMARK  status: ('A' for Active; 'I' for Inactive)
REMARK    1  A    between atoms: C2_2  and  C4_4 
REMARK    2  A    between atoms: C4_4  and  O2_6 
REMARK    3  A    between atoms: O2_6  and  C5_7 
REMARK    4  A    between atoms: C11_14  and  O4_15 
REMARK    5  A    between atoms: C13_18  and  C14_19 
REMARK    6  A    between atoms: C14_19  and  C15_20 
ROOT
HETATM    1  C5  UNL     1       5.471  11.535  24.382  1.00  0.00     0.143 C 
HETATM    2  C6  UNL     1       6.742  11.483  23.493  1.00  0.00     0.068 C 
HETATM    3  C7  UNL     1       7.576  10.324  23.888  1.00  0.00     0.154 A 
HETATM    4  O3  UNL     1       7.774   9.316  22.970  1.00  0.00    -0.374 OA
HETATM    5  C8  UNL     1       6.831   9.148  24.110  1.00  0.00     0.162 A 
HETATM    6  C9  UNL     1       5.388   9.117  23.710  1.00  0.00     0.020 C 
HETATM    7  C10 UNL     1       5.264   8.869  22.211  1.00  0.00     0.021 C 
HETATM    8  C11 UNL     1       4.810   7.857  24.362  1.00  0.00     0.130 C 
HETATM    9  C12 UNL     1       3.312   7.858  24.317  1.00  0.00     0.037 C 
HETATM   10  C13 UNL     1       2.861   8.918  25.290  1.00  0.00    -0.001 C 
HETATM   11  C16 UNL     1       3.691  10.151  25.263  1.00  0.00     0.018 C 
HETATM   12  C17 UNL     1       4.595  10.340  24.086  1.00  0.00    -0.005 C 
HETATM   13  C18 UNL     1       3.741  10.818  22.891  1.00  0.00     0.019 C 
ENDROOT
BRANCH   1  14
HETATM   14  O2  UNL     1       4.886  12.769  23.984  1.00  0.00    -0.315 OA
BRANCH  14  15
HETATM   15  C4  UNL     1       4.456  13.758  24.846  1.00  0.00     0.262 C 
HETATM   16  O1  UNL     1       3.167  13.828  24.853  1.00  0.00    -0.265 OA
BRANCH  15  17
HETATM   17  C2  UNL     1       5.208  14.660  25.685  1.00  0.00     0.077 C 
HETATM   18  C1  UNL     1       6.635  14.930  25.269  1.00  0.00     0.020 C 
HETATM   19  C3  UNL     1       4.563  15.994  25.970  1.00  0.00     0.020 C 
ENDBRANCH  15  17
ENDBRANCH  14  15
ENDBRANCH   1  14
BRANCH   8  20
HETATM   20  O4  UNL     1       5.393   6.728  23.855  1.00  0.00    -0.395 OA
ATOM     21  H4  UNL     1       5.188   5.968  24.387  1.00  0.00     0.210 HD
ENDBRANCH   8  20
BRANCH  10  22
HETATM   22  C14 UNL     1       1.360   9.203  25.135  1.00  0.00     0.117 C 
BRANCH  22  23
HETATM   23  C15 UNL     1       0.832   9.348  26.503  1.00  0.00     0.172 C 
HETATM   24  O5  UNL     1      -0.097  10.153  26.735  1.00  0.00    -0.648 OA
HETATM   25  O6  UNL     1       1.347   8.600  27.550  1.00  0.00    -0.648 OA
ENDBRANCH  22  23
ENDBRANCH  10  22
TORSDOF 6
ENDMDL
MODEL 2
REMARK VINA RESULT: -7.934008158      0.735      1.000
REMARK  6 active torsions:
REMARK  status: ('A' for Active; 'I' for Inactive)
REMARK    1  A    between atoms: C2_2  and  C4_4 
REMARK    2  A    between atoms: C4_4  and  O2_6 
REMARK    3  A    between atoms: O2_6  and  C5_7 
REMARK    4  A    between atoms: C11_14  and  O4_15 
REMARK    5  A    between atoms: C13_18  and  C14_19 
REMARK    6  A    between atoms: C14_19  and  C15_20 
ROOT
HETATM    1  C5  UNL     1       5.053  11.507  24.452  1.00  0.00     0.143 C 
HETATM    2  C6  UNL     1       6.312  11.242  23.584  1.00  0.00     0.068 C 
HETATM    3  C7  UNL     1       6.943   9.968  24.002  1.00  0.00     0.154 A 
HETATM    4  O3  UNL     1       6.990   8.932  23.095  1.00  0.00    -0.374 OA
HETATM    5  C8  UNL     1       6.016   8.930  24.221  1.00  0.00     0.162 A 
HETATM    6  C9  UNL     1       4.592   9.127  23.797  1.00  0.00     0.020 C 
HETATM    7  C10 UNL     1       4.452   8.886  22.299  1.00  0.00     0.021 C 
HETATM    8  C11 UNL     1       3.809   7.982  24.450  1.00  0.00     0.130 C 
HETATM    9  C12 UNL     1       2.331   8.224  24.380  1.00  0.00     0.037 C 
HETATM   10  C13 UNL     1       2.042   9.353  25.338  1.00  0.00    -0.001 C 
HETATM   11  C16 UNL     1       3.060  10.436  25.314  1.00  0.00     0.018 C 
HETATM   12  C17 UNL     1       4.001  10.465  24.150  1.00  0.00    -0.005 C 
HETATM   13  C18 UNL     1       3.253  11.061  22.938  1.00  0.00     0.019 C 
ENDROOT
BRANCH   1  14
HETATM   14  O2  UNL     1       4.680  12.815  24.034  1.00  0.00    -0.315 OA
BRANCH  14  15
HETATM   15  C4  UNL     1       4.311  13.842  24.879  1.00  0.00     0.262 C 
HETATM   16  O1  UNL     1       3.032  14.015  24.856  1.00  0.00    -0.265 OA
BRANCH  15  17
HETATM   17  C2  UNL     1       5.113  14.689  25.728  1.00  0.00     0.077 C 
HETATM   18  C1  UNL     1       6.557  14.873  25.322  1.00  0.00     0.020 C 
HETATM   19  C3  UNL     1       4.552  16.058  26.021  1.00  0.00     0.020 C 
ENDBRANCH  15  17
ENDBRANCH  14  15
ENDBRANCH   1  14
BRANCH   8  20
HETATM   20  O4  UNL     1       4.211   6.769  23.961  1.00  0.00    -0.395 OA
ATOM     21  H4  UNL     1       5.158   6.713  23.924  1.00  0.00     0.210 HD
ENDBRANCH   8  20
BRANCH  10  22
HETATM   22  C14 UNL     1       0.609   9.874  25.155  1.00  0.00     0.117 C 
BRANCH  22  23
HETATM   23  C15 UNL     1       0.027   9.938  26.508  1.00  0.00     0.172 C 
HETATM   24  O5  UNL     1       0.285   9.044  27.344  1.00  0.00    -0.648 OA
HETATM   25  O6  UNL     1      -0.809  10.979  26.877  1.00  0.00    -0.648 OA
ENDBRANCH  22  23
ENDBRANCH  10  22
TORSDOF 6
ENDMDL
MODEL 3
REMARK VINA RESULT: -7.816343382      1.038      1.472
REMARK  6 active torsions:
REMARK  status: ('A' for Active; 'I' for Inactive)
REMARK    1  A    between atoms: C2_2  and  C4_4 
REMARK    2  A    between atoms: C4_4  and  O2_6 
REMARK    3  A    between atoms: O2_6  and  C5_7 
REMARK    4  A    between atoms: C11_14  and  O4_15 
REMARK    5  A    between atoms: C13_18  and  C14_19 
REMARK    6  A    between atoms: C14_19  and  C15_20 
ROOT
HETATM    1  C5  UNL     1       5.405  11.279  24.448  1.00  0.00     0.143 C 
HETATM    2  C6  UNL     1       6.619  10.833  23.590  1.00  0.00     0.068 C 
HETATM    3  C7  UNL     1       7.067   9.490  24.027  1.00  0.00     0.154 A 
HETATM    4  O3  UNL     1       6.975   8.446  23.133  1.00  0.00    -0.374 OA
HETATM    5  C8  UNL     1       6.004   8.591  24.253  1.00  0.00     0.162 A 
HETATM    6  C9  UNL     1       4.623   8.977  23.819  1.00  0.00     0.020 C 
HETATM    7  C10 UNL     1       4.458   8.739  22.322  1.00  0.00     0.021 C 
HETATM    8  C11 UNL     1       3.687   7.960  24.480  1.00  0.00     0.130 C 
HETATM    9  C12 UNL     1       2.257   8.401  24.398  1.00  0.00     0.037 C 
HETATM   10  C13 UNL     1       2.122   9.571  25.341  1.00  0.00    -0.001 C 
HETATM   11  C16 UNL     1       3.280  10.503  25.310  1.00  0.00     0.018 C 
HETATM   12  C17 UNL     1       4.220  10.389  24.152  1.00  0.00    -0.005 C 
HETATM   13  C18 UNL     1       3.567  11.067  22.928  1.00  0.00     0.019 C 
ENDROOT
BRANCH   1  14
HETATM   14  O2  UNL     1       5.217  12.620  24.012  1.00  0.00    -0.315 OA
BRANCH  14  15
HETATM   15  C4  UNL     1       5.348  13.739  24.811  1.00  0.00     0.262 C 
HETATM   16  O1  UNL     1       6.587  14.090  24.905  1.00  0.00    -0.265 OA
BRANCH  15  17
HETATM   17  C2  UNL     1       4.349  14.515  25.504  1.00  0.00     0.077 C 
HETATM   18  C1  UNL     1       4.689  15.964  25.769  1.00  0.00     0.020 C 
HETATM   19  C3  UNL     1       2.957  14.480  24.922  1.00  0.00     0.020 C 
ENDBRANCH  15  17
ENDBRANCH  14  15
ENDBRANCH   1  14
BRANCH   8  20
HETATM   20  O4  UNL     1       3.921   6.696  24.008  1.00  0.00    -0.395 OA
ATOM     21  H4  UNL     1       3.833   6.052  24.700  1.00  0.00     0.210 HD
ENDBRANCH   8  20
BRANCH  10  22
HETATM   22  C14 UNL     1       0.776  10.282  25.144  1.00  0.00     0.117 C 
BRANCH  22  23
HETATM   23  C15 UNL     1       0.056  10.148  26.423  1.00  0.00     0.172 C 
HETATM   24  O5  UNL     1       0.316   9.196  27.192  1.00  0.00    -0.648 OA
HETATM   25  O6  UNL     1      -0.911  11.067  26.798  1.00  0.00    -0.648 OA
ENDBRANCH  22  23
ENDBRANCH  10  22
TORSDOF 6
ENDMDL
MODEL 4
REMARK VINA RESULT: -7.721666174      2.195      5.159
REMARK  6 active torsions:
REMARK  status: ('A' for Active; 'I' for Inactive)
REMARK    1  A    between atoms: C2_2  and  C4_4 
REMARK    2  A    between atoms: C4_4  and  O2_6 
REMARK    3  A    between atoms: O2_6  and  C5_7 
REMARK    4  A    between atoms: C11_14  and  O4_15 
REMARK    5  A    between atoms: C13_18  and  C14_19 
REMARK    6  A    between atoms: C14_19  and  C15_20 
ROOT
HETATM    1  C5  UNL     1       1.508   9.653  24.040  1.00  0.00     0.143 C 
HETATM    2  C6  UNL     1       0.729   8.364  24.413  1.00  0.00     0.068 C 
HETATM    3  C7  UNL     1       1.099   7.274  23.480  1.00  0.00     0.154 A 
HETATM    4  O3  UNL     1       1.738   6.165  23.989  1.00  0.00    -0.374 OA
HETATM    5  C8  UNL     1       2.483   7.202  23.223  1.00  0.00     0.162 A 
HETATM    6  C9  UNL     1       3.419   8.024  24.056  1.00  0.00     0.020 C 
HETATM    7  C10 UNL     1       3.669   7.337  25.394  1.00  0.00     0.021 C 
HETATM    8  C11 UNL     1       4.768   7.967  23.332  1.00  0.00     0.130 C 
HETATM    9  C12 UNL     1       5.719   8.993  23.869  1.00  0.00     0.037 C 
HETATM   10  C13 UNL     1       5.200  10.332  23.408  1.00  0.00    -0.001 C 
HETATM   11  C16 UNL     1       3.721  10.458  23.474  1.00  0.00     0.018 C 
HETATM   12  C17 UNL     1       2.984   9.445  24.292  1.00  0.00    -0.005 C 
HETATM   13  C18 UNL     1       3.141   9.817  25.783  1.00  0.00     0.019 C 
ENDROOT
BRANCH   1  14
HETATM   14  O2  UNL     1       0.922  10.611  24.913  1.00  0.00    -0.315 OA
BRANCH  14  15
HETATM   15  C4  UNL     1       0.138  11.674  24.512  1.00  0.00     0.262 C 
HETATM   16  O1  UNL     1      -1.100  11.469  24.819  1.00  0.00    -0.265 OA
BRANCH  15  17
HETATM   17  C2  UNL     1       0.495  12.900  23.841  1.00  0.00     0.077 C 
HETATM   18  C1  UNL     1       1.796  13.542  24.265  1.00  0.00     0.020 C 
HETATM   19  C3  UNL     1       0.485  12.860  22.333  1.00  0.00     0.020 C 
ENDBRANCH  15  17
ENDBRANCH  14  15
ENDBRANCH   1  14
BRANCH   8  20
HETATM   20  O4  UNL     1       5.262   6.691  23.308  1.00  0.00    -0.395 OA
ATOM     21  H4  UNL     1       4.649   6.095  22.894  1.00  0.00     0.210 HD
ENDBRANCH   8  20
BRANCH  10  22
HETATM   22  C14 UNL     1       5.932  11.479  24.119  1.00  0.00     0.117 C 
BRANCH  22  23
HETATM   23  C15 UNL     1       7.259  11.568  23.486  1.00  0.00     0.172 C 
HETATM   24  O5  UNL     1       7.376  11.411  22.250  1.00  0.00    -0.648 OA
HETATM   25  O6  UNL     1       8.394  11.825  24.238  1.00  0.00    -0.648 OA
ENDBRANCH  22  23
ENDBRANCH  10  22
TORSDOF 6
ENDMDL
MODEL 5
REMARK VINA RESULT: -7.523797178      2.602      5.595
REMARK  6 active torsions:
REMARK  status: ('A' for Active; 'I' for Inactive)
REMARK    1  A    between atoms: C2_2  and  C4_4 
REMARK    2  A    between atoms: C4_4  and  O2_6 
REMARK    3  A    between atoms: O2_6  and  C5_7 
REMARK    4  A    between atoms: C11_14  and  O4_15 
REMARK    5  A    between atoms: C13_18  and  C14_19 
REMARK    6  A    between atoms: C14_19  and  C15_20 
ROOT
HETATM    1  C5  UNL     1       1.760   9.379  23.757  1.00  0.00     0.143 C 
HETATM    2  C6  UNL     1       0.790   8.287  24.282  1.00  0.00     0.068 C 
HETATM    3  C7  UNL     1       1.069   7.005  23.594  1.00  0.00     0.154 A 
HETATM    4  O3  UNL     1       1.517   5.942  24.347  1.00  0.00    -0.374 OA
HETATM    5  C8  UNL     1       2.445   6.719  23.479  1.00  0.00     0.162 A 
HETATM    6  C9  UNL     1       3.426   7.563  24.234  1.00  0.00     0.020 C 
HETATM    7  C10 UNL     1       3.492   7.115  25.690  1.00  0.00     0.021 C 
HETATM    8  C11 UNL     1       4.800   7.208  23.656  1.00  0.00     0.130 C 
HETATM    9  C12 UNL     1       5.844   8.194  24.086  1.00  0.00     0.037 C 
HETATM   10  C13 UNL     1       5.543   9.475  23.349  1.00  0.00    -0.001 C 
HETATM   11  C16 UNL     1       4.093   9.790  23.259  1.00  0.00     0.018 C 
HETATM   12  C17 UNL     1       3.173   9.045  24.174  1.00  0.00    -0.005 C 
HETATM   13  C18 UNL     1       3.281   9.669  25.583  1.00  0.00     0.019 C 
ENDROOT
BRANCH   1  14
HETATM   14  O2  UNL     1       1.253  10.548  24.389  1.00  0.00    -0.315 OA
BRANCH  14  15
HETATM   15  C4  UNL     1       0.505  11.526  23.765  1.00  0.00     0.262 C 
HETATM   16  O1  UNL     1       1.175  12.071  22.805  1.00  0.00    -0.265 OA
BRANCH  15  17
HETATM   17  C2  UNL     1      -0.838  11.987  24.026  1.00  0.00     0.077 C 
HETATM   18  C1  UNL     1      -1.663  12.368  22.819  1.00  0.00     0.020 C 
HETATM   19  C3  UNL     1      -1.691  11.090  24.889  1.00  0.00     0.020 C 
ENDBRANCH  15  17
ENDBRANCH  14  15
ENDBRANCH   1  14
BRANCH   8  20
HETATM   20  O4  UNL     1       5.117   5.900  23.904  1.00  0.00    -0.395 OA
ATOM     21  H4  UNL     1       4.454   5.316  23.554  1.00  0.00     0.210 HD
ENDBRANCH   8  20
BRANCH  10  22
HETATM   22  C14 UNL     1       6.375  10.638  23.908  1.00  0.00     0.117 C 
BRANCH  22  23
HETATM   23  C15 UNL     1       7.666  10.591  23.198  1.00  0.00     0.172 C 
HETATM   24  O5  UNL     1       8.712  10.964  23.774  1.00  0.00    -0.648 OA
HETATM   25  O6  UNL     1       7.746  10.135  21.893  1.00  0.00    -0.648 OA
ENDBRANCH  22  23
ENDBRANCH  10  22
TORSDOF 6
ENDMDL
