MODEL 1
REMARK VINA RESULT: -7.144246385      0.000      0.000
REMARK  5 active torsions:
REMARK  status: ('A' for Active; 'I' for Inactive)
REMARK    1  A    between atoms: C2_2  and  C3_3 
REMARK    2  A    between atoms: C12_12  and  C13_13 
REMARK    3  A    between atoms: C13_13  and  C14_14 
REMARK    4  A    between atoms: C14_14  and  O1_15 
REMARK    5  A    between atoms: C17_22  and  C18_23 
ROOT
HETATM    1  C3  UNL     1       0.900   8.567  25.739  1.00  0.00     0.053 C 
HETATM    2  C4  UNL     1       0.347   7.365  25.019  1.00  0.00     0.018 C 
HETATM    3  C5  UNL     1       1.097   7.118  23.691  1.00  0.00     0.007 C 
HETATM    4  C6  UNL     1       2.440   6.643  24.034  1.00  0.00     0.004 C 
HETATM    5  C7  UNL     1       2.946   7.136  25.335  1.00  0.00     0.054 C 
HETATM    6  C8  UNL     1       4.443   7.213  25.249  1.00  0.00     0.011 C 
HETATM    7  C9  UNL     1       4.733   6.462  23.958  1.00  0.00     0.011 C 
HETATM    8  C10 UNL     1       3.564   6.904  23.064  1.00  0.00    -0.027 C 
HETATM    9  C11 UNL     1       3.386   5.918  21.954  1.00  0.00     0.016 C 
HETATM   10  C12 UNL     1       3.724   8.279  22.584  1.00  0.00     0.096 C 
HETATM   11  C15 UNL     1       3.349   9.369  23.524  1.00  0.00     0.266 C 
HETATM   12  O2  UNL     1       3.376  10.492  22.908  1.00  0.00    -0.265 OA
HETATM   13  O3  UNL     1       2.996   9.472  24.836  1.00  0.00    -0.282 OA
HETATM   14  C16 UNL     1       2.384   8.506  25.628  1.00  0.00     0.188 C 
HETATM   15  O4  UNL     1       2.460   8.668  27.024  1.00  0.00    -0.336 OA
HETATM   16  C17 UNL     1       1.140   8.403  27.235  1.00  0.00     0.239 C 
ENDROOT
BRANCH  10  17
HETATM   17  C13 UNL     1       5.111   8.625  22.135  1.00  0.00     0.041 C 
BRANCH  17  18
HETATM   18  C14 UNL     1       5.291   9.150  20.751  1.00  0.00     0.165 C 
BRANCH  18  19
HETATM   19  O1  UNL     1       4.500   8.524  19.786  1.00  0.00    -0.401 OA
ATOM     20  H1  UNL     1       3.978   9.117  19.257  1.00  0.00     0.209 HD
ENDBRANCH  18  19
ENDBRANCH  17  18
ENDBRANCH  10  17
BRANCH   1  21
HETATM   21  C2  UNL     1       0.172   9.842  25.561  1.00  0.00     0.014 C 
HETATM   22  C1  UNL     1      -0.571  10.461  26.657  1.00  0.00     0.006 C 
ENDBRANCH   1  21
BRANCH  16  23
HETATM   23  C18 UNL     1       0.676   7.221  27.907  1.00  0.00     0.204 C 
HETATM   24  O5  UNL     1      -0.582   7.146  28.144  1.00  0.00    -0.646 OA
HETATM   25  O6  UNL     1       1.406   6.137  28.343  1.00  0.00    -0.646 OA
ENDBRANCH  16  23
TORSDOF 5
ENDMDL
MODEL 2
REMARK VINA RESULT: -6.898054853      3.398      4.993
REMARK  5 active torsions:
REMARK  status: ('A' for Active; 'I' for Inactive)
REMARK    1  A    between atoms: C2_2  and  C3_3 
REMARK    2  A    between atoms: C12_12  and  C13_13 
REMARK    3  A    between atoms: C13_13  and  C14_14 
REMARK    4  A    between atoms: C14_14  and  O1_15 
REMARK    5  A    between atoms: C17_22  and  C18_23 
ROOT
HETATM    1  C3  UNL     1       4.814   5.555  24.813  1.00  0.00     0.053 C 
HETATM    2  C4  UNL     1       3.723   6.290  25.548  1.00  0.00     0.018 C 
HETATM    3  C5  UNL     1       4.013   7.805  25.606  1.00  0.00     0.007 C 
HETATM    4  C6  UNL     1       3.838   8.333  24.250  1.00  0.00     0.004 C 
HETATM    5  C7  UNL     1       4.112   7.351  23.175  1.00  0.00     0.054 C 
HETATM    6  C8  UNL     1       4.597   8.108  21.972  1.00  0.00     0.011 C 
HETATM    7  C9  UNL     1       4.287   9.549  22.349  1.00  0.00     0.011 C 
HETATM    8  C10 UNL     1       4.613   9.562  23.850  1.00  0.00    -0.027 C 
HETATM    9  C11 UNL     1       3.917  10.716  24.500  1.00  0.00     0.016 C 
HETATM   10  C12 UNL     1       6.056   9.552  24.104  1.00  0.00     0.096 C 
HETATM   11  C15 UNL     1       6.746   8.236  24.019  1.00  0.00     0.266 C 
HETATM   12  O2  UNL     1       7.952   8.360  24.433  1.00  0.00    -0.265 OA
HETATM   13  O3  UNL     1       6.428   6.973  23.623  1.00  0.00    -0.282 OA
HETATM   14  C16 UNL     1       5.173   6.374  23.621  1.00  0.00     0.188 C 
HETATM   15  O4  UNL     1       5.003   5.225  22.825  1.00  0.00    -0.336 OA
HETATM   16  C17 UNL     1       4.358   4.517  23.795  1.00  0.00     0.239 C 
ENDROOT
BRANCH  10  17
HETATM   17  C13 UNL     1       6.852  10.457  23.213  1.00  0.00     0.041 C 
BRANCH  17  18
HETATM   18  C14 UNL     1       7.665  11.532  23.850  1.00  0.00     0.165 C 
BRANCH  18  19
HETATM   19  O1  UNL     1       8.975  11.161  24.159  1.00  0.00    -0.401 OA
ATOM     20  H1  UNL     1       9.155  11.086  25.089  1.00  0.00     0.209 HD
ENDBRANCH  18  19
ENDBRANCH  17  18
ENDBRANCH  10  17
BRANCH   1  21
HETATM   21  C2  UNL     1       5.858   4.912  25.640  1.00  0.00     0.014 C 
HETATM   22  C1  UNL     1       5.526   3.920  26.660  1.00  0.00     0.006 C 
ENDBRANCH   1  21
BRANCH  16  23
HETATM   23  C18 UNL     1       2.970   4.161  23.712  1.00  0.00     0.204 C 
HETATM   24  O5  UNL     1       2.630   3.031  24.215  1.00  0.00    -0.646 OA
HETATM   25  O6  UNL     1       1.930   4.875  23.157  1.00  0.00    -0.646 OA
ENDBRANCH  16  23
TORSDOF 5
ENDMDL
MODEL 3
REMARK VINA RESULT: -6.764482435      2.261      5.405
REMARK  5 active torsions:
REMARK  status: ('A' for Active; 'I' for Inactive)
REMARK    1  A    between atoms: C2_2  and  C3_3 
REMARK    2  A    between atoms: C12_12  and  C13_13 
REMARK    3  A    between atoms: C13_13  and  C14_14 
REMARK    4  A    between atoms: C14_14  and  O1_15 
REMARK    5  A    between atoms: C17_22  and  C18_23 
ROOT
HETATM    1  C3  UNL     1       4.611   7.591  24.056  1.00  0.00     0.053 C 
HETATM    2  C4  UNL     1       4.528   6.904  25.395  1.00  0.00     0.018 C 
HETATM    3  C5  UNL     1       3.342   7.442  26.224  1.00  0.00     0.007 C 
HETATM    4  C6  UNL     1       2.113   6.959  25.588  1.00  0.00     0.004 C 
HETATM    5  C7  UNL     1       2.231   6.736  24.128  1.00  0.00     0.054 C 
HETATM    6  C8  UNL     1       0.878   6.958  23.516  1.00  0.00     0.011 C 
HETATM    7  C9  UNL     1      -0.026   7.015  24.740  1.00  0.00     0.011 C 
HETATM    8  C10 UNL     1       0.853   7.770  25.748  1.00  0.00    -0.027 C 
HETATM    9  C11 UNL     1       0.364   7.498  27.136  1.00  0.00     0.016 C 
HETATM   10  C12 UNL     1       0.938   9.202  25.446  1.00  0.00     0.096 C 
HETATM   11  C15 UNL     1       1.897   9.610  24.384  1.00  0.00     0.266 C 
HETATM   12  O2  UNL     1       1.985  10.887  24.357  1.00  0.00    -0.265 OA
HETATM   13  O3  UNL     1       2.681   8.986  23.461  1.00  0.00    -0.282 OA
HETATM   14  C16 UNL     1       3.222   7.706  23.532  1.00  0.00     0.188 C 
HETATM   15  O4  UNL     1       3.664   7.122  22.330  1.00  0.00    -0.336 OA
HETATM   16  C17 UNL     1       4.847   6.688  22.851  1.00  0.00     0.239 C 
ENDROOT
BRANCH  10  17
HETATM   17  C13 UNL     1      -0.361   9.833  25.047  1.00  0.00     0.041 C 
BRANCH  17  18
HETATM   18  C14 UNL     1      -0.999  10.787  25.997  1.00  0.00     0.165 C 
BRANCH  18  19
HETATM   19  O1  UNL     1      -2.276  11.211  25.624  1.00  0.00    -0.401 OA
ATOM     20  H1  UNL     1      -2.686  11.814  26.233  1.00  0.00     0.209 HD
ENDBRANCH  18  19
ENDBRANCH  17  18
ENDBRANCH  10  17
BRANCH   1  21
HETATM   21  C2  UNL     1       5.567   8.713  23.943  1.00  0.00     0.014 C 
HETATM   22  C1  UNL     1       7.011   8.504  24.033  1.00  0.00     0.006 C 
ENDBRANCH   1  21
BRANCH  16  23
HETATM   23  C18 UNL     1       5.154   5.299  23.049  1.00  0.00     0.204 C 
HETATM   24  O5  UNL     1       6.395   4.983  23.108  1.00  0.00    -0.646 OA
HETATM   25  O6  UNL     1       4.286   4.238  23.185  1.00  0.00    -0.646 OA
ENDBRANCH  16  23
TORSDOF 5
ENDMDL
MODEL 4
REMARK VINA RESULT: -6.650555723      2.925      4.688
REMARK  5 active torsions:
REMARK  status: ('A' for Active; 'I' for Inactive)
REMARK    1  A    between atoms: C2_2  and  C3_3 
REMARK    2  A    between atoms: C12_12  and  C13_13 
REMARK    3  A    between atoms: C13_13  and  C14_14 
REMARK    4  A    between atoms: C14_14  and  O1_15 
REMARK    5  A    between atoms: C17_22  and  C18_23 
ROOT
HETATM    1  C3  UNL     1       3.551   7.431  23.256  1.00  0.00     0.053 C 
HETATM    2  C4  UNL     1       4.055   7.512  21.838  1.00  0.00     0.018 C 
HETATM    3  C5  UNL     1       4.835   8.823  21.598  1.00  0.00     0.007 C 
HETATM    4  C6  UNL     1       6.097   8.717  22.336  1.00  0.00     0.004 C 
HETATM    5  C7  UNL     1       6.028   7.857  23.539  1.00  0.00     0.054 C 
HETATM    6  C8  UNL     1       7.033   8.369  24.531  1.00  0.00     0.011 C 
HETATM    7  C9  UNL     1       7.845   9.348  23.695  1.00  0.00     0.011 C 
HETATM    8  C10 UNL     1       6.761   9.985  22.811  1.00  0.00    -0.027 C 
HETATM    9  C11 UNL     1       7.399  10.592  21.602  1.00  0.00     0.016 C 
HETATM   10  C12 UNL     1       5.929  10.935  23.553  1.00  0.00     0.096 C 
HETATM   11  C15 UNL     1       4.838  10.365  24.390  1.00  0.00     0.266 C 
HETATM   12  O2  UNL     1       4.099  11.314  24.830  1.00  0.00    -0.265 OA
HETATM   13  O3  UNL     1       4.440   9.127  24.793  1.00  0.00    -0.282 OA
HETATM   14  C16 UNL     1       4.646   7.915  24.143  1.00  0.00     0.188 C 
HETATM   15  O4  UNL     1       4.503   6.738  24.902  1.00  0.00    -0.336 OA
HETATM   16  C17 UNL     1       3.748   6.097  23.965  1.00  0.00     0.239 C 
ENDROOT
BRANCH  10  17
HETATM   17  C13 UNL     1       6.687  11.836  24.480  1.00  0.00     0.041 C 
BRANCH  17  18
HETATM   18  C14 UNL     1       6.630  13.305  24.233  1.00  0.00     0.165 C 
BRANCH  18  19
HETATM   19  O1  UNL     1       5.465  13.925  24.689  1.00  0.00    -0.401 OA
ATOM     20  H1  UNL     1       5.424  14.859  24.522  1.00  0.00     0.209 HD
ENDBRANCH  18  19
ENDBRANCH  17  18
ENDBRANCH  10  17
BRANCH   1  21
HETATM   21  C2  UNL     1       2.147   7.834  23.487  1.00  0.00     0.014 C 
HETATM   22  C1  UNL     1       1.058   6.859  23.481  1.00  0.00     0.006 C 
ENDBRANCH   1  21
BRANCH  16  23
HETATM   23  C18 UNL     1       4.218   4.959  23.226  1.00  0.00     0.204 C 
HETATM   24  O5  UNL     1       3.328   4.167  22.754  1.00  0.00    -0.646 OA
HETATM   25  O6  UNL     1       5.517   4.590  22.949  1.00  0.00    -0.646 OA
ENDBRANCH  16  23
TORSDOF 5
ENDMDL
MODEL 5
REMARK VINA RESULT: -6.627217320      2.149      3.441
REMARK  5 active torsions:
REMARK  status: ('A' for Active; 'I' for Inactive)
REMARK    1  A    between atoms: C2_2  and  C3_3 
REMARK    2  A    between atoms: C12_12  and  C13_13 
REMARK    3  A    between atoms: C13_13  and  C14_14 
REMARK    4  A    between atoms: C14_14  and  O1_15 
REMARK    5  A    between atoms: C17_22  and  C18_23 
ROOT
HETATM    1  C3  UNL     1       2.158   8.322  26.967  1.00  0.00     0.053 C 
HETATM    2  C4  UNL     1       2.558   9.459  26.062  1.00  0.00     0.018 C 
HETATM    3  C5  UNL     1       3.547   8.984  24.976  1.00  0.00     0.007 C 
HETATM    4  C6  UNL     1       2.795   8.140  24.044  1.00  0.00     0.004 C 
HETATM    5  C7  UNL     1       1.642   7.438  24.654  1.00  0.00     0.054 C 
HETATM    6  C8  UNL     1       1.429   6.157  23.900  1.00  0.00     0.011 C 
HETATM    7  C9  UNL     1       2.322   6.346  22.681  1.00  0.00     0.011 C 
HETATM    8  C10 UNL     1       3.536   7.067  23.287  1.00  0.00    -0.027 C 
HETATM    9  C11 UNL     1       4.285   7.775  22.202  1.00  0.00     0.016 C 
HETATM   10  C12 UNL     1       4.384   6.164  24.068  1.00  0.00     0.096 C 
HETATM   11  C15 UNL     1       3.942   5.856  25.455  1.00  0.00     0.266 C 
HETATM   12  O2  UNL     1       4.864   5.206  26.062  1.00  0.00    -0.265 OA
HETATM   13  O3  UNL     1       2.838   6.085  26.219  1.00  0.00    -0.282 OA
HETATM   14  C16 UNL     1       1.928   7.130  26.104  1.00  0.00     0.188 C 
HETATM   15  O4  UNL     1       0.673   6.969  26.722  1.00  0.00    -0.336 OA
HETATM   16  C17 UNL     1       0.673   8.210  27.289  1.00  0.00     0.239 C 
ENDROOT
BRANCH  10  17
HETATM   17  C13 UNL     1       4.616   4.825  23.438  1.00  0.00     0.041 C 
BRANCH  17  18
HETATM   18  C14 UNL     1       5.961   4.544  22.858  1.00  0.00     0.165 C 
BRANCH  18  19
HETATM   19  O1  UNL     1       6.924   5.518  23.131  1.00  0.00    -0.401 OA
ATOM     20  H1  UNL     1       7.693   5.479  22.575  1.00  0.00     0.209 HD
ENDBRANCH  18  19
ENDBRANCH  17  18
ENDBRANCH  10  17
BRANCH   1  21
HETATM   21  C2  UNL     1       2.883   8.208  28.251  1.00  0.00     0.014 C 
HETATM   22  C1  UNL     1       2.179   7.991  29.513  1.00  0.00     0.006 C 
ENDBRANCH   1  21
BRANCH  16  23
HETATM   23  C18 UNL     1      -0.226   9.255  26.887  1.00  0.00     0.204 C 
HETATM   24  O5  UNL     1      -0.757   9.954  27.821  1.00  0.00    -0.646 OA
HETATM   25  O6  UNL     1      -0.608   9.617  25.613  1.00  0.00    -0.646 OA
ENDBRANCH  16  23
TORSDOF 5
ENDMDL
