MODEL 1
REMARK VINA RESULT: -8.310164643      0.000      0.000
REMARK  4 active torsions:
REMARK  status: ('A' for Active; 'I' for Inactive)
REMARK    1  A    between atoms: C2_3  and  C3_4 
REMARK    2  A    between atoms: C3_4  and  N2_5 
REMARK       I    between atoms: N2_5  and  C4_7 
REMARK    3  A    between atoms: C4_7  and  C5_9 
REMARK    4  A    between atoms: C5_9  and  N3_10 
ROOT
HETATM    1  N1  UNL     1      14.130  14.340  26.018  1.00  0.00    -0.197 NA
HETATM    2  C1  UNL     1      13.162  14.415  26.668  1.00  0.00     0.060 C 
HETATM    3  C2  UNL     1      11.964  14.499  27.492  1.00  0.00     0.143 C 
ENDROOT
BRANCH   3   4
HETATM    4  C3  UNL     1      10.942  15.439  26.887  1.00  0.00     0.136 C 
BRANCH   4   5
HETATM    5  N2  UNL     1       9.668  14.711  26.829  1.00  0.00    -0.359 N 
HETATM    6  C4  UNL     1       9.092  14.538  25.547  1.00  0.00     0.235 C 
HETATM    7  O1  UNL     1       9.631  14.978  24.515  1.00  0.00    -0.272 OA
ATOM      8  H2  UNL     1       9.221  14.347  27.671  1.00  0.00     0.162 HD
BRANCH   6   9
HETATM    9  C5  UNL     1       7.784  13.795  25.469  1.00  0.00     0.222 C 
BRANCH   9  10
HETATM   10  N3  UNL     1       7.914  12.746  24.510  1.00  0.00    -0.379 N 
HETATM   11  C6  UNL     1       6.900  12.132  24.037  1.00  0.00     0.042 C 
HETATM   12  C7  UNL     1       5.542  12.544  24.521  1.00  0.00     0.064 C 
HETATM   13  S1  UNL     1       7.045  10.819  22.837  1.00  0.00    -0.117 SA
HETATM   14  C8  UNL     1       4.476  11.834  23.692  1.00  0.00     0.006 C 
HETATM   15  C9  UNL     1       3.155  12.008  24.371  1.00  0.00     0.000 C 
HETATM   16  C10 UNL     1       2.406  10.706  24.540  1.00  0.00     0.002 C 
HETATM   17  C11 UNL     1       3.187   9.672  25.282  1.00  0.00     0.020 C 
HETATM   18  C12 UNL     1       3.385   8.442  24.413  1.00  0.00     0.122 C 
HETATM   19  N4  UNL     1       4.294   7.506  25.039  1.00  0.00    -0.361 N 
HETATM   20  C13 UNL     1       5.462   6.997  24.407  1.00  0.00     0.217 C 
ATOM     21  H4  UNL     1       4.086   7.193  25.988  1.00  0.00     0.162 HD
HETATM   22  O2  UNL     1       5.782   5.790  24.575  1.00  0.00    -0.274 OA
HETATM   23  C14 UNL     1       6.321   7.869  23.543  1.00  0.00     0.103 C 
HETATM   24  C15 UNL     1       7.340   8.609  24.379  1.00  0.00     0.020 C 
HETATM   25  C16 UNL     1       8.134   9.495  23.445  1.00  0.00     0.081 C 
ATOM     26  H3  UNL     1       8.847  12.478  24.194  1.00  0.00     0.160 HD
ENDBRANCH   9  10
ENDBRANCH   6   9
ENDBRANCH   4   5
ENDBRANCH   3   4
TORSDOF 4
ENDMDL
MODEL 2
REMARK VINA RESULT: -8.225675696      2.471      3.385
REMARK  4 active torsions:
REMARK  status: ('A' for Active; 'I' for Inactive)
REMARK    1  A    between atoms: C2_3  and  C3_4 
REMARK    2  A    between atoms: C3_4  and  N2_5 
REMARK       I    between atoms: N2_5  and  C4_7 
REMARK    3  A    between atoms: C4_7  and  C5_9 
REMARK    4  A    between atoms: C5_9  and  N3_10 
ROOT
HETATM    1  N1  UNL     1      12.264  14.694  26.466  1.00  0.00    -0.197 NA
HETATM    2  C1  UNL     1      11.111  14.885  26.453  1.00  0.00     0.060 C 
HETATM    3  C2  UNL     1       9.676  15.131  26.455  1.00  0.00     0.143 C 
ENDROOT
BRANCH   3   4
HETATM    4  C3  UNL     1       9.077  14.916  25.080  1.00  0.00     0.136 C 
BRANCH   4   5
HETATM    5  N2  UNL     1       7.644  14.657  25.271  1.00  0.00    -0.359 N 
HETATM    6  C4  UNL     1       7.102  13.547  24.577  1.00  0.00     0.235 C 
HETATM    7  O1  UNL     1       7.797  12.822  23.843  1.00  0.00    -0.272 OA
ATOM      8  H2  UNL     1       7.069  15.247  25.872  1.00  0.00     0.162 HD
BRANCH   6   9
HETATM    9  C5  UNL     1       5.633  13.267  24.760  1.00  0.00     0.222 C 
BRANCH   9  10
HETATM   10  N3  UNL     1       5.346  11.976  24.221  1.00  0.00    -0.379 N 
HETATM   11  C6  UNL     1       4.168  11.638  23.866  1.00  0.00     0.042 C 
HETATM   12  C7  UNL     1       3.070  12.645  24.030  1.00  0.00     0.064 C 
HETATM   13  S1  UNL     1       3.793  10.030  23.190  1.00  0.00    -0.117 SA
HETATM   14  C8  UNL     1       1.800  12.118  23.367  1.00  0.00     0.006 C 
HETATM   15  C9  UNL     1       0.652  12.974  23.797  1.00  0.00     0.000 C 
HETATM   16  C10 UNL     1      -0.524  12.167  24.300  1.00  0.00     0.002 C 
HETATM   17  C11 UNL     1      -0.169  11.251  25.424  1.00  0.00     0.020 C 
HETATM   18  C12 UNL     1      -0.458   9.811  25.037  1.00  0.00     0.122 C 
HETATM   19  N4  UNL     1       0.050   8.893  26.035  1.00  0.00    -0.361 N 
HETATM   20  C13 UNL     1       0.934   7.819  25.742  1.00  0.00     0.217 C 
ATOM     21  H4  UNL     1      -0.241   9.026  27.004  1.00  0.00     0.162 HD
HETATM   22  O2  UNL     1       0.786   6.716  26.333  1.00  0.00    -0.274 OA
HETATM   23  C14 UNL     1       2.039   7.970  24.741  1.00  0.00     0.103 C 
HETATM   24  C15 UNL     1       3.276   8.543  25.396  1.00  0.00     0.020 C 
HETATM   25  C16 UNL     1       4.324   8.706  24.318  1.00  0.00     0.081 C 
ATOM     26  H3  UNL     1       6.107  11.304  24.118  1.00  0.00     0.160 HD
ENDBRANCH   9  10
ENDBRANCH   6   9
ENDBRANCH   4   5
ENDBRANCH   3   4
TORSDOF 4
ENDMDL
MODEL 3
REMARK VINA RESULT: -8.217280414      2.704      3.733
REMARK  4 active torsions:
REMARK  status: ('A' for Active; 'I' for Inactive)
REMARK    1  A    between atoms: C2_3  and  C3_4 
REMARK    2  A    between atoms: C3_4  and  N2_5 
REMARK       I    between atoms: N2_5  and  C4_7 
REMARK    3  A    between atoms: C4_7  and  C5_9 
REMARK    4  A    between atoms: C5_9  and  N3_10 
ROOT
HETATM    1  N1  UNL     1      11.101  14.280  27.208  1.00  0.00    -0.197 NA
HETATM    2  C1  UNL     1      10.196  13.949  26.546  1.00  0.00     0.060 C 
HETATM    3  C2  UNL     1       9.071  13.519  25.729  1.00  0.00     0.143 C 
ENDROOT
BRANCH   3   4
HETATM    4  C3  UNL     1       8.421  14.690  25.022  1.00  0.00     0.136 C 
BRANCH   4   5
HETATM    5  N2  UNL     1       7.056  14.280  24.673  1.00  0.00    -0.359 N 
HETATM    6  C4  UNL     1       6.022  14.704  25.544  1.00  0.00     0.235 C 
HETATM    7  O1  UNL     1       6.251  15.391  26.556  1.00  0.00    -0.272 OA
ATOM      8  H2  UNL     1       6.861  13.718  23.845  1.00  0.00     0.162 HD
BRANCH   6   9
HETATM    9  C5  UNL     1       4.615  14.291  25.202  1.00  0.00     0.222 C 
BRANCH   9  10
HETATM   10  N3  UNL     1       4.655  12.997  24.600  1.00  0.00    -0.379 N 
HETATM   11  C6  UNL     1       3.605  12.429  24.148  1.00  0.00     0.042 C 
HETATM   12  C7  UNL     1       2.304  13.163  24.266  1.00  0.00     0.064 C 
HETATM   13  S1  UNL     1       3.638  10.813  23.393  1.00  0.00    -0.117 SA
HETATM   14  C8  UNL     1       1.227  12.406  23.494  1.00  0.00     0.006 C 
HETATM   15  C9  UNL     1      -0.107  12.969  23.867  1.00  0.00     0.000 C 
HETATM   16  C10 UNL     1      -1.106  11.902  24.256  1.00  0.00     0.002 C 
HETATM   17  C11 UNL     1      -0.630  11.031  25.371  1.00  0.00     0.020 C 
HETATM   18  C12 UNL     1      -0.569   9.583  24.915  1.00  0.00     0.122 C 
HETATM   19  N4  UNL     1       0.064   8.750  25.916  1.00  0.00    -0.361 N 
HETATM   20  C13 UNL     1       1.180   7.909  25.652  1.00  0.00     0.217 C 
ATOM     21  H4  UNL     1      -0.311   8.768  26.864  1.00  0.00     0.162 HD
HETATM   22  O2  UNL     1       1.241   6.773  26.193  1.00  0.00    -0.274 OA
HETATM   23  C14 UNL     1       2.286   8.347  24.741  1.00  0.00     0.103 C 
HETATM   24  C15 UNL     1       3.321   9.142  25.503  1.00  0.00     0.020 C 
HETATM   25  C16 UNL     1       4.374   9.582  24.511  1.00  0.00     0.081 C 
ATOM     26  H3  UNL     1       5.550  12.512  24.530  1.00  0.00     0.160 HD
ENDBRANCH   9  10
ENDBRANCH   6   9
ENDBRANCH   4   5
ENDBRANCH   3   4
TORSDOF 4
ENDMDL
MODEL 4
REMARK VINA RESULT: -7.950100239      3.901      8.312
REMARK  4 active torsions:
REMARK  status: ('A' for Active; 'I' for Inactive)
REMARK    1  A    between atoms: C2_3  and  C3_4 
REMARK    2  A    between atoms: C3_4  and  N2_5 
REMARK       I    between atoms: N2_5  and  C4_7 
REMARK    3  A    between atoms: C4_7  and  C5_9 
REMARK    4  A    between atoms: C5_9  and  N3_10 
ROOT
HETATM    1  N1  UNL     1       0.167   9.905  26.484  1.00  0.00    -0.197 NA
HETATM    2  C1  UNL     1      -0.850  10.354  26.126  1.00  0.00     0.060 C 
HETATM    3  C2  UNL     1      -2.125  10.912  25.699  1.00  0.00     0.143 C 
ENDROOT
BRANCH   3   4
HETATM    4  C3  UNL     1      -2.049  11.440  24.280  1.00  0.00     0.136 C 
BRANCH   4   5
HETATM    5  N2  UNL     1      -0.634  11.701  23.993  1.00  0.00    -0.359 N 
HETATM    6  C4  UNL     1      -0.351  12.463  22.833  1.00  0.00     0.235 C 
HETATM    7  O1  UNL     1      -1.251  12.893  22.089  1.00  0.00    -0.272 OA
ATOM      8  H2  UNL     1       0.109  11.352  24.599  1.00  0.00     0.162 HD
BRANCH   6   9
HETATM    9  C5  UNL     1       1.097  12.740  22.522  1.00  0.00     0.222 C 
BRANCH   9  10
HETATM   10  N3  UNL     1       1.898  11.751  23.169  1.00  0.00    -0.379 N 
HETATM   11  C6  UNL     1       2.779  12.057  24.039  1.00  0.00     0.042 C 
HETATM   12  C7  UNL     1       2.960  13.507  24.375  1.00  0.00     0.064 C 
HETATM   13  S1  UNL     1       3.787  10.833  24.857  1.00  0.00    -0.117 SA
HETATM   14  C8  UNL     1       3.905  13.634  25.565  1.00  0.00     0.006 C 
HETATM   15  C9  UNL     1       4.315  15.066  25.693  1.00  0.00     0.000 C 
HETATM   16  C10 UNL     1       5.812  15.239  25.816  1.00  0.00     0.002 C 
HETATM   17  C11 UNL     1       6.568  14.629  24.682  1.00  0.00     0.020 C 
HETATM   18  C12 UNL     1       7.521  13.566  25.199  1.00  0.00     0.122 C 
HETATM   19  N4  UNL     1       8.125  12.835  24.105  1.00  0.00    -0.361 N 
HETATM   20  C13 UNL     1       8.085  11.419  23.986  1.00  0.00     0.217 C 
ATOM     21  H4  UNL     1       8.607  13.366  23.379  1.00  0.00     0.162 HD
HETATM   22  O2  UNL     1       9.100  10.804  23.562  1.00  0.00    -0.274 OA
HETATM   23  C14 UNL     1       6.859  10.641  24.355  1.00  0.00     0.103 C 
HETATM   24  C15 UNL     1       5.904  10.565  23.186  1.00  0.00     0.020 C 
HETATM   25  C16 UNL     1       4.680   9.808  23.650  1.00  0.00     0.081 C 
ATOM     26  H3  UNL     1       1.761  10.769  22.927  1.00  0.00     0.160 HD
ENDBRANCH   9  10
ENDBRANCH   6   9
ENDBRANCH   4   5
ENDBRANCH   3   4
TORSDOF 4
ENDMDL
MODEL 5
REMARK VINA RESULT: -7.864381872      1.776      2.144
REMARK  4 active torsions:
REMARK  status: ('A' for Active; 'I' for Inactive)
REMARK    1  A    between atoms: C2_3  and  C3_4 
REMARK    2  A    between atoms: C3_4  and  N2_5 
REMARK       I    between atoms: N2_5  and  C4_7 
REMARK    3  A    between atoms: C4_7  and  C5_9 
REMARK    4  A    between atoms: C5_9  and  N3_10 
ROOT
HETATM    1  N1  UNL     1      11.583  13.943  27.903  1.00  0.00    -0.197 NA
HETATM    2  C1  UNL     1      10.945  14.695  27.276  1.00  0.00     0.060 C 
HETATM    3  C2  UNL     1      10.153  15.645  26.509  1.00  0.00     0.143 C 
ENDROOT
BRANCH   3   4
HETATM    4  C3  UNL     1       9.874  15.132  25.112  1.00  0.00     0.136 C 
BRANCH   4   5
HETATM    5  N2  UNL     1       8.452  14.773  25.060  1.00  0.00    -0.359 N 
HETATM    6  C4  UNL     1       8.147  13.394  24.949  1.00  0.00     0.235 C 
HETATM    7  O1  UNL     1       9.034  12.523  24.898  1.00  0.00    -0.272 OA
ATOM      8  H2  UNL     1       7.719  15.482  25.102  1.00  0.00     0.162 HD
BRANCH   6   9
HETATM    9  C5  UNL     1       6.692  13.009  24.893  1.00  0.00     0.222 C 
BRANCH   9  10
HETATM   10  N3  UNL     1       6.564  11.832  24.096  1.00  0.00    -0.379 N 
HETATM   11  C6  UNL     1       5.427  11.389  23.721  1.00  0.00     0.042 C 
HETATM   12  C7  UNL     1       4.205  12.145  24.146  1.00  0.00     0.064 C 
HETATM   13  S1  UNL     1       5.250   9.920  22.724  1.00  0.00    -0.117 SA
HETATM   14  C8  UNL     1       2.984  11.570  23.433  1.00  0.00     0.006 C 
HETATM   15  C9  UNL     1       1.755  12.116  24.085  1.00  0.00     0.000 C 
HETATM   16  C10 UNL     1       0.754  11.041  24.445  1.00  0.00     0.002 C 
HETATM   17  C11 UNL     1       1.325   9.979  25.325  1.00  0.00     0.020 C 
HETATM   18  C12 UNL     1       1.229   8.626  24.643  1.00  0.00     0.122 C 
HETATM   19  N4  UNL     1       1.941   7.614  25.394  1.00  0.00    -0.361 N 
HETATM   20  C13 UNL     1       2.953   6.784  24.838  1.00  0.00     0.217 C 
ATOM     21  H4  UNL     1       1.705   7.490  26.379  1.00  0.00     0.162 HD
HETATM   22  O2  UNL     1       3.017   5.573  25.178  1.00  0.00    -0.274 OA
HETATM   23  C14 UNL     1       3.946   7.321  23.853  1.00  0.00     0.103 C 
HETATM   24  C15 UNL     1       5.127   7.937  24.568  1.00  0.00     0.020 C 
HETATM   25  C16 UNL     1       6.056   8.493  23.512  1.00  0.00     0.081 C 
ATOM     26  H3  UNL     1       7.407  11.329  23.818  1.00  0.00     0.160 HD
ENDBRANCH   9  10
ENDBRANCH   6   9
ENDBRANCH   4   5
ENDBRANCH   3   4
TORSDOF 4
ENDMDL
