MODEL 1
REMARK VINA RESULT: -6.355794665      0.000      0.000
REMARK  6 active torsions:
REMARK  status: ('A' for Active; 'I' for Inactive)
REMARK    1  A    between atoms: O1_2  and  C2_3 
REMARK    2  A    between atoms: C2_3  and  C3_4 
REMARK    3  A    between atoms: C3_4  and  C4_5 
REMARK    4  A    between atoms: C4_5  and  O2_6 
REMARK    5  A    between atoms: C8_12  and  C9_13 
REMARK    6  A    between atoms: C12_17  and  O5_18 
ROOT
HETATM    1  C3  UNL     1       2.785   7.846  24.696  1.00  0.00     0.016 C 
HETATM    2  C5  UNL     1       3.974   8.641  24.532  1.00  0.00     0.043 C 
HETATM    3  C6  UNL     1       3.857  10.151  24.347  1.00  0.00     0.035 C 
HETATM    4  C7  UNL     1       5.382  10.402  24.246  1.00  0.00     0.170 C 
HETATM    5  O3  UNL     1       5.961   9.209  23.839  1.00  0.00    -0.372 OA
HETATM    6  C8  UNL     1       4.895   8.418  23.387  1.00  0.00     0.122 C 
HETATM    7  C10 UNL     1       5.300   7.040  23.056  1.00  0.00     0.038 C 
HETATM    8  C11 UNL     1       4.313   6.360  22.148  1.00  0.00     0.041 C 
HETATM    9  C12 UNL     1       2.959   6.238  22.843  1.00  0.00     0.124 C 
HETATM   10  C13 UNL     1       3.063   6.418  24.339  1.00  0.00     0.036 C 
HETATM   11  C14 UNL     1       4.291   5.753  24.831  1.00  0.00    -0.033 C 
HETATM   12  C15 UNL     1       4.550   5.755  26.310  1.00  0.00     0.016 C 
HETATM   13  C16 UNL     1       4.010   4.235  24.714  1.00  0.00     0.016 C 
HETATM   14  C17 UNL     1       5.582   6.082  24.165  1.00  0.00    -0.033 C 
HETATM   15  C18 UNL     1       6.266   4.895  23.484  1.00  0.00     0.016 C 
HETATM   16  C19 UNL     1       6.691   6.612  25.010  1.00  0.00     0.016 C 
ENDROOT
BRANCH   1  17
HETATM   17  C2  UNL     1       2.215   7.993  26.111  1.00  0.00     0.179 C 
BRANCH  17  18
HETATM   18  O1  UNL     1       1.463   6.857  26.482  1.00  0.00    -0.395 OA
HETATM   19  C1  UNL     1       0.790   7.197  27.637  1.00  0.00     0.201 C 
ENDBRANCH  17  18
ENDBRANCH   1  17
BRANCH   1  20
HETATM   20  C4  UNL     1       1.596   8.384  23.876  1.00  0.00     0.176 C 
BRANCH  20  21
HETATM   21  O2  UNL     1       0.396   7.787  24.184  1.00  0.00    -0.400 OA
ATOM     22  H2  UNL     1      -0.331   8.396  24.240  1.00  0.00     0.209 HD
ENDBRANCH  20  21
ENDBRANCH   1  20
BRANCH   6  23
HETATM   23  C9  UNL     1       4.523   9.061  22.108  1.00  0.00     0.270 C 
HETATM   24  O4  UNL     1       5.356   9.224  21.232  1.00  0.00    -0.304 OA
ENDBRANCH   6  23
BRANCH   9  25
HETATM   25  O5  UNL     1       2.299   5.075  22.441  1.00  0.00    -0.395 OA
ATOM     26  H5  UNL     1       2.771   4.304  22.731  1.00  0.00     0.210 HD
ENDBRANCH   9  25
TORSDOF 6
ENDMDL
MODEL 2
REMARK VINA RESULT: -6.295185709      1.092      1.127
REMARK  6 active torsions:
REMARK  status: ('A' for Active; 'I' for Inactive)
REMARK    1  A    between atoms: O1_2  and  C2_3 
REMARK    2  A    between atoms: C2_3  and  C3_4 
REMARK    3  A    between atoms: C3_4  and  C4_5 
REMARK    4  A    between atoms: C4_5  and  O2_6 
REMARK    5  A    between atoms: C8_12  and  C9_13 
REMARK    6  A    between atoms: C12_17  and  O5_18 
ROOT
HETATM    1  C3  UNL     1       2.990   7.274  25.610  1.00  0.00     0.016 C 
HETATM    2  C5  UNL     1       3.951   8.219  25.104  1.00  0.00     0.043 C 
HETATM    3  C6  UNL     1       3.533   9.666  24.857  1.00  0.00     0.035 C 
HETATM    4  C7  UNL     1       4.925  10.134  24.361  1.00  0.00     0.170 C 
HETATM    5  O3  UNL     1       5.589   9.007  23.900  1.00  0.00    -0.372 OA
HETATM    6  C8  UNL     1       4.600   8.020  23.781  1.00  0.00     0.122 C 
HETATM    7  C10 UNL     1       5.148   6.693  23.449  1.00  0.00     0.038 C 
HETATM    8  C11 UNL     1       4.108   5.778  22.863  1.00  0.00     0.041 C 
HETATM    9  C12 UNL     1       2.998   5.526  23.881  1.00  0.00     0.124 C 
HETATM   10  C13 UNL     1       3.419   5.875  25.288  1.00  0.00     0.036 C 
HETATM   11  C14 UNL     1       4.825   5.461  25.499  1.00  0.00    -0.033 C 
HETATM   12  C15 UNL     1       5.422   5.658  26.864  1.00  0.00     0.016 C 
HETATM   13  C16 UNL     1       4.793   3.914  25.555  1.00  0.00     0.016 C 
HETATM   14  C17 UNL     1       5.845   5.911  24.512  1.00  0.00    -0.033 C 
HETATM   15  C18 UNL     1       6.544   4.777  23.759  1.00  0.00     0.016 C 
HETATM   16  C19 UNL     1       7.013   6.690  25.017  1.00  0.00     0.016 C 
ENDROOT
BRANCH   1  17
HETATM   17  C2  UNL     1       2.753   7.480  27.111  1.00  0.00     0.179 C 
BRANCH  17  18
HETATM   18  O1  UNL     1       2.116   6.361  27.688  1.00  0.00    -0.395 OA
HETATM   19  C1  UNL     1       2.428   6.387  29.032  1.00  0.00     0.201 C 
ENDBRANCH  17  18
ENDBRANCH   1  17
BRANCH   1  20
HETATM   20  C4  UNL     1       1.567   7.535  25.081  1.00  0.00     0.176 C 
BRANCH  20  21
HETATM   21  O2  UNL     1       0.702   8.019  26.034  1.00  0.00    -0.400 OA
ATOM     22  H2  UNL     1       1.086   8.090  26.900  1.00  0.00     0.209 HD
ENDBRANCH  20  21
ENDBRANCH   1  20
BRANCH   6  23
HETATM   23  C9  UNL     1       3.831   8.461  22.597  1.00  0.00     0.270 C 
HETATM   24  O4  UNL     1       4.406   8.776  21.568  1.00  0.00    -0.304 OA
ENDBRANCH   6  23
BRANCH   9  25
HETATM   25  O5  UNL     1       2.474   4.240  23.732  1.00  0.00    -0.395 OA
ATOM     26  H5  UNL     1       3.102   3.669  23.306  1.00  0.00     0.210 HD
ENDBRANCH   9  25
TORSDOF 6
ENDMDL
MODEL 3
REMARK VINA RESULT: -6.152047041      2.218      5.061
REMARK  6 active torsions:
REMARK  status: ('A' for Active; 'I' for Inactive)
REMARK    1  A    between atoms: O1_2  and  C2_3 
REMARK    2  A    between atoms: C2_3  and  C3_4 
REMARK    3  A    between atoms: C3_4  and  C4_5 
REMARK    4  A    between atoms: C4_5  and  O2_6 
REMARK    5  A    between atoms: C8_12  and  C9_13 
REMARK    6  A    between atoms: C12_17  and  O5_18 
ROOT
HETATM    1  C3  UNL     1       6.574   9.312  23.514  1.00  0.00     0.016 C 
HETATM    2  C5  UNL     1       6.425   8.207  24.424  1.00  0.00     0.043 C 
HETATM    3  C6  UNL     1       7.641   7.365  24.800  1.00  0.00     0.035 C 
HETATM    4  C7  UNL     1       6.869   6.416  25.750  1.00  0.00     0.170 C 
HETATM    5  O3  UNL     1       5.538   6.451  25.363  1.00  0.00    -0.372 OA
HETATM    6  C8  UNL     1       5.539   7.059  24.098  1.00  0.00     0.122 C 
HETATM    7  C10 UNL     1       4.183   7.328  23.588  1.00  0.00     0.038 C 
HETATM    8  C11 UNL     1       4.164   7.519  22.097  1.00  0.00     0.041 C 
HETATM    9  C12 UNL     1       5.000   8.737  21.713  1.00  0.00     0.124 C 
HETATM   10  C13 UNL     1       5.256   9.652  22.889  1.00  0.00     0.036 C 
HETATM   11  C14 UNL     1       4.036   9.733  23.723  1.00  0.00    -0.033 C 
HETATM   12  C15 UNL     1       4.055  10.649  24.914  1.00  0.00     0.016 C 
HETATM   13  C16 UNL     1       3.025  10.562  22.893  1.00  0.00     0.016 C 
HETATM   14  C17 UNL     1       3.402   8.461  24.167  1.00  0.00    -0.033 C 
HETATM   15  C18 UNL     1       1.976   8.248  23.654  1.00  0.00     0.016 C 
HETATM   16  C19 UNL     1       3.221   8.242  25.632  1.00  0.00     0.016 C 
ENDROOT
BRANCH   1  17
HETATM   17  C2  UNL     1       7.216  10.518  24.211  1.00  0.00     0.179 C 
BRANCH  17  18
HETATM   18  O1  UNL     1       6.958  11.714  23.508  1.00  0.00    -0.395 OA
HETATM   19  C1  UNL     1       7.378  12.743  24.325  1.00  0.00     0.201 C 
ENDBRANCH  17  18
ENDBRANCH   1  17
BRANCH   1  20
HETATM   20  C4  UNL     1       7.632   9.044  22.426  1.00  0.00     0.176 C 
BRANCH  20  21
HETATM   21  O2  UNL     1       8.687   9.927  22.449  1.00  0.00    -0.400 OA
ATOM     22  H2  UNL     1       8.495  10.763  22.042  1.00  0.00     0.209 HD
ENDBRANCH  20  21
ENDBRANCH   1  20
BRANCH   6  23
HETATM   23  C9  UNL     1       6.112   6.011  23.226  1.00  0.00     0.270 C 
HETATM   24  O4  UNL     1       5.624   4.893  23.199  1.00  0.00    -0.304 OA
ENDBRANCH   6  23
BRANCH   9  25
HETATM   25  O5  UNL     1       4.466   9.370  20.589  1.00  0.00    -0.395 OA
ATOM     26  H5  UNL     1       3.731   9.920  20.831  1.00  0.00     0.210 HD
ENDBRANCH   9  25
TORSDOF 6
ENDMDL
MODEL 4
REMARK VINA RESULT: -6.014627542      1.694      5.045
REMARK  6 active torsions:
REMARK  status: ('A' for Active; 'I' for Inactive)
REMARK    1  A    between atoms: O1_2  and  C2_3 
REMARK    2  A    between atoms: C2_3  and  C3_4 
REMARK    3  A    between atoms: C3_4  and  C4_5 
REMARK    4  A    between atoms: C4_5  and  O2_6 
REMARK    5  A    between atoms: C8_12  and  C9_13 
REMARK    6  A    between atoms: C12_17  and  O5_18 
ROOT
HETATM    1  C3  UNL     1       6.266   7.358  24.021  1.00  0.00     0.016 C 
HETATM    2  C5  UNL     1       5.627   6.811  25.189  1.00  0.00     0.043 C 
HETATM    3  C6  UNL     1       6.296   5.676  25.958  1.00  0.00     0.035 C 
HETATM    4  C7  UNL     1       5.187   5.559  27.034  1.00  0.00     0.170 C 
HETATM    5  O3  UNL     1       4.029   6.079  26.477  1.00  0.00    -0.372 OA
HETATM    6  C8  UNL     1       4.289   6.170  25.102  1.00  0.00     0.122 C 
HETATM    7  C10 UNL     1       3.218   6.854  24.356  1.00  0.00     0.038 C 
HETATM    8  C11 UNL     1       3.254   6.536  22.887  1.00  0.00     0.041 C 
HETATM    9  C12 UNL     1       4.564   7.028  22.277  1.00  0.00     0.124 C 
HETATM   10  C13 UNL     1       5.259   8.045  23.151  1.00  0.00     0.036 C 
HETATM   11  C14 UNL     1       4.251   8.949  23.752  1.00  0.00    -0.033 C 
HETATM   12  C15 UNL     1       4.741  10.082  24.608  1.00  0.00     0.016 C 
HETATM   13  C16 UNL     1       3.744   9.831  22.584  1.00  0.00     0.016 C 
HETATM   14  C17 UNL     1       3.095   8.337  24.463  1.00  0.00    -0.033 C 
HETATM   15  C18 UNL     1       1.730   8.656  23.848  1.00  0.00     0.016 C 
HETATM   16  C19 UNL     1       2.869   8.716  25.888  1.00  0.00     0.016 C 
ENDROOT
BRANCH   1  17
HETATM   17  C2  UNL     1       7.427   8.280  24.409  1.00  0.00     0.179 C 
BRANCH  17  18
HETATM   18  O1  UNL     1       7.850   9.064  23.313  1.00  0.00    -0.395 OA
HETATM   19  C1  UNL     1       8.209  10.292  23.828  1.00  0.00     0.201 C 
ENDBRANCH  17  18
ENDBRANCH   1  17
BRANCH   1  20
HETATM   20  C4  UNL     1       7.036   6.293  23.214  1.00  0.00     0.176 C 
BRANCH  20  21
HETATM   21  O2  UNL     1       8.402   6.426  23.284  1.00  0.00    -0.400 OA
ATOM     22  H2  UNL     1       8.870   5.928  22.623  1.00  0.00     0.209 HD
ENDBRANCH  20  21
ENDBRANCH   1  20
BRANCH   6  23
HETATM   23  C9  UNL     1       4.263   4.756  24.665  1.00  0.00     0.270 C 
HETATM   24  O4  UNL     1       3.295   4.053  24.902  1.00  0.00    -0.304 OA
ENDBRANCH   6  23
BRANCH   9  25
HETATM   25  O5  UNL     1       4.372   7.433  20.954  1.00  0.00    -0.395 OA
ATOM     26  H5  UNL     1       5.021   8.079  20.702  1.00  0.00     0.210 HD
ENDBRANCH   9  25
TORSDOF 6
ENDMDL
MODEL 5
REMARK VINA RESULT: -5.765549734      1.921      5.157
REMARK  6 active torsions:
REMARK  status: ('A' for Active; 'I' for Inactive)
REMARK    1  A    between atoms: O1_2  and  C2_3 
REMARK    2  A    between atoms: C2_3  and  C3_4 
REMARK    3  A    between atoms: C3_4  and  C4_5 
REMARK    4  A    between atoms: C4_5  and  O2_6 
REMARK    5  A    between atoms: C8_12  and  C9_13 
REMARK    6  A    between atoms: C12_17  and  O5_18 
ROOT
HETATM    1  C3  UNL     1       6.155   5.976  24.015  1.00  0.00     0.016 C 
HETATM    2  C5  UNL     1       5.489   5.408  25.158  1.00  0.00     0.043 C 
HETATM    3  C6  UNL     1       6.154   4.278  25.938  1.00  0.00     0.035 C 
HETATM    4  C7  UNL     1       5.015   4.132  26.977  1.00  0.00     0.170 C 
HETATM    5  O3  UNL     1       3.865   4.636  26.389  1.00  0.00    -0.372 OA
HETATM    6  C8  UNL     1       4.167   4.743  25.023  1.00  0.00     0.122 C 
HETATM    7  C10 UNL     1       3.107   5.414  24.250  1.00  0.00     0.038 C 
HETATM    8  C11 UNL     1       3.196   5.110  22.781  1.00  0.00     0.041 C 
HETATM    9  C12 UNL     1       4.515   5.632  22.215  1.00  0.00     0.124 C 
HETATM   10  C13 UNL     1       5.163   6.653  23.120  1.00  0.00     0.036 C 
HETATM   11  C14 UNL     1       4.120   7.533  23.695  1.00  0.00    -0.033 C 
HETATM   12  C15 UNL     1       4.562   8.667  24.576  1.00  0.00     0.016 C 
HETATM   13  C16 UNL     1       3.634   8.416  22.520  1.00  0.00     0.016 C 
HETATM   14  C17 UNL     1       2.954   6.895  24.365  1.00  0.00    -0.033 C 
HETATM   15  C18 UNL     1       1.603   7.193  23.710  1.00  0.00     0.016 C 
HETATM   16  C19 UNL     1       2.676   7.257  25.785  1.00  0.00     0.016 C 
ENDROOT
BRANCH   1  17
HETATM   17  C2  UNL     1       7.286   6.917  24.447  1.00  0.00     0.179 C 
BRANCH  17  18
HETATM   18  O1  UNL     1       7.541   7.898  23.465  1.00  0.00    -0.395 OA
HETATM   19  C1  UNL     1       7.948   9.029  24.143  1.00  0.00     0.201 C 
ENDBRANCH  17  18
ENDBRANCH   1  17
BRANCH   1  20
HETATM   20  C4  UNL     1       6.968   4.933  23.225  1.00  0.00     0.176 C 
BRANCH  20  21
HETATM   21  O2  UNL     1       8.180   5.402  22.773  1.00  0.00    -0.400 OA
ATOM     22  H2  UNL     1       8.287   6.341  22.868  1.00  0.00     0.209 HD
ENDBRANCH  20  21
ENDBRANCH   1  20
BRANCH   6  23
HETATM   23  C9  UNL     1       4.181   3.334  24.574  1.00  0.00     0.270 C 
HETATM   24  O4  UNL     1       3.228   2.604  24.796  1.00  0.00    -0.304 OA
ENDBRANCH   6  23
BRANCH   9  25
HETATM   25  O5  UNL     1       4.357   6.044  20.891  1.00  0.00    -0.395 OA
ATOM     26  H5  UNL     1       5.149   6.459  20.571  1.00  0.00     0.210 HD
ENDBRANCH   9  25
TORSDOF 6
ENDMDL
