MODEL 1
REMARK VINA RESULT: -8.735896315      0.000      0.000
REMARK  3 active torsions:
REMARK  status: ('A' for Active; 'I' for Inactive)
REMARK    1  A    between atoms: N1_2  and  C2_4 
REMARK    2  A    between atoms: C10_18  and  O1_19 
REMARK    3  A    between atoms: O1_19  and  N5_20 
REMARK       I    between atoms: N5_20  and  C11_22 
ROOT
HETATM    1  C2  UNL     1       3.377  12.143  24.487  1.00  0.00     0.132 A 
HETATM    2  N2  UNL     1       3.277  10.903  23.961  1.00  0.00    -0.318 N 
ATOM      3  H2  UNL     1       2.356  10.519  23.749  1.00  0.00     0.170 HD
HETATM    4  C3  UNL     1       4.379  10.164  23.712  1.00  0.00     0.177 A 
HETATM    5  S1  UNL     1       4.210   8.669  23.073  1.00  0.00    -0.040 SA
HETATM    6  N3  UNL     1       5.597  10.664  23.989  1.00  0.00    -0.334 N 
ATOM      7  H3  UNL     1       6.424  10.099  23.797  1.00  0.00     0.168 HD
HETATM    8  C4  UNL     1       5.745  11.900  24.516  1.00  0.00     0.044 A 
HETATM    9  C5  UNL     1       4.620  12.640  24.764  1.00  0.00     0.098 A 
HETATM   10  N4  UNL     1       4.829  13.937  25.320  1.00  0.00    -0.369 N 
HETATM   11  C6  UNL     1       3.861  14.849  25.910  1.00  0.00     0.124 C 
HETATM   12  C7  UNL     1       4.669  15.885  26.693  1.00  0.00     0.022 C 
HETATM   13  C8  UNL     1       6.070  15.318  26.684  1.00  0.00     0.029 C 
HETATM   14  C9  UNL     1       6.099  14.563  25.374  1.00  0.00     0.116 C 
HETATM   15  C10 UNL     1       7.311  13.719  25.241  1.00  0.00     0.180 C 
HETATM   16  C13 UNL     1       7.120  12.328  24.780  1.00  0.00     0.096 C 
ENDROOT
BRANCH  15  17
HETATM   17  O1  UNL     1       7.930  13.675  26.491  1.00  0.00    -0.270 OA
BRANCH  17  18
HETATM   18  N5  UNL     1       9.274  13.611  26.423  1.00  0.00    -0.235 N 
HETATM   19  C11 UNL     1      10.153  14.697  26.621  1.00  0.00     0.237 C 
HETATM   20  C12 UNL     1      11.622  14.536  26.529  1.00  0.00     0.119 C 
HETATM   21  O2  UNL     1       9.704  15.848  26.884  1.00  0.00    -0.272 OA
ATOM     22  H5  UNL     1       9.690  12.704  26.212  1.00  0.00     0.197 HD
ENDBRANCH  17  18
ENDBRANCH  15  17
BRANCH   1  23
HETATM   23  N1  UNL     1       2.324  12.851  24.731  1.00  0.00    -0.379 N 
HETATM   24  C1  UNL     1       1.130  12.649  23.949  1.00  0.00     0.147 C 
ATOM     25  H1  UNL     1       2.338  13.550  25.473  1.00  0.00     0.160 HD
ENDBRANCH   1  23
TORSDOF 3
ENDMDL
MODEL 2
REMARK VINA RESULT: -8.512393569      1.428      1.763
REMARK  3 active torsions:
REMARK  status: ('A' for Active; 'I' for Inactive)
REMARK    1  A    between atoms: N1_2  and  C2_4 
REMARK    2  A    between atoms: C10_18  and  O1_19 
REMARK    3  A    between atoms: O1_19  and  N5_20 
REMARK       I    between atoms: N5_20  and  C11_22 
ROOT
HETATM    1  C2  UNL     1       5.111  11.582  24.412  1.00  0.00     0.132 A 
HETATM    2  N2  UNL     1       5.718  10.452  23.987  1.00  0.00    -0.318 N 
ATOM      3  H2  UNL     1       5.152   9.670  23.658  1.00  0.00     0.170 HD
HETATM    4  C3  UNL     1       7.064  10.345  23.992  1.00  0.00     0.177 A 
HETATM    5  S1  UNL     1       7.755   8.959  23.467  1.00  0.00    -0.040 SA
HETATM    6  N3  UNL     1       7.817  11.372  24.424  1.00  0.00    -0.334 N 
ATOM      7  H3  UNL     1       8.833  11.282  24.424  1.00  0.00     0.168 HD
HETATM    8  C4  UNL     1       7.252  12.521  24.859  1.00  0.00     0.044 A 
HETATM    9  C5  UNL     1       5.887  12.619  24.849  1.00  0.00     0.098 A 
HETATM   10  N4  UNL     1       5.340  13.851  25.317  1.00  0.00    -0.369 N 
HETATM   11  C6  UNL     1       3.962  14.174  25.654  1.00  0.00     0.124 C 
HETATM   12  C7  UNL     1       4.011  15.468  26.468  1.00  0.00     0.022 C 
HETATM   13  C8  UNL     1       5.485  15.654  26.743  1.00  0.00     0.029 C 
HETATM   14  C9  UNL     1       6.119  15.016  25.528  1.00  0.00     0.116 C 
HETATM   15  C10 UNL     1       7.588  14.869  25.674  1.00  0.00     0.180 C 
HETATM   16  C13 UNL     1       8.176  13.562  25.311  1.00  0.00     0.096 C 
ENDROOT
BRANCH  15  17
HETATM   17  O1  UNL     1       7.903  15.124  27.010  1.00  0.00    -0.270 OA
BRANCH  17  18
HETATM   18  N5  UNL     1       9.101  14.633  27.382  1.00  0.00    -0.235 N 
HETATM   19  C11 UNL     1      10.326  15.330  27.312  1.00  0.00     0.237 C 
HETATM   20  C12 UNL     1      11.599  14.711  27.746  1.00  0.00     0.119 C 
HETATM   21  O2  UNL     1      10.368  16.513  26.872  1.00  0.00    -0.272 OA
ATOM     22  H5  UNL     1       9.124  13.680  27.744  1.00  0.00     0.197 HD
ENDBRANCH  17  18
ENDBRANCH  15  17
BRANCH   1  23
HETATM   23  N1  UNL     1       3.823  11.687  24.413  1.00  0.00    -0.379 N 
HETATM   24  C1  UNL     1       3.021  10.644  23.825  1.00  0.00     0.147 C 
ATOM     25  H1  UNL     1       3.376  12.504  24.828  1.00  0.00     0.160 HD
ENDBRANCH   1  23
TORSDOF 3
ENDMDL
MODEL 3
REMARK VINA RESULT: -7.838653543      2.659      5.872
REMARK  3 active torsions:
REMARK  status: ('A' for Active; 'I' for Inactive)
REMARK    1  A    between atoms: N1_2  and  C2_4 
REMARK    2  A    between atoms: C10_18  and  O1_19 
REMARK    3  A    between atoms: O1_19  and  N5_20 
REMARK       I    between atoms: N5_20  and  C11_22 
ROOT
HETATM    1  C2  UNL     1       7.468  12.845  25.063  1.00  0.00     0.132 A 
HETATM    2  N2  UNL     1       8.048  11.786  24.458  1.00  0.00    -0.318 N 
ATOM      3  H2  UNL     1       9.065  11.734  24.401  1.00  0.00     0.170 HD
HETATM    4  C3  UNL     1       7.300  10.795  23.927  1.00  0.00     0.177 A 
HETATM    5  S1  UNL     1       8.045   9.531  23.206  1.00  0.00    -0.040 SA
HETATM    6  N3  UNL     1       5.958  10.858  23.998  1.00  0.00    -0.334 N 
ATOM      7  H3  UNL     1       5.400  10.105  23.595  1.00  0.00     0.168 HD
HETATM    8  C4  UNL     1       5.335  11.899  24.595  1.00  0.00     0.044 A 
HETATM    9  C5  UNL     1       6.104  12.897  25.129  1.00  0.00     0.098 A 
HETATM   10  N4  UNL     1       5.400  13.973  25.747  1.00  0.00    -0.369 N 
HETATM   11  C6  UNL     1       5.900  15.270  26.179  1.00  0.00     0.124 C 
HETATM   12  C7  UNL     1       4.671  16.157  26.386  1.00  0.00     0.022 C 
HETATM   13  C8  UNL     1       3.545  15.338  25.803  1.00  0.00     0.029 C 
HETATM   14  C9  UNL     1       4.017  13.923  26.051  1.00  0.00     0.116 C 
HETATM   15  C10 UNL     1       3.174  12.921  25.354  1.00  0.00     0.180 C 
HETATM   16  C13 UNL     1       3.872  11.856  24.602  1.00  0.00     0.096 C 
ENDROOT
BRANCH  15  17
HETATM   17  O1  UNL     1       2.356  13.611  24.459  1.00  0.00    -0.270 OA
BRANCH  17  18
HETATM   18  N5  UNL     1       1.059  13.252  24.530  1.00  0.00    -0.235 N 
HETATM   19  C11 UNL     1       0.321  12.651  23.487  1.00  0.00     0.237 C 
HETATM   20  C12 UNL     1      -1.104  12.286  23.654  1.00  0.00     0.119 C 
HETATM   21  O2  UNL     1       0.864  12.407  22.374  1.00  0.00    -0.272 OA
ATOM     22  H5  UNL     1       0.572  13.428  25.408  1.00  0.00     0.197 HD
ENDBRANCH  17  18
ENDBRANCH  15  17
BRANCH   1  23
HETATM   23  N1  UNL     1       8.182  13.797  25.568  1.00  0.00    -0.379 N 
HETATM   24  C1  UNL     1       9.046  13.526  26.689  1.00  0.00     0.147 C 
ATOM     25  H1  UNL     1       8.133  14.737  25.174  1.00  0.00     0.160 HD
ENDBRANCH   1  23
TORSDOF 3
ENDMDL
MODEL 4
REMARK VINA RESULT: -7.726293630      2.034      3.536
REMARK  3 active torsions:
REMARK  status: ('A' for Active; 'I' for Inactive)
REMARK    1  A    between atoms: N1_2  and  C2_4 
REMARK    2  A    between atoms: C10_18  and  O1_19 
REMARK    3  A    between atoms: O1_19  and  N5_20 
REMARK       I    between atoms: N5_20  and  C11_22 
ROOT
HETATM    1  C2  UNL     1       3.371  10.959  23.934  1.00  0.00     0.132 A 
HETATM    2  N2  UNL     1       2.175  11.585  23.971  1.00  0.00    -0.318 N 
ATOM      3  H2  UNL     1       1.344  11.103  23.625  1.00  0.00     0.170 HD
HETATM    4  C3  UNL     1       2.062  12.839  24.458  1.00  0.00     0.177 A 
HETATM    5  S1  UNL     1       0.594  13.557  24.485  1.00  0.00    -0.040 SA
HETATM    6  N3  UNL     1       3.153  13.480  24.915  1.00  0.00    -0.334 N 
ATOM      7  H3  UNL     1       3.060  14.427  25.282  1.00  0.00     0.168 HD
HETATM    8  C4  UNL     1       4.371  12.893  24.898  1.00  0.00     0.044 A 
HETATM    9  C5  UNL     1       4.472  11.621  24.402  1.00  0.00     0.098 A 
HETATM   10  N4  UNL     1       5.778  11.045  24.405  1.00  0.00    -0.369 N 
HETATM   11  C6  UNL     1       6.251   9.840  23.740  1.00  0.00     0.124 C 
HETATM   12  C7  UNL     1       7.779   9.920  23.743  1.00  0.00     0.022 C 
HETATM   13  C8  UNL     1       8.055  11.329  24.212  1.00  0.00     0.029 C 
HETATM   14  C9  UNL     1       6.871  11.605  25.111  1.00  0.00     0.116 C 
HETATM   15  C10 UNL     1       6.797  13.029  25.519  1.00  0.00     0.180 C 
HETATM   16  C13 UNL     1       5.481  13.694  25.415  1.00  0.00     0.096 C 
ENDROOT
BRANCH  15  17
HETATM   17  O1  UNL     1       7.700  13.739  24.726  1.00  0.00    -0.270 OA
BRANCH  17  18
HETATM   18  N5  UNL     1       8.362  14.702  25.397  1.00  0.00    -0.235 N 
HETATM   19  C11 UNL     1       9.504  14.497  26.201  1.00  0.00     0.237 C 
HETATM   20  C12 UNL     1      10.171  15.617  26.903  1.00  0.00     0.119 C 
HETATM   21  O2  UNL     1       9.991  13.340  26.343  1.00  0.00    -0.272 OA
ATOM     22  H5  UNL     1       8.010  15.655  25.317  1.00  0.00     0.197 HD
ENDBRANCH  17  18
ENDBRANCH  15  17
BRANCH   1  23
HETATM   23  N1  UNL     1       3.483   9.760  23.464  1.00  0.00    -0.379 N 
HETATM   24  C1  UNL     1       2.687   8.697  24.023  1.00  0.00     0.147 C 
ATOM     25  H1  UNL     1       4.132   9.568  22.701  1.00  0.00     0.160 HD
ENDBRANCH   1  23
TORSDOF 3
ENDMDL
MODEL 5
REMARK VINA RESULT: -7.525977870      1.901      2.719
REMARK  3 active torsions:
REMARK  status: ('A' for Active; 'I' for Inactive)
REMARK    1  A    between atoms: N1_2  and  C2_4 
REMARK    2  A    between atoms: C10_18  and  O1_19 
REMARK    3  A    between atoms: O1_19  and  N5_20 
REMARK       I    between atoms: N5_20  and  C11_22 
ROOT
HETATM    1  C2  UNL     1       5.122   9.379  24.227  1.00  0.00     0.132 A 
HETATM    2  N2  UNL     1       5.880   8.268  24.090  1.00  0.00    -0.318 N 
ATOM      3  H2  UNL     1       5.430   7.372  23.904  1.00  0.00     0.170 HD
HETATM    4  C3  UNL     1       7.225   8.329  24.195  1.00  0.00     0.177 A 
HETATM    5  S1  UNL     1       8.101   6.960  24.020  1.00  0.00    -0.040 SA
HETATM    6  N3  UNL     1       7.825   9.507  24.441  1.00  0.00    -0.334 N 
ATOM      7  H3  UNL     1       8.841   9.544  24.519  1.00  0.00     0.168 HD
HETATM    8  C4  UNL     1       7.107  10.644  24.586  1.00  0.00     0.044 A 
HETATM    9  C5  UNL     1       5.744  10.570  24.476  1.00  0.00     0.098 A 
HETATM   10  N4  UNL     1       5.032  11.796  24.637  1.00  0.00    -0.369 N 
HETATM   11  C6  UNL     1       3.604  12.011  24.817  1.00  0.00     0.124 C 
HETATM   12  C7  UNL     1       3.447  13.441  25.337  1.00  0.00     0.022 C 
HETATM   13  C8  UNL     1       4.865  13.858  25.650  1.00  0.00     0.029 C 
HETATM   14  C9  UNL     1       5.662  13.065  24.639  1.00  0.00     0.116 C 
HETATM   15  C10 UNL     1       7.121  13.132  24.898  1.00  0.00     0.180 C 
HETATM   16  C13 UNL     1       7.874  11.860  24.858  1.00  0.00     0.096 C 
ENDROOT
BRANCH  15  17
HETATM   17  O1  UNL     1       7.296  13.693  26.164  1.00  0.00    -0.270 OA
BRANCH  17  18
HETATM   18  N5  UNL     1       8.276  14.617  26.211  1.00  0.00    -0.235 N 
HETATM   19  C11 UNL     1       9.511  14.462  26.876  1.00  0.00     0.237 C 
HETATM   20  C12 UNL     1      10.534  15.532  26.874  1.00  0.00     0.119 C 
HETATM   21  O2  UNL     1       9.777  13.396  27.497  1.00  0.00    -0.272 OA
ATOM     22  H5  UNL     1       8.112  15.498  25.726  1.00  0.00     0.197 HD
ENDBRANCH  17  18
ENDBRANCH  15  17
BRANCH   1  23
HETATM   23  N1  UNL     1       3.835   9.323  24.131  1.00  0.00    -0.379 N 
HETATM   24  C1  UNL     1       3.204   8.110  23.678  1.00  0.00     0.147 C 
ATOM     25  H1  UNL     1       3.268  10.136  24.374  1.00  0.00     0.160 HD
ENDBRANCH   1  23
TORSDOF 3
ENDMDL
