MODEL 1
REMARK VINA RESULT: -9.060573488      0.000      0.000
REMARK  6 active torsions:
REMARK  status: ('A' for Active; 'I' for Inactive)
REMARK       I    between atoms: N1_2  and  C2_4 
REMARK       I    between atoms: C2_4  and  N2_6 
REMARK    1  A    between atoms: N2_6  and  N3_8 
REMARK    2  A    between atoms: N3_8  and  C3_9 
REMARK    3  A    between atoms: C3_9  and  O2_10 
REMARK    4  A    between atoms: C3_9  and  C4_12 
REMARK    5  A    between atoms: C4_12  and  N4_14 
REMARK    6  A    between atoms: C10_19  and  O3_20 
ROOT
HETATM    1  N4  UNL     1       5.991  13.623  25.429  1.00  0.00    -0.294 N 
HETATM    2  C6  UNL     1       4.676  13.321  25.254  1.00  0.00     0.022 A 
HETATM    3  C7  UNL     1       3.542  14.283  25.518  1.00  0.00     0.069 C 
HETATM    4  C8  UNL     1       4.548  12.027  24.763  1.00  0.00    -0.025 A 
HETATM    5  C9  UNL     1       5.826  11.583  24.652  1.00  0.00     0.002 A 
HETATM    6  C10 UNL     1       6.718  12.547  25.054  1.00  0.00     0.154 A 
HETATM    7  C11 UNL     1       6.338  10.297  24.158  1.00  0.00     0.043 C 
HETATM    8  C12 UNL     1       5.310   9.198  24.030  1.00  0.00     0.005 C 
HETATM    9  C13 UNL     1       4.300   9.734  23.013  1.00  0.00     0.001 C 
HETATM   10  C14 UNL     1       3.132  10.164  23.819  1.00  0.00     0.005 C 
HETATM   11  C15 UNL     1       3.244  11.463  24.508  1.00  0.00     0.041 C 
ENDROOT
BRANCH   1  12
HETATM   12  C4  UNL     1       6.491  14.900  25.918  1.00  0.00     0.082 C 
HETATM   13  C5  UNL     1       6.005  15.316  27.256  1.00  0.00     0.075 C 
BRANCH  12  14
HETATM   14  C3  UNL     1       7.963  15.072  25.658  1.00  0.00     0.261 C 
BRANCH  14  15
HETATM   15  N3  UNL     1       8.980  14.935  26.527  1.00  0.00    -0.294 NA
BRANCH  15  16
HETATM   16  N2  UNL     1      10.009  14.794  27.384  1.00  0.00    -0.182 N 
HETATM   17  C2  UNL     1      11.368  14.539  27.155  1.00  0.00     0.344 C 
HETATM   18  N1  UNL     1      12.271  14.581  28.286  1.00  0.00    -0.345 N 
HETATM   19  O1  UNL     1      11.881  14.288  26.065  1.00  0.00    -0.245 OA
HETATM   20  C1  UNL     1      13.665  14.336  28.034  1.00  0.00     0.151 C 
ATOM     21  H1  UNL     1      11.930  14.778  29.226  1.00  0.00     0.163 HD
ATOM     22  H2  UNL     1       9.756  14.888  28.368  1.00  0.00     0.207 HD
ENDBRANCH  15  16
ENDBRANCH  14  15
BRANCH  14  23
HETATM   23  O2  UNL     1       8.208  15.390  24.409  1.00  0.00    -0.333 OA
ATOM     24  H2  UNL     1       7.698  14.996  23.711  1.00  0.00     0.220 HD
ENDBRANCH  14  23
ENDBRANCH  12  14
ENDBRANCH   1  12
BRANCH   6  25
HETATM   25  O3  UNL     1       8.134  12.377  25.057  1.00  0.00    -0.345 OA
ATOM     26  H3  UNL     1       8.714  12.186  24.330  1.00  0.00     0.219 HD
ENDBRANCH   6  25
TORSDOF 6
ENDMDL
MODEL 2
REMARK VINA RESULT: -8.689350016      3.584      7.195
REMARK  6 active torsions:
REMARK  status: ('A' for Active; 'I' for Inactive)
REMARK       I    between atoms: N1_2  and  C2_4 
REMARK       I    between atoms: C2_4  and  N2_6 
REMARK    1  A    between atoms: N2_6  and  N3_8 
REMARK    2  A    between atoms: N3_8  and  C3_9 
REMARK    3  A    between atoms: C3_9  and  O2_10 
REMARK    4  A    between atoms: C3_9  and  C4_12 
REMARK    5  A    between atoms: C4_12  and  N4_14 
REMARK    6  A    between atoms: C10_19  and  O3_20 
ROOT
HETATM    1  N4  UNL     1       6.096  11.011  23.962  1.00  0.00    -0.294 N 
HETATM    2  C6  UNL     1       4.862  11.550  24.158  1.00  0.00     0.022 A 
HETATM    3  C7  UNL     1       3.571  10.886  23.742  1.00  0.00     0.069 C 
HETATM    4  C8  UNL     1       4.975  12.763  24.827  1.00  0.00    -0.025 A 
HETATM    5  C9  UNL     1       6.310  12.916  25.019  1.00  0.00     0.002 A 
HETATM    6  C10 UNL     1       7.008  11.854  24.497  1.00  0.00     0.154 A 
HETATM    7  C11 UNL     1       7.048  13.990  25.700  1.00  0.00     0.043 C 
HETATM    8  C12 UNL     1       6.257  15.249  25.968  1.00  0.00     0.005 C 
HETATM    9  C13 UNL     1       5.117  14.797  26.883  1.00  0.00     0.001 C 
HETATM   10  C14 UNL     1       3.922  14.730  26.006  1.00  0.00     0.005 C 
HETATM   11  C15 UNL     1       3.801  13.542  25.140  1.00  0.00     0.041 C 
ENDROOT
BRANCH   1  12
HETATM   12  C4  UNL     1       6.350   9.739  23.302  1.00  0.00     0.082 C 
HETATM   13  C5  UNL     1       7.212   9.794  22.096  1.00  0.00     0.075 C 
BRANCH  12  14
HETATM   14  C3  UNL     1       6.645   8.638  24.284  1.00  0.00     0.261 C 
BRANCH  14  15
HETATM   15  N3  UNL     1       5.807   7.695  24.749  1.00  0.00    -0.294 NA
BRANCH  15  16
HETATM   16  N2  UNL     1       4.955   6.761  25.214  1.00  0.00    -0.182 N 
HETATM   17  C2  UNL     1       3.649   6.873  25.708  1.00  0.00     0.344 C 
HETATM   18  N1  UNL     1       2.925   5.656  26.007  1.00  0.00    -0.345 N 
HETATM   19  O1  UNL     1       3.041   7.925  25.907  1.00  0.00    -0.245 OA
HETATM   20  C1  UNL     1       1.579   5.785  26.495  1.00  0.00     0.151 C 
ATOM     21  H1  UNL     1       3.354   4.741  25.876  1.00  0.00     0.163 HD
ATOM     22  H2  UNL     1       5.324   5.810  25.206  1.00  0.00     0.207 HD
ENDBRANCH  15  16
ENDBRANCH  14  15
BRANCH  14  23
HETATM   23  O2  UNL     1       7.893   8.661  24.689  1.00  0.00    -0.333 OA
ATOM     24  H2  UNL     1       8.598   8.618  24.054  1.00  0.00     0.220 HD
ENDBRANCH  14  23
ENDBRANCH  12  14
ENDBRANCH   1  12
BRANCH   6  25
HETATM   25  O3  UNL     1       8.427  11.729  24.539  1.00  0.00    -0.345 OA
ATOM     26  H3  UNL     1       9.030  12.002  25.220  1.00  0.00     0.219 HD
ENDBRANCH   6  25
TORSDOF 6
ENDMDL
MODEL 3
REMARK VINA RESULT: -8.610188250      3.761      7.465
REMARK  6 active torsions:
REMARK  status: ('A' for Active; 'I' for Inactive)
REMARK       I    between atoms: N1_2  and  C2_4 
REMARK       I    between atoms: C2_4  and  N2_6 
REMARK    1  A    between atoms: N2_6  and  N3_8 
REMARK    2  A    between atoms: N3_8  and  C3_9 
REMARK    3  A    between atoms: C3_9  and  O2_10 
REMARK    4  A    between atoms: C3_9  and  C4_12 
REMARK    5  A    between atoms: C4_12  and  N4_14 
REMARK    6  A    between atoms: C10_19  and  O3_20 
ROOT
HETATM    1  N4  UNL     1       4.841  11.257  24.283  1.00  0.00    -0.294 N 
HETATM    2  C6  UNL     1       4.035  12.285  24.663  1.00  0.00     0.022 A 
HETATM    3  C7  UNL     1       2.526  12.249  24.598  1.00  0.00     0.069 C 
HETATM    4  C8  UNL     1       4.804  13.335  25.151  1.00  0.00    -0.025 A 
HETATM    5  C9  UNL     1       6.082  12.889  25.050  1.00  0.00     0.002 A 
HETATM    6  C10 UNL     1       6.121  11.621  24.522  1.00  0.00     0.154 A 
HETATM    7  C11 UNL     1       7.341  13.540  25.438  1.00  0.00     0.043 C 
HETATM    8  C12 UNL     1       7.245  15.021  25.716  1.00  0.00     0.005 C 
HETATM    9  C13 UNL     1       6.269  15.129  26.889  1.00  0.00     0.001 C 
HETATM   10  C14 UNL     1       4.991  15.580  26.287  1.00  0.00     0.005 C 
HETATM   11  C15 UNL     1       4.180  14.554  25.606  1.00  0.00     0.041 C 
ENDROOT
BRANCH   1  12
HETATM   12  C4  UNL     1       4.371   9.992  23.736  1.00  0.00     0.082 C 
HETATM   13  C5  UNL     1       4.937   9.604  22.421  1.00  0.00     0.075 C 
BRANCH  12  14
HETATM   14  C3  UNL     1       4.302   8.911  24.780  1.00  0.00     0.261 C 
BRANCH  14  15
HETATM   15  N3  UNL     1       3.452   8.813  25.817  1.00  0.00    -0.294 NA
BRANCH  15  16
HETATM   16  N2  UNL     1       2.613   8.710  26.866  1.00  0.00    -0.182 N 
HETATM   17  C2  UNL     1       1.291   9.144  27.031  1.00  0.00     0.344 C 
HETATM   18  N1  UNL     1       0.592   8.761  28.238  1.00  0.00    -0.345 N 
HETATM   19  O1  UNL     1       0.650   9.825  26.230  1.00  0.00    -0.245 OA
HETATM   20  C1  UNL     1      -0.769   9.197  28.387  1.00  0.00     0.151 C 
ATOM     21  H1  UNL     1       1.049   8.201  28.958  1.00  0.00     0.163 HD
ATOM     22  H2  UNL     1       3.007   8.236  27.678  1.00  0.00     0.207 HD
ENDBRANCH  15  16
ENDBRANCH  14  15
BRANCH  14  23
HETATM   23  O2  UNL     1       5.209   7.983  24.586  1.00  0.00    -0.333 OA
ATOM     24  H2  UNL     1       5.160   7.426  23.818  1.00  0.00     0.220 HD
ENDBRANCH  14  23
ENDBRANCH  12  14
ENDBRANCH   1  12
BRANCH   6  25
HETATM   25  O3  UNL     1       7.320  10.887  24.288  1.00  0.00    -0.345 OA
ATOM     26  H3  UNL     1       8.106  10.842  24.820  1.00  0.00     0.219 HD
ENDBRANCH   6  25
TORSDOF 6
ENDMDL
MODEL 4
REMARK VINA RESULT: -8.595403822      3.427      7.222
REMARK  6 active torsions:
REMARK  status: ('A' for Active; 'I' for Inactive)
REMARK       I    between atoms: N1_2  and  C2_4 
REMARK       I    between atoms: C2_4  and  N2_6 
REMARK    1  A    between atoms: N2_6  and  N3_8 
REMARK    2  A    between atoms: N3_8  and  C3_9 
REMARK    3  A    between atoms: C3_9  and  O2_10 
REMARK    4  A    between atoms: C3_9  and  C4_12 
REMARK    5  A    between atoms: C4_12  and  N4_14 
REMARK    6  A    between atoms: C10_19  and  O3_20 
ROOT
HETATM    1  N4  UNL     1       6.198  11.118  24.068  1.00  0.00    -0.294 N 
HETATM    2  C6  UNL     1       5.148  11.928  24.373  1.00  0.00     0.022 A 
HETATM    3  C7  UNL     1       3.709  11.617  24.034  1.00  0.00     0.069 C 
HETATM    4  C8  UNL     1       5.597  13.044  25.072  1.00  0.00    -0.025 A 
HETATM    5  C9  UNL     1       6.938  12.860  25.169  1.00  0.00     0.002 A 
HETATM    6  C10 UNL     1       7.320  11.688  24.561  1.00  0.00     0.154 A 
HETATM    7  C11 UNL     1       7.958  13.688  25.827  1.00  0.00     0.043 C 
HETATM    8  C12 UNL     1       7.518  15.085  26.195  1.00  0.00     0.005 C 
HETATM    9  C13 UNL     1       6.363  14.877  27.177  1.00  0.00     0.001 C 
HETATM   10  C14 UNL     1       5.135  15.144  26.390  1.00  0.00     0.005 C 
HETATM   11  C15 UNL     1       4.672  14.065  25.497  1.00  0.00     0.041 C 
ENDROOT
BRANCH   1  12
HETATM   12  C4  UNL     1       6.090   9.857  23.350  1.00  0.00     0.082 C 
HETATM   13  C5  UNL     1       6.901   9.744  22.113  1.00  0.00     0.075 C 
BRANCH  12  14
HETATM   14  C3  UNL     1       6.115   8.671  24.276  1.00  0.00     0.261 C 
BRANCH  14  15
HETATM   15  N3  UNL     1       5.070   8.014  24.810  1.00  0.00    -0.294 NA
BRANCH  15  16
HETATM   16  N2  UNL     1       4.016   7.370  25.346  1.00  0.00    -0.182 N 
HETATM   17  C2  UNL     1       2.922   7.850  26.079  1.00  0.00     0.344 C 
HETATM   18  N1  UNL     1       1.859   6.923  26.406  1.00  0.00    -0.345 N 
HETATM   19  O1  UNL     1       2.768   9.007  26.472  1.00  0.00    -0.245 OA
HETATM   20  C1  UNL     1       0.735   7.432  27.143  1.00  0.00     0.151 C 
ATOM     21  H1  UNL     1       1.907   5.945  26.123  1.00  0.00     0.163 HD
ATOM     22  H2  UNL     1       4.012   6.362  25.192  1.00  0.00     0.207 HD
ENDBRANCH  15  16
ENDBRANCH  14  15
BRANCH  14  23
HETATM   23  O2  UNL     1       7.339   8.284  24.546  1.00  0.00    -0.333 OA
ATOM     24  H2  UNL     1       7.527   7.361  24.673  1.00  0.00     0.220 HD
ENDBRANCH  14  23
ENDBRANCH  12  14
ENDBRANCH   1  12
BRANCH   6  25
HETATM   25  O3  UNL     1       8.665  11.222  24.493  1.00  0.00    -0.345 OA
ATOM     26  H3  UNL     1       9.304  11.343  23.800  1.00  0.00     0.219 HD
ENDBRANCH   6  25
TORSDOF 6
ENDMDL
MODEL 5
REMARK VINA RESULT: -8.525868746      6.618      8.506
REMARK  6 active torsions:
REMARK  status: ('A' for Active; 'I' for Inactive)
REMARK       I    between atoms: N1_2  and  C2_4 
REMARK       I    between atoms: C2_4  and  N2_6 
REMARK    1  A    between atoms: N2_6  and  N3_8 
REMARK    2  A    between atoms: N3_8  and  C3_9 
REMARK    3  A    between atoms: C3_9  and  O2_10 
REMARK    4  A    between atoms: C3_9  and  C4_12 
REMARK    5  A    between atoms: C4_12  and  N4_14 
REMARK    6  A    between atoms: C10_19  and  O3_20 
ROOT
HETATM    1  N4  UNL     1       0.522  11.526  24.580  1.00  0.00    -0.294 N 
HETATM    2  C6  UNL     1       1.618  12.333  24.566  1.00  0.00     0.022 A 
HETATM    3  C7  UNL     1       1.570  13.831  24.751  1.00  0.00     0.069 C 
HETATM    4  C8  UNL     1       2.767  11.568  24.402  1.00  0.00    -0.025 A 
HETATM    5  C9  UNL     1       2.312  10.292  24.324  1.00  0.00     0.002 A 
HETATM    6  C10 UNL     1       0.943  10.250  24.433  1.00  0.00     0.154 A 
HETATM    7  C11 UNL     1       3.056   9.032  24.180  1.00  0.00     0.043 C 
HETATM    8  C12 UNL     1       4.500   9.178  23.764  1.00  0.00     0.005 C 
HETATM    9  C13 UNL     1       5.144   9.989  24.891  1.00  0.00     0.001 C 
HETATM   10  C14 UNL     1       5.281  11.363  24.348  1.00  0.00     0.005 C 
HETATM   11  C15 UNL     1       4.064  12.197  24.339  1.00  0.00     0.041 C 
ENDROOT
BRANCH   1  12
HETATM   12  C4  UNL     1      -0.848  11.990  24.746  1.00  0.00     0.082 C 
HETATM   13  C5  UNL     1      -1.601  12.248  23.494  1.00  0.00     0.075 C 
BRANCH  12  14
HETATM   14  C3  UNL     1      -1.579  11.234  25.822  1.00  0.00     0.261 C 
BRANCH  14  15
HETATM   15  N3  UNL     1      -1.061  10.610  26.895  1.00  0.00    -0.294 NA
BRANCH  15  16
HETATM   16  N2  UNL     1      -0.550   9.971  27.964  1.00  0.00    -0.182 N 
HETATM   17  C2  UNL     1      -0.010   8.684  28.094  1.00  0.00     0.344 C 
HETATM   18  N1  UNL     1       0.598   8.323  29.357  1.00  0.00    -0.345 N 
HETATM   19  O1  UNL     1       0.007   7.817  27.220  1.00  0.00    -0.245 OA
HETATM   20  C1  UNL     1       1.164   7.007  29.472  1.00  0.00     0.151 C 
ATOM     21  H1  UNL     1       0.624   8.979  30.138  1.00  0.00     0.163 HD
ATOM     22  H2  UNL     1      -0.556  10.516  28.826  1.00  0.00     0.207 HD
ENDBRANCH  15  16
ENDBRANCH  14  15
BRANCH  14  23
HETATM   23  O2  UNL     1      -2.876  11.231  25.626  1.00  0.00    -0.333 OA
ATOM     24  H2  UNL     1      -3.434  10.679  26.160  1.00  0.00     0.220 HD
ENDBRANCH  14  23
ENDBRANCH  12  14
ENDBRANCH   1  12
BRANCH   6  25
HETATM   25  O3  UNL     1       0.171   9.052  24.382  1.00  0.00    -0.345 OA
ATOM     26  H3  UNL     1      -0.550   8.783  24.939  1.00  0.00     0.219 HD
ENDBRANCH   6  25
TORSDOF 6
ENDMDL
