MODEL 1
REMARK VINA RESULT: -6.670655235      0.000      0.000
REMARK  3 active torsions:
REMARK  status: ('A' for Active; 'I' for Inactive)
REMARK    1  A    between atoms: C2_2  and  C3_3 
REMARK    2  A    between atoms: C13_15  and  N2_16 
REMARK    3  A    between atoms: C14_20  and  C15_21 
ROOT
HETATM    1  C3  UNL     1       2.697   7.450  28.099  1.00  0.00     0.023 C 
HETATM    2  C4  UNL     1       2.224   8.616  27.250  1.00  0.00     0.062 C 
HETATM    3  C5  UNL     1       2.984   8.489  25.924  1.00  0.00     0.013 C 
HETATM    4  C6  UNL     1       3.093   7.068  25.484  1.00  0.00     0.008 C 
HETATM    5  C7  UNL     1       2.093   6.146  26.122  1.00  0.00     0.013 C 
HETATM    6  C8  UNL     1       0.682   6.431  25.643  1.00  0.00     0.087 C 
HETATM    7  C9  UNL     1      -0.192   5.290  26.050  1.00  0.00     0.025 C 
HETATM    8  C10 UNL     1       0.072   4.775  27.423  1.00  0.00     0.002 C 
HETATM    9  C11 UNL     1       0.873   5.733  28.279  1.00  0.00     0.006 C 
HETATM   10  C12 UNL     1       2.155   6.126  27.618  1.00  0.00    -0.000 C 
HETATM   11  N1  UNL     1       0.182   7.649  26.253  1.00  0.00    -0.373 N 
ATOM     12  H1  UNL     1      -0.819   7.803  26.131  1.00  0.00     0.161 HD
HETATM   13  C13 UNL     1       0.798   8.583  26.931  1.00  0.00     0.100 C 
ENDROOT
BRANCH  13  14
HETATM   14  N2  UNL     1      -0.059   9.605  27.350  1.00  0.00    -0.234 N 
HETATM   15  N3  UNL     1      -0.724   9.672  28.577  1.00  0.00    -0.007 NA
HETATM   16  N4  UNL     1      -1.974  10.172  28.198  1.00  0.00    -0.015 NA
HETATM   17  N5  UNL     1      -1.600  11.251  27.379  1.00  0.00    -0.090 NA
HETATM   18  C14 UNL     1      -0.447  10.806  26.633  1.00  0.00     0.317 C 
BRANCH  18  19
HETATM   19  C15 UNL     1      -0.838  10.544  25.251  1.00  0.00     0.216 C 
HETATM   20  O1  UNL     1      -0.015  10.079  24.438  1.00  0.00    -0.645 OA
HETATM   21  O2  UNL     1      -2.121  10.803  24.818  1.00  0.00    -0.645 OA
ENDBRANCH  18  19
ENDBRANCH  13  14
BRANCH   1  22
HETATM   22  C2  UNL     1       2.392   7.689  29.532  1.00  0.00    -0.031 C 
HETATM   23  C1  UNL     1       3.216   7.249  30.454  1.00  0.00     0.007 C 
ENDBRANCH   1  22
TORSDOF 3
ENDMDL
MODEL 2
REMARK VINA RESULT: -6.649268456      2.126      3.450
REMARK  3 active torsions:
REMARK  status: ('A' for Active; 'I' for Inactive)
REMARK    1  A    between atoms: C2_2  and  C3_3 
REMARK    2  A    between atoms: C13_15  and  N2_16 
REMARK    3  A    between atoms: C14_20  and  C15_21 
ROOT
HETATM    1  C3  UNL     1       2.911   7.775  25.097  1.00  0.00     0.023 C 
HETATM    2  C4  UNL     1       1.781   8.309  24.235  1.00  0.00     0.062 C 
HETATM    3  C5  UNL     1       0.930   7.085  23.875  1.00  0.00     0.013 C 
HETATM    4  C6  UNL     1       0.789   6.152  25.030  1.00  0.00     0.008 C 
HETATM    5  C7  UNL     1       1.077   6.775  26.367  1.00  0.00     0.013 C 
HETATM    6  C8  UNL     1       0.015   7.787  26.754  1.00  0.00     0.087 C 
HETATM    7  C9  UNL     1       0.181   8.111  28.202  1.00  0.00     0.025 C 
HETATM    8  C10 UNL     1       1.597   8.268  28.637  1.00  0.00     0.002 C 
HETATM    9  C11 UNL     1       2.560   8.467  27.486  1.00  0.00     0.006 C 
HETATM   10  C12 UNL     1       2.447   7.371  26.475  1.00  0.00    -0.000 C 
HETATM   11  N1  UNL     1       0.173   9.003  25.978  1.00  0.00    -0.373 N 
ATOM     12  H1  UNL     1      -0.377   9.793  26.312  1.00  0.00     0.161 HD
HETATM   13  C13 UNL     1       0.902   9.256  24.920  1.00  0.00     0.100 C 
ENDROOT
BRANCH  13  14
HETATM   14  N2  UNL     1       0.769  10.572  24.470  1.00  0.00    -0.234 N 
HETATM   15  N3  UNL     1       1.814  11.444  24.153  1.00  0.00    -0.007 NA
HETATM   16  N4  UNL     1       1.344  12.655  24.673  1.00  0.00    -0.015 NA
HETATM   17  N5  UNL     1       0.035  12.681  24.162  1.00  0.00    -0.090 NA
HETATM   18  C14 UNL     1      -0.449  11.323  24.231  1.00  0.00     0.317 C 
BRANCH  18  19
HETATM   19  C15 UNL     1      -1.414  11.209  25.320  1.00  0.00     0.216 C 
HETATM   20  O1  UNL     1      -2.567  10.787  25.104  1.00  0.00    -0.645 OA
HETATM   21  O2  UNL     1      -1.070  11.563  26.608  1.00  0.00    -0.645 OA
ENDBRANCH  18  19
ENDBRANCH  13  14
BRANCH   1  22
HETATM   22  C2  UNL     1       4.032   8.746  25.150  1.00  0.00    -0.031 C 
HETATM   23  C1  UNL     1       4.644   9.094  24.042  1.00  0.00     0.007 C 
ENDBRANCH   1  22
TORSDOF 3
ENDMDL
MODEL 3
REMARK VINA RESULT: -6.549368934      2.549      3.604
REMARK  3 active torsions:
REMARK  status: ('A' for Active; 'I' for Inactive)
REMARK    1  A    between atoms: C2_2  and  C3_3 
REMARK    2  A    between atoms: C13_15  and  N2_16 
REMARK    3  A    between atoms: C14_20  and  C15_21 
ROOT
HETATM    1  C3  UNL     1       0.579   8.258  28.531  1.00  0.00     0.023 C 
HETATM    2  C4  UNL     1       2.006   8.579  28.128  1.00  0.00     0.062 C 
HETATM    3  C5  UNL     1       2.878   8.086  29.290  1.00  0.00     0.013 C 
HETATM    4  C6  UNL     1       2.389   6.786  29.834  1.00  0.00     0.008 C 
HETATM    5  C7  UNL     1       1.495   6.022  28.898  1.00  0.00     0.013 C 
HETATM    6  C8  UNL     1       2.259   5.499  27.696  1.00  0.00     0.087 C 
HETATM    7  C9  UNL     1       1.404   4.493  26.998  1.00  0.00     0.025 C 
HETATM    8  C10 UNL     1      -0.033   4.872  26.899  1.00  0.00     0.002 C 
HETATM    9  C11 UNL     1      -0.284   6.343  27.154  1.00  0.00     0.006 C 
HETATM   10  C12 UNL     1       0.277   6.780  28.468  1.00  0.00    -0.000 C 
HETATM   11  N1  UNL     1       2.554   6.584  26.778  1.00  0.00    -0.373 N 
ATOM     12  H1  UNL     1       2.893   6.285  25.864  1.00  0.00     0.161 HD
HETATM   13  C13 UNL     1       2.460   7.881  26.926  1.00  0.00     0.100 C 
ENDROOT
BRANCH  13  14
HETATM   14  N2  UNL     1       2.849   8.588  25.785  1.00  0.00    -0.234 N 
HETATM   15  N3  UNL     1       3.687   9.706  25.753  1.00  0.00    -0.007 NA
HETATM   16  N4  UNL     1       3.064  10.504  24.789  1.00  0.00    -0.015 NA
HETATM   17  N5  UNL     1       2.854   9.573  23.757  1.00  0.00    -0.090 NA
HETATM   18  C14 UNL     1       2.486   8.336  24.402  1.00  0.00     0.317 C 
BRANCH  18  19
HETATM   19  C15 UNL     1       1.057   8.103  24.221  1.00  0.00     0.216 C 
HETATM   20  O1  UNL     1       0.232   9.007  24.460  1.00  0.00    -0.645 OA
HETATM   21  O2  UNL     1       0.590   6.882  23.781  1.00  0.00    -0.645 OA
ENDBRANCH  18  19
ENDBRANCH  13  14
BRANCH   1  22
HETATM   22  C2  UNL     1      -0.383   9.057  27.729  1.00  0.00    -0.031 C 
HETATM   23  C1  UNL     1      -0.896  10.154  28.234  1.00  0.00     0.007 C 
ENDBRANCH   1  22
TORSDOF 3
ENDMDL
MODEL 4
REMARK VINA RESULT: -6.530026406      2.105      2.552
REMARK  3 active torsions:
REMARK  status: ('A' for Active; 'I' for Inactive)
REMARK    1  A    between atoms: C2_2  and  C3_3 
REMARK    2  A    between atoms: C13_15  and  N2_16 
REMARK    3  A    between atoms: C14_20  and  C15_21 
ROOT
HETATM    1  C3  UNL     1       2.831   8.383  27.012  1.00  0.00     0.023 C 
HETATM    2  C4  UNL     1       2.729   9.591  26.099  1.00  0.00     0.062 C 
HETATM    3  C5  UNL     1       4.027   9.596  25.282  1.00  0.00     0.013 C 
HETATM    4  C6  UNL     1       4.427   8.219  24.875  1.00  0.00     0.008 C 
HETATM    5  C7  UNL     1       3.312   7.212  24.920  1.00  0.00     0.013 C 
HETATM    6  C8  UNL     1       2.272   7.479  23.849  1.00  0.00     0.087 C 
HETATM    7  C9  UNL     1       1.391   6.278  23.740  1.00  0.00     0.025 C 
HETATM    8  C10 UNL     1       1.019   5.670  25.048  1.00  0.00     0.002 C 
HETATM    9  C11 UNL     1       1.259   6.588  26.227  1.00  0.00     0.006 C 
HETATM   10  C12 UNL     1       2.669   7.080  26.267  1.00  0.00    -0.000 C 
HETATM   11  N1  UNL     1       1.461   8.627  24.211  1.00  0.00    -0.373 N 
ATOM     12  H1  UNL     1       0.624   8.751  23.642  1.00  0.00     0.161 HD
HETATM   13  C13 UNL     1       1.622   9.529  25.146  1.00  0.00     0.100 C 
ENDROOT
BRANCH  13  14
HETATM   14  N2  UNL     1       0.600  10.483  25.163  1.00  0.00    -0.234 N 
HETATM   15  N3  UNL     1      -0.702  10.287  25.632  1.00  0.00    -0.007 NA
HETATM   16  N4  UNL     1      -1.455  10.989  24.685  1.00  0.00    -0.015 NA
HETATM   17  N5  UNL     1      -0.751  12.204  24.623  1.00  0.00    -0.090 NA
HETATM   18  C14 UNL     1       0.648  11.862  24.714  1.00  0.00     0.317 C 
BRANCH  18  19
HETATM   19  C15 UNL     1       1.269  12.014  23.402  1.00  0.00     0.216 C 
HETATM   20  O1  UNL     1       2.426  11.599  23.197  1.00  0.00    -0.645 OA
HETATM   21  O2  UNL     1       0.589  12.617  22.364  1.00  0.00    -0.645 OA
ENDBRANCH  18  19
ENDBRANCH  13  14
BRANCH   1  22
HETATM   22  C2  UNL     1       1.877   8.499  28.143  1.00  0.00    -0.031 C 
HETATM   23  C1  UNL     1       2.261   8.172  29.354  1.00  0.00     0.007 C 
ENDBRANCH   1  22
TORSDOF 3
ENDMDL
MODEL 5
REMARK VINA RESULT: -6.459256856      3.311      5.159
REMARK  3 active torsions:
REMARK  status: ('A' for Active; 'I' for Inactive)
REMARK    1  A    between atoms: C2_2  and  C3_3 
REMARK    2  A    between atoms: C13_15  and  N2_16 
REMARK    3  A    between atoms: C14_20  and  C15_21 
ROOT
HETATM    1  C3  UNL     1       0.231   9.045  25.677  1.00  0.00     0.023 C 
HETATM    2  C4  UNL     1       0.357   7.687  26.343  1.00  0.00     0.062 C 
HETATM    3  C5  UNL     1       0.175   6.662  25.216  1.00  0.00     0.013 C 
HETATM    4  C6  UNL     1       0.858   7.093  23.962  1.00  0.00     0.008 C 
HETATM    5  C7  UNL     1       1.923   8.134  24.165  1.00  0.00     0.013 C 
HETATM    6  C8  UNL     1       3.122   7.571  24.903  1.00  0.00     0.087 C 
HETATM    7  C9  UNL     1       4.249   8.543  24.777  1.00  0.00     0.025 C 
HETATM    8  C10 UNL     1       3.847   9.970  24.924  1.00  0.00     0.002 C 
HETATM    9  C11 UNL     1       2.485  10.147  25.558  1.00  0.00     0.006 C 
HETATM   10  C12 UNL     1       1.430   9.385  24.824  1.00  0.00    -0.000 C 
HETATM   11  N1  UNL     1       2.809   7.393  26.309  1.00  0.00    -0.373 N 
ATOM     12  H1  UNL     1       3.617   7.202  26.902  1.00  0.00     0.161 HD
HETATM   13  C13 UNL     1       1.665   7.434  26.944  1.00  0.00     0.100 C 
ENDROOT
BRANCH  13  14
HETATM   14  N2  UNL     1       1.797   7.206  28.317  1.00  0.00    -0.234 N 
HETATM   15  N3  UNL     1       2.078   8.170  29.289  1.00  0.00    -0.007 NA
HETATM   16  N4  UNL     1       2.962   7.482  30.127  1.00  0.00    -0.015 NA
HETATM   17  N5  UNL     1       2.276   6.268  30.310  1.00  0.00    -0.090 NA
HETATM   18  C14 UNL     1       1.675   5.952  29.037  1.00  0.00     0.317 C 
BRANCH  18  19
HETATM   19  C15 UNL     1       2.414   4.860  28.411  1.00  0.00     0.216 C 
HETATM   20  O1  UNL     1       1.863   3.762  28.199  1.00  0.00    -0.645 OA
HETATM   21  O2  UNL     1       3.733   5.021  28.041  1.00  0.00    -0.645 OA
ENDBRANCH  18  19
ENDBRANCH  13  14
BRANCH   1  22
HETATM   22  C2  UNL     1      -0.052  10.097  26.684  1.00  0.00    -0.031 C 
HETATM   23  C1  UNL     1      -1.000  10.976  26.458  1.00  0.00     0.007 C 
ENDBRANCH   1  22
TORSDOF 3
ENDMDL
