MODEL 1
REMARK VINA RESULT: -7.225593895      0.000      0.000
REMARK  5 active torsions:
REMARK  status: ('A' for Active; 'I' for Inactive)
REMARK    1  A    between atoms: C2_2  and  O1_3 
REMARK    2  A    between atoms: C7_9  and  O2_10 
REMARK    3  A    between atoms: O2_10  and  C8_11 
REMARK    4  A    between atoms: C8_11  and  C9_13 
REMARK    5  A    between atoms: C18_23  and  O5_24 
ROOT
HETATM    1  C1  UNL     1       5.959   7.062  25.173  1.00  0.00     0.049 C 
HETATM    2  C2  UNL     1       6.056   7.697  23.792  1.00  0.00     0.089 C 
HETATM    3  C3  UNL     1       7.458   8.302  23.712  1.00  0.00     0.041 C 
HETATM    4  C4  UNL     1       7.232   9.819  23.800  1.00  0.00     0.018 C 
HETATM    5  C5  UNL     1       5.917   9.906  23.023  1.00  0.00     0.020 C 
HETATM    6  C6  UNL     1       6.220   9.622  21.598  1.00  0.00     0.021 C 
HETATM    7  C7  UNL     1       5.241  11.243  23.206  1.00  0.00     0.143 C 
HETATM    8  C14 UNL     1       3.776  11.101  22.868  1.00  0.00     0.043 C 
HETATM    9  C15 UNL     1       3.134   9.909  23.497  1.00  0.00     0.044 C 
HETATM   10  C16 UNL     1       3.568   9.872  24.965  1.00  0.00     0.176 C 
HETATM   11  O4  UNL     1       4.818   9.310  24.993  1.00  0.00    -0.373 OA
HETATM   12  C17 UNL     1       5.134   8.837  23.729  1.00  0.00     0.127 C 
HETATM   13  C18 UNL     1       3.819   8.604  23.051  1.00  0.00     0.162 C 
ENDROOT
BRANCH   7  14
HETATM   14  O2  UNL     1       5.465  11.808  24.457  1.00  0.00    -0.315 OA
BRANCH  14  15
HETATM   15  C8  UNL     1       6.093  13.038  24.568  1.00  0.00     0.263 C 
HETATM   16  O3  UNL     1       7.312  13.061  24.949  1.00  0.00    -0.265 OA
BRANCH  15  17
HETATM   17  C9  UNL     1       5.393  14.300  24.260  1.00  0.00     0.085 C 
HETATM   18  C10 UNL     1       4.030  14.292  24.872  1.00  0.00     0.014 C 
HETATM   19  C11 UNL     1       4.113  15.030  26.183  1.00  0.00     0.001 C 
HETATM   20  C12 UNL     1       5.517  15.573  26.297  1.00  0.00     0.001 C 
HETATM   21  C13 UNL     1       6.074  15.499  24.892  1.00  0.00     0.014 C 
ENDBRANCH  15  17
ENDBRANCH  14  15
ENDBRANCH   7  14
BRANCH   2  22
HETATM   22  O1  UNL     1       5.859   6.698  22.869  1.00  0.00    -0.387 OA
ATOM     23  H1  UNL     1       6.649   6.638  22.345  1.00  0.00     0.210 HD
ENDBRANCH   2  22
BRANCH  13  24
HETATM   24  O5  UNL     1       3.878   8.485  21.692  1.00  0.00    -0.392 OA
ATOM     25  H5  UNL     1       4.571   9.011  21.311  1.00  0.00     0.210 HD
ENDBRANCH  13  24
TORSDOF 5
ENDMDL
MODEL 2
REMARK VINA RESULT: -7.166243689      2.971      4.492
REMARK  5 active torsions:
REMARK  status: ('A' for Active; 'I' for Inactive)
REMARK    1  A    between atoms: C2_2  and  O1_3 
REMARK    2  A    between atoms: C7_9  and  O2_10 
REMARK    3  A    between atoms: O2_10  and  C8_11 
REMARK    4  A    between atoms: C8_11  and  C9_13 
REMARK    5  A    between atoms: C18_23  and  O5_24 
ROOT
HETATM    1  C1  UNL     1       0.767   8.416  28.341  1.00  0.00     0.049 C 
HETATM    2  C2  UNL     1       1.085   7.419  27.233  1.00  0.00     0.089 C 
HETATM    3  C3  UNL     1       2.420   6.783  27.618  1.00  0.00     0.041 C 
HETATM    4  C4  UNL     1       3.434   7.381  26.631  1.00  0.00     0.018 C 
HETATM    5  C5  UNL     1       2.537   7.464  25.394  1.00  0.00     0.020 C 
HETATM    6  C6  UNL     1       2.285   6.076  24.931  1.00  0.00     0.021 C 
HETATM    7  C7  UNL     1       3.144   8.325  24.315  1.00  0.00     0.143 C 
HETATM    8  C14 UNL     1       2.049   8.781  23.379  1.00  0.00     0.043 C 
HETATM    9  C15 UNL     1       0.843   9.305  24.086  1.00  0.00     0.044 C 
HETATM   10  C16 UNL     1       1.329  10.254  25.184  1.00  0.00     0.176 C 
HETATM   11  O4  UNL     1       1.706   9.472  26.245  1.00  0.00    -0.373 OA
HETATM   12  C17 UNL     1       1.346   8.157  25.992  1.00  0.00     0.127 C 
HETATM   13  C18 UNL     1       0.224   8.235  25.004  1.00  0.00     0.162 C 
ENDROOT
BRANCH   7  14
HETATM   14  O2  UNL     1       3.915   9.371  24.809  1.00  0.00    -0.315 OA
BRANCH  14  15
HETATM   15  C8  UNL     1       5.056   9.780  24.139  1.00  0.00     0.263 C 
HETATM   16  O3  UNL     1       6.130   9.111  24.313  1.00  0.00    -0.265 OA
BRANCH  15  17
HETATM   17  C9  UNL     1       5.054  10.953  23.243  1.00  0.00     0.085 C 
HETATM   18  C10 UNL     1       4.169  12.020  23.799  1.00  0.00     0.014 C 
HETATM   19  C11 UNL     1       5.041  12.994  24.548  1.00  0.00     0.001 C 
HETATM   20  C12 UNL     1       6.471  12.556  24.343  1.00  0.00     0.001 C 
HETATM   21  C13 UNL     1       6.418  11.610  23.161  1.00  0.00     0.014 C 
ENDBRANCH  15  17
ENDBRANCH  14  15
ENDBRANCH   7  14
BRANCH   2  22
HETATM   22  O1  UNL     1       0.057   6.507  27.198  1.00  0.00    -0.387 OA
ATOM     23  H1  UNL     1      -0.477   6.713  26.440  1.00  0.00     0.210 HD
ENDBRANCH   2  22
BRANCH  13  24
HETATM   24  O5  UNL     1      -0.048   7.073  24.340  1.00  0.00    -0.392 OA
ATOM     25  H5  UNL     1      -0.187   6.342  24.930  1.00  0.00     0.210 HD
ENDBRANCH  13  24
TORSDOF 5
ENDMDL
MODEL 3
REMARK VINA RESULT: -7.143741188      3.292      4.537
REMARK  5 active torsions:
REMARK  status: ('A' for Active; 'I' for Inactive)
REMARK    1  A    between atoms: C2_2  and  O1_3 
REMARK    2  A    between atoms: C7_9  and  O2_10 
REMARK    3  A    between atoms: O2_10  and  C8_11 
REMARK    4  A    between atoms: C8_11  and  C9_13 
REMARK    5  A    between atoms: C18_23  and  O5_24 
ROOT
HETATM    1  C1  UNL     1       4.221   6.874  26.362  1.00  0.00     0.049 C 
HETATM    2  C2  UNL     1       3.175   6.684  25.269  1.00  0.00     0.089 C 
HETATM    3  C3  UNL     1       3.777   7.305  24.009  1.00  0.00     0.041 C 
HETATM    4  C4  UNL     1       2.979   8.601  23.796  1.00  0.00     0.018 C 
HETATM    5  C5  UNL     1       1.609   8.115  24.274  1.00  0.00     0.020 C 
HETATM    6  C6  UNL     1       1.100   7.152  23.265  1.00  0.00     0.021 C 
HETATM    7  C7  UNL     1       0.654   9.260  24.504  1.00  0.00     0.143 C 
HETATM    8  C14 UNL     1      -0.450   8.799  25.426  1.00  0.00     0.043 C 
HETATM    9  C15 UNL     1       0.046   8.059  26.625  1.00  0.00     0.044 C 
HETATM   10  C16 UNL     1       1.218   8.857  27.205  1.00  0.00     0.176 C 
HETATM   11  O4  UNL     1       2.322   8.539  26.456  1.00  0.00    -0.373 OA
HETATM   12  C17 UNL     1       2.002   7.505  25.589  1.00  0.00     0.127 C 
HETATM   13  C18 UNL     1       0.839   6.803  26.219  1.00  0.00     0.162 C 
ENDROOT
BRANCH   7  14
HETATM   14  O2  UNL     1       1.280  10.424  24.936  1.00  0.00    -0.315 OA
BRANCH  14  15
HETATM   15  C8  UNL     1       0.781  11.664  24.572  1.00  0.00     0.263 C 
HETATM   16  O3  UNL     1      -0.284  12.078  25.144  1.00  0.00    -0.265 OA
BRANCH  15  17
HETATM   17  C9  UNL     1       1.446  12.503  23.556  1.00  0.00     0.085 C 
HETATM   18  C10 UNL     1       1.572  13.906  24.053  1.00  0.00     0.014 C 
HETATM   19  C11 UNL     1       2.956  14.065  24.627  1.00  0.00     0.001 C 
HETATM   20  C12 UNL     1       3.693  12.773  24.369  1.00  0.00     0.001 C 
HETATM   21  C13 UNL     1       2.877  12.070  23.305  1.00  0.00     0.014 C 
ENDBRANCH  15  17
ENDBRANCH  14  15
ENDBRANCH   7  14
BRANCH   2  22
HETATM   22  O1  UNL     1       2.961   5.332  25.141  1.00  0.00    -0.387 OA
ATOM     23  H1  UNL     1       3.799   4.931  24.946  1.00  0.00     0.210 HD
ENDBRANCH   2  22
BRANCH  13  24
HETATM   24  O5  UNL     1       0.130   5.987  25.384  1.00  0.00    -0.392 OA
ATOM     25  H5  UNL     1      -0.535   6.458  24.895  1.00  0.00     0.210 HD
ENDBRANCH  13  24
TORSDOF 5
ENDMDL
MODEL 4
REMARK VINA RESULT: -7.138287204      3.770      4.902
REMARK  5 active torsions:
REMARK  status: ('A' for Active; 'I' for Inactive)
REMARK    1  A    between atoms: C2_2  and  O1_3 
REMARK    2  A    between atoms: C7_9  and  O2_10 
REMARK    3  A    between atoms: O2_10  and  C8_11 
REMARK    4  A    between atoms: C8_11  and  C9_13 
REMARK    5  A    between atoms: C18_23  and  O5_24 
ROOT
HETATM    1  C1  UNL     1       4.308   6.878  26.355  1.00  0.00     0.049 C 
HETATM    2  C2  UNL     1       3.297   6.629  25.242  1.00  0.00     0.089 C 
HETATM    3  C3  UNL     1       3.976   7.096  23.955  1.00  0.00     0.041 C 
HETATM    4  C4  UNL     1       3.253   8.400  23.584  1.00  0.00     0.018 C 
HETATM    5  C5  UNL     1       1.843   8.026  24.048  1.00  0.00     0.020 C 
HETATM    6  C6  UNL     1       1.325   6.994  23.116  1.00  0.00     0.021 C 
HETATM    7  C7  UNL     1       0.938   9.231  24.126  1.00  0.00     0.143 C 
HETATM    8  C14 UNL     1      -0.222   8.913  25.040  1.00  0.00     0.043 C 
HETATM    9  C15 UNL     1       0.191   8.273  26.325  1.00  0.00     0.044 C 
HETATM   10  C16 UNL     1       1.378   9.070  26.874  1.00  0.00     0.176 C 
HETATM   11  O4  UNL     1       2.492   8.630  26.207  1.00  0.00    -0.373 OA
HETATM   12  C17 UNL     1       2.154   7.531  25.431  1.00  0.00     0.127 C 
HETATM   13  C18 UNL     1       0.935   6.949  26.076  1.00  0.00     0.162 C 
ENDROOT
BRANCH   7  14
HETATM   14  O2  UNL     1       1.603  10.402  24.470  1.00  0.00    -0.315 OA
BRANCH  14  15
HETATM   15  C8  UNL     1       1.651  11.467  23.586  1.00  0.00     0.263 C 
HETATM   16  O3  UNL     1       2.429  11.379  22.576  1.00  0.00    -0.265 OA
BRANCH  15  17
HETATM   17  C9  UNL     1       0.834  12.680  23.784  1.00  0.00     0.085 C 
HETATM   18  C10 UNL     1       0.379  13.212  22.464  1.00  0.00     0.014 C 
HETATM   19  C11 UNL     1      -1.016  12.699  22.222  1.00  0.00     0.001 C 
HETATM   20  C12 UNL     1      -1.433  11.944  23.461  1.00  0.00     0.001 C 
HETATM   21  C13 UNL     1      -0.454  12.386  24.528  1.00  0.00     0.014 C 
ENDBRANCH  15  17
ENDBRANCH  14  15
ENDBRANCH   7  14
BRANCH   2  22
HETATM   22  O1  UNL     1       3.020   5.283  25.235  1.00  0.00    -0.387 OA
ATOM     23  H1  UNL     1       2.668   5.064  26.089  1.00  0.00     0.210 HD
ENDBRANCH   2  22
BRANCH  13  24
HETATM   24  O5  UNL     1       0.218   6.088  25.294  1.00  0.00    -0.392 OA
ATOM     25  H5  UNL     1      -0.044   5.305  25.764  1.00  0.00     0.210 HD
ENDBRANCH  13  24
TORSDOF 5
ENDMDL
MODEL 5
REMARK VINA RESULT: -7.041094960      3.162      4.446
REMARK  5 active torsions:
REMARK  status: ('A' for Active; 'I' for Inactive)
REMARK    1  A    between atoms: C2_2  and  O1_3 
REMARK    2  A    between atoms: C7_9  and  O2_10 
REMARK    3  A    between atoms: O2_10  and  C8_11 
REMARK    4  A    between atoms: C8_11  and  C9_13 
REMARK    5  A    between atoms: C18_23  and  O5_24 
ROOT
HETATM    1  C1  UNL     1       7.037   7.637  25.477  1.00  0.00     0.049 C 
HETATM    2  C2  UNL     1       6.575   7.991  24.069  1.00  0.00     0.089 C 
HETATM    3  C3  UNL     1       6.663   9.514  23.975  1.00  0.00     0.041 C 
HETATM    4  C4  UNL     1       5.203   9.989  23.992  1.00  0.00     0.018 C 
HETATM    5  C5  UNL     1       4.572   8.842  23.199  1.00  0.00     0.020 C 
HETATM    6  C6  UNL     1       5.026   8.970  21.791  1.00  0.00     0.021 C 
HETATM    7  C7  UNL     1       3.068   8.836  23.316  1.00  0.00     0.143 C 
HETATM    8  C14 UNL     1       2.556   7.458  22.971  1.00  0.00     0.043 C 
HETATM    9  C15 UNL     1       3.307   6.358  23.647  1.00  0.00     0.044 C 
HETATM   10  C16 UNL     1       3.467   6.748  25.119  1.00  0.00     0.176 C 
HETATM   11  O4  UNL     1       4.526   7.617  25.185  1.00  0.00    -0.373 OA
HETATM   12  C17 UNL     1       5.147   7.673  23.946  1.00  0.00     0.127 C 
HETATM   13  C18 UNL     1       4.799   6.385  23.267  1.00  0.00     0.162 C 
ENDROOT
BRANCH   7  14
HETATM   14  O2  UNL     1       2.606   9.303  24.541  1.00  0.00    -0.315 OA
BRANCH  14  15
HETATM   15  C8  UNL     1       1.468  10.090  24.608  1.00  0.00     0.263 C 
HETATM   16  O3  UNL     1       1.600  11.355  24.485  1.00  0.00    -0.265 OA
BRANCH  15  17
HETATM   17  C9  UNL     1       0.128   9.505  24.813  1.00  0.00     0.085 C 
HETATM   18  C10 UNL     1       0.194   8.426  25.844  1.00  0.00     0.014 C 
HETATM   19  C11 UNL     1      -0.217   9.027  27.162  1.00  0.00     0.001 C 
HETATM   20  C12 UNL     1      -0.634  10.452  26.889  1.00  0.00     0.001 C 
HETATM   21  C13 UNL     1      -0.850  10.509  25.391  1.00  0.00     0.014 C 
ENDBRANCH  15  17
ENDBRANCH  14  15
ENDBRANCH   7  14
BRANCH   2  22
HETATM   22  O1  UNL     1       7.421   7.358  23.191  1.00  0.00    -0.387 OA
ATOM     23  H1  UNL     1       7.945   8.029  22.771  1.00  0.00     0.210 HD
ENDBRANCH   2  22
BRANCH  13  24
HETATM   24  O5  UNL     1       4.993   6.368  21.915  1.00  0.00    -0.392 OA
ATOM     25  H5  UNL     1       5.904   6.500  21.678  1.00  0.00     0.210 HD
ENDBRANCH  13  24
TORSDOF 5
ENDMDL
