MODEL 1
REMARK VINA RESULT: -6.744719340      0.000      0.000
REMARK  5 active torsions:
REMARK  status: ('A' for Active; 'I' for Inactive)
REMARK    1  A    between atoms: C2_2  and  O2_4 
REMARK    2  A    between atoms: O2_4  and  C3_5 
REMARK    3  A    between atoms: C4_6  and  O3_7 
REMARK    4  A    between atoms: C7_11  and  C8_12 
REMARK    5  A    between atoms: C8_12  and  O4_13 
ROOT
HETATM    1  C3  UNL     1       3.423  10.515  24.484  1.00  0.00     0.166 C 
HETATM    2  C4  UNL     1       4.061  11.533  23.610  1.00  0.00     0.152 C 
HETATM    3  C5  UNL     1       5.510  11.352  23.300  1.00  0.00     0.024 C 
HETATM    4  C6  UNL     1       6.395  12.181  24.210  1.00  0.00     0.013 C 
HETATM    5  C7  UNL     1       5.987   9.935  23.258  1.00  0.00    -0.009 C 
HETATM    6  C9  UNL     1       5.696   9.282  21.963  1.00  0.00     0.014 C 
HETATM    7  C10 UNL     1       4.318   8.861  21.673  1.00  0.00     0.021 C 
HETATM    8  C11 UNL     1       3.707   7.825  22.550  1.00  0.00     0.101 C 
HETATM    9  C12 UNL     1       4.368   6.540  22.177  1.00  0.00     0.064 C 
HETATM   10  N1  UNL     1       4.884   5.542  21.864  1.00  0.00    -0.197 NA
HETATM   11  C13 UNL     1       3.612   8.012  23.964  1.00  0.00    -0.021 C 
HETATM   12  C14 UNL     1       2.251   7.554  24.499  1.00  0.00     0.017 C 
HETATM   13  C15 UNL     1       4.591   7.041  24.662  1.00  0.00     0.011 C 
HETATM   14  C16 UNL     1       5.877   7.745  24.487  1.00  0.00     0.007 C 
HETATM   15  C17 UNL     1       5.544   9.206  24.475  1.00  0.00     0.004 C 
HETATM   16  C18 UNL     1       4.060   9.226  24.667  1.00  0.00     0.032 C 
ENDROOT
BRANCH   5  17
HETATM   17  C8  UNL     1       7.526   9.979  23.339  1.00  0.00     0.174 C 
BRANCH  17  18
HETATM   18  O4  UNL     1       8.118   9.442  22.220  1.00  0.00    -0.400 OA
ATOM     19  H4  UNL     1       8.998   9.129  22.397  1.00  0.00     0.209 HD
ENDBRANCH  17  18
ENDBRANCH   5  17
BRANCH   1  20
HETATM   20  O2  UNL     1       2.047  10.426  24.072  1.00  0.00    -0.313 OA
BRANCH  20  21
HETATM   21  C2  UNL     1       1.014  11.071  24.716  1.00  0.00     0.255 C 
HETATM   22  C1  UNL     1       0.087  10.444  25.664  1.00  0.00     0.126 C 
HETATM   23  O1  UNL     1       0.858  12.299  24.466  1.00  0.00    -0.266 OA
ENDBRANCH  20  21
ENDBRANCH   1  20
BRANCH   2  24
HETATM   24  O3  UNL     1       3.959  12.833  24.185  1.00  0.00    -0.393 OA
ATOM     25  H3  UNL     1       4.236  13.500  23.568  1.00  0.00     0.210 HD
ENDBRANCH   2  24
TORSDOF 5
ENDMDL
MODEL 2
REMARK VINA RESULT: -6.607407725      2.405      3.623
REMARK  5 active torsions:
REMARK  status: ('A' for Active; 'I' for Inactive)
REMARK    1  A    between atoms: C2_2  and  O2_4 
REMARK    2  A    between atoms: O2_4  and  C3_5 
REMARK    3  A    between atoms: C4_6  and  O3_7 
REMARK    4  A    between atoms: C7_11  and  C8_12 
REMARK    5  A    between atoms: C8_12  and  O4_13 
ROOT
HETATM    1  C3  UNL     1       2.661  10.579  23.970  1.00  0.00     0.166 C 
HETATM    2  C4  UNL     1       3.645   9.965  23.042  1.00  0.00     0.152 C 
HETATM    3  C5  UNL     1       4.438   8.810  23.558  1.00  0.00     0.024 C 
HETATM    4  C6  UNL     1       5.804   9.236  24.060  1.00  0.00     0.013 C 
HETATM    5  C7  UNL     1       3.749   7.959  24.577  1.00  0.00    -0.009 C 
HETATM    6  C9  UNL     1       2.835   6.973  23.960  1.00  0.00     0.014 C 
HETATM    7  C10 UNL     1       1.546   7.433  23.425  1.00  0.00     0.021 C 
HETATM    8  C11 UNL     1       0.570   8.027  24.379  1.00  0.00     0.101 C 
HETATM    9  C12 UNL     1       0.033   6.883  25.172  1.00  0.00     0.064 C 
HETATM   10  N1  UNL     1      -0.386   5.976  25.774  1.00  0.00    -0.197 NA
HETATM   11  C13 UNL     1       0.913   9.154  25.188  1.00  0.00    -0.021 C 
HETATM   12  C14 UNL     1      -0.229  10.173  25.244  1.00  0.00     0.017 C 
HETATM   13  C15 UNL     1       1.025   8.694  26.659  1.00  0.00     0.011 C 
HETATM   14  C16 UNL     1       2.362   8.066  26.670  1.00  0.00     0.007 C 
HETATM   15  C17 UNL     1       3.169   8.809  25.650  1.00  0.00     0.004 C 
HETATM   16  C18 UNL     1       2.215   9.841  25.134  1.00  0.00     0.032 C 
ENDROOT
BRANCH   5  17
HETATM   17  C8  UNL     1       4.839   7.112  25.263  1.00  0.00     0.174 C 
BRANCH  17  18
HETATM   18  O4  UNL     1       4.749   5.782  24.924  1.00  0.00    -0.400 OA
ATOM     19  H4  UNL     1       3.908   5.409  25.161  1.00  0.00     0.209 HD
ENDBRANCH  17  18
ENDBRANCH   5  17
BRANCH   1  20
HETATM   20  O2  UNL     1       1.585  11.079  23.156  1.00  0.00    -0.313 OA
BRANCH  20  21
HETATM   21  C2  UNL     1       1.283  12.417  23.025  1.00  0.00     0.255 C 
HETATM   22  C1  UNL     1       1.613  13.456  24.006  1.00  0.00     0.126 C 
HETATM   23  O1  UNL     1       0.675  12.769  21.977  1.00  0.00    -0.266 OA
ENDBRANCH  20  21
ENDBRANCH   1  20
BRANCH   2  24
HETATM   24  O3  UNL     1       4.610  10.923  22.616  1.00  0.00    -0.393 OA
ATOM     25  H3  UNL     1       4.274  11.446  21.896  1.00  0.00     0.210 HD
ENDBRANCH   2  24
TORSDOF 5
ENDMDL
MODEL 3
REMARK VINA RESULT: -6.473332108      1.780      2.452
REMARK  5 active torsions:
REMARK  status: ('A' for Active; 'I' for Inactive)
REMARK    1  A    between atoms: C2_2  and  O2_4 
REMARK    2  A    between atoms: O2_4  and  C3_5 
REMARK    3  A    between atoms: C4_6  and  O3_7 
REMARK    4  A    between atoms: C7_11  and  C8_12 
REMARK    5  A    between atoms: C8_12  and  O4_13 
ROOT
HETATM    1  C3  UNL     1       3.911   9.996  23.864  1.00  0.00     0.166 C 
HETATM    2  C4  UNL     1       5.083   9.939  22.953  1.00  0.00     0.152 C 
HETATM    3  C5  UNL     1       6.072   8.845  23.186  1.00  0.00     0.024 C 
HETATM    4  C6  UNL     1       7.258   9.315  24.006  1.00  0.00     0.013 C 
HETATM    5  C7  UNL     1       5.513   7.580  23.755  1.00  0.00    -0.009 C 
HETATM    6  C9  UNL     1       4.903   6.719  22.719  1.00  0.00     0.014 C 
HETATM    7  C10 UNL     1       3.593   7.088  22.166  1.00  0.00     0.021 C 
HETATM    8  C11 UNL     1       2.430   7.120  23.096  1.00  0.00     0.101 C 
HETATM    9  C12 UNL     1       2.104   5.692  23.383  1.00  0.00     0.064 C 
HETATM   10  N1  UNL     1       1.854   4.572  23.588  1.00  0.00    -0.197 NA
HETATM   11  C13 UNL     1       2.439   7.937  24.268  1.00  0.00    -0.021 C 
HETATM   12  C14 UNL     1       1.093   8.641  24.471  1.00  0.00     0.017 C 
HETATM   13  C15 UNL     1       2.529   7.023  25.511  1.00  0.00     0.011 C 
HETATM   14  C16 UNL     1       3.968   6.691  25.527  1.00  0.00     0.007 C 
HETATM   15  C17 UNL     1       4.667   7.879  24.941  1.00  0.00     0.004 C 
HETATM   16  C18 UNL     1       3.549   8.829  24.643  1.00  0.00     0.032 C 
ENDROOT
BRANCH   5  17
HETATM   17  C8  UNL     1       6.706   6.766  24.293  1.00  0.00     0.174 C 
BRANCH  17  18
HETATM   18  O4  UNL     1       7.241   5.938  23.333  1.00  0.00    -0.400 OA
ATOM     19  H4  UNL     1       6.696   5.894  22.556  1.00  0.00     0.209 HD
ENDBRANCH  17  18
ENDBRANCH   5  17
BRANCH   1  20
HETATM   20  O2  UNL     1       2.821  10.538  23.096  1.00  0.00    -0.313 OA
BRANCH  20  21
HETATM   21  C2  UNL     1       2.332  11.816  23.262  1.00  0.00     0.255 C 
HETATM   22  C1  UNL     1       2.863  12.809  24.201  1.00  0.00     0.126 C 
HETATM   23  O1  UNL     1       1.348  12.152  22.545  1.00  0.00    -0.266 OA
ENDBRANCH  20  21
ENDBRANCH   1  20
BRANCH   2  24
HETATM   24  O3  UNL     1       5.835  11.147  23.014  1.00  0.00    -0.393 OA
ATOM     25  H3  UNL     1       6.767  10.970  22.948  1.00  0.00     0.210 HD
ENDBRANCH   2  24
TORSDOF 5
ENDMDL
MODEL 4
REMARK VINA RESULT: -6.468581701      2.436      5.315
REMARK  5 active torsions:
REMARK  status: ('A' for Active; 'I' for Inactive)
REMARK    1  A    between atoms: C2_2  and  O2_4 
REMARK    2  A    between atoms: O2_4  and  C3_5 
REMARK    3  A    between atoms: C4_6  and  O3_7 
REMARK    4  A    between atoms: C7_11  and  C8_12 
REMARK    5  A    between atoms: C8_12  and  O4_13 
ROOT
HETATM    1  C3  UNL     1       2.573   9.421  23.219  1.00  0.00     0.166 C 
HETATM    2  C4  UNL     1       2.415  10.810  23.723  1.00  0.00     0.152 C 
HETATM    3  C5  UNL     1       1.151  11.129  24.450  1.00  0.00     0.024 C 
HETATM    4  C6  UNL     1       0.123  11.783  23.547  1.00  0.00     0.013 C 
HETATM    5  C7  UNL     1       0.536   9.993  25.203  1.00  0.00    -0.009 C 
HETATM    6  C9  UNL     1       1.167   9.786  26.525  1.00  0.00     0.014 C 
HETATM    7  C10 UNL     1       2.493   9.155  26.589  1.00  0.00     0.021 C 
HETATM    8  C11 UNL     1       2.621   7.756  26.096  1.00  0.00     0.101 C 
HETATM    9  C12 UNL     1       1.968   6.902  27.131  1.00  0.00     0.064 C 
HETATM   10  N1  UNL     1       1.465   6.247  27.955  1.00  0.00    -0.197 NA
HETATM   11  C13 UNL     1       2.248   7.401  24.764  1.00  0.00    -0.021 C 
HETATM   12  C14 UNL     1       3.268   6.450  24.130  1.00  0.00     0.017 C 
HETATM   13  C15 UNL     1       0.970   6.534  24.819  1.00  0.00     0.011 C 
HETATM   14  C16 UNL     1      -0.073   7.561  25.018  1.00  0.00     0.007 C 
HETATM   15  C17 UNL     1       0.432   8.793  24.331  1.00  0.00     0.004 C 
HETATM   16  C18 UNL     1       1.748   8.361  23.764  1.00  0.00     0.032 C 
ENDROOT
BRANCH   5  17
HETATM   17  C8  UNL     1      -0.917  10.400  25.520  1.00  0.00     0.174 C 
BRANCH  17  18
HETATM   18  O4  UNL     1      -1.036  10.955  26.773  1.00  0.00    -0.400 OA
ATOM     19  H4  UNL     1      -0.813  11.879  26.777  1.00  0.00     0.209 HD
ENDBRANCH  17  18
ENDBRANCH   5  17
BRANCH   1  20
HETATM   20  O2  UNL     1       3.982   9.131  23.251  1.00  0.00    -0.313 OA
BRANCH  20  21
HETATM   21  C2  UNL     1       4.857   9.480  22.245  1.00  0.00     0.255 C 
HETATM   22  C1  UNL     1       6.293   9.722  22.420  1.00  0.00     0.126 C 
HETATM   23  O1  UNL     1       4.378   9.599  21.083  1.00  0.00    -0.266 OA
ENDBRANCH  20  21
ENDBRANCH   1  20
BRANCH   2  24
HETATM   24  O3  UNL     1       2.482  11.750  22.654  1.00  0.00    -0.393 OA
ATOM     25  H3  UNL     1       3.384  11.939  22.424  1.00  0.00     0.210 HD
ENDBRANCH   2  24
TORSDOF 5
ENDMDL
MODEL 5
REMARK VINA RESULT: -6.341174158      2.178      3.188
REMARK  5 active torsions:
REMARK  status: ('A' for Active; 'I' for Inactive)
REMARK    1  A    between atoms: C2_2  and  O2_4 
REMARK    2  A    between atoms: O2_4  and  C3_5 
REMARK    3  A    between atoms: C4_6  and  O3_7 
REMARK    4  A    between atoms: C7_11  and  C8_12 
REMARK    5  A    between atoms: C8_12  and  O4_13 
ROOT
HETATM    1  C3  UNL     1       3.280   8.135  25.317  1.00  0.00     0.166 C 
HETATM    2  C4  UNL     1       2.475   8.662  24.185  1.00  0.00     0.152 C 
HETATM    3  C5  UNL     1       3.224   9.197  23.009  1.00  0.00     0.024 C 
HETATM    4  C6  UNL     1       3.370  10.705  23.065  1.00  0.00     0.013 C 
HETATM    5  C7  UNL     1       4.549   8.554  22.743  1.00  0.00    -0.009 C 
HETATM    6  C9  UNL     1       4.418   7.283  21.998  1.00  0.00     0.014 C 
HETATM    7  C10 UNL     1       3.944   6.088  22.709  1.00  0.00     0.021 C 
HETATM    8  C11 UNL     1       4.777   5.567  23.827  1.00  0.00     0.101 C 
HETATM    9  C12 UNL     1       5.965   4.932  23.184  1.00  0.00     0.064 C 
HETATM   10  N1  UNL     1       6.880   4.429  22.666  1.00  0.00    -0.197 NA
HETATM   11  C13 UNL     1       5.122   6.392  24.942  1.00  0.00    -0.021 C 
HETATM   12  C14 UNL     1       4.999   5.628  26.264  1.00  0.00     0.017 C 
HETATM   13  C15 UNL     1       6.632   6.711  24.878  1.00  0.00     0.011 C 
HETATM   14  C16 UNL     1       6.664   7.782  23.861  1.00  0.00     0.007 C 
HETATM   15  C17 UNL     1       5.357   8.504  23.990  1.00  0.00     0.004 C 
HETATM   16  C18 UNL     1       4.670   7.785  25.108  1.00  0.00     0.032 C 
ENDROOT
BRANCH   5  17
HETATM   17  C8  UNL     1       5.317   9.492  21.790  1.00  0.00     0.174 C 
BRANCH  17  18
HETATM   18  O4  UNL     1       5.207   9.098  20.477  1.00  0.00    -0.400 OA
ATOM     19  H4  UNL     1       6.056   8.965  20.072  1.00  0.00     0.209 HD
ENDBRANCH  17  18
ENDBRANCH   5  17
BRANCH   1  20
HETATM   20  O2  UNL     1       2.502   7.083  25.917  1.00  0.00    -0.313 OA
BRANCH  20  21
HETATM   21  C2  UNL     1       1.767   7.240  27.072  1.00  0.00     0.255 C 
HETATM   22  C1  UNL     1       2.137   8.105  28.198  1.00  0.00     0.126 C 
HETATM   23  O1  UNL     1       0.692   6.585  27.162  1.00  0.00    -0.266 OA
ENDBRANCH  20  21
ENDBRANCH   1  20
BRANCH   2  24
HETATM   24  O3  UNL     1       1.633   9.729  24.611  1.00  0.00    -0.393 OA
ATOM     25  H3  UNL     1       2.145  10.438  24.982  1.00  0.00     0.210 HD
ENDBRANCH   2  24
TORSDOF 5
ENDMDL
