MODEL 1
REMARK VINA RESULT: -7.826011443      0.000      0.000
REMARK  2 active torsions:
REMARK  status: ('A' for Active; 'I' for Inactive)
REMARK    1  A    between atoms: C10_11  and  O2_12 
REMARK    2  A    between atoms: C15_19  and  N1_20 
ROOT
HETATM    1  C1  UNL     1       4.256   6.272  24.320  1.00  0.00     0.018 C 
HETATM    2  C2  UNL     1       3.391   7.119  23.405  1.00  0.00    -0.012 C 
HETATM    3  C3  UNL     1       2.233   6.239  22.905  1.00  0.00     0.012 C 
HETATM    4  C4  UNL     1       1.290   7.369  23.253  1.00  0.00     0.009 C 
HETATM    5  C5  UNL     1       2.434   7.949  24.095  1.00  0.00     0.032 C 
HETATM    6  C6  UNL     1       2.480   9.395  24.014  1.00  0.00     0.079 A 
HETATM    7  O1  UNL     1       2.811   9.956  22.819  1.00  0.00    -0.370 OA
HETATM    8  C7  UNL     1       4.041  10.607  23.081  1.00  0.00     0.158 C 
HETATM    9  C8  UNL     1       5.068   9.608  23.520  1.00  0.00     0.037 C 
HETATM   10  C9  UNL     1       5.308   8.506  22.555  1.00  0.00     0.035 C 
HETATM   11  C10 UNL     1       4.152   7.631  22.256  1.00  0.00     0.127 C 
HETATM   12  C11 UNL     1       3.579  11.397  24.311  1.00  0.00     0.099 C 
HETATM   13  O3  UNL     1       4.518  12.155  24.876  1.00  0.00    -0.377 OA
HETATM   14  C12 UNL     1       4.249  13.478  24.528  1.00  0.00     0.169 C 
HETATM   15  C13 UNL     1       2.729  13.577  24.398  1.00  0.00     0.036 C 
HETATM   16  C14 UNL     1       2.400  12.195  23.896  1.00  0.00     0.055 C 
HETATM   17  C15 UNL     1       1.187  11.595  24.526  1.00  0.00     0.170 C 
HETATM   18  C16 UNL     1       1.561  10.186  24.897  1.00  0.00     0.061 A 
HETATM   19  C17 UNL     1       3.018  10.271  25.126  1.00  0.00     0.068 A 
ENDROOT
BRANCH  17  20
HETATM   20  N1  UNL     1       0.006  11.655  23.720  1.00  0.00    -0.150 N 
HETATM   21  O4  UNL     1      -0.923  10.870  23.946  1.00  0.00    -0.536 OA
HETATM   22  O5  UNL     1      -0.143  12.554  22.699  1.00  0.00    -0.536 OA
ENDBRANCH  17  20
BRANCH  11  23
HETATM   23  O2  UNL     1       4.713   6.483  21.626  1.00  0.00    -0.395 OA
ATOM     24  H2  UNL     1       4.115   6.259  20.924  1.00  0.00     0.210 HD
ENDBRANCH  11  23
TORSDOF 2
ENDMDL
MODEL 2
REMARK VINA RESULT: -7.760860219      2.469      4.163
REMARK  2 active torsions:
REMARK  status: ('A' for Active; 'I' for Inactive)
REMARK    1  A    between atoms: C10_11  and  O2_12 
REMARK    2  A    between atoms: C15_19  and  N1_20 
ROOT
HETATM    1  C1  UNL     1       1.247   6.939  22.975  1.00  0.00     0.018 C 
HETATM    2  C2  UNL     1       2.541   7.104  23.751  1.00  0.00    -0.012 C 
HETATM    3  C3  UNL     1       3.329   5.789  23.638  1.00  0.00     0.012 C 
HETATM    4  C4  UNL     1       4.553   6.610  23.298  1.00  0.00     0.009 C 
HETATM    5  C5  UNL     1       3.590   7.772  23.021  1.00  0.00     0.032 C 
HETATM    6  C6  UNL     1       4.138   9.040  23.459  1.00  0.00     0.079 A 
HETATM    7  O1  UNL     1       4.302   9.235  24.796  1.00  0.00    -0.370 OA
HETATM    8  C7  UNL     1       3.405  10.289  25.095  1.00  0.00     0.158 C 
HETATM    9  C8  UNL     1       2.001   9.878  24.770  1.00  0.00     0.037 C 
HETATM   10  C9  UNL     1       1.542   8.651  25.465  1.00  0.00     0.035 C 
HETATM   11  C10 UNL     1       2.291   7.408  25.168  1.00  0.00     0.127 C 
HETATM   12  C11 UNL     1       3.888  11.261  24.012  1.00  0.00     0.099 C 
HETATM   13  O3  UNL     1       3.234  12.422  23.968  1.00  0.00    -0.377 OA
HETATM   14  C12 UNL     1       4.069  13.390  24.525  1.00  0.00     0.169 C 
HETATM   15  C13 UNL     1       5.496  12.953  24.195  1.00  0.00     0.036 C 
HETATM   16  C14 UNL     1       5.344  11.454  24.219  1.00  0.00     0.055 C 
HETATM   17  C15 UNL     1       6.067  10.754  23.118  1.00  0.00     0.170 C 
HETATM   18  C16 UNL     1       5.099   9.750  22.553  1.00  0.00     0.061 A 
HETATM   19  C17 UNL     1       3.782  10.364  22.816  1.00  0.00     0.068 A 
ENDROOT
BRANCH  17  20
HETATM   20  N1  UNL     1       7.310  10.159  23.505  1.00  0.00    -0.150 N 
HETATM   21  O4  UNL     1       8.253  10.887  23.839  1.00  0.00    -0.536 OA
HETATM   22  O5  UNL     1       7.503   8.804  23.522  1.00  0.00    -0.536 OA
ENDBRANCH  17  20
BRANCH  11  23
HETATM   23  O2  UNL     1       1.458   6.355  25.644  1.00  0.00    -0.395 OA
ATOM     24  H2  UNL     1       1.808   5.559  25.262  1.00  0.00     0.210 HD
ENDBRANCH  11  23
TORSDOF 2
ENDMDL
MODEL 3
REMARK VINA RESULT: -7.744970939      2.398      5.049
REMARK  2 active torsions:
REMARK  status: ('A' for Active; 'I' for Inactive)
REMARK    1  A    between atoms: C10_11  and  O2_12 
REMARK    2  A    between atoms: C15_19  and  N1_20 
ROOT
HETATM    1  C1  UNL     1       0.510  12.796  22.104  1.00  0.00     0.018 C 
HETATM    2  C2  UNL     1       0.483  12.291  23.535  1.00  0.00    -0.012 C 
HETATM    3  C3  UNL     1      -0.912  12.584  24.111  1.00  0.00     0.012 C 
HETATM    4  C4  UNL     1      -0.943  11.162  24.626  1.00  0.00     0.009 C 
HETATM    5  C5  UNL     1       0.216  10.880  23.662  1.00  0.00     0.032 C 
HETATM    6  C6  UNL     1       1.184   9.968  24.238  1.00  0.00     0.079 A 
HETATM    7  O1  UNL     1       1.914  10.403  25.301  1.00  0.00    -0.370 OA
HETATM    8  C7  UNL     1       3.241  10.431  24.810  1.00  0.00     0.158 C 
HETATM    9  C8  UNL     1       3.342  11.378  23.652  1.00  0.00     0.037 C 
HETATM   10  C9  UNL     1       2.917  12.767  23.954  1.00  0.00     0.035 C 
HETATM   11  C10 UNL     1       1.505  12.948  24.363  1.00  0.00     0.127 C 
HETATM   12  C11 UNL     1       3.272   8.998  24.266  1.00  0.00     0.099 C 
HETATM   13  O3  UNL     1       4.416   8.643  23.682  1.00  0.00    -0.377 OA
HETATM   14  C12 UNL     1       5.092   7.805  24.567  1.00  0.00     0.169 C 
HETATM   15  C13 UNL     1       4.010   7.054  25.343  1.00  0.00     0.036 C 
HETATM   16  C14 UNL     1       2.925   8.098  25.393  1.00  0.00     0.055 C 
HETATM   17  C15 UNL     1       1.554   7.560  25.153  1.00  0.00     0.170 C 
HETATM   18  C16 UNL     1       0.901   8.497  24.174  1.00  0.00     0.061 A 
HETATM   19  C17 UNL     1       2.043   9.037  23.408  1.00  0.00     0.068 A 
ENDROOT
BRANCH  17  20
HETATM   20  N1  UNL     1       0.772   7.372  26.337  1.00  0.00    -0.150 N 
HETATM   21  O4  UNL     1      -0.131   6.527  26.339  1.00  0.00    -0.536 OA
HETATM   22  O5  UNL     1       0.983   8.094  27.480  1.00  0.00    -0.536 OA
ENDBRANCH  17  20
BRANCH  11  23
HETATM   23  O2  UNL     1       1.262  14.346  24.235  1.00  0.00    -0.395 OA
ATOM     24  H2  UNL     1       2.112  14.740  24.077  1.00  0.00     0.210 HD
ENDBRANCH  11  23
TORSDOF 2
ENDMDL
MODEL 4
REMARK VINA RESULT: -7.646821080      2.056      4.491
REMARK  2 active torsions:
REMARK  status: ('A' for Active; 'I' for Inactive)
REMARK    1  A    between atoms: C10_11  and  O2_12 
REMARK    2  A    between atoms: C15_19  and  N1_20 
ROOT
HETATM    1  C1  UNL     1       6.790  10.453  21.948  1.00  0.00     0.018 C 
HETATM    2  C2  UNL     1       6.150  10.383  23.322  1.00  0.00    -0.012 C 
HETATM    3  C3  UNL     1       6.330  11.754  23.995  1.00  0.00     0.012 C 
HETATM    4  C4  UNL     1       4.865  11.707  24.369  1.00  0.00     0.009 C 
HETATM    5  C5  UNL     1       4.723  10.593  23.323  1.00  0.00     0.032 C 
HETATM    6  C6  UNL     1       3.800   9.564  23.758  1.00  0.00     0.079 A 
HETATM    7  O1  UNL     1       4.160   8.792  24.819  1.00  0.00    -0.370 OA
HETATM    8  C7  UNL     1       4.288   7.495  24.265  1.00  0.00     0.158 C 
HETATM    9  C8  UNL     1       5.345   7.492  23.202  1.00  0.00     0.037 C 
HETATM   10  C9  UNL     1       6.680   7.948  23.659  1.00  0.00     0.035 C 
HETATM   11  C10 UNL     1       6.764   9.340  24.157  1.00  0.00     0.127 C 
HETATM   12  C11 UNL     1       2.916   7.445  23.583  1.00  0.00     0.099 C 
HETATM   13  O3  UNL     1       2.665   6.323  22.909  1.00  0.00    -0.377 OA
HETATM   14  C12 UNL     1       1.773   5.570  23.672  1.00  0.00     0.169 C 
HETATM   15  C13 UNL     1       0.909   6.581  24.425  1.00  0.00     0.036 C 
HETATM   16  C14 UNL     1       1.899   7.697  24.633  1.00  0.00     0.055 C 
HETATM   17  C15 UNL     1       1.332   9.060  24.412  1.00  0.00     0.170 C 
HETATM   18  C16 UNL     1       2.332   9.798  23.564  1.00  0.00     0.061 A 
HETATM   19  C17 UNL     1       2.988   8.720  22.797  1.00  0.00     0.068 A 
ENDROOT
BRANCH  17  20
HETATM   20  N1  UNL     1       1.000   9.768  25.610  1.00  0.00    -0.150 N 
HETATM   21  O4  UNL     1       1.386   9.331  26.701  1.00  0.00    -0.536 OA
HETATM   22  O5  UNL     1       0.265  10.923  25.602  1.00  0.00    -0.536 OA
ENDBRANCH  17  20
BRANCH  11  23
HETATM   23  O2  UNL     1       8.157   9.639  24.178  1.00  0.00    -0.395 OA
ATOM     24  H2  UNL     1       8.546   9.002  24.767  1.00  0.00     0.210 HD
ENDBRANCH  11  23
TORSDOF 2
ENDMDL
MODEL 5
REMARK VINA RESULT: -7.533479720      2.599      3.640
REMARK  2 active torsions:
REMARK  status: ('A' for Active; 'I' for Inactive)
REMARK    1  A    between atoms: C10_11  and  O2_12 
REMARK    2  A    between atoms: C15_19  and  N1_20 
ROOT
HETATM    1  C1  UNL     1       6.856   7.453  25.277  1.00  0.00     0.018 C 
HETATM    2  C2  UNL     1       5.570   6.721  24.940  1.00  0.00    -0.012 C 
HETATM    3  C3  UNL     1       5.701   5.279  25.458  1.00  0.00     0.012 C 
HETATM    4  C4  UNL     1       4.324   5.426  26.068  1.00  0.00     0.009 C 
HETATM    5  C5  UNL     1       4.498   6.939  25.881  1.00  0.00     0.032 C 
HETATM    6  C6  UNL     1       3.257   7.578  25.490  1.00  0.00     0.079 A 
HETATM    7  O1  UNL     1       2.750   7.284  24.262  1.00  0.00    -0.370 OA
HETATM    8  C7  UNL     1       2.816   8.516  23.566  1.00  0.00     0.158 C 
HETATM    9  C8  UNL     1       4.238   8.979  23.474  1.00  0.00     0.037 C 
HETATM   10  C9  UNL     1       5.159   8.015  22.824  1.00  0.00     0.035 C 
HETATM   11  C10 UNL     1       5.317   6.703  23.492  1.00  0.00     0.127 C 
HETATM   12  C11 UNL     1       2.098   9.367  24.620  1.00  0.00     0.099 C 
HETATM   13  O3  UNL     1       1.978  10.658  24.313  1.00  0.00    -0.377 OA
HETATM   14  C12 UNL     1       0.652  10.874  23.939  1.00  0.00     0.169 C 
HETATM   15  C13 UNL     1      -0.180   9.888  24.757  1.00  0.00     0.036 C 
HETATM   16  C14 UNL     1       0.780   8.733  24.867  1.00  0.00     0.055 C 
HETATM   17  C15 UNL     1       0.814   8.100  26.218  1.00  0.00     0.170 C 
HETATM   18  C16 UNL     1       2.268   7.924  26.562  1.00  0.00     0.061 A 
HETATM   19  C17 UNL     1       2.927   9.018  25.820  1.00  0.00     0.068 A 
ENDROOT
BRANCH  17  20
HETATM   20  N1  UNL     1       0.074   6.879  26.322  1.00  0.00    -0.150 N 
HETATM   21  O4  UNL     1      -0.257   6.464  27.439  1.00  0.00    -0.536 OA
HETATM   22  O5  UNL     1      -0.287   6.142  25.227  1.00  0.00    -0.536 OA
ENDBRANCH  17  20
BRANCH  11  23
HETATM   23  O2  UNL     1       6.483   6.131  22.906  1.00  0.00    -0.395 OA
ATOM     24  H2  UNL     1       6.906   6.839  22.434  1.00  0.00     0.210 HD
ENDBRANCH  11  23
TORSDOF 2
ENDMDL
