MODEL 1
REMARK VINA RESULT: -5.774353681      0.000      0.000
REMARK  4 active torsions:
REMARK  status: ('A' for Active; 'I' for Inactive)
REMARK    1  A    between atoms: C4_6  and  C5_7 
REMARK    2  A    between atoms: C10_14  and  C11_15 
REMARK    3  A    between atoms: C12_18  and  C13_19 
REMARK    4  A    between atoms: C13_19  and  O4_21 
ROOT
HETATM    1  C1  UNL     1       7.402   9.658  23.790  1.00  0.00     0.039 C 
HETATM    2  C2  UNL     1       6.696   8.481  24.356  1.00  0.00     0.006 C 
HETATM    3  C3  UNL     1       5.554   8.038  23.948  1.00  0.00     0.068 C 
HETATM    4  N1  UNL     1       4.805   6.951  24.403  1.00  0.00    -0.368 N 
ATOM      5  H1  UNL     1       5.024   6.459  25.269  1.00  0.00     0.161 HD
HETATM    6  C4  UNL     1       3.694   6.577  23.551  1.00  0.00     0.101 C 
HETATM    7  C9  UNL     1       3.099   7.806  23.022  1.00  0.00     0.080 C 
HETATM    8  N2  UNL     1       1.854   7.810  23.081  1.00  0.00    -0.370 N 
ATOM      9  H2  UNL     1       1.267   8.579  22.756  1.00  0.00     0.161 HD
HETATM   10  C10 UNL     1       1.346   6.593  23.667  1.00  0.00     0.200 C 
HETATM   11  C12 UNL     1       2.566   6.067  24.419  1.00  0.00     0.154 C 
HETATM   12  S1  UNL     1       4.587   8.768  22.598  1.00  0.00    -0.057 SA
ENDROOT
BRANCH   6  13
HETATM   13  C5  UNL     1       4.095   5.619  22.493  1.00  0.00    -0.019 C 
HETATM   14  C6  UNL     1       3.961   6.157  21.087  1.00  0.00     0.017 C 
HETATM   15  C7  UNL     1       5.512   5.107  22.600  1.00  0.00     0.017 C 
HETATM   16  C8  UNL     1       3.226   4.353  22.525  1.00  0.00     0.017 C 
ENDBRANCH   6  13
BRANCH  11  17
HETATM   17  C13 UNL     1       2.558   6.804  25.700  1.00  0.00     0.268 C 
HETATM   18  O3  UNL     1       2.541   6.157  26.773  1.00  0.00    -0.265 OA
BRANCH  17  19
HETATM   19  O4  UNL     1       2.572   8.201  25.764  1.00  0.00    -0.326 OA
HETATM   20  C14 UNL     1       2.398   8.830  27.031  1.00  0.00     0.213 C 
ENDBRANCH  17  19
ENDBRANCH  11  17
BRANCH  10  21
HETATM   21  C11 UNL     1       0.310   6.968  24.694  1.00  0.00     0.197 C 
HETATM   22  O1  UNL     1      -0.190   6.100  25.435  1.00  0.00    -0.646 OA
HETATM   23  O2  UNL     1      -0.088   8.281  24.817  1.00  0.00    -0.646 OA
ENDBRANCH  10  21
TORSDOF 4
ENDMDL
MODEL 2
REMARK VINA RESULT: -5.573953808      2.851      4.713
REMARK  4 active torsions:
REMARK  status: ('A' for Active; 'I' for Inactive)
REMARK    1  A    between atoms: C4_6  and  C5_7 
REMARK    2  A    between atoms: C10_14  and  C11_15 
REMARK    3  A    between atoms: C12_18  and  C13_19 
REMARK    4  A    between atoms: C13_19  and  O4_21 
ROOT
HETATM    1  C1  UNL     1       3.182   4.300  22.108  1.00  0.00     0.039 C 
HETATM    2  C2  UNL     1       3.819   5.351  22.942  1.00  0.00     0.006 C 
HETATM    3  C3  UNL     1       3.207   6.377  23.432  1.00  0.00     0.068 C 
HETATM    4  N1  UNL     1       3.702   7.416  24.220  1.00  0.00    -0.368 N 
ATOM      5  H1  UNL     1       4.700   7.567  24.367  1.00  0.00     0.161 HD
HETATM    6  C4  UNL     1       2.688   8.266  24.813  1.00  0.00     0.101 C 
HETATM    7  C9  UNL     1       1.611   8.433  23.835  1.00  0.00     0.080 C 
HETATM    8  N2  UNL     1       1.226   9.613  23.730  1.00  0.00    -0.370 N 
ATOM      9  H2  UNL     1       0.483   9.920  23.103  1.00  0.00     0.161 HD
HETATM   10  C10 UNL     1       1.963  10.493  24.607  1.00  0.00     0.200 C 
HETATM   11  C12 UNL     1       3.222   9.678  24.891  1.00  0.00     0.154 C 
HETATM   12  S1  UNL     1       1.445   6.735  23.198  1.00  0.00    -0.057 SA
ENDROOT
BRANCH   6  13
HETATM   13  C5  UNL     1       2.217   7.749  26.120  1.00  0.00    -0.019 C 
HETATM   14  C6  UNL     1       0.781   7.275  26.118  1.00  0.00     0.017 C 
HETATM   15  C7  UNL     1       3.022   6.601  26.681  1.00  0.00     0.017 C 
HETATM   16  C8  UNL     1       2.282   8.831  27.208  1.00  0.00     0.017 C 
ENDBRANCH   6  13
BRANCH  11  17
HETATM   17  C13 UNL     1       4.101   9.937  23.730  1.00  0.00     0.268 C 
HETATM   18  O3  UNL     1       5.241  10.418  23.927  1.00  0.00    -0.265 OA
BRANCH  17  19
HETATM   19  O4  UNL     1       3.710   9.663  22.416  1.00  0.00    -0.326 OA
HETATM   20  C14 UNL     1       4.706   9.278  21.472  1.00  0.00     0.213 C 
ENDBRANCH  17  19
ENDBRANCH  11  17
BRANCH  10  21
HETATM   21  C11 UNL     1       2.377  11.703  23.811  1.00  0.00     0.197 C 
HETATM   22  O1  UNL     1       1.989  11.851  22.636  1.00  0.00    -0.646 OA
HETATM   23  O2  UNL     1       3.189  12.655  24.387  1.00  0.00    -0.646 OA
ENDBRANCH  10  21
TORSDOF 4
ENDMDL
MODEL 3
REMARK VINA RESULT: -5.497084200      1.802      2.488
REMARK  4 active torsions:
REMARK  status: ('A' for Active; 'I' for Inactive)
REMARK    1  A    between atoms: C4_6  and  C5_7 
REMARK    2  A    between atoms: C10_14  and  C11_15 
REMARK    3  A    between atoms: C12_18  and  C13_19 
REMARK    4  A    between atoms: C13_19  and  O4_21 
ROOT
HETATM    1  C1  UNL     1       6.548  11.871  23.096  1.00  0.00     0.039 C 
HETATM    2  C2  UNL     1       5.898  11.033  24.135  1.00  0.00     0.006 C 
HETATM    3  C3  UNL     1       5.449   9.837  23.946  1.00  0.00     0.068 C 
HETATM    4  N1  UNL     1       4.825   8.968  24.842  1.00  0.00    -0.368 N 
ATOM      5  H1  UNL     1       4.494   9.269  25.758  1.00  0.00     0.161 HD
HETATM    6  C4  UNL     1       4.684   7.605  24.369  1.00  0.00     0.101 C 
HETATM    7  C9  UNL     1       4.374   7.654  22.939  1.00  0.00     0.080 C 
HETATM    8  N2  UNL     1       3.449   6.886  22.614  1.00  0.00    -0.370 N 
ATOM      9  H2  UNL     1       3.099   6.781  21.661  1.00  0.00     0.161 HD
HETATM   10  C10 UNL     1       2.934   6.163  23.752  1.00  0.00     0.200 C 
HETATM   11  C12 UNL     1       3.398   7.031  24.918  1.00  0.00     0.154 C 
HETATM   12  S1  UNL     1       5.527   8.944  22.370  1.00  0.00    -0.057 SA
ENDROOT
BRANCH   6  13
HETATM   13  C5  UNL     1       5.873   6.776  24.682  1.00  0.00    -0.019 C 
HETATM   14  C6  UNL     1       6.385   5.961  23.516  1.00  0.00     0.017 C 
HETATM   15  C7  UNL     1       7.068   7.543  25.198  1.00  0.00     0.017 C 
HETATM   16  C8  UNL     1       5.568   5.753  25.786  1.00  0.00     0.017 C 
ENDBRANCH   6  13
BRANCH  11  17
HETATM   17  C13 UNL     1       2.382   8.100  25.013  1.00  0.00     0.268 C 
HETATM   18  O3  UNL     1       1.778   8.270  26.098  1.00  0.00    -0.265 OA
BRANCH  17  19
HETATM   19  O4  UNL     1       2.067   8.934  23.936  1.00  0.00    -0.326 OA
HETATM   20  C14 UNL     1       1.371  10.152  24.194  1.00  0.00     0.213 C 
ENDBRANCH  17  19
ENDBRANCH  11  17
BRANCH  10  21
HETATM   21  C11 UNL     1       1.430   6.233  23.706  1.00  0.00     0.197 C 
HETATM   22  O1  UNL     1       0.849   6.731  22.722  1.00  0.00    -0.646 OA
HETATM   23  O2  UNL     1       0.689   5.742  24.759  1.00  0.00    -0.646 OA
ENDBRANCH  10  21
TORSDOF 4
ENDMDL
MODEL 4
REMARK VINA RESULT: -5.489557475      0.454      1.085
REMARK  4 active torsions:
REMARK  status: ('A' for Active; 'I' for Inactive)
REMARK    1  A    between atoms: C4_6  and  C5_7 
REMARK    2  A    between atoms: C10_14  and  C11_15 
REMARK    3  A    between atoms: C12_18  and  C13_19 
REMARK    4  A    between atoms: C13_19  and  O4_21 
ROOT
HETATM    1  C1  UNL     1       7.491   9.629  23.574  1.00  0.00     0.039 C 
HETATM    2  C2  UNL     1       6.784   8.489  24.211  1.00  0.00     0.006 C 
HETATM    3  C3  UNL     1       5.632   8.036  23.844  1.00  0.00     0.068 C 
HETATM    4  N1  UNL     1       4.883   6.981  24.366  1.00  0.00    -0.368 N 
ATOM      5  H1  UNL     1       5.111   6.531  25.252  1.00  0.00     0.161 HD
HETATM    6  C4  UNL     1       3.755   6.574  23.551  1.00  0.00     0.101 C 
HETATM    7  C9  UNL     1       3.161   7.780  22.969  1.00  0.00     0.080 C 
HETATM    8  N2  UNL     1       1.918   7.798  23.048  1.00  0.00    -0.370 N 
ATOM      9  H2  UNL     1       1.332   8.554  22.693  1.00  0.00     0.161 HD
HETATM   10  C10 UNL     1       1.409   6.617  23.704  1.00  0.00     0.200 C 
HETATM   11  C12 UNL     1       2.637   6.119  24.462  1.00  0.00     0.154 C 
HETATM   12  S1  UNL     1       4.649   8.705  22.474  1.00  0.00    -0.057 SA
ENDROOT
BRANCH   6  13
HETATM   13  C5  UNL     1       4.131   5.559  22.538  1.00  0.00    -0.019 C 
HETATM   14  C6  UNL     1       3.989   6.030  21.108  1.00  0.00     0.017 C 
HETATM   15  C7  UNL     1       5.541   5.033  22.655  1.00  0.00     0.017 C 
HETATM   16  C8  UNL     1       3.245   4.309  22.641  1.00  0.00     0.017 C 
ENDBRANCH   6  13
BRANCH  11  17
HETATM   17  C13 UNL     1       2.656   6.920  25.704  1.00  0.00     0.268 C 
HETATM   18  O3  UNL     1       2.805   8.162  25.624  1.00  0.00    -0.265 OA
BRANCH  17  19
HETATM   19  O4  UNL     1       2.512   6.346  26.970  1.00  0.00    -0.326 OA
HETATM   20  C14 UNL     1       2.113   7.178  28.057  1.00  0.00     0.213 C 
ENDBRANCH  17  19
ENDBRANCH  11  17
BRANCH  10  21
HETATM   21  C11 UNL     1       0.393   7.053  24.726  1.00  0.00     0.197 C 
HETATM   22  O1  UNL     1       0.127   8.261  24.880  1.00  0.00    -0.646 OA
HETATM   23  O2  UNL     1      -0.252   6.109  25.496  1.00  0.00    -0.646 OA
ENDBRANCH  10  21
TORSDOF 4
ENDMDL
MODEL 5
REMARK VINA RESULT: -5.455959905      2.818      4.568
REMARK  4 active torsions:
REMARK  status: ('A' for Active; 'I' for Inactive)
REMARK    1  A    between atoms: C4_6  and  C5_7 
REMARK    2  A    between atoms: C10_14  and  C11_15 
REMARK    3  A    between atoms: C12_18  and  C13_19 
REMARK    4  A    between atoms: C13_19  and  O4_21 
ROOT
HETATM    1  C1  UNL     1       2.817   8.152  28.970  1.00  0.00     0.039 C 
HETATM    2  C2  UNL     1       2.266   8.600  27.667  1.00  0.00     0.006 C 
HETATM    3  C3  UNL     1       2.678   8.195  26.512  1.00  0.00     0.068 C 
HETATM    4  N1  UNL     1       2.237   8.547  25.235  1.00  0.00    -0.368 N 
ATOM      5  H1  UNL     1       1.611   9.334  25.068  1.00  0.00     0.161 HD
HETATM    6  C4  UNL     1       2.740   7.708  24.165  1.00  0.00     0.101 C 
HETATM    7  C9  UNL     1       4.129   7.364  24.477  1.00  0.00     0.080 C 
HETATM    8  N2  UNL     1       4.892   7.481  23.499  1.00  0.00    -0.370 N 
ATOM      9  H2  UNL     1       5.892   7.282  23.525  1.00  0.00     0.161 HD
HETATM   10  C10 UNL     1       4.186   7.936  22.325  1.00  0.00     0.200 C 
HETATM   11  C12 UNL     1       2.930   8.558  22.930  1.00  0.00     0.154 C 
HETATM   12  S1  UNL     1       4.012   6.993  26.256  1.00  0.00    -0.057 SA
ENDROOT
BRANCH   6  13
HETATM   13  C5  UNL     1       1.882   6.522  23.931  1.00  0.00    -0.019 C 
HETATM   14  C6  UNL     1       2.594   5.199  24.096  1.00  0.00     0.017 C 
HETATM   15  C7  UNL     1       0.657   6.436  24.811  1.00  0.00     0.017 C 
HETATM   16  C8  UNL     1       1.327   6.506  22.499  1.00  0.00     0.017 C 
ENDBRANCH   6  13
BRANCH  11  17
HETATM   17  C13 UNL     1       3.345   9.920  23.327  1.00  0.00     0.268 C 
HETATM   18  O3  UNL     1       2.781  10.906  22.798  1.00  0.00    -0.265 OA
BRANCH  17  19
HETATM   19  O4  UNL     1       4.346  10.153  24.276  1.00  0.00    -0.326 OA
HETATM   20  C14 UNL     1       4.699  11.500  24.580  1.00  0.00     0.213 C 
ENDBRANCH  17  19
ENDBRANCH  11  17
BRANCH  10  21
HETATM   21  C11 UNL     1       4.986   9.048  21.701  1.00  0.00     0.197 C 
HETATM   22  O1  UNL     1       4.575   9.628  20.677  1.00  0.00    -0.646 OA
HETATM   23  O2  UNL     1       6.183   9.431  22.267  1.00  0.00    -0.646 OA
ENDBRANCH  10  21
TORSDOF 4
ENDMDL
