MODEL 1
REMARK VINA RESULT: -8.450347609      0.000      0.000
REMARK  6 active torsions:
REMARK  status: ('A' for Active; 'I' for Inactive)
REMARK    1  A    between atoms: N1_2  and  C2_5 
REMARK    2  A    between atoms: C14_19  and  O3_20 
REMARK    3  A    between atoms: O3_20  and  C15_21 
REMARK    4  A    between atoms: C18_25  and  O5_26 
REMARK    5  A    between atoms: C19_28  and  O6_29 
REMARK    6  A    between atoms: C20_31  and  O7_32 
ROOT
HETATM    1  C2  UNL     1       4.767   8.273  21.847  1.00  0.00     0.350 C 
HETATM    2  O1  UNL     1       3.687   8.907  22.353  1.00  0.00    -0.349 OA
HETATM    3  C3  UNL     1       3.911  10.089  23.021  1.00  0.00     0.153 C 
HETATM    4  C4  UNL     1       5.122   9.969  23.895  1.00  0.00     0.035 C 
HETATM    5  C5  UNL     1       5.320   8.759  24.721  1.00  0.00     0.014 C 
HETATM    6  C6  UNL     1       5.059   7.423  24.210  1.00  0.00    -0.014 C 
HETATM    7  C7  UNL     1       6.094   6.473  24.877  1.00  0.00     0.018 C 
HETATM    8  C8  UNL     1       3.750   6.752  24.382  1.00  0.00     0.012 C 
HETATM    9  C9  UNL     1       2.848   7.149  25.464  1.00  0.00     0.009 C 
HETATM   10  C10 UNL     1       1.992   8.311  25.268  1.00  0.00     0.026 C 
HETATM   11  C11 UNL     1       0.873   8.505  26.289  1.00  0.00     0.060 C 
HETATM   12  C12 UNL     1      -0.120   7.424  26.365  1.00  0.00     0.018 C 
HETATM   13  C13 UNL     1       0.343   9.860  25.961  1.00  0.00     0.161 C 
HETATM   14  O2  UNL     1      -0.320  10.400  26.829  1.00  0.00    -0.295 OA
HETATM   15  C14 UNL     1       0.523  10.629  24.717  1.00  0.00     0.210 C 
HETATM   16  C17 UNL     1       1.430  10.031  23.674  1.00  0.00     0.083 C 
HETATM   17  C18 UNL     1       2.720  10.742  23.589  1.00  0.00     0.156 C 
HETATM   18  C19 UNL     1       1.392   8.553  23.944  1.00  0.00     0.132 C 
HETATM   19  C20 UNL     1       5.502   7.347  22.736  1.00  0.00     0.182 C 
ENDROOT
BRANCH   1  20
HETATM   20  N1  UNL     1       4.298   7.551  20.649  1.00  0.00    -0.050 N 
HETATM   21  C1  UNL     1       3.920   6.203  20.915  1.00  0.00     0.270 C 
ATOM     22  H12 UNL     1       4.996   7.591  19.906  1.00  0.00     0.279 HD
ATOM     23  H11 UNL     1       3.538   8.058  20.195  1.00  0.00     0.279 HD
ENDBRANCH   1  20
BRANCH  19  24
HETATM   24  O7  UNL     1       6.889   7.605  22.761  1.00  0.00    -0.390 OA
ATOM     25  H7  UNL     1       7.334   7.144  23.462  1.00  0.00     0.210 HD
ENDBRANCH  19  24
BRANCH  17  26
HETATM   26  O5  UNL     1       3.092  11.435  24.780  1.00  0.00    -0.392 OA
ATOM     27  H5  UNL     1       3.619  10.859  25.322  1.00  0.00     0.210 HD
ENDBRANCH  17  26
BRANCH  15  28
HETATM   28  O3  UNL     1      -0.796  10.668  24.139  1.00  0.00    -0.308 OA
BRANCH  28  29
HETATM   29  C15 UNL     1      -1.296  11.721  23.431  1.00  0.00     0.255 C 
HETATM   30  C16 UNL     1      -0.529  12.993  23.350  1.00  0.00     0.126 C 
HETATM   31  O4  UNL     1      -2.409  11.576  22.861  1.00  0.00    -0.266 OA
ENDBRANCH  28  29
ENDBRANCH  15  28
BRANCH  18  32
HETATM   32  O6  UNL     1      -0.023   8.301  23.989  1.00  0.00    -0.395 OA
ATOM     33  H6  UNL     1      -0.480   9.060  24.330  1.00  0.00     0.210 HD
ENDBRANCH  18  32
TORSDOF 6
ENDMDL
MODEL 2
REMARK VINA RESULT: -8.263782622      1.048      1.091
REMARK  6 active torsions:
REMARK  status: ('A' for Active; 'I' for Inactive)
REMARK    1  A    between atoms: N1_2  and  C2_5 
REMARK    2  A    between atoms: C14_19  and  O3_20 
REMARK    3  A    between atoms: O3_20  and  C15_21 
REMARK    4  A    between atoms: C18_25  and  O5_26 
REMARK    5  A    between atoms: C19_28  and  O6_29 
REMARK    6  A    between atoms: C20_31  and  O7_32 
ROOT
HETATM    1  C2  UNL     1       4.501   7.365  22.053  1.00  0.00     0.350 C 
HETATM    2  O1  UNL     1       3.449   8.011  22.602  1.00  0.00    -0.349 OA
HETATM    3  C3  UNL     1       3.705   9.212  23.221  1.00  0.00     0.153 C 
HETATM    4  C4  UNL     1       4.965   9.123  24.026  1.00  0.00     0.035 C 
HETATM    5  C5  UNL     1       5.217   7.939  24.875  1.00  0.00     0.014 C 
HETATM    6  C6  UNL     1       4.933   6.587  24.419  1.00  0.00    -0.014 C 
HETATM    7  C7  UNL     1       6.011   5.661  25.052  1.00  0.00     0.018 C 
HETATM    8  C8  UNL     1       3.641   5.917  24.687  1.00  0.00     0.012 C 
HETATM    9  C9  UNL     1       2.801   6.342  25.807  1.00  0.00     0.009 C 
HETATM   10  C10 UNL     1       1.929   7.496  25.627  1.00  0.00     0.026 C 
HETATM   11  C11 UNL     1       0.869   7.715  26.705  1.00  0.00     0.060 C 
HETATM   12  C12 UNL     1      -0.112   6.634  26.870  1.00  0.00     0.018 C 
HETATM   13  C13 UNL     1       0.314   9.058  26.368  1.00  0.00     0.161 C 
HETATM   14  O2  UNL     1      -0.301   9.621  27.257  1.00  0.00    -0.295 OA
HETATM   15  C14 UNL     1       0.418   9.790  25.094  1.00  0.00     0.210 C 
HETATM   16  C17 UNL     1       1.266   9.165  24.018  1.00  0.00     0.083 C 
HETATM   17  C18 UNL     1       2.545   9.878  23.837  1.00  0.00     0.156 C 
HETATM   18  C19 UNL     1       1.251   7.696  24.334  1.00  0.00     0.132 C 
HETATM   19  C20 UNL     1       5.291   6.469  22.925  1.00  0.00     0.182 C 
ENDROOT
BRANCH   1  20
HETATM   20  N1  UNL     1       3.967   6.606  20.906  1.00  0.00    -0.050 N 
HETATM   21  C1  UNL     1       4.109   5.195  21.048  1.00  0.00     0.270 C 
ATOM     22  H12 UNL     1       4.387   6.926  20.033  1.00  0.00     0.279 HD
ATOM     23  H11 UNL     1       2.994   6.856  20.727  1.00  0.00     0.279 HD
ENDBRANCH   1  20
BRANCH  19  24
HETATM   24  O7  UNL     1       6.675   6.733  22.861  1.00  0.00    -0.390 OA
ATOM     25  H7  UNL     1       7.147   6.087  22.349  1.00  0.00     0.210 HD
ENDBRANCH  19  24
BRANCH  17  26
HETATM   26  O5  UNL     1       2.982  10.607  24.984  1.00  0.00    -0.392 OA
ATOM     27  H5  UNL     1       2.282  11.180  25.272  1.00  0.00     0.210 HD
ENDBRANCH  17  26
BRANCH  15  28
HETATM   28  O3  UNL     1      -0.933   9.807  24.593  1.00  0.00    -0.308 OA
BRANCH  28  29
HETATM   29  C15 UNL     1      -1.716  10.922  24.526  1.00  0.00     0.255 C 
HETATM   30  C16 UNL     1      -1.698  11.771  23.305  1.00  0.00     0.126 C 
HETATM   31  O4  UNL     1      -2.440  11.197  25.519  1.00  0.00    -0.266 OA
ENDBRANCH  28  29
ENDBRANCH  15  28
BRANCH  18  32
HETATM   32  O6  UNL     1      -0.157   7.440  24.467  1.00  0.00    -0.395 OA
ATOM     33  H6  UNL     1      -0.653   8.223  24.262  1.00  0.00     0.210 HD
ENDBRANCH  18  32
TORSDOF 6
ENDMDL
MODEL 3
REMARK VINA RESULT: -7.216377902      2.418      6.253
REMARK  6 active torsions:
REMARK  status: ('A' for Active; 'I' for Inactive)
REMARK    1  A    between atoms: N1_2  and  C2_5 
REMARK    2  A    between atoms: C14_19  and  O3_20 
REMARK    3  A    between atoms: O3_20  and  C15_21 
REMARK    4  A    between atoms: C18_25  and  O5_26 
REMARK    5  A    between atoms: C19_28  and  O6_29 
REMARK    6  A    between atoms: C20_31  and  O7_32 
ROOT
HETATM    1  C2  UNL     1       0.128   9.051  25.073  1.00  0.00     0.350 C 
HETATM    2  O1  UNL     1       0.860   8.366  24.168  1.00  0.00    -0.349 OA
HETATM    3  C3  UNL     1       0.494   7.063  23.924  1.00  0.00     0.153 C 
HETATM    4  C4  UNL     1       0.148   6.372  25.207  1.00  0.00     0.035 C 
HETATM    5  C5  UNL     1       1.011   6.546  26.396  1.00  0.00     0.014 C 
HETATM    6  C6  UNL     1       1.558   7.841  26.770  1.00  0.00    -0.014 C 
HETATM    7  C7  UNL     1       1.620   7.873  28.324  1.00  0.00     0.018 C 
HETATM    8  C8  UNL     1       2.893   8.295  26.320  1.00  0.00     0.012 C 
HETATM    9  C9  UNL     1       3.913   7.324  25.920  1.00  0.00     0.009 C 
HETATM   10  C10 UNL     1       3.870   6.783  24.568  1.00  0.00     0.026 C 
HETATM   11  C11 UNL     1       5.108   6.015  24.109  1.00  0.00     0.060 C 
HETATM   12  C12 UNL     1       6.362   6.781  24.075  1.00  0.00     0.018 C 
HETATM   13  C13 UNL     1       4.673   5.411  22.816  1.00  0.00     0.161 C 
HETATM   14  O2  UNL     1       5.344   4.478  22.410  1.00  0.00    -0.295 OA
HETATM   15  C14 UNL     1       3.533   5.799  21.970  1.00  0.00     0.210 C 
HETATM   16  C17 UNL     1       2.624   6.874  22.506  1.00  0.00     0.083 C 
HETATM   17  C18 UNL     1       1.329   6.331  22.957  1.00  0.00     0.156 C 
HETATM   18  C19 UNL     1       3.489   7.662  23.448  1.00  0.00     0.132 C 
HETATM   19  C20 UNL     1       0.508   8.935  26.498  1.00  0.00     0.182 C 
ENDROOT
BRANCH   1  20
HETATM   20  N1  UNL     1       0.174  10.466  24.657  1.00  0.00    -0.050 N 
HETATM   21  C1  UNL     1      -1.060  10.937  24.122  1.00  0.00     0.270 C 
ATOM     22  H12 UNL     1       0.938  10.626  24.000  1.00  0.00     0.279 HD
ATOM     23  H11 UNL     1       0.486  11.060  25.426  1.00  0.00     0.279 HD
ENDBRANCH   1  20
BRANCH  19  24
HETATM   24  O7  UNL     1      -0.585   8.601  27.325  1.00  0.00    -0.390 OA
ATOM     25  H7  UNL     1      -0.780   9.278  27.964  1.00  0.00     0.210 HD
ENDBRANCH  19  24
BRANCH  17  26
HETATM   26  O5  UNL     1       1.362   4.951  23.320  1.00  0.00    -0.392 OA
ATOM     27  H5  UNL     1       0.733   4.476  22.791  1.00  0.00     0.210 HD
ENDBRANCH  17  26
BRANCH  15  28
HETATM   28  O3  UNL     1       4.148   6.337  20.783  1.00  0.00    -0.308 OA
BRANCH  28  29
HETATM   29  C15 UNL     1       3.848   5.940  19.513  1.00  0.00     0.255 C 
HETATM   30  C16 UNL     1       3.140   4.653  19.284  1.00  0.00     0.126 C 
HETATM   31  O4  UNL     1       4.186   6.693  18.563  1.00  0.00    -0.266 OA
ENDBRANCH  28  29
ENDBRANCH  15  28
BRANCH  18  32
HETATM   32  O6  UNL     1       4.636   7.944  22.627  1.00  0.00    -0.395 OA
ATOM     33  H6  UNL     1       4.478   7.656  21.736  1.00  0.00     0.210 HD
ENDBRANCH  18  32
TORSDOF 6
ENDMDL
MODEL 4
REMARK VINA RESULT: -7.116609359      1.638      2.023
REMARK  6 active torsions:
REMARK  status: ('A' for Active; 'I' for Inactive)
REMARK    1  A    between atoms: N1_2  and  C2_5 
REMARK    2  A    between atoms: C14_19  and  O3_20 
REMARK    3  A    between atoms: O3_20  and  C15_21 
REMARK    4  A    between atoms: C18_25  and  O5_26 
REMARK    5  A    between atoms: C19_28  and  O6_29 
REMARK    6  A    between atoms: C20_31  and  O7_32 
ROOT
HETATM    1  C2  UNL     1       3.802   6.086  21.492  1.00  0.00     0.350 C 
HETATM    2  O1  UNL     1       3.039   6.973  22.167  1.00  0.00    -0.349 OA
HETATM    3  C3  UNL     1       3.685   8.034  22.758  1.00  0.00     0.153 C 
HETATM    4  C4  UNL     1       4.954   7.571  23.407  1.00  0.00     0.035 C 
HETATM    5  C5  UNL     1       4.962   6.331  24.212  1.00  0.00     0.014 C 
HETATM    6  C6  UNL     1       4.266   5.127  23.785  1.00  0.00    -0.014 C 
HETATM    7  C7  UNL     1       5.110   3.918  24.280  1.00  0.00     0.018 C 
HETATM    8  C8  UNL     1       2.878   4.827  24.201  1.00  0.00     0.012 C 
HETATM    9  C9  UNL     1       2.320   5.423  25.416  1.00  0.00     0.009 C 
HETATM   10  C10 UNL     1       1.786   6.777  25.347  1.00  0.00     0.026 C 
HETATM   11  C11 UNL     1       0.957   7.237  26.545  1.00  0.00     0.060 C 
HETATM   12  C12 UNL     1      -0.259   6.460  26.819  1.00  0.00     0.018 C 
HETATM   13  C13 UNL     1       0.761   8.693  26.285  1.00  0.00     0.161 C 
HETATM   14  O2  UNL     1       0.430   9.367  27.244  1.00  0.00    -0.295 OA
HETATM   15  C14 UNL     1       0.919   9.417  25.012  1.00  0.00     0.210 C 
HETATM   16  C17 UNL     1       1.435   8.625  23.840  1.00  0.00     0.083 C 
HETATM   17  C18 UNL     1       2.832   8.967  23.512  1.00  0.00     0.156 C 
HETATM   18  C19 UNL     1       1.050   7.205  24.145  1.00  0.00     0.132 C 
HETATM   19  C20 UNL     1       4.407   4.974  22.259  1.00  0.00     0.182 C 
ENDROOT
BRANCH   1  20
HETATM   20  N1  UNL     1       2.954   5.547  20.413  1.00  0.00    -0.050 N 
HETATM   21  C1  UNL     1       3.651   5.368  19.183  1.00  0.00     0.270 C 
ATOM     22  H12 UNL     1       2.126   6.127  20.278  1.00  0.00     0.279 HD
ATOM     23  H11 UNL     1       2.505   4.678  20.704  1.00  0.00     0.279 HD
ENDBRANCH   1  20
BRANCH  19  24
HETATM   24  O7  UNL     1       5.794   4.851  22.033  1.00  0.00    -0.390 OA
ATOM     25  H7  UNL     1       6.138   4.013  22.320  1.00  0.00     0.210 HD
ENDBRANCH  19  24
BRANCH  17  26
HETATM   26  O5  UNL     1       3.580   9.504  24.603  1.00  0.00    -0.392 OA
ATOM     27  H5  UNL     1       2.981   9.904  25.222  1.00  0.00     0.210 HD
ENDBRANCH  17  26
BRANCH  15  28
HETATM   28  O3  UNL     1      -0.421   9.822  24.675  1.00  0.00    -0.308 OA
BRANCH  28  29
HETATM   29  C15 UNL     1      -0.811  11.117  24.488  1.00  0.00     0.255 C 
HETATM   30  C16 UNL     1      -1.921  11.430  23.549  1.00  0.00     0.126 C 
HETATM   31  O4  UNL     1      -0.207  12.015  25.130  1.00  0.00    -0.266 OA
ENDBRANCH  28  29
ENDBRANCH  15  28
BRANCH  18  32
HETATM   32  O6  UNL     1      -0.351   7.340  24.444  1.00  0.00    -0.395 OA
ATOM     33  H6  UNL     1      -0.842   7.494  23.646  1.00  0.00     0.210 HD
ENDBRANCH  18  32
TORSDOF 6
ENDMDL
MODEL 5
REMARK VINA RESULT: -7.091788730      2.566      5.920
REMARK  6 active torsions:
REMARK  status: ('A' for Active; 'I' for Inactive)
REMARK    1  A    between atoms: N1_2  and  C2_5 
REMARK    2  A    between atoms: C14_19  and  O3_20 
REMARK    3  A    between atoms: O3_20  and  C15_21 
REMARK    4  A    between atoms: C18_25  and  O5_26 
REMARK    5  A    between atoms: C19_28  and  O6_29 
REMARK    6  A    between atoms: C20_31  and  O7_32 
ROOT
HETATM    1  C2  UNL     1       2.043   8.450  27.130  1.00  0.00     0.350 C 
HETATM    2  O1  UNL     1       2.864   8.818  26.122  1.00  0.00    -0.349 OA
HETATM    3  C3  UNL     1       2.439   9.845  25.312  1.00  0.00     0.153 C 
HETATM    4  C4  UNL     1       0.982   9.692  25.001  1.00  0.00     0.035 C 
HETATM    5  C5  UNL     1       0.440   8.365  24.634  1.00  0.00     0.014 C 
HETATM    6  C6  UNL     1       0.834   7.150  25.330  1.00  0.00    -0.014 C 
HETATM    7  C7  UNL     1      -0.410   6.216  25.347  1.00  0.00     0.018 C 
HETATM    8  C8  UNL     1       1.951   6.299  24.863  1.00  0.00     0.012 C 
HETATM    9  C9  UNL     1       2.379   6.334  23.464  1.00  0.00     0.009 C 
HETATM   10  C10 UNL     1       3.282   7.394  23.037  1.00  0.00     0.026 C 
HETATM   11  C11 UNL     1       3.927   7.219  21.663  1.00  0.00     0.060 C 
HETATM   12  C12 UNL     1       4.777   6.031  21.501  1.00  0.00     0.018 C 
HETATM   13  C13 UNL     1       4.588   8.535  21.426  1.00  0.00     0.161 C 
HETATM   14  O2  UNL     1       4.882   8.786  20.271  1.00  0.00    -0.295 OA
HETATM   15  C14 UNL     1       4.927   9.572  22.416  1.00  0.00     0.210 C 
HETATM   16  C17 UNL     1       4.473   9.334  23.832  1.00  0.00     0.083 C 
HETATM   17  C18 UNL     1       3.340  10.204  24.204  1.00  0.00     0.156 C 
HETATM   18  C19 UNL     1       4.355   7.841  23.943  1.00  0.00     0.132 C 
HETATM   19  C20 UNL     1       0.991   7.453  26.832  1.00  0.00     0.182 C 
ENDROOT
BRANCH   1  20
HETATM   20  N1  UNL     1       2.913   7.952  28.212  1.00  0.00    -0.050 N 
HETATM   21  C1  UNL     1       2.658   6.594  28.562  1.00  0.00     0.270 C 
ATOM     22  H12 UNL     1       2.852   8.555  29.033  1.00  0.00     0.279 HD
ATOM     23  H11 UNL     1       3.897   8.087  27.977  1.00  0.00     0.279 HD
ENDBRANCH   1  20
BRANCH  19  24
HETATM   24  O7  UNL     1      -0.288   7.872  27.254  1.00  0.00    -0.390 OA
ATOM     25  H7  UNL     1      -0.535   8.714  26.889  1.00  0.00     0.210 HD
ENDBRANCH  19  24
BRANCH  17  26
HETATM   26  O5  UNL     1       2.561  10.662  23.099  1.00  0.00    -0.392 OA
ATOM     27  H5  UNL     1       2.344   9.922  22.545  1.00  0.00     0.210 HD
ENDBRANCH  17  26
BRANCH  15  28
HETATM   28  O3  UNL     1       6.367   9.569  22.442  1.00  0.00    -0.308 OA
BRANCH  28  29
HETATM   29  C15 UNL     1       7.126  10.408  23.205  1.00  0.00     0.255 C 
HETATM   30  C16 UNL     1       6.720  11.828  23.376  1.00  0.00     0.126 C 
HETATM   31  O4  UNL     1       8.161   9.940  23.747  1.00  0.00    -0.266 OA
ENDBRANCH  28  29
ENDBRANCH  15  28
BRANCH  18  32
HETATM   32  O6  UNL     1       5.634   7.408  23.448  1.00  0.00    -0.395 OA
ATOM     33  H6  UNL     1       5.517   6.794  22.733  1.00  0.00     0.210 HD
ENDBRANCH  18  32
TORSDOF 6
ENDMDL
