MODEL 1
REMARK VINA RESULT: -7.954090738      0.000      0.000
REMARK  5 active torsions:
REMARK  status: ('A' for Active; 'I' for Inactive)
REMARK    1  A    between atoms: O1_2  and  C2_3 
REMARK    2  A    between atoms: C2_3  and  C3_7 
REMARK    3  A    between atoms: N2_11  and  C7_12 
REMARK    4  A    between atoms: C7_12  and  C8_13 
REMARK    5  A    between atoms: C14_19  and  O2_20 
ROOT
HETATM    1  C8  UNL     1       2.103   8.984  23.736  1.00  0.00     0.137 C 
HETATM    2  C9  UNL     1       3.383   9.024  24.543  1.00  0.00     0.032 C 
HETATM    3  C10 UNL     1       4.312   7.988  24.024  1.00  0.00    -0.018 C 
HETATM    4  C11 UNL     1       5.077   7.452  25.233  1.00  0.00     0.011 C 
HETATM    5  C12 UNL     1       6.323   6.723  24.856  1.00  0.00     0.004 C 
HETATM    6  C13 UNL     1       7.309   7.511  24.072  1.00  0.00     0.048 C 
HETATM    7  C14 UNL     1       6.676   8.738  23.512  1.00  0.00     0.144 C 
HETATM    8  C15 UNL     1       7.329   9.180  22.236  1.00  0.00     0.252 C 
HETATM    9  O3  UNL     1       8.505   9.040  21.844  1.00  0.00    -0.270 OA
HETATM   10  N3  UNL     1       6.297   9.829  21.509  1.00  0.00    -0.358 N 
ATOM     11  H3  UNL     1       6.439  10.410  20.682  1.00  0.00     0.162 HD
HETATM   12  C16 UNL     1       4.993   9.540  22.123  1.00  0.00     0.131 C 
HETATM   13  C17 UNL     1       5.304   8.378  23.005  1.00  0.00     0.057 C 
HETATM   14  C18 UNL     1       3.505   6.803  23.492  1.00  0.00     0.150 C 
HETATM   15  S1  UNL     1       1.785   7.269  23.895  1.00  0.00     0.151 S 
HETATM   16  O4  UNL     1       1.657   6.779  25.306  1.00  0.00    -0.227 OA
HETATM   17  O5  UNL     1       0.831   6.697  22.938  1.00  0.00    -0.227 OA
ENDROOT
BRANCH   1  18
HETATM   18  C7  UNL     1       1.100   9.970  23.991  1.00  0.00     0.293 C 
BRANCH  18  19
HETATM   19  N2  UNL     1       1.072  11.251  23.360  1.00  0.00     0.102 N 
HETATM   20  C3  UNL     1      -0.316  11.707  23.404  1.00  0.00     0.296 C 
HETATM   21  C4  UNL     1      -0.331  13.196  23.338  1.00  0.00     0.046 C 
HETATM   22  C5  UNL     1       0.980  13.589  23.921  1.00  0.00     0.033 C 
HETATM   23  C6  UNL     1       1.690  12.278  24.193  1.00  0.00     0.273 C 
BRANCH  20  24
HETATM   24  C2  UNL     1      -1.097  11.260  24.547  1.00  0.00     0.145 C 
HETATM   25  N1  UNL     1      -2.194  10.586  24.361  1.00  0.00    -0.382 N 
ATOM     26  H12 UNL     1      -2.742  10.273  25.163  1.00  0.00     0.158 HD
ATOM     27  H11 UNL     1      -2.426  10.420  23.382  1.00  0.00     0.158 HD
BRANCH  24  28
HETATM   28  O1  UNL     1      -0.783  11.486  25.879  1.00  0.00    -0.343 OA
HETATM   29  C1  UNL     1      -1.051  10.551  26.903  1.00  0.00     0.211 C 
ENDBRANCH  24  28
ENDBRANCH  20  24
ENDBRANCH  18  19
ENDBRANCH   1  18
BRANCH   7  30
HETATM   30  O2  UNL     1       6.680   9.825  24.353  1.00  0.00    -0.380 OA
ATOM     31  H2  UNL     1       5.983   9.832  24.998  1.00  0.00     0.211 HD
ENDBRANCH   7  30
TORSDOF 5
ENDMDL
MODEL 2
REMARK VINA RESULT: -7.619869611      3.312      6.004
REMARK  5 active torsions:
REMARK  status: ('A' for Active; 'I' for Inactive)
REMARK    1  A    between atoms: O1_2  and  C2_3 
REMARK    2  A    between atoms: C2_3  and  C3_7 
REMARK    3  A    between atoms: N2_11  and  C7_12 
REMARK    4  A    between atoms: C7_12  and  C8_13 
REMARK    5  A    between atoms: C14_19  and  O2_20 
ROOT
HETATM    1  C8  UNL     1       3.303   7.239  23.226  1.00  0.00     0.137 C 
HETATM    2  C9  UNL     1       3.671   8.586  22.643  1.00  0.00     0.032 C 
HETATM    3  C10 UNL     1       4.127   9.477  23.739  1.00  0.00    -0.018 C 
HETATM    4  C11 UNL     1       3.654  10.883  23.375  1.00  0.00     0.011 C 
HETATM    5  C12 UNL     1       4.371  11.952  24.130  1.00  0.00     0.004 C 
HETATM    6  C13 UNL     1       5.847  11.967  23.965  1.00  0.00     0.048 C 
HETATM    7  C14 UNL     1       6.325  10.683  23.380  1.00  0.00     0.144 C 
HETATM    8  C15 UNL     1       7.725  10.355  23.804  1.00  0.00     0.252 C 
HETATM    9  O3  UNL     1       8.670  11.109  24.112  1.00  0.00    -0.270 OA
HETATM   10  N3  UNL     1       7.782   8.936  23.791  1.00  0.00    -0.358 N 
ATOM     11  H3  UNL     1       8.638   8.383  23.846  1.00  0.00     0.162 HD
HETATM   12  C16 UNL     1       6.425   8.381  23.684  1.00  0.00     0.131 C 
HETATM   13  C17 UNL     1       5.570   9.553  24.031  1.00  0.00     0.057 C 
HETATM   14  C18 UNL     1       3.387   9.117  25.028  1.00  0.00     0.150 C 
HETATM   15  S1  UNL     1       2.225   7.818  24.479  1.00  0.00     0.151 S 
HETATM   16  O4  UNL     1       1.065   8.631  23.988  1.00  0.00    -0.227 OA
HETATM   17  O5  UNL     1       1.922   6.872  25.560  1.00  0.00    -0.227 OA
ENDROOT
BRANCH   1  18
HETATM   18  C7  UNL     1       2.935   6.182  22.337  1.00  0.00     0.293 C 
BRANCH  18  19
HETATM   19  N2  UNL     1       3.472   4.860  22.414  1.00  0.00     0.102 N 
HETATM   20  C3  UNL     1       3.072   4.175  21.186  1.00  0.00     0.296 C 
HETATM   21  C4  UNL     1       4.044   3.079  20.914  1.00  0.00     0.046 C 
HETATM   22  C5  UNL     1       5.300   3.552  21.556  1.00  0.00     0.033 C 
HETATM   23  C6  UNL     1       4.921   4.854  22.234  1.00  0.00     0.273 C 
BRANCH  20  24
HETATM   24  C2  UNL     1       2.936   5.014  20.005  1.00  0.00     0.145 C 
HETATM   25  N1  UNL     1       1.753   5.329  19.565  1.00  0.00    -0.382 N 
ATOM     26  H12 UNL     1       1.659   5.917  18.736  1.00  0.00     0.158 HD
ATOM     27  H11 UNL     1       0.983   4.945  20.112  1.00  0.00     0.158 HD
BRANCH  24  28
HETATM   28  O1  UNL     1       3.984   5.538  19.261  1.00  0.00    -0.343 OA
HETATM   29  C1  UNL     1       3.801   6.152  18.002  1.00  0.00     0.211 C 
ENDBRANCH  24  28
ENDBRANCH  20  24
ENDBRANCH  18  19
ENDBRANCH   1  18
BRANCH   7  30
HETATM   30  O2  UNL     1       6.307  10.633  22.007  1.00  0.00    -0.380 OA
ATOM     31  H2  UNL     1       5.440  10.615  21.619  1.00  0.00     0.211 HD
ENDBRANCH   7  30
TORSDOF 5
ENDMDL
MODEL 3
REMARK VINA RESULT: -7.534172643      1.090      1.412
REMARK  5 active torsions:
REMARK  status: ('A' for Active; 'I' for Inactive)
REMARK    1  A    between atoms: O1_2  and  C2_3 
REMARK    2  A    between atoms: C2_3  and  C3_7 
REMARK    3  A    between atoms: N2_11  and  C7_12 
REMARK    4  A    between atoms: C7_12  and  C8_13 
REMARK    5  A    between atoms: C14_19  and  O2_20 
ROOT
HETATM    1  C8  UNL     1       2.486   8.991  24.098  1.00  0.00     0.137 C 
HETATM    2  C9  UNL     1       3.824   8.840  24.791  1.00  0.00     0.032 C 
HETATM    3  C10 UNL     1       4.645   7.856  24.042  1.00  0.00    -0.018 C 
HETATM    4  C11 UNL     1       5.465   7.100  25.085  1.00  0.00     0.011 C 
HETATM    5  C12 UNL     1       6.633   6.380  24.496  1.00  0.00     0.004 C 
HETATM    6  C13 UNL     1       7.602   7.234  23.762  1.00  0.00     0.048 C 
HETATM    7  C14 UNL     1       7.004   8.563  23.453  1.00  0.00     0.144 C 
HETATM    8  C15 UNL     1       7.585   9.168  22.209  1.00  0.00     0.252 C 
HETATM    9  O3  UNL     1       8.716   9.035  21.702  1.00  0.00    -0.270 OA
HETATM   10  N3  UNL     1       6.541   9.973  21.680  1.00  0.00    -0.358 N 
ATOM     11  H3  UNL     1       6.655  10.670  20.943  1.00  0.00     0.162 HD
HETATM   12  C16 UNL     1       5.273   9.654  22.351  1.00  0.00     0.131 C 
HETATM   13  C17 UNL     1       5.578   8.354  23.014  1.00  0.00     0.057 C 
HETATM   14  C18 UNL     1       3.729   6.811  23.404  1.00  0.00     0.150 C 
HETATM   15  S1  UNL     1       2.076   7.290  24.019  1.00  0.00     0.151 S 
HETATM   16  O4  UNL     1       2.027   6.589  25.343  1.00  0.00    -0.227 OA
HETATM   17  O5  UNL     1       1.019   6.923  23.069  1.00  0.00    -0.227 OA
ENDROOT
BRANCH   1  18
HETATM   18  C7  UNL     1       1.567   9.971  24.586  1.00  0.00     0.293 C 
BRANCH  18  19
HETATM   19  N2  UNL     1       0.401  10.387  23.871  1.00  0.00     0.102 N 
HETATM   20  C3  UNL     1      -0.748  10.005  24.689  1.00  0.00     0.296 C 
HETATM   21  C4  UNL     1      -1.893  10.895  24.346  1.00  0.00     0.046 C 
HETATM   22  C5  UNL     1      -1.241  12.145  23.873  1.00  0.00     0.033 C 
HETATM   23  C6  UNL     1       0.243  11.839  23.894  1.00  0.00     0.273 C 
BRANCH  20  24
HETATM   24  C2  UNL     1      -0.536  10.013  26.128  1.00  0.00     0.145 C 
HETATM   25  N1  UNL     1      -1.104  10.923  26.863  1.00  0.00    -0.382 N 
ATOM     26  H12 UNL     1      -0.955  10.928  27.873  1.00  0.00     0.158 HD
ATOM     27  H11 UNL     1      -1.679  11.586  26.344  1.00  0.00     0.158 HD
BRANCH  24  28
HETATM   28  O1  UNL     1       0.246   9.111  26.835  1.00  0.00    -0.343 OA
HETATM   29  C1  UNL     1      -0.218   8.420  27.977  1.00  0.00     0.211 C 
ENDBRANCH  24  28
ENDBRANCH  20  24
ENDBRANCH  18  19
ENDBRANCH   1  18
BRANCH   7  30
HETATM   30  O2  UNL     1       7.139   9.501  24.447  1.00  0.00    -0.380 OA
ATOM     31  H2  UNL     1       7.919  10.039  24.385  1.00  0.00     0.211 HD
ENDBRANCH   7  30
TORSDOF 5
ENDMDL
MODEL 4
REMARK VINA RESULT: -7.523346006      2.811      4.479
REMARK  5 active torsions:
REMARK  status: ('A' for Active; 'I' for Inactive)
REMARK    1  A    between atoms: O1_2  and  C2_3 
REMARK    2  A    between atoms: C2_3  and  C3_7 
REMARK    3  A    between atoms: N2_11  and  C7_12 
REMARK    4  A    between atoms: C7_12  and  C8_13 
REMARK    5  A    between atoms: C14_19  and  O2_20 
ROOT
HETATM    1  C8  UNL     1       1.761   8.848  24.637  1.00  0.00     0.137 C 
HETATM    2  C9  UNL     1       1.476   7.486  25.235  1.00  0.00     0.032 C 
HETATM    3  C10 UNL     1       2.736   6.932  25.790  1.00  0.00    -0.018 C 
HETATM    4  C11 UNL     1       2.679   5.423  25.562  1.00  0.00     0.011 C 
HETATM    5  C12 UNL     1       3.643   4.668  26.415  1.00  0.00     0.004 C 
HETATM    6  C13 UNL     1       3.484   4.860  27.879  1.00  0.00     0.048 C 
HETATM    7  C14 UNL     1       2.639   6.054  28.164  1.00  0.00     0.144 C 
HETATM    8  C15 UNL     1       2.983   6.689  29.479  1.00  0.00     0.252 C 
HETATM    9  O3  UNL     1       3.443   6.182  30.522  1.00  0.00    -0.270 OA
HETATM   10  N3  UNL     1       2.669   8.064  29.307  1.00  0.00    -0.358 N 
ATOM     11  H3  UNL     1       2.605   8.748  30.062  1.00  0.00     0.162 HD
HETATM   12  C16 UNL     1       2.449   8.354  27.884  1.00  0.00     0.131 C 
HETATM   13  C17 UNL     1       3.036   7.156  27.217  1.00  0.00     0.057 C 
HETATM   14  C18 UNL     1       3.920   7.428  24.959  1.00  0.00     0.150 C 
HETATM   15  S1  UNL     1       3.110   8.375  23.623  1.00  0.00     0.151 S 
HETATM   16  O4  UNL     1       2.803   7.298  22.626  1.00  0.00    -0.227 OA
HETATM   17  O5  UNL     1       3.965   9.463  23.136  1.00  0.00    -0.227 OA
ENDROOT
BRANCH   1  18
HETATM   18  C7  UNL     1       0.668   9.619  24.134  1.00  0.00     0.293 C 
BRANCH  18  19
HETATM   19  N2  UNL     1       0.825  10.879  23.477  1.00  0.00     0.102 N 
HETATM   20  C3  UNL     1      -0.485  11.527  23.501  1.00  0.00     0.296 C 
HETATM   21  C4  UNL     1      -0.287  13.002  23.405  1.00  0.00     0.046 C 
HETATM   22  C5  UNL     1       1.063  13.217  23.990  1.00  0.00     0.033 C 
HETATM   23  C6  UNL     1       1.579  11.824  24.295  1.00  0.00     0.273 C 
BRANCH  20  24
HETATM   24  C2  UNL     1      -1.326  11.220  24.648  1.00  0.00     0.145 C 
HETATM   25  N1  UNL     1      -2.486  10.658  24.469  1.00  0.00    -0.382 N 
ATOM     26  H12 UNL     1      -3.076  10.442  25.274  1.00  0.00     0.158 HD
ATOM     27  H11 UNL     1      -2.719  10.470  23.495  1.00  0.00     0.158 HD
BRANCH  24  28
HETATM   28  O1  UNL     1      -1.010  11.475  25.974  1.00  0.00    -0.343 OA
HETATM   29  C1  UNL     1      -1.034  10.479  26.976  1.00  0.00     0.211 C 
ENDBRANCH  24  28
ENDBRANCH  20  24
ENDBRANCH  18  19
ENDBRANCH   1  18
BRANCH   7  30
HETATM   30  O2  UNL     1       1.287   5.812  28.185  1.00  0.00    -0.380 OA
ATOM     31  H2  UNL     1       0.750   6.514  27.836  1.00  0.00     0.211 HD
ENDBRANCH   7  30
TORSDOF 5
ENDMDL
MODEL 5
REMARK VINA RESULT: -7.460049396      3.255      6.157
REMARK  5 active torsions:
REMARK  status: ('A' for Active; 'I' for Inactive)
REMARK    1  A    between atoms: O1_2  and  C2_3 
REMARK    2  A    between atoms: C2_3  and  C3_7 
REMARK    3  A    between atoms: N2_11  and  C7_12 
REMARK    4  A    between atoms: C7_12  and  C8_13 
REMARK    5  A    between atoms: C14_19  and  O2_20 
ROOT
HETATM    1  C8  UNL     1       4.806  10.216  24.113  1.00  0.00     0.137 C 
HETATM    2  C9  UNL     1       3.603   9.636  23.400  1.00  0.00     0.032 C 
HETATM    3  C10 UNL     1       3.524   8.183  23.694  1.00  0.00    -0.018 C 
HETATM    4  C11 UNL     1       2.987   7.517  22.429  1.00  0.00     0.011 C 
HETATM    5  C12 UNL     1       2.453   6.145  22.675  1.00  0.00     0.004 C 
HETATM    6  C13 UNL     1       1.356   6.059  23.673  1.00  0.00     0.048 C 
HETATM    7  C14 UNL     1       1.283   7.306  24.484  1.00  0.00     0.144 C 
HETATM    8  C15 UNL     1       0.736   7.055  25.858  1.00  0.00     0.252 C 
HETATM    9  O3  UNL     1      -0.067   6.189  26.259  1.00  0.00    -0.270 OA
HETATM   10  N3  UNL     1       1.340   8.050  26.672  1.00  0.00    -0.358 N 
ATOM     11  H3  UNL     1       1.048   8.286  27.621  1.00  0.00     0.162 HD
HETATM   12  C16 UNL     1       2.446   8.689  25.946  1.00  0.00     0.131 C 
HETATM   13  C17 UNL     1       2.686   7.737  24.823  1.00  0.00     0.057 C 
HETATM   14  C18 UNL     1       4.935   7.625  23.884  1.00  0.00     0.150 C 
HETATM   15  S1  UNL     1       5.995   9.070  23.526  1.00  0.00     0.151 S 
HETATM   16  O4  UNL     1       6.118   8.998  22.034  1.00  0.00    -0.227 OA
HETATM   17  O5  UNL     1       7.258   9.011  24.269  1.00  0.00    -0.227 OA
ENDROOT
BRANCH   1  18
HETATM   18  C7  UNL     1       5.022  11.628  24.059  1.00  0.00     0.293 C 
BRANCH  18  19
HETATM   19  N2  UNL     1       4.608  12.531  25.086  1.00  0.00     0.102 N 
HETATM   20  C3  UNL     1       5.828  13.049  25.702  1.00  0.00     0.296 C 
HETATM   21  C4  UNL     1       5.526  14.374  26.314  1.00  0.00     0.046 C 
HETATM   22  C5  UNL     1       4.395  14.892  25.498  1.00  0.00     0.033 C 
HETATM   23  C6  UNL     1       4.071  13.771  24.531  1.00  0.00     0.273 C 
BRANCH  20  24
HETATM   24  C2  UNL     1       6.983  13.166  24.826  1.00  0.00     0.145 C 
HETATM   25  N1  UNL     1       7.630  12.099  24.459  1.00  0.00    -0.382 N 
ATOM     26  H12 UNL     1       8.441  12.181  23.844  1.00  0.00     0.158 HD
ATOM     27  H11 UNL     1       7.255  11.228  24.833  1.00  0.00     0.158 HD
BRANCH  24  28
HETATM   28  O1  UNL     1       7.495  14.351  24.316  1.00  0.00    -0.343 OA
HETATM   29  C1  UNL     1       8.595  15.024  24.891  1.00  0.00     0.211 C 
ENDBRANCH  24  28
ENDBRANCH  20  24
ENDBRANCH  18  19
ENDBRANCH   1  18
BRANCH   7  30
HETATM   30  O2  UNL     1       0.521   8.309  23.934  1.00  0.00    -0.380 OA
ATOM     31  H2  UNL     1       0.259   8.990  24.541  1.00  0.00     0.211 HD
ENDBRANCH   7  30
TORSDOF 5
ENDMDL
