MODEL 1
REMARK VINA RESULT: -8.053216351      0.000      0.000
REMARK  6 active torsions:
REMARK  status: ('A' for Active; 'I' for Inactive)
REMARK    1  A    between atoms: C2_2  and  O2_4 
REMARK    2  A    between atoms: O2_4  and  C3_5 
REMARK    3  A    between atoms: C4_6  and  O3_7 
REMARK    4  A    between atoms: C15_19  and  O4_20 
REMARK    5  A    between atoms: O4_20  and  C16_21 
REMARK    6  A    between atoms: C19_25  and  O6_26 
ROOT
HETATM    1  C3  UNL     1       0.650   9.553  25.276  1.00  0.00     0.191 C 
HETATM    2  C4  UNL     1       0.492   8.363  26.142  1.00  0.00     0.158 C 
HETATM    3  C5  UNL     1       1.734   7.632  26.497  1.00  0.00    -0.014 C 
HETATM    4  C6  UNL     1       1.345   6.232  26.928  1.00  0.00     0.018 C 
HETATM    5  C7  UNL     1       2.272   8.278  27.791  1.00  0.00     0.018 C 
HETATM    6  C8  UNL     1       2.795   7.636  25.418  1.00  0.00     0.017 C 
HETATM    7  C9  UNL     1       3.705   6.449  25.454  1.00  0.00     0.042 C 
HETATM    8  C10 UNL     1       3.404   5.368  24.516  1.00  0.00    -0.023 C 
HETATM    9  C11 UNL     1       2.840   5.426  23.324  1.00  0.00    -0.025 C 
HETATM   10  C12 UNL     1       2.356   6.623  22.612  1.00  0.00     0.018 C 
HETATM   11  C13 UNL     1       1.219   7.228  23.468  1.00  0.00     0.022 C 
HETATM   12  C14 UNL     1       2.261   8.047  24.119  1.00  0.00     0.003 C 
HETATM   13  C15 UNL     1       1.761   9.491  24.271  1.00  0.00     0.173 C 
HETATM   14  C18 UNL     1       3.105   7.895  22.926  1.00  0.00     0.064 C 
HETATM   15  C19 UNL     1       4.554   7.899  23.035  1.00  0.00     0.361 C 
HETATM   16  N1  UNL     1       5.108   8.137  24.347  1.00  0.00     0.113 N 
HETATM   17  C20 UNL     1       6.511   8.498  24.142  1.00  0.00     0.313 C 
HETATM   18  C21 UNL     1       5.134   6.905  25.108  1.00  0.00     0.284 C 
ENDROOT
BRANCH   1  19
HETATM   19  O2  UNL     1      -0.561   9.754  24.553  1.00  0.00    -0.311 OA
BRANCH  19  20
HETATM   20  C2  UNL     1      -1.397  10.816  24.734  1.00  0.00     0.255 C 
HETATM   21  C1  UNL     1      -1.718  11.715  23.610  1.00  0.00     0.126 C 
HETATM   22  O1  UNL     1      -1.894  11.029  25.852  1.00  0.00    -0.266 OA
ENDBRANCH  19  20
ENDBRANCH   1  19
BRANCH   2  23
HETATM   23  O3  UNL     1      -0.103   8.810  27.351  1.00  0.00    -0.392 OA
ATOM     24  H3  UNL     1       0.392   8.420  28.061  1.00  0.00     0.210 HD
ENDBRANCH   2  23
BRANCH  13  25
HETATM   25  O4  UNL     1       2.776  10.356  24.661  1.00  0.00    -0.313 OA
BRANCH  25  26
HETATM   26  C16 UNL     1       3.098  11.442  23.863  1.00  0.00     0.255 C 
HETATM   27  C17 UNL     1       4.283  12.268  24.214  1.00  0.00     0.126 C 
HETATM   28  O5  UNL     1       2.382  11.721  22.844  1.00  0.00    -0.266 OA
ENDBRANCH  25  26
ENDBRANCH  13  25
BRANCH  15  29
HETATM   29  O6  UNL     1       5.226   6.787  22.513  1.00  0.00    -0.367 OA
ATOM     30  H6  UNL     1       6.117   6.930  22.213  1.00  0.00     0.212 HD
ENDBRANCH  15  29
TORSDOF 6
ENDMDL
MODEL 2
REMARK VINA RESULT: -7.348680771      1.932      3.537
REMARK  6 active torsions:
REMARK  status: ('A' for Active; 'I' for Inactive)
REMARK    1  A    between atoms: C2_2  and  O2_4 
REMARK    2  A    between atoms: O2_4  and  C3_5 
REMARK    3  A    between atoms: C4_6  and  O3_7 
REMARK    4  A    between atoms: C15_19  and  O4_20 
REMARK    5  A    between atoms: O4_20  and  C16_21 
REMARK    6  A    between atoms: C19_25  and  O6_26 
ROOT
HETATM    1  C3  UNL     1       1.209   8.248  25.796  1.00  0.00     0.191 C 
HETATM    2  C4  UNL     1       0.720   7.608  24.554  1.00  0.00     0.158 C 
HETATM    3  C5  UNL     1       1.654   6.673  23.878  1.00  0.00    -0.014 C 
HETATM    4  C6  UNL     1       1.210   6.527  22.437  1.00  0.00     0.018 C 
HETATM    5  C7  UNL     1       1.398   5.277  24.485  1.00  0.00     0.018 C 
HETATM    6  C8  UNL     1       3.116   7.047  24.003  1.00  0.00     0.017 C 
HETATM    7  C9  UNL     1       3.966   6.564  22.869  1.00  0.00     0.042 C 
HETATM    8  C10 UNL     1       4.276   7.540  21.825  1.00  0.00    -0.023 C 
HETATM    9  C11 UNL     1       4.404   8.851  21.914  1.00  0.00    -0.025 C 
HETATM   10  C12 UNL     1       4.265   9.691  23.118  1.00  0.00     0.018 C 
HETATM   11  C13 UNL     1       2.806   9.538  23.609  1.00  0.00     0.022 C 
HETATM   12  C14 UNL     1       3.297   8.428  24.450  1.00  0.00     0.003 C 
HETATM   13  C15 UNL     1       2.680   8.534  25.853  1.00  0.00     0.173 C 
HETATM   14  C18 UNL     1       4.644   9.015  24.412  1.00  0.00     0.064 C 
HETATM   15  C19 UNL     1       5.824   8.172  24.495  1.00  0.00     0.361 C 
HETATM   16  N1  UNL     1       5.604   6.759  24.693  1.00  0.00     0.113 N 
HETATM   17  C20 UNL     1       6.879   6.203  25.146  1.00  0.00     0.313 C 
HETATM   18  C21 UNL     1       5.330   6.114  23.426  1.00  0.00     0.284 C 
ENDROOT
BRANCH   1  19
HETATM   19  O2  UNL     1       0.531   9.489  25.965  1.00  0.00    -0.311 OA
BRANCH  19  20
HETATM   20  C2  UNL     1      -0.420   9.724  26.913  1.00  0.00     0.255 C 
HETATM   21  C1  UNL     1      -0.671   8.738  27.982  1.00  0.00     0.126 C 
HETATM   22  O1  UNL     1      -1.081  10.774  26.880  1.00  0.00    -0.266 OA
ENDBRANCH  19  20
ENDBRANCH   1  19
BRANCH   2  23
HETATM   23  O3  UNL     1      -0.444   6.874  24.900  1.00  0.00    -0.392 OA
ATOM     24  H3  UNL     1      -0.789   6.509  24.094  1.00  0.00     0.210 HD
ENDBRANCH   2  23
BRANCH  13  25
HETATM   25  O4  UNL     1       3.278   7.661  26.753  1.00  0.00    -0.313 OA
BRANCH  25  26
HETATM   26  C16 UNL     1       2.659   7.392  27.963  1.00  0.00     0.255 C 
HETATM   27  C17 UNL     1       1.969   6.087  28.145  1.00  0.00     0.126 C 
HETATM   28  O5  UNL     1       2.686   8.256  28.901  1.00  0.00    -0.266 OA
ENDBRANCH  25  26
ENDBRANCH  13  25
BRANCH  15  29
HETATM   29  O6  UNL     1       6.753   8.289  23.453  1.00  0.00    -0.367 OA
ATOM     30  H6  UNL     1       7.385   8.995  23.524  1.00  0.00     0.212 HD
ENDBRANCH  15  29
TORSDOF 6
ENDMDL
MODEL 3
REMARK VINA RESULT: -7.135802400      1.655      5.211
REMARK  6 active torsions:
REMARK  status: ('A' for Active; 'I' for Inactive)
REMARK    1  A    between atoms: C2_2  and  O2_4 
REMARK    2  A    between atoms: O2_4  and  C3_5 
REMARK    3  A    between atoms: C4_6  and  O3_7 
REMARK    4  A    between atoms: C15_19  and  O4_20 
REMARK    5  A    between atoms: O4_20  and  C16_21 
REMARK    6  A    between atoms: C19_25  and  O6_26 
ROOT
HETATM    1  C3  UNL     1       4.705   7.943  22.971  1.00  0.00     0.191 C 
HETATM    2  C4  UNL     1       4.328   6.512  22.985  1.00  0.00     0.158 C 
HETATM    3  C5  UNL     1       2.888   6.207  23.179  1.00  0.00    -0.014 C 
HETATM    4  C6  UNL     1       2.773   4.775  23.658  1.00  0.00     0.018 C 
HETATM    5  C7  UNL     1       2.250   6.177  21.774  1.00  0.00     0.018 C 
HETATM    6  C8  UNL     1       2.156   7.183  24.076  1.00  0.00     0.017 C 
HETATM    7  C9  UNL     1       0.980   6.591  24.788  1.00  0.00     0.042 C 
HETATM    8  C10 UNL     1       1.196   6.183  26.175  1.00  0.00    -0.023 C 
HETATM    9  C11 UNL     1       2.023   6.680  27.077  1.00  0.00    -0.025 C 
HETATM   10  C12 UNL     1       2.965   7.803  26.914  1.00  0.00     0.018 C 
HETATM   11  C13 UNL     1       3.984   7.384  25.829  1.00  0.00     0.022 C 
HETATM   12  C14 UNL     1       3.075   8.016  24.852  1.00  0.00     0.003 C 
HETATM   13  C15 UNL     1       3.891   8.845  23.851  1.00  0.00     0.173 C 
HETATM   14  C18 UNL     1       2.531   8.858  25.927  1.00  0.00     0.064 C 
HETATM   15  C19 UNL     1       1.153   9.319  25.885  1.00  0.00     0.361 C 
HETATM   16  N1  UNL     1       0.386   8.975  24.712  1.00  0.00     0.113 N 
HETATM   17  C20 UNL     1      -0.778   9.862  24.706  1.00  0.00     0.313 C 
HETATM   18  C21 UNL     1      -0.149   7.636  24.840  1.00  0.00     0.284 C 
ENDROOT
BRANCH   1  19
HETATM   19  O2  UNL     1       6.062   8.060  23.389  1.00  0.00    -0.311 OA
BRANCH  19  20
HETATM   20  C2  UNL     1       6.939   8.984  22.905  1.00  0.00     0.255 C 
HETATM   21  C1  UNL     1       6.688   9.649  21.612  1.00  0.00     0.126 C 
HETATM   22  O1  UNL     1       7.957   9.271  23.555  1.00  0.00    -0.266 OA
ENDBRANCH  19  20
ENDBRANCH   1  19
BRANCH   2  23
HETATM   23  O3  UNL     1       4.714   5.973  21.729  1.00  0.00    -0.392 OA
ATOM     24  H3  UNL     1       4.242   6.459  21.064  1.00  0.00     0.210 HD
ENDBRANCH   2  23
BRANCH  13  25
HETATM   25  O4  UNL     1       3.082   9.646  23.054  1.00  0.00    -0.313 OA
BRANCH  25  26
HETATM   26  C16 UNL     1       3.079  11.020  23.239  1.00  0.00     0.255 C 
HETATM   27  C17 UNL     1       4.184  11.644  24.014  1.00  0.00     0.126 C 
HETATM   28  O5  UNL     1       2.139  11.729  22.748  1.00  0.00    -0.266 OA
ENDBRANCH  25  26
ENDBRANCH  13  25
BRANCH  15  29
HETATM   29  O6  UNL     1       0.353   9.005  26.991  1.00  0.00    -0.367 OA
ATOM     30  H6  UNL     1      -0.416   9.546  27.126  1.00  0.00     0.212 HD
ENDBRANCH  15  29
TORSDOF 6
ENDMDL
MODEL 4
REMARK VINA RESULT: -6.902663220      1.719      5.418
REMARK  6 active torsions:
REMARK  status: ('A' for Active; 'I' for Inactive)
REMARK    1  A    between atoms: C2_2  and  O2_4 
REMARK    2  A    between atoms: O2_4  and  C3_5 
REMARK    3  A    between atoms: C4_6  and  O3_7 
REMARK    4  A    between atoms: C15_19  and  O4_20 
REMARK    5  A    between atoms: O4_20  and  C16_21 
REMARK    6  A    between atoms: C19_25  and  O6_26 
ROOT
HETATM    1  C3  UNL     1       4.845   7.549  23.976  1.00  0.00     0.191 C 
HETATM    2  C4  UNL     1       4.287   6.180  23.912  1.00  0.00     0.158 C 
HETATM    3  C5  UNL     1       2.812   6.070  23.787  1.00  0.00    -0.014 C 
HETATM    4  C6  UNL     1       2.406   4.681  24.235  1.00  0.00     0.018 C 
HETATM    5  C7  UNL     1       2.495   6.076  22.276  1.00  0.00     0.018 C 
HETATM    6  C8  UNL     1       2.039   7.162  24.497  1.00  0.00     0.017 C 
HETATM    7  C9  UNL     1       0.669   6.750  24.935  1.00  0.00     0.042 C 
HETATM    8  C10 UNL     1       0.522   6.364  26.338  1.00  0.00    -0.023 C 
HETATM    9  C11 UNL     1       1.192   6.781  27.397  1.00  0.00    -0.025 C 
HETATM   10  C12 UNL     1       2.287   7.767  27.440  1.00  0.00     0.018 C 
HETATM   11  C13 UNL     1       3.453   7.183  26.608  1.00  0.00     0.022 C 
HETATM   12  C14 UNL     1       2.869   7.895  25.452  1.00  0.00     0.003 C 
HETATM   13  C15 UNL     1       3.987   8.578  24.651  1.00  0.00     0.173 C 
HETATM   14  C18 UNL     1       2.222   8.836  26.377  1.00  0.00     0.064 C 
HETATM   15  C19 UNL     1       0.961   9.468  26.032  1.00  0.00     0.361 C 
HETATM   16  N1  UNL     1       0.428   9.187  24.720  1.00  0.00     0.113 N 
HETATM   17  C20 UNL     1      -0.578  10.216  24.456  1.00  0.00     0.313 C 
HETATM   18  C21 UNL     1      -0.296   7.933  24.734  1.00  0.00     0.284 C 
ENDROOT
BRANCH   1  19
HETATM   19  O2  UNL     1       6.082   7.504  24.681  1.00  0.00    -0.311 OA
BRANCH  19  20
HETATM   20  C2  UNL     1       7.286   7.850  24.144  1.00  0.00     0.255 C 
HETATM   21  C1  UNL     1       8.290   6.817  23.827  1.00  0.00     0.126 C 
HETATM   22  O1  UNL     1       7.542   9.044  23.918  1.00  0.00    -0.266 OA
ENDBRANCH  19  20
ENDBRANCH   1  19
BRANCH   2  23
HETATM   23  O3  UNL     1       4.860   5.554  22.774  1.00  0.00    -0.392 OA
ATOM     24  H3  UNL     1       4.302   4.819  22.554  1.00  0.00     0.210 HD
ENDBRANCH   2  23
BRANCH  13  25
HETATM   25  O4  UNL     1       3.484   9.450  23.692  1.00  0.00    -0.313 OA
BRANCH  25  26
HETATM   26  C16 UNL     1       3.804  10.796  23.753  1.00  0.00     0.255 C 
HETATM   27  C17 UNL     1       2.732  11.803  23.536  1.00  0.00     0.126 C 
HETATM   28  O5  UNL     1       5.004  11.157  23.994  1.00  0.00    -0.266 OA
ENDBRANCH  25  26
ENDBRANCH  13  25
BRANCH  15  29
HETATM   29  O6  UNL     1      -0.095   9.298  26.937  1.00  0.00    -0.367 OA
ATOM     30  H6  UNL     1      -0.962   9.188  26.563  1.00  0.00     0.212 HD
ENDBRANCH  15  29
TORSDOF 6
ENDMDL
MODEL 5
REMARK VINA RESULT: -6.865271652      1.729      2.361
REMARK  6 active torsions:
REMARK  status: ('A' for Active; 'I' for Inactive)
REMARK    1  A    between atoms: C2_2  and  O2_4 
REMARK    2  A    between atoms: O2_4  and  C3_5 
REMARK    3  A    between atoms: C4_6  and  O3_7 
REMARK    4  A    between atoms: C15_19  and  O4_20 
REMARK    5  A    between atoms: O4_20  and  C16_21 
REMARK    6  A    between atoms: C19_25  and  O6_26 
ROOT
HETATM    1  C3  UNL     1       2.692  10.119  24.256  1.00  0.00     0.191 C 
HETATM    2  C4  UNL     1       1.793   9.122  24.877  1.00  0.00     0.158 C 
HETATM    3  C5  UNL     1       2.444   7.986  25.577  1.00  0.00    -0.014 C 
HETATM    4  C6  UNL     1       1.432   6.864  25.691  1.00  0.00     0.018 C 
HETATM    5  C7  UNL     1       2.663   8.433  27.037  1.00  0.00     0.018 C 
HETATM    6  C8  UNL     1       3.750   7.533  24.957  1.00  0.00     0.017 C 
HETATM    7  C9  UNL     1       4.067   6.090  25.193  1.00  0.00     0.042 C 
HETATM    8  C10 UNL     1       3.757   5.167  24.102  1.00  0.00    -0.023 C 
HETATM    9  C11 UNL     1       3.741   5.384  22.800  1.00  0.00    -0.025 C 
HETATM   10  C12 UNL     1       4.040   6.642  22.091  1.00  0.00     0.018 C 
HETATM   11  C13 UNL     1       2.980   7.676  22.540  1.00  0.00     0.022 C 
HETATM   12  C14 UNL     1       3.930   8.059  23.604  1.00  0.00     0.003 C 
HETATM   13  C15 UNL     1       3.987   9.589  23.716  1.00  0.00     0.173 C 
HETATM   14  C18 UNL     1       5.034   7.541  22.784  1.00  0.00     0.064 C 
HETATM   15  C19 UNL     1       6.228   6.993  23.406  1.00  0.00     0.361 C 
HETATM   16  N1  UNL     1       6.301   7.057  24.846  1.00  0.00     0.113 N 
HETATM   17  C20 UNL     1       7.705   6.842  25.197  1.00  0.00     0.313 C 
HETATM   18  C21 UNL     1       5.581   5.945  25.432  1.00  0.00     0.284 C 
ENDROOT
BRANCH   1  19
HETATM   19  O2  UNL     1       2.005  10.738  23.172  1.00  0.00    -0.311 OA
BRANCH  19  20
HETATM   20  C2  UNL     1       1.634  12.049  23.145  1.00  0.00     0.255 C 
HETATM   21  C1  UNL     1       2.168  12.999  24.139  1.00  0.00     0.126 C 
HETATM   22  O1  UNL     1       0.841  12.450  22.278  1.00  0.00    -0.266 OA
ENDBRANCH  19  20
ENDBRANCH   1  19
BRANCH   2  23
HETATM   23  O3  UNL     1       1.005   9.816  25.833  1.00  0.00    -0.392 OA
ATOM     24  H3  UNL     1       1.571  10.461  26.239  1.00  0.00     0.210 HD
ENDBRANCH   2  23
BRANCH  13  25
HETATM   25  O4  UNL     1       5.028  10.014  24.533  1.00  0.00    -0.313 OA
BRANCH  25  26
HETATM   26  C16 UNL     1       5.906  10.986  24.078  1.00  0.00     0.255 C 
HETATM   27  C17 UNL     1       7.252  10.574  23.602  1.00  0.00     0.126 C 
HETATM   28  O5  UNL     1       5.554  12.212  24.071  1.00  0.00    -0.266 OA
ENDBRANCH  25  26
ENDBRANCH  13  25
BRANCH  15  29
HETATM   29  O6  UNL     1       6.578   5.685  23.046  1.00  0.00    -0.367 OA
ATOM     30  H6  UNL     1       6.035   4.988  23.395  1.00  0.00     0.212 HD
ENDBRANCH  15  29
TORSDOF 6
ENDMDL
