MODEL 1
REMARK VINA RESULT: -7.519352810      0.000      0.000
REMARK  5 active torsions:
REMARK  status: ('A' for Active; 'I' for Inactive)
REMARK    1  A    between atoms: C6_7  and  O2_8 
REMARK    2  A    between atoms: O2_8  and  C7_9 
REMARK    3  A    between atoms: C9_13  and  C10_14 
REMARK    4  A    between atoms: C10_14  and  O4_15 
REMARK    5  A    between atoms: C15_21  and  O5_22 
ROOT
HETATM    1  C1  UNL     1       2.817   7.633  25.552  1.00  0.00     0.046 C 
HETATM    2  C2  UNL     1       2.798   8.063  24.136  1.00  0.00     0.060 C 
HETATM    3  C3  UNL     1       1.735   7.232  23.421  1.00  0.00     0.046 C 
HETATM    4  O1  UNL     1       2.324   9.405  24.034  1.00  0.00    -0.375 OA
HETATM    5  C4  UNL     1       3.531  10.028  23.757  1.00  0.00     0.129 C 
HETATM    6  C5  UNL     1       3.735  11.421  23.561  1.00  0.00     0.065 C 
HETATM    7  C6  UNL     1       5.130  11.752  24.076  1.00  0.00     0.136 C 
HETATM    8  C8  UNL     1       6.300  11.256  23.402  1.00  0.00     0.044 C 
HETATM    9  C9  UNL     1       6.672   9.846  23.246  1.00  0.00    -0.014 C 
HETATM   10  C11 UNL     1       6.306   9.282  21.860  1.00  0.00     0.012 C 
HETATM   11  C12 UNL     1       4.880   9.633  21.631  1.00  0.00     0.009 C 
HETATM   12  C13 UNL     1       3.919   9.201  22.591  1.00  0.00     0.024 C 
HETATM   13  C14 UNL     1       4.139   7.974  23.417  1.00  0.00     0.055 C 
HETATM   14  C15 UNL     1       5.329   7.892  24.242  1.00  0.00     0.126 C 
HETATM   15  C16 UNL     1       6.415   8.881  24.318  1.00  0.00     0.044 C 
ENDROOT
BRANCH   7  16
HETATM   16  O2  UNL     1       5.183  13.189  24.052  1.00  0.00    -0.303 OA
BRANCH  16  17
HETATM   17  C7  UNL     1       6.212  13.923  24.563  1.00  0.00     0.358 C 
HETATM   18  O3  UNL     1       7.372  13.447  24.557  1.00  0.00    -0.245 OA
HETATM   19 CL1  UNL     1       5.865  15.518  25.214  1.00  0.00    -0.012 Cl
ENDBRANCH  16  17
ENDBRANCH   7  16
BRANCH   9  20
HETATM   20  C10 UNL     1       8.224   9.872  23.059  1.00  0.00     0.173 C 
BRANCH  20  21
HETATM   21  O4  UNL     1       8.676  10.814  23.955  1.00  0.00    -0.400 OA
ATOM     22  H4  UNL     1       9.612  10.872  23.801  1.00  0.00     0.209 HD
ENDBRANCH  20  21
ENDBRANCH   9  20
BRANCH  14  23
HETATM   23  O5  UNL     1       5.894   6.604  23.974  1.00  0.00    -0.395 OA
ATOM     24  H5  UNL     1       6.323   6.683  23.130  1.00  0.00     0.210 HD
ENDBRANCH  14  23
TORSDOF 5
ENDMDL
MODEL 2
REMARK VINA RESULT: -7.249807955      2.866      5.544
REMARK  5 active torsions:
REMARK  status: ('A' for Active; 'I' for Inactive)
REMARK    1  A    between atoms: C6_7  and  O2_8 
REMARK    2  A    between atoms: O2_8  and  C7_9 
REMARK    3  A    between atoms: C9_13  and  C10_14 
REMARK    4  A    between atoms: C10_14  and  O4_15 
REMARK    5  A    between atoms: C15_21  and  O5_22 
ROOT
HETATM    1  C1  UNL     1       4.890   9.100  21.544  1.00  0.00     0.046 C 
HETATM    2  C2  UNL     1       4.856   9.531  22.959  1.00  0.00     0.060 C 
HETATM    3  C3  UNL     1       6.299   9.749  23.407  1.00  0.00     0.046 C 
HETATM    4  O1  UNL     1       4.254  10.820  23.068  1.00  0.00    -0.375 OA
HETATM    5  C4  UNL     1       3.037  10.434  23.606  1.00  0.00     0.129 C 
HETATM    6  C5  UNL     1       1.950  11.289  23.935  1.00  0.00     0.065 C 
HETATM    7  C6  UNL     1       0.667  10.501  23.710  1.00  0.00     0.136 C 
HETATM    8  C8  UNL     1       0.334   9.382  24.549  1.00  0.00     0.044 C 
HETATM    9  C9  UNL     1       1.099   8.136  24.671  1.00  0.00    -0.014 C 
HETATM   10  C11 UNL     1       1.997   8.106  25.922  1.00  0.00     0.012 C 
HETATM   11  C12 UNL     1       2.771   9.376  25.910  1.00  0.00     0.009 C 
HETATM   12  C13 UNL     1       3.563   9.670  24.762  1.00  0.00     0.024 C 
HETATM   13  C14 UNL     1       4.126   8.582  23.904  1.00  0.00     0.055 C 
HETATM   14  C15 UNL     1       3.219   7.621  23.308  1.00  0.00     0.126 C 
HETATM   15  C16 UNL     1       1.763   7.549  23.504  1.00  0.00     0.044 C 
ENDROOT
BRANCH   7  16
HETATM   16  O2  UNL     1      -0.378  11.480  23.846  1.00  0.00    -0.303 OA
BRANCH  16  17
HETATM   17  C7  UNL     1      -0.977  12.107  22.794  1.00  0.00     0.358 C 
HETATM   18  O3  UNL     1      -2.199  11.923  22.581  1.00  0.00    -0.245 OA
HETATM   19 CL1  UNL     1      -0.003  13.154  21.773  1.00  0.00    -0.012 Cl
ENDBRANCH  16  17
ENDBRANCH   7  16
BRANCH   9  20
HETATM   20  C10 UNL     1       0.049   7.079  25.141  1.00  0.00     0.173 C 
BRANCH  20  21
HETATM   21  O4  UNL     1       0.447   6.717  26.408  1.00  0.00    -0.400 OA
ATOM     22  H4  UNL     1       0.183   5.809  26.499  1.00  0.00     0.209 HD
ENDBRANCH  20  21
ENDBRANCH   9  20
BRANCH  14  23
HETATM   23  O5  UNL     1       3.786   6.335  23.582  1.00  0.00    -0.395 OA
ATOM     24  H5  UNL     1       3.748   5.858  22.761  1.00  0.00     0.210 HD
ENDBRANCH  14  23
TORSDOF 5
ENDMDL
MODEL 3
REMARK VINA RESULT: -7.225213650      2.844      5.933
REMARK  5 active torsions:
REMARK  status: ('A' for Active; 'I' for Inactive)
REMARK    1  A    between atoms: C6_7  and  O2_8 
REMARK    2  A    between atoms: O2_8  and  C7_9 
REMARK    3  A    between atoms: C9_13  and  C10_14 
REMARK    4  A    between atoms: C10_14  and  O4_15 
REMARK    5  A    between atoms: C15_21  and  O5_22 
ROOT
HETATM    1  C1  UNL     1       5.823  11.047  23.647  1.00  0.00     0.046 C 
HETATM    2  C2  UNL     1       5.374   9.782  23.024  1.00  0.00     0.060 C 
HETATM    3  C3  UNL     1       6.008   9.707  21.636  1.00  0.00     0.046 C 
HETATM    4  O1  UNL     1       5.922   8.665  23.723  1.00  0.00    -0.375 OA
HETATM    5  C4  UNL     1       4.773   8.248  24.375  1.00  0.00     0.129 C 
HETATM    6  C5  UNL     1       4.664   7.153  25.274  1.00  0.00     0.065 C 
HETATM    7  C6  UNL     1       3.596   7.511  26.300  1.00  0.00     0.136 C 
HETATM    8  C8  UNL     1       2.215   7.624  25.914  1.00  0.00     0.044 C 
HETATM    9  C9  UNL     1       1.660   8.597  24.968  1.00  0.00    -0.014 C 
HETATM   10  C11 UNL     1       1.435   8.004  23.564  1.00  0.00     0.012 C 
HETATM   11  C12 UNL     1       2.710   7.342  23.182  1.00  0.00     0.009 C 
HETATM   12  C13 UNL     1       3.900   8.126  23.183  1.00  0.00     0.024 C 
HETATM   13  C14 UNL     1       3.862   9.603  22.946  1.00  0.00     0.055 C 
HETATM   14  C15 UNL     1       3.051  10.429  23.818  1.00  0.00     0.126 C 
HETATM   15  C16 UNL     1       2.181   9.965  24.910  1.00  0.00     0.044 C 
ENDROOT
BRANCH   7  16
HETATM   16  O2  UNL     1       3.694   6.474  27.290  1.00  0.00    -0.303 OA
BRANCH  16  17
HETATM   17  C7  UNL     1       3.398   6.647  28.610  1.00  0.00     0.358 C 
HETATM   18  O3  UNL     1       3.114   5.650  29.314  1.00  0.00    -0.245 OA
HETATM   19 CL1  UNL     1       3.425   8.275  29.271  1.00  0.00    -0.012 Cl
ENDBRANCH  16  17
ENDBRANCH   7  16
BRANCH   9  20
HETATM   20  C10 UNL     1       0.159   8.730  25.383  1.00  0.00     0.173 C 
BRANCH  20  21
HETATM   21  O4  UNL     1      -0.407   9.542  24.426  1.00  0.00    -0.400 OA
ATOM     22  H4  UNL     1      -1.326   9.594  24.659  1.00  0.00     0.209 HD
ENDBRANCH  20  21
ENDBRANCH   9  20
BRANCH  14  23
HETATM   23  O5  UNL     1       2.290  11.275  22.948  1.00  0.00    -0.395 OA
ATOM     24  H5  UNL     1       2.907  11.914  22.609  1.00  0.00     0.210 HD
ENDBRANCH  14  23
TORSDOF 5
ENDMDL
MODEL 4
REMARK VINA RESULT: -7.167796000      2.490      3.589
REMARK  5 active torsions:
REMARK  status: ('A' for Active; 'I' for Inactive)
REMARK    1  A    between atoms: C6_7  and  O2_8 
REMARK    2  A    between atoms: O2_8  and  C7_9 
REMARK    3  A    between atoms: C9_13  and  C10_14 
REMARK    4  A    between atoms: C10_14  and  O4_15 
REMARK    5  A    between atoms: C15_21  and  O5_22 
ROOT
HETATM    1  C1  UNL     1       2.318   7.860  28.372  1.00  0.00     0.046 C 
HETATM    2  C2  UNL     1       1.359   7.989  27.252  1.00  0.00     0.060 C 
HETATM    3  C3  UNL     1      -0.012   7.566  27.773  1.00  0.00     0.046 C 
HETATM    4  O1  UNL     1       1.195   9.362  26.899  1.00  0.00    -0.375 OA
HETATM    5  C4  UNL     1       1.914   9.356  25.714  1.00  0.00     0.129 C 
HETATM    6  C5  UNL     1       2.146  10.471  24.864  1.00  0.00     0.065 C 
HETATM    7  C6  UNL     1       3.512  10.274  24.220  1.00  0.00     0.136 C 
HETATM    8  C8  UNL     1       3.732   9.218  23.269  1.00  0.00     0.044 C 
HETATM    9  C9  UNL     1       3.631   7.779  23.540  1.00  0.00    -0.014 C 
HETATM   10  C11 UNL     1       2.291   7.176  23.075  1.00  0.00     0.012 C 
HETATM   11  C12 UNL     1       1.225   8.046  23.639  1.00  0.00     0.009 C 
HETATM   12  C13 UNL     1       1.195   8.243  25.050  1.00  0.00     0.024 C 
HETATM   13  C14 UNL     1       1.731   7.213  25.993  1.00  0.00     0.055 C 
HETATM   14  C15 UNL     1       3.111   6.792  25.857  1.00  0.00     0.126 C 
HETATM   15  C16 UNL     1       4.065   7.228  24.826  1.00  0.00     0.044 C 
ENDROOT
BRANCH   7  16
HETATM   16  O2  UNL     1       3.775  11.524  23.558  1.00  0.00    -0.303 OA
BRANCH  16  17
HETATM   17  C7  UNL     1       4.589  12.496  24.059  1.00  0.00     0.358 C 
HETATM   18  O3  UNL     1       4.081  13.517  24.581  1.00  0.00    -0.245 OA
HETATM   19 CL1  UNL     1       6.328  12.275  23.950  1.00  0.00    -0.012 Cl
ENDBRANCH  16  17
ENDBRANCH   7  16
BRANCH   9  20
HETATM   20  C10 UNL     1       4.546   7.116  22.460  1.00  0.00     0.173 C 
BRANCH  20  21
HETATM   21  O4  UNL     1       4.230   7.754  21.282  1.00  0.00    -0.400 OA
ATOM     22  H4  UNL     1       4.818   8.500  21.241  1.00  0.00     0.209 HD
ENDBRANCH  20  21
ENDBRANCH   9  20
BRANCH  14  23
HETATM   23  O5  UNL     1       3.081   5.361  25.884  1.00  0.00    -0.395 OA
ATOM     24  H5  UNL     1       3.982   5.083  25.767  1.00  0.00     0.210 HD
ENDBRANCH  14  23
TORSDOF 5
ENDMDL
MODEL 5
REMARK VINA RESULT: -7.166197026      2.731      3.679
REMARK  5 active torsions:
REMARK  status: ('A' for Active; 'I' for Inactive)
REMARK    1  A    between atoms: C6_7  and  O2_8 
REMARK    2  A    between atoms: O2_8  and  C7_9 
REMARK    3  A    between atoms: C9_13  and  C10_14 
REMARK    4  A    between atoms: C10_14  and  O4_15 
REMARK    5  A    between atoms: C15_21  and  O5_22 
ROOT
HETATM    1  C1  UNL     1       2.143   8.381  28.415  1.00  0.00     0.046 C 
HETATM    2  C2  UNL     1       1.210   8.194  27.282  1.00  0.00     0.060 C 
HETATM    3  C3  UNL     1       0.012   7.403  27.803  1.00  0.00     0.046 C 
HETATM    4  O1  UNL     1       0.659   9.448  26.884  1.00  0.00    -0.375 OA
HETATM    5  C4  UNL     1       1.370   9.620  25.707  1.00  0.00     0.129 C 
HETATM    6  C5  UNL     1       1.283  10.730  24.824  1.00  0.00     0.065 C 
HETATM    7  C6  UNL     1       2.659  10.923  24.199  1.00  0.00     0.136 C 
HETATM    8  C8  UNL     1       3.194   9.950  23.285  1.00  0.00     0.044 C 
HETATM    9  C9  UNL     1       3.512   8.553  23.601  1.00  0.00    -0.014 C 
HETATM   10  C11 UNL     1       2.416   7.573  23.143  1.00  0.00     0.012 C 
HETATM   11  C12 UNL     1       1.132   8.109  23.668  1.00  0.00     0.009 C 
HETATM   12  C13 UNL     1       1.020   8.327  25.072  1.00  0.00     0.024 C 
HETATM   13  C14 UNL     1       1.814   7.525  26.052  1.00  0.00     0.055 C 
HETATM   14  C15 UNL     1       3.260   7.521  25.943  1.00  0.00     0.126 C 
HETATM   15  C16 UNL     1       4.065   8.188  24.908  1.00  0.00     0.044 C 
ENDROOT
BRANCH   7  16
HETATM   16  O2  UNL     1       2.558  12.175  23.501  1.00  0.00    -0.303 OA
BRANCH  16  17
HETATM   17  C7  UNL     1       2.683  13.395  24.098  1.00  0.00     0.358 C 
HETATM   18  O3  UNL     1       1.682  14.144  24.186  1.00  0.00    -0.245 OA
HETATM   19 CL1  UNL     1       4.256  13.867  24.723  1.00  0.00    -0.012 Cl
ENDBRANCH  16  17
ENDBRANCH   7  16
BRANCH   9  20
HETATM   20  C10 UNL     1       4.601   8.156  22.552  1.00  0.00     0.173 C 
BRANCH  20  21
HETATM   21  O4  UNL     1       4.307   8.900  21.432  1.00  0.00    -0.400 OA
ATOM     22  H4  UNL     1       5.099   8.879  20.907  1.00  0.00     0.209 HD
ENDBRANCH  20  21
ENDBRANCH   9  20
BRANCH  14  23
HETATM   23  O5  UNL     1       3.648   6.145  26.016  1.00  0.00    -0.395 OA
ATOM     24  H5  UNL     1       4.440   6.130  26.540  1.00  0.00     0.210 HD
ENDBRANCH  14  23
TORSDOF 5
ENDMDL
