MODEL 1
REMARK VINA RESULT: -7.500335115      0.000      0.000
REMARK  2 active torsions:
REMARK  status: ('A' for Active; 'I' for Inactive)
REMARK    1  A    between atoms: C1_2  and  C2_3 
REMARK       I    between atoms: C1_2  and  N3_14 
REMARK    2  A    between atoms: C3_8  and  C4_9 
ROOT
HETATM    1  O1  UNL     1       4.178  10.210  22.302  1.00  0.00    -0.266 OA
HETATM    2  C1  UNL     1       3.728  10.445  23.451  1.00  0.00     0.275 C 
HETATM    3  N3  UNL     1       3.297   9.362  24.246  1.00  0.00    -0.316 N 
HETATM    4  C8  UNL     1       2.768   9.677  25.594  1.00  0.00     0.360 C 
HETATM    5  N4  UNL     1       2.403   8.446  26.273  1.00  0.00    -0.058 N 
ATOM      6  H41 UNL     1       2.066   8.626  27.218  1.00  0.00     0.279 HD
ATOM      7  H42 UNL     1       3.226   7.887  26.503  1.00  0.00     0.279 HD
HETATM    8  C9  UNL     1       1.443   7.683  25.504  1.00  0.00     0.252 C 
HETATM    9  C10 UNL     1       1.893   7.443  24.108  1.00  0.00     0.108 C 
HETATM   10  S1  UNL     1       2.071   5.631  23.827  1.00  0.00    -0.089 SA
HETATM   11  S2  UNL     1       3.692   5.844  22.411  1.00  0.00    -0.095 SA
HETATM   12  C11 UNL     1       3.747   7.698  22.543  1.00  0.00     0.113 C 
HETATM   13  C12 UNL     1       3.304   7.977  23.931  1.00  0.00     0.115 C 
ENDROOT
BRANCH   2  14
HETATM   14  C2  UNL     1       3.679  11.831  23.895  1.00  0.00     0.140 A 
HETATM   15  N1  UNL     1       2.659  12.664  24.124  1.00  0.00    -0.294 N 
HETATM   16  N2  UNL     1       3.073  13.855  24.522  1.00  0.00    -0.302 N 
ATOM     17  H1  UNL     1       1.678  12.411  24.005  1.00  0.00     0.187 HD
HETATM   18  C3  UNL     1       4.430  13.859  24.577  1.00  0.00     0.054 A 
ATOM     19  H2  UNL     1       2.469  14.645  24.752  1.00  0.00     0.186 HD
HETATM   20  C7  UNL     1       4.806  12.612  24.191  1.00  0.00     0.092 A 
HETATM   21 CL1  UNL     1       6.455  12.079  24.083  1.00  0.00    -0.080 Cl
BRANCH  18  22
HETATM   22  C4  UNL     1       5.267  14.990  24.972  1.00  0.00     0.039 A 
HETATM   23  C5  UNL     1       4.565  16.283  25.362  1.00  0.00     0.011 A 
HETATM   24  C6  UNL     1       5.429  15.469  26.337  1.00  0.00     0.011 A 
ENDBRANCH  18  22
ENDBRANCH   2  14
TORSDOF 2
ENDMDL
MODEL 2
REMARK VINA RESULT: -7.173821418      4.525      5.322
REMARK  2 active torsions:
REMARK  status: ('A' for Active; 'I' for Inactive)
REMARK    1  A    between atoms: C1_2  and  C2_3 
REMARK       I    between atoms: C1_2  and  N3_14 
REMARK    2  A    between atoms: C3_8  and  C4_9 
ROOT
HETATM    1  O1  UNL     1      -0.415  10.368  27.201  1.00  0.00    -0.266 OA
HETATM    2  C1  UNL     1      -0.200  10.012  26.016  1.00  0.00     0.275 C 
HETATM    3  N3  UNL     1       0.653   8.913  25.782  1.00  0.00    -0.316 N 
HETATM    4  C8  UNL     1       0.887   8.524  24.371  1.00  0.00     0.360 C 
HETATM    5  N4  UNL     1       1.761   7.364  24.325  1.00  0.00    -0.058 N 
ATOM      6  H41 UNL     1       1.915   7.050  23.367  1.00  0.00     0.279 HD
ATOM      7  H42 UNL     1       1.298   6.532  24.691  1.00  0.00     0.279 HD
HETATM    8  C9  UNL     1       3.012   7.618  25.007  1.00  0.00     0.252 C 
HETATM    9  C10 UNL     1       2.814   8.119  26.393  1.00  0.00     0.108 C 
HETATM   10  S1  UNL     1       3.547   6.920  27.584  1.00  0.00    -0.089 SA
HETATM   11  S2  UNL     1       2.108   7.340  29.144  1.00  0.00    -0.095 SA
HETATM   12  C11 UNL     1       1.159   8.574  28.127  1.00  0.00     0.113 C 
HETATM   13  C12 UNL     1       1.333   8.103  26.730  1.00  0.00     0.115 C 
ENDROOT
BRANCH   2  14
HETATM   14  C2  UNL     1      -0.851  10.760  24.949  1.00  0.00     0.140 A 
HETATM   15  N1  UNL     1      -2.076  10.683  24.420  1.00  0.00    -0.294 N 
HETATM   16  N2  UNL     1      -2.252  11.567  23.452  1.00  0.00    -0.302 N 
ATOM     17  H1  UNL     1      -2.790  10.022  24.726  1.00  0.00     0.187 HD
HETATM   18  C3  UNL     1      -1.113  12.290  23.297  1.00  0.00     0.054 A 
ATOM     19  H2  UNL     1      -3.107  11.687  22.908  1.00  0.00     0.186 HD
HETATM   20  C7  UNL     1      -0.248  11.794  24.219  1.00  0.00     0.092 A 
HETATM   21 CL1  UNL     1       1.374  12.372  24.446  1.00  0.00    -0.080 Cl
BRANCH  18  22
HETATM   22  C4  UNL     1      -0.907  13.365  22.328  1.00  0.00     0.039 A 
HETATM   23  C5  UNL     1      -0.089  13.045  21.085  1.00  0.00     0.011 A 
HETATM   24  C6  UNL     1      -1.568  13.459  21.034  1.00  0.00     0.011 A 
ENDBRANCH  18  22
ENDBRANCH   2  14
TORSDOF 2
ENDMDL
MODEL 3
REMARK VINA RESULT: -7.112040639      3.800      4.620
REMARK  2 active torsions:
REMARK  status: ('A' for Active; 'I' for Inactive)
REMARK    1  A    between atoms: C1_2  and  C2_3 
REMARK       I    between atoms: C1_2  and  N3_14 
REMARK    2  A    between atoms: C3_8  and  C4_9 
ROOT
HETATM    1  O1  UNL     1       1.984  11.189  22.999  1.00  0.00    -0.266 OA
HETATM    2  C1  UNL     1       2.486  10.135  23.462  1.00  0.00     0.275 C 
HETATM    3  N3  UNL     1       1.794   9.442  24.478  1.00  0.00    -0.316 N 
HETATM    4  C8  UNL     1       2.419   8.205  25.003  1.00  0.00     0.360 C 
HETATM    5  N4  UNL     1       1.558   7.616  26.014  1.00  0.00    -0.058 N 
ATOM      6  H41 UNL     1       1.945   6.744  26.372  1.00  0.00     0.279 HD
ATOM      7  H42 UNL     1       0.697   7.252  25.605  1.00  0.00     0.279 HD
HETATM    8  C9  UNL     1       1.281   8.553  27.082  1.00  0.00     0.252 C 
HETATM    9  C10 UNL     1       0.756   9.850  26.582  1.00  0.00     0.108 C 
HETATM   10  S1  UNL     1      -0.942  10.116  27.244  1.00  0.00    -0.089 SA
HETATM   11  S2  UNL     1      -1.621  11.220  25.512  1.00  0.00    -0.095 SA
HETATM   12  C11 UNL     1      -0.006  11.059  24.605  1.00  0.00     0.113 C 
HETATM   13  C12 UNL     1       0.550   9.767  25.079  1.00  0.00     0.115 C 
ENDROOT
BRANCH   2  14
HETATM   14  C2  UNL     1       3.761   9.689  22.917  1.00  0.00     0.140 A 
HETATM   15  N1  UNL     1       4.091   8.649  22.145  1.00  0.00    -0.294 N 
HETATM   16  N2  UNL     1       5.387   8.621  21.881  1.00  0.00    -0.302 N 
ATOM     17  H1  UNL     1       3.423   7.959  21.801  1.00  0.00     0.187 HD
HETATM   18  C3  UNL     1       5.987   9.678  22.486  1.00  0.00     0.054 A 
ATOM     19  H2  UNL     1       5.860   7.918  21.313  1.00  0.00     0.186 HD
HETATM   20  C7  UNL     1       4.986  10.338  23.125  1.00  0.00     0.092 A 
HETATM   21 CL1  UNL     1       5.213  11.781  24.065  1.00  0.00    -0.080 Cl
BRANCH  18  22
HETATM   22  C4  UNL     1       7.412   9.998  22.434  1.00  0.00     0.039 A 
HETATM   23  C5  UNL     1       8.098  10.375  23.739  1.00  0.00     0.011 A 
HETATM   24  C6  UNL     1       8.478   9.133  22.919  1.00  0.00     0.011 A 
ENDBRANCH  18  22
ENDBRANCH   2  14
TORSDOF 2
ENDMDL
MODEL 4
REMARK VINA RESULT: -7.008541272      4.147      4.866
REMARK  2 active torsions:
REMARK  status: ('A' for Active; 'I' for Inactive)
REMARK    1  A    between atoms: C1_2  and  C2_3 
REMARK       I    between atoms: C1_2  and  N3_14 
REMARK    2  A    between atoms: C3_8  and  C4_9 
ROOT
HETATM    1  O1  UNL     1       1.128   9.427  26.764  1.00  0.00    -0.266 OA
HETATM    2  C1  UNL     1       0.970   9.268  25.528  1.00  0.00     0.275 C 
HETATM    3  N3  UNL     1       1.756   8.306  24.861  1.00  0.00    -0.316 N 
HETATM    4  C8  UNL     1       1.545   8.149  23.402  1.00  0.00     0.360 C 
HETATM    5  N4  UNL     1       2.414   7.102  22.895  1.00  0.00    -0.058 N 
ATOM      6  H41 UNL     1       2.268   6.946  21.898  1.00  0.00     0.279 HD
ATOM      7  H42 UNL     1       2.133   6.184  23.240  1.00  0.00     0.279 HD
HETATM    8  C9  UNL     1       3.803   7.378  23.191  1.00  0.00     0.252 C 
HETATM    9  C10 UNL     1       4.035   7.651  24.634  1.00  0.00     0.108 C 
HETATM   10  S1  UNL     1       5.169   6.373  25.322  1.00  0.00    -0.089 SA
HETATM   11  S2  UNL     1       4.286   6.417  27.296  1.00  0.00    -0.095 SA
HETATM   12  C11 UNL     1       3.001   7.684  26.844  1.00  0.00     0.113 C 
HETATM   13  C12 UNL     1       2.742   7.440  25.403  1.00  0.00     0.115 C 
ENDROOT
BRANCH   2  14
HETATM   14  C2  UNL     1      -0.024  10.094  24.856  1.00  0.00     0.140 A 
HETATM   15  N1  UNL     1      -1.354   9.992  24.754  1.00  0.00    -0.294 N 
HETATM   16  N2  UNL     1      -1.871  10.975  24.038  1.00  0.00    -0.302 N 
ATOM     17  H1  UNL     1      -1.903   9.244  25.179  1.00  0.00     0.187 HD
HETATM   18  C3  UNL     1      -0.873  11.796  23.623  1.00  0.00     0.054 A 
ATOM     19  H2  UNL     1      -2.863  11.097  23.830  1.00  0.00     0.186 HD
HETATM   20  C7  UNL     1       0.267  11.255  24.126  1.00  0.00     0.092 A 
HETATM   21 CL1  UNL     1       1.852  11.922  23.888  1.00  0.00    -0.080 Cl
BRANCH  18  22
HETATM   22  C4  UNL     1      -1.037  12.998  22.807  1.00  0.00     0.039 A 
HETATM   23  C5  UNL     1      -0.311  13.046  21.470  1.00  0.00     0.011 A 
HETATM   24  C6  UNL     1      -1.842  13.080  21.597  1.00  0.00     0.011 A 
ENDBRANCH  18  22
ENDBRANCH   2  14
TORSDOF 2
ENDMDL
MODEL 5
REMARK VINA RESULT: -7.005403197      2.418      2.831
REMARK  2 active torsions:
REMARK  status: ('A' for Active; 'I' for Inactive)
REMARK    1  A    between atoms: C1_2  and  C2_3 
REMARK       I    between atoms: C1_2  and  N3_14 
REMARK    2  A    between atoms: C3_8  and  C4_9 
ROOT
HETATM    1  O1  UNL     1       3.706  10.404  22.585  1.00  0.00    -0.266 OA
HETATM    2  C1  UNL     1       4.750  10.565  23.264  1.00  0.00     0.275 C 
HETATM    3  N3  UNL     1       5.586   9.453  23.499  1.00  0.00    -0.316 N 
HETATM    4  C8  UNL     1       6.807   9.680  24.308  1.00  0.00     0.360 C 
HETATM    5  N4  UNL     1       7.553   8.439  24.421  1.00  0.00    -0.058 N 
ATOM      6  H41 UNL     1       8.418   8.570  24.945  1.00  0.00     0.279 HD
ATOM      7  H42 UNL     1       7.952   8.161  23.524  1.00  0.00     0.279 HD
HETATM    8  C9  UNL     1       6.742   7.385  24.990  1.00  0.00     0.252 C 
HETATM    9  C10 UNL     1       5.455   7.204  24.269  1.00  0.00     0.108 C 
HETATM   10  S1  UNL     1       5.393   5.509  23.549  1.00  0.00    -0.089 SA
HETATM   11  S2  UNL     1       4.202   6.101  21.843  1.00  0.00    -0.095 SA
HETATM   12  C11 UNL     1       4.146   7.895  22.330  1.00  0.00     0.113 C 
HETATM   13  C12 UNL     1       5.422   8.115  23.055  1.00  0.00     0.115 C 
ENDROOT
BRANCH   2  14
HETATM   14  C2  UNL     1       5.036  11.901  23.770  1.00  0.00     0.140 A 
HETATM   15  N1  UNL     1       6.177  12.586  23.896  1.00  0.00    -0.294 N 
HETATM   16  N2  UNL     1       5.978  13.787  24.413  1.00  0.00    -0.302 N 
ATOM     17  H1  UNL     1       7.092  12.226  23.626  1.00  0.00     0.187 HD
HETATM   18  C3  UNL     1       4.652  13.951  24.657  1.00  0.00     0.054 A 
ATOM     19  H2  UNL     1       6.703  14.479  24.599  1.00  0.00     0.186 HD
HETATM   20  C7  UNL     1       4.070  12.790  24.261  1.00  0.00     0.092 A 
HETATM   21 CL1  UNL     1       2.366  12.469  24.358  1.00  0.00    -0.080 Cl
BRANCH  18  22
HETATM   22  C4  UNL     1       4.028  15.145  25.227  1.00  0.00     0.039 A 
HETATM   23  C5  UNL     1       4.591  15.676  26.537  1.00  0.00     0.011 A 
HETATM   24  C6  UNL     1       4.619  16.475  25.224  1.00  0.00     0.011 A 
ENDBRANCH  18  22
ENDBRANCH   2  14
TORSDOF 2
ENDMDL
