MODEL 1
REMARK VINA RESULT: -7.592188075      0.000      0.000
REMARK  9 active torsions:
REMARK  status: ('A' for Active; 'I' for Inactive)
REMARK    1  A    between atoms: C2_2  and  C3_3 
REMARK    2  A    between atoms: C4_5  and  C6_7 
REMARK    3  A    between atoms: C6_7  and  C7_8 
REMARK    4  A    between atoms: C8_9  and  C9_10 
REMARK    5  A    between atoms: C14_17  and  O3_18 
REMARK    6  A    between atoms: C14_17  and  C15_20 
REMARK    7  A    between atoms: C15_20  and  O4_23 
REMARK    8  A    between atoms: C18_25  and  O5_26 
REMARK    9  A    between atoms: C19_28  and  O6_29 
ROOT
HETATM    1  C6  UNL     1       2.947   8.762  24.923  1.00  0.00     0.144 C 
HETATM    2  O2  UNL     1       2.825   8.448  23.575  1.00  0.00    -0.329 OA
HETATM    3  C14 UNL     1       3.743   7.503  23.248  1.00  0.00     0.223 C 
HETATM    4  C18 UNL     1       4.223   6.823  24.483  1.00  0.00     0.215 C 
HETATM    5  C19 UNL     1       3.580   7.577  25.595  1.00  0.00     0.194 C 
ENDROOT
BRANCH   1   6
HETATM    6  C4  UNL     1       1.561   9.048  25.446  1.00  0.00     0.125 A 
HETATM    7  C3  UNL     1       0.607   9.646  24.438  1.00  0.00     0.182 A 
HETATM    8  O1  UNL     1       0.483   8.340  24.924  1.00  0.00    -0.362 OA
HETATM    9  C5  UNL     1       1.430   9.665  26.819  1.00  0.00     0.053 C 
BRANCH   7  10
HETATM   10  C2  UNL     1      -0.435  10.594  24.887  1.00  0.00    -0.002 C 
HETATM   11  C1  UNL     1      -0.813  11.570  24.105  1.00  0.00     0.009 C 
ENDBRANCH   7  10
ENDBRANCH   1   6
BRANCH   1  12
HETATM   12  C7  UNL     1       3.730  10.015  25.055  1.00  0.00     0.018 C 
HETATM   13  C8  UNL     1       3.815  10.937  24.132  1.00  0.00     0.011 C 
BRANCH  13  14
HETATM   14  C9  UNL     1       4.616  12.187  24.305  1.00  0.00    -0.029 A 
HETATM   15  C10 UNL     1       5.956  12.177  24.007  1.00  0.00     0.061 A 
HETATM   16  S1  UNL     1       6.451  13.773  24.344  1.00  0.00    -0.106 SA
HETATM   17  C11 UNL     1       4.968  14.420  24.852  1.00  0.00    -0.021 A 
HETATM   18  C12 UNL     1       4.720  15.824  25.299  1.00  0.00     0.056 C 
HETATM   19  C13 UNL     1       4.112  13.371  24.746  1.00  0.00     0.026 A 
ENDBRANCH  13  14
ENDBRANCH   1  12
BRANCH   5  20
HETATM   20  O6  UNL     1       2.659   6.764  26.242  1.00  0.00    -0.389 OA
ATOM     21  H6  UNL     1       3.066   6.051  26.721  1.00  0.00     0.210 HD
ENDBRANCH   5  20
BRANCH   3  22
HETATM   22  O3  UNL     1       4.773   8.031  22.461  1.00  0.00    -0.361 OA
ATOM     23  H3  UNL     1       4.550   8.025  21.538  1.00  0.00     0.213 HD
ENDBRANCH   3  22
BRANCH   3  24
HETATM   24  C15 UNL     1       3.061   6.445  22.373  1.00  0.00     0.109 C 
HETATM   25  C16 UNL     1       3.741   6.362  21.018  1.00  0.00     0.051 C 
HETATM   26  C17 UNL     1       3.058   5.116  23.077  1.00  0.00     0.051 C 
BRANCH  24  27
HETATM   27  O4  UNL     1       1.745   6.858  22.201  1.00  0.00    -0.385 OA
ATOM     28  H4  UNL     1       1.339   6.234  21.610  1.00  0.00     0.210 HD
ENDBRANCH  24  27
ENDBRANCH   3  24
BRANCH   4  29
HETATM   29  O5  UNL     1       5.617   6.832  24.567  1.00  0.00    -0.387 OA
ATOM     30  H5  UNL     1       5.927   6.308  25.295  1.00  0.00     0.210 HD
ENDBRANCH   4  29
TORSDOF 9
ENDMDL
MODEL 2
REMARK VINA RESULT: -7.358181239      2.024      4.296
REMARK  9 active torsions:
REMARK  status: ('A' for Active; 'I' for Inactive)
REMARK    1  A    between atoms: C2_2  and  C3_3 
REMARK    2  A    between atoms: C4_5  and  C6_7 
REMARK    3  A    between atoms: C6_7  and  C7_8 
REMARK    4  A    between atoms: C8_9  and  C9_10 
REMARK    5  A    between atoms: C14_17  and  O3_18 
REMARK    6  A    between atoms: C14_17  and  C15_20 
REMARK    7  A    between atoms: C15_20  and  O4_23 
REMARK    8  A    between atoms: C18_25  and  O5_26 
REMARK    9  A    between atoms: C19_28  and  O6_29 
ROOT
HETATM    1  C6  UNL     1       3.907   9.158  23.482  1.00  0.00     0.144 C 
HETATM    2  O2  UNL     1       4.020   8.616  24.756  1.00  0.00    -0.329 OA
HETATM    3  C14 UNL     1       2.853   8.011  25.094  1.00  0.00     0.223 C 
HETATM    4  C18 UNL     1       2.056   7.739  23.865  1.00  0.00     0.215 C 
HETATM    5  C19 UNL     1       2.833   8.384  22.770  1.00  0.00     0.194 C 
ENDROOT
BRANCH   1   6
HETATM    6  C4  UNL     1       5.252   9.022  22.813  1.00  0.00     0.125 A 
HETATM    7  C3  UNL     1       6.436   9.024  23.752  1.00  0.00     0.182 A 
HETATM    8  O1  UNL     1       6.016   7.885  23.058  1.00  0.00    -0.362 OA
HETATM    9  C5  UNL     1       5.503   9.807  21.547  1.00  0.00     0.053 C 
BRANCH   7  10
HETATM   10  C2  UNL     1       7.723   9.601  23.307  1.00  0.00    -0.002 C 
HETATM   11  C1  UNL     1       8.200  10.667  23.894  1.00  0.00     0.009 C 
ENDBRANCH   7  10
ENDBRANCH   1   6
BRANCH   1  12
HETATM   12  C7  UNL     1       3.622  10.609  23.599  1.00  0.00     0.018 C 
HETATM   13  C8  UNL     1       4.037  11.368  24.578  1.00  0.00     0.011 C 
BRANCH  13  14
HETATM   14  C9  UNL     1       3.729  12.829  24.660  1.00  0.00    -0.029 A 
HETATM   15  C10 UNL     1       2.466  13.271  24.351  1.00  0.00     0.061 A 
HETATM   16  S1  UNL     1       2.569  14.958  24.575  1.00  0.00    -0.106 SA
HETATM   17  C11 UNL     1       4.193  15.074  25.050  1.00  0.00    -0.021 A 
HETATM   18  C12 UNL     1       4.926  16.328  25.403  1.00  0.00     0.056 C 
HETATM   19  C13 UNL     1       4.623  13.787  25.025  1.00  0.00     0.026 A 
ENDBRANCH  13  14
ENDBRANCH   1  12
BRANCH   5  20
HETATM   20  O6  UNL     1       3.338   7.413  21.917  1.00  0.00    -0.389 OA
ATOM     21  H6  UNL     1       4.117   6.988  22.258  1.00  0.00     0.210 HD
ENDBRANCH   5  20
BRANCH   3  22
HETATM   22  O3  UNL     1       2.155   8.735  26.066  1.00  0.00    -0.361 OA
ATOM     23  H3  UNL     1       2.062   9.650  25.827  1.00  0.00     0.213 HD
ENDBRANCH   3  22
BRANCH   3  24
HETATM   24  C15 UNL     1       3.176   6.661  25.744  1.00  0.00     0.109 C 
HETATM   25  C16 UNL     1       2.441   5.541  25.030  1.00  0.00     0.051 C 
HETATM   26  C17 UNL     1       4.663   6.433  25.752  1.00  0.00     0.051 C 
BRANCH  24  27
HETATM   27  O4  UNL     1       2.733   6.735  27.059  1.00  0.00    -0.385 OA
ATOM     28  H4  UNL     1       1.804   6.537  27.045  1.00  0.00     0.210 HD
ENDBRANCH  24  27
ENDBRANCH   3  24
BRANCH   4  29
HETATM   29  O5  UNL     1       0.759   8.244  23.971  1.00  0.00    -0.387 OA
ATOM     30  H5  UNL     1       0.154   7.588  24.294  1.00  0.00     0.210 HD
ENDBRANCH   4  29
TORSDOF 9
ENDMDL
MODEL 3
REMARK VINA RESULT: -7.259918833      0.827      1.092
REMARK  9 active torsions:
REMARK  status: ('A' for Active; 'I' for Inactive)
REMARK    1  A    between atoms: C2_2  and  C3_3 
REMARK    2  A    between atoms: C4_5  and  C6_7 
REMARK    3  A    between atoms: C6_7  and  C7_8 
REMARK    4  A    between atoms: C8_9  and  C9_10 
REMARK    5  A    between atoms: C14_17  and  O3_18 
REMARK    6  A    between atoms: C14_17  and  C15_20 
REMARK    7  A    between atoms: C15_20  and  O4_23 
REMARK    8  A    between atoms: C18_25  and  O5_26 
REMARK    9  A    between atoms: C19_28  and  O6_29 
ROOT
HETATM    1  C6  UNL     1       2.773   9.037  25.048  1.00  0.00     0.144 C 
HETATM    2  O2  UNL     1       2.748   8.713  23.698  1.00  0.00    -0.329 OA
HETATM    3  C14 UNL     1       3.777   7.875  23.416  1.00  0.00     0.223 C 
HETATM    4  C18 UNL     1       4.272   7.249  24.673  1.00  0.00     0.215 C 
HETATM    5  C19 UNL     1       3.500   7.926  25.752  1.00  0.00     0.194 C 
ENDROOT
BRANCH   1   6
HETATM    6  C4  UNL     1       1.343   9.170  25.508  1.00  0.00     0.125 A 
HETATM    7  C3  UNL     1       0.395   9.754  24.486  1.00  0.00     0.182 A 
HETATM    8  O1  UNL     1       0.359   8.412  24.880  1.00  0.00    -0.362 OA
HETATM    9  C5  UNL     1       1.086   9.678  26.907  1.00  0.00     0.053 C 
BRANCH   7  10
HETATM   10  C2  UNL     1      -0.749  10.579  24.934  1.00  0.00    -0.002 C 
HETATM   11  C1  UNL     1      -1.195  11.544  24.174  1.00  0.00     0.009 C 
ENDBRANCH   7  10
ENDBRANCH   1   6
BRANCH   1  12
HETATM   12  C7  UNL     1       3.410  10.368  25.212  1.00  0.00     0.018 C 
HETATM   13  C8  UNL     1       3.399  11.310  24.307  1.00  0.00     0.011 C 
BRANCH  13  14
HETATM   14  C9  UNL     1       4.052  12.639  24.511  1.00  0.00    -0.029 A 
HETATM   15  C10 UNL     1       3.276  13.736  24.793  1.00  0.00     0.061 A 
HETATM   16  S1  UNL     1       4.412  15.000  24.941  1.00  0.00    -0.106 SA
HETATM   17  C11 UNL     1       5.835  14.126  24.645  1.00  0.00    -0.021 A 
HETATM   18  C12 UNL     1       7.225  14.674  24.632  1.00  0.00     0.056 C 
HETATM   19  C13 UNL     1       5.392  12.860  24.437  1.00  0.00     0.026 A 
ENDBRANCH  13  14
ENDBRANCH   1  12
BRANCH   5  20
HETATM   20  O6  UNL     1       2.645   7.017  26.360  1.00  0.00    -0.389 OA
ATOM     21  H6  UNL     1       2.696   6.148  25.979  1.00  0.00     0.210 HD
ENDBRANCH   5  20
BRANCH   3  22
HETATM   22  O3  UNL     1       4.778   8.512  22.675  1.00  0.00    -0.361 OA
ATOM     23  H3  UNL     1       4.424   8.964  21.918  1.00  0.00     0.213 HD
ENDBRANCH   3  22
BRANCH   3  24
HETATM   24  C15 UNL     1       3.254   6.750  22.514  1.00  0.00     0.109 C 
HETATM   25  C16 UNL     1       4.001   6.742  21.193  1.00  0.00     0.051 C 
HETATM   26  C17 UNL     1       3.362   5.427  23.222  1.00  0.00     0.051 C 
BRANCH  24  27
HETATM   27  O4  UNL     1       1.910   7.019  22.280  1.00  0.00    -0.385 OA
ATOM     28  H4  UNL     1       1.837   7.262  21.365  1.00  0.00     0.210 HD
ENDBRANCH  24  27
ENDBRANCH   3  24
BRANCH   4  29
HETATM   29  O5  UNL     1       5.650   7.409  24.820  1.00  0.00    -0.387 OA
ATOM     30  H5  UNL     1       5.931   7.230  25.709  1.00  0.00     0.210 HD
ENDBRANCH   4  29
TORSDOF 9
ENDMDL
MODEL 4
REMARK VINA RESULT: -7.237683826      1.267      1.701
REMARK  9 active torsions:
REMARK  status: ('A' for Active; 'I' for Inactive)
REMARK    1  A    between atoms: C2_2  and  C3_3 
REMARK    2  A    between atoms: C4_5  and  C6_7 
REMARK    3  A    between atoms: C6_7  and  C7_8 
REMARK    4  A    between atoms: C8_9  and  C9_10 
REMARK    5  A    between atoms: C14_17  and  O3_18 
REMARK    6  A    between atoms: C14_17  and  C15_20 
REMARK    7  A    between atoms: C15_20  and  O4_23 
REMARK    8  A    between atoms: C18_25  and  O5_26 
REMARK    9  A    between atoms: C19_28  and  O6_29 
ROOT
HETATM    1  C6  UNL     1       1.775   9.939  25.413  1.00  0.00     0.144 C 
HETATM    2  O2  UNL     1       1.941   9.245  24.221  1.00  0.00    -0.329 OA
HETATM    3  C14 UNL     1       2.678   8.128  24.447  1.00  0.00     0.223 C 
HETATM    4  C18 UNL     1       2.655   7.801  25.900  1.00  0.00     0.215 C 
HETATM    5  C19 UNL     1       1.930   8.941  26.525  1.00  0.00     0.194 C 
ENDROOT
BRANCH   1   6
HETATM    6  C4  UNL     1       0.401  10.561  25.385  1.00  0.00     0.125 A 
HETATM    7  C3  UNL     1      -0.015  11.135  24.051  1.00  0.00     0.182 A 
HETATM    8  O1  UNL     1      -0.587   9.981  24.595  1.00  0.00    -0.362 OA
HETATM    9  C5  UNL     1      -0.015  11.424  26.553  1.00  0.00     0.053 C 
BRANCH   7  10
HETATM   10  C2  UNL     1      -0.896  12.322  24.006  1.00  0.00    -0.002 C 
HETATM   11  C1  UNL     1      -1.488  12.655  22.889  1.00  0.00     0.009 C 
ENDBRANCH   7  10
ENDBRANCH   1   6
BRANCH   1  12
HETATM   12  C7  UNL     1       2.756  11.050  25.463  1.00  0.00     0.018 C 
HETATM   13  C8  UNL     1       3.379  11.536  24.422  1.00  0.00     0.011 C 
BRANCH  13  14
HETATM   14  C9  UNL     1       4.362  12.659  24.515  1.00  0.00    -0.029 A 
HETATM   15  C10 UNL     1       5.670  12.442  24.157  1.00  0.00     0.061 A 
HETATM   16  S1  UNL     1       6.410  13.956  24.417  1.00  0.00    -0.106 SA
HETATM   17  C11 UNL     1       5.064  14.829  24.969  1.00  0.00    -0.021 A 
HETATM   18  C12 UNL     1       5.046  16.266  25.378  1.00  0.00     0.056 C 
HETATM   19  C13 UNL     1       4.060  13.915  24.938  1.00  0.00     0.026 A 
ENDBRANCH  13  14
ENDBRANCH   1  12
BRANCH   5  20
HETATM   20  O6  UNL     1       0.716   8.502  27.034  1.00  0.00    -0.389 OA
ATOM     21  H6  UNL     1      -0.033   8.847  26.560  1.00  0.00     0.210 HD
ENDBRANCH   5  20
BRANCH   3  22
HETATM   22  O3  UNL     1       3.967   8.240  23.917  1.00  0.00    -0.361 OA
ATOM     23  H3  UNL     1       4.398   9.038  24.200  1.00  0.00     0.213 HD
ENDBRANCH   3  22
BRANCH   3  24
HETATM   24  C15 UNL     1       2.028   6.958  23.699  1.00  0.00     0.109 C 
HETATM   25  C16 UNL     1       2.725   6.728  22.371  1.00  0.00     0.051 C 
HETATM   26  C17 UNL     1       2.045   5.723  24.558  1.00  0.00     0.051 C 
BRANCH  24  27
HETATM   27  O4  UNL     1       0.706   7.318  23.467  1.00  0.00    -0.385 OA
ATOM     28  H4  UNL     1       0.178   6.551  23.658  1.00  0.00     0.210 HD
ENDBRANCH  24  27
ENDBRANCH   3  24
BRANCH   4  29
HETATM   29  O5  UNL     1       3.945   7.642  26.411  1.00  0.00    -0.387 OA
ATOM     30  H5  UNL     1       3.931   7.460  27.343  1.00  0.00     0.210 HD
ENDBRANCH   4  29
TORSDOF 9
ENDMDL
MODEL 5
REMARK VINA RESULT: -7.116004954      1.915      2.618
REMARK  9 active torsions:
REMARK  status: ('A' for Active; 'I' for Inactive)
REMARK    1  A    between atoms: C2_2  and  C3_3 
REMARK    2  A    between atoms: C4_5  and  C6_7 
REMARK    3  A    between atoms: C6_7  and  C7_8 
REMARK    4  A    between atoms: C8_9  and  C9_10 
REMARK    5  A    between atoms: C14_17  and  O3_18 
REMARK    6  A    between atoms: C14_17  and  C15_20 
REMARK    7  A    between atoms: C15_20  and  O4_23 
REMARK    8  A    between atoms: C18_25  and  O5_26 
REMARK    9  A    between atoms: C19_28  and  O6_29 
ROOT
HETATM    1  C6  UNL     1       3.892   8.953  24.397  1.00  0.00     0.144 C 
HETATM    2  O2  UNL     1       3.379   8.466  23.202  1.00  0.00    -0.329 OA
HETATM    3  C14 UNL     1       4.364   8.431  22.269  1.00  0.00     0.223 C 
HETATM    4  C18 UNL     1       5.692   8.477  22.942  1.00  0.00     0.215 C 
HETATM    5  C19 UNL     1       5.370   8.685  24.381  1.00  0.00     0.194 C 
ENDROOT
BRANCH   1   6
HETATM    6  C4  UNL     1       3.188   8.229  25.518  1.00  0.00     0.125 A 
HETATM    7  C3  UNL     1       1.936   7.487  25.113  1.00  0.00     0.182 A 
HETATM    8  O1  UNL     1       3.118   6.840  25.486  1.00  0.00    -0.362 OA
HETATM    9  C5  UNL     1       3.051   8.933  26.847  1.00  0.00     0.053 C 
BRANCH   7  10
HETATM   10  C2  UNL     1       0.815   7.363  26.070  1.00  0.00    -0.002 C 
HETATM   11  C1  UNL     1       0.170   6.232  26.179  1.00  0.00     0.009 C 
ENDBRANCH   7  10
ENDBRANCH   1   6
BRANCH   1  12
HETATM   12  C7  UNL     1       3.545  10.390  24.520  1.00  0.00     0.018 C 
HETATM   13  C8  UNL     1       4.413  11.366  24.504  1.00  0.00     0.011 C 
BRANCH  13  14
HETATM   14  C9  UNL     1       4.022  12.804  24.629  1.00  0.00    -0.029 A 
HETATM   15  C10 UNL     1       2.724  13.174  24.378  1.00  0.00     0.061 A 
HETATM   16  S1  UNL     1       2.735  14.860  24.635  1.00  0.00    -0.106 SA
HETATM   17  C11 UNL     1       4.366  15.065  25.051  1.00  0.00    -0.021 A 
HETATM   18  C12 UNL     1       5.036  16.353  25.405  1.00  0.00     0.056 C 
HETATM   19  C13 UNL     1       4.871  13.806  24.981  1.00  0.00     0.026 A 
ENDBRANCH  13  14
ENDBRANCH   1  12
BRANCH   5  20
HETATM   20  O6  UNL     1       5.725   7.558  25.109  1.00  0.00    -0.389 OA
ATOM     21  H6  UNL     1       6.227   7.762  25.890  1.00  0.00     0.210 HD
ENDBRANCH   5  20
BRANCH   3  22
HETATM   22  O3  UNL     1       4.194   9.421  21.296  1.00  0.00    -0.361 OA
ATOM     23  H3  UNL     1       4.831   9.342  20.596  1.00  0.00     0.213 HD
ENDBRANCH   3  22
BRANCH   3  24
HETATM   24  C15 UNL     1       4.273   7.098  21.516  1.00  0.00     0.109 C 
HETATM   25  C16 UNL     1       2.954   6.411  21.816  1.00  0.00     0.051 C 
HETATM   26  C17 UNL     1       4.461   7.324  20.041  1.00  0.00     0.051 C 
BRANCH  24  27
HETATM   27  O4  UNL     1       5.319   6.307  21.979  1.00  0.00    -0.385 OA
ATOM     28  H4  UNL     1       5.780   5.989  21.212  1.00  0.00     0.210 HD
ENDBRANCH  24  27
ENDBRANCH   3  24
BRANCH   4  29
HETATM   29  O5  UNL     1       6.498   9.491  22.422  1.00  0.00    -0.387 OA
ATOM     30  H5  UNL     1       6.691  10.154  23.075  1.00  0.00     0.210 HD
ENDBRANCH   4  29
TORSDOF 9
ENDMDL
