MODEL 1
REMARK VINA RESULT: -7.230568349      0.000      0.000
REMARK  9 active torsions:
REMARK  status: ('A' for Active; 'I' for Inactive)
REMARK    1  A    between atoms: C4_4  and  O1_5 
REMARK    2  A    between atoms: C6_8  and  O2_9 
REMARK    3  A    between atoms: C7_11  and  O3_12 
REMARK    4  A    between atoms: C10_16  and  O4_17 
REMARK    5  A    between atoms: C11_19  and  C12_20 
REMARK    6  A    between atoms: C13_21  and  C14_22 
REMARK    7  A    between atoms: C14_22  and  C15_23 
REMARK    8  A    between atoms: C15_23  and  S1_24 
REMARK    9  A    between atoms: S1_24  and  C16_25 
ROOT
HETATM    1  C1  UNL     1       4.347   4.626  21.632  1.00  0.00     0.012 C 
HETATM    2  C2  UNL     1       4.092   5.440  22.879  1.00  0.00     0.013 C 
HETATM    3  C3  UNL     1       5.301   5.584  23.741  1.00  0.00     0.039 C 
HETATM    4  C4  UNL     1       4.942   6.812  24.588  1.00  0.00     0.133 C 
HETATM    5  C5  UNL     1       4.406   7.734  23.501  1.00  0.00     0.047 C 
HETATM    6  C6  UNL     1       3.674   6.858  22.552  1.00  0.00     0.136 C 
HETATM    7  C7  UNL     1       5.591   8.443  22.912  1.00  0.00     0.138 C 
HETATM    8  C8  UNL     1       5.705   9.649  23.853  1.00  0.00     0.041 C 
HETATM    9  C9  UNL     1       6.656  10.677  23.313  1.00  0.00     0.015 C 
HETATM   10  C10 UNL     1       4.271  10.116  23.859  1.00  0.00     0.133 C 
HETATM   11  C11 UNL     1       3.549   8.787  24.162  1.00  0.00     0.053 C 
ENDROOT
BRANCH  11  12
HETATM   12  C12 UNL     1       2.189   8.848  23.651  1.00  0.00    -0.022 C 
HETATM   13  C13 UNL     1       1.074   8.788  24.339  1.00  0.00    -0.029 C 
BRANCH  13  14
HETATM   14  C14 UNL     1       0.972   8.642  25.799  1.00  0.00     0.037 C 
BRANCH  14  15
HETATM   15  C15 UNL     1       1.136  10.007  26.463  1.00  0.00     0.086 C 
BRANCH  15  16
HETATM   16  S1  UNL     1      -0.336  10.985  26.327  1.00  0.00    -0.093 SA
BRANCH  16  17
HETATM   17  C16 UNL     1      -0.551  11.823  24.779  1.00  0.00     0.145 A 
HETATM   18  N1  UNL     1      -1.747  11.818  24.113  1.00  0.00    -0.345 N 
HETATM   19  C17 UNL     1      -1.582  12.532  22.995  1.00  0.00     0.107 A 
ATOM     20  H1  UNL     1      -2.604  11.355  24.414  1.00  0.00     0.167 HD
HETATM   21  C18 UNL     1      -0.296  13.009  22.914  1.00  0.00     0.109 A 
HETATM   22  N2  UNL     1       0.312  12.542  24.050  1.00  0.00    -0.341 N 
HETATM   23  C19 UNL     1       1.688  12.792  24.412  1.00  0.00     0.158 C 
ENDBRANCH  16  17
ENDBRANCH  15  16
ENDBRANCH  14  15
ENDBRANCH  13  14
ENDBRANCH  11  12
BRANCH  10  24
HETATM   24  O4  UNL     1       3.832  10.496  22.595  1.00  0.00    -0.394 OA
ATOM     25  H4  UNL     1       3.135  11.141  22.632  1.00  0.00     0.210 HD
ENDBRANCH  10  24
BRANCH   4  26
HETATM   26  O1  UNL     1       4.010   6.501  25.546  1.00  0.00    -0.395 OA
ATOM     27  H1  UNL     1       3.844   7.241  26.119  1.00  0.00     0.210 HD
ENDBRANCH   4  26
BRANCH   6  28
HETATM   28  O2  UNL     1       3.866   7.154  21.218  1.00  0.00    -0.394 OA
ATOM     29  H2  UNL     1       3.580   8.035  21.008  1.00  0.00     0.210 HD
ENDBRANCH   6  28
BRANCH   7  30
HETATM   30  O3  UNL     1       5.371   8.948  21.646  1.00  0.00    -0.394 OA
ATOM     31  H3  UNL     1       4.704   9.624  21.610  1.00  0.00     0.210 HD
ENDBRANCH   7  30
TORSDOF 9
ENDMDL
MODEL 2
REMARK VINA RESULT: -7.095190030      2.129      3.257
REMARK  9 active torsions:
REMARK  status: ('A' for Active; 'I' for Inactive)
REMARK    1  A    between atoms: C4_4  and  O1_5 
REMARK    2  A    between atoms: C6_8  and  O2_9 
REMARK    3  A    between atoms: C7_11  and  O3_12 
REMARK    4  A    between atoms: C10_16  and  O4_17 
REMARK    5  A    between atoms: C11_19  and  C12_20 
REMARK    6  A    between atoms: C13_21  and  C14_22 
REMARK    7  A    between atoms: C14_22  and  C15_23 
REMARK    8  A    between atoms: C15_23  and  S1_24 
REMARK    9  A    between atoms: S1_24  and  C16_25 
ROOT
HETATM    1  C1  UNL     1       4.266   6.833  20.372  1.00  0.00     0.012 C 
HETATM    2  C2  UNL     1       4.127   7.473  21.733  1.00  0.00     0.013 C 
HETATM    3  C3  UNL     1       4.958   6.809  22.779  1.00  0.00     0.039 C 
HETATM    4  C4  UNL     1       5.050   7.903  23.852  1.00  0.00     0.133 C 
HETATM    5  C5  UNL     1       5.367   9.107  22.975  1.00  0.00     0.047 C 
HETATM    6  C6  UNL     1       4.584   8.917  21.728  1.00  0.00     0.136 C 
HETATM    7  C7  UNL     1       6.856   9.122  22.782  1.00  0.00     0.138 C 
HETATM    8  C8  UNL     1       7.300   9.924  24.011  1.00  0.00     0.041 C 
HETATM    9  C9  UNL     1       8.743  10.323  23.913  1.00  0.00     0.015 C 
HETATM   10  C10 UNL     1       6.354  11.095  23.918  1.00  0.00     0.133 C 
HETATM   11  C11 UNL     1       5.013  10.355  23.747  1.00  0.00     0.053 C 
ENDROOT
BRANCH  11  12
HETATM   12  C12 UNL     1       4.065  11.221  23.066  1.00  0.00    -0.022 C 
HETATM   13  C13 UNL     1       2.923  11.674  23.526  1.00  0.00    -0.029 C 
BRANCH  13  14
HETATM   14  C14 UNL     1       2.357  11.388  24.854  1.00  0.00     0.037 C 
BRANCH  14  15
HETATM   15  C15 UNL     1       0.915  11.888  24.914  1.00  0.00     0.086 C 
BRANCH  15  16
HETATM   16  S1  UNL     1      -0.247  10.570  24.680  1.00  0.00    -0.093 SA
BRANCH  16  17
HETATM   17  C16 UNL     1       0.247   8.997  25.335  1.00  0.00     0.145 A 
HETATM   18  N1  UNL     1       0.503   7.924  24.523  1.00  0.00    -0.345 N 
HETATM   19  C17 UNL     1       0.849   6.903  25.314  1.00  0.00     0.107 A 
ATOM     20  H1  UNL     1       0.441   7.908  23.506  1.00  0.00     0.167 HD
HETATM   21  C18 UNL     1       0.826   7.286  26.633  1.00  0.00     0.109 A 
HETATM   22  N2  UNL     1       0.444   8.602  26.598  1.00  0.00    -0.341 N 
HETATM   23  C19 UNL     1       0.282   9.445  27.760  1.00  0.00     0.158 C 
ENDBRANCH  16  17
ENDBRANCH  15  16
ENDBRANCH  14  15
ENDBRANCH  13  14
ENDBRANCH  11  12
BRANCH  10  24
HETATM   24  O4  UNL     1       6.528  11.823  22.745  1.00  0.00    -0.394 OA
ATOM     25  H4  UNL     1       7.275  12.409  22.790  1.00  0.00     0.210 HD
ENDBRANCH  10  24
BRANCH   4  26
HETATM   26  O1  UNL     1       3.869   8.027  24.539  1.00  0.00    -0.395 OA
ATOM     27  H1  UNL     1       3.933   8.686  25.220  1.00  0.00     0.210 HD
ENDBRANCH   4  26
BRANCH   6  28
HETATM   28  O2  UNL     1       5.252   9.238  20.565  1.00  0.00    -0.394 OA
ATOM     29  H2  UNL     1       5.508  10.152  20.546  1.00  0.00     0.210 HD
ENDBRANCH   6  28
BRANCH   7  30
HETATM   30  O3  UNL     1       7.272   9.832  21.674  1.00  0.00    -0.394 OA
ATOM     31  H3  UNL     1       8.143  10.203  21.757  1.00  0.00     0.210 HD
ENDBRANCH   7  30
TORSDOF 9
ENDMDL
MODEL 3
REMARK VINA RESULT: -7.022426209      3.278      5.833
REMARK  9 active torsions:
REMARK  status: ('A' for Active; 'I' for Inactive)
REMARK    1  A    between atoms: C4_4  and  O1_5 
REMARK    2  A    between atoms: C6_8  and  O2_9 
REMARK    3  A    between atoms: C7_11  and  O3_12 
REMARK    4  A    between atoms: C10_16  and  O4_17 
REMARK    5  A    between atoms: C11_19  and  C12_20 
REMARK    6  A    between atoms: C13_21  and  C14_22 
REMARK    7  A    between atoms: C14_22  and  C15_23 
REMARK    8  A    between atoms: C15_23  and  S1_24 
REMARK    9  A    between atoms: S1_24  and  C16_25 
ROOT
HETATM    1  C1  UNL     1      -0.733  10.812  26.768  1.00  0.00     0.012 C 
HETATM    2  C2  UNL     1       0.682  10.316  26.582  1.00  0.00     0.013 C 
HETATM    3  C3  UNL     1       1.079   9.289  27.589  1.00  0.00     0.039 C 
HETATM    4  C4  UNL     1       2.268   8.609  26.896  1.00  0.00     0.133 C 
HETATM    5  C5  UNL     1       1.691   8.429  25.499  1.00  0.00     0.047 C 
HETATM    6  C6  UNL     1       0.872   9.641  25.240  1.00  0.00     0.136 C 
HETATM    7  C7  UNL     1       0.916   7.143  25.513  1.00  0.00     0.138 C 
HETATM    8  C8  UNL     1       2.020   6.136  25.166  1.00  0.00     0.041 C 
HETATM    9  C9  UNL     1       1.450   4.786  24.843  1.00  0.00     0.015 C 
HETATM   10  C10 UNL     1       2.636   6.820  23.971  1.00  0.00     0.133 C 
HETATM   11  C11 UNL     1       2.840   8.238  24.539  1.00  0.00     0.053 C 
ENDROOT
BRANCH  11  12
HETATM   12  C12 UNL     1       2.863   9.198  23.447  1.00  0.00    -0.022 C 
HETATM   13  C13 UNL     1       3.914   9.752  22.893  1.00  0.00    -0.029 C 
BRANCH  13  14
HETATM   14  C14 UNL     1       5.315   9.511  23.273  1.00  0.00     0.037 C 
BRANCH  14  15
HETATM   15  C15 UNL     1       6.026  10.846  23.484  1.00  0.00     0.086 C 
BRANCH  15  16
HETATM   16  S1  UNL     1       4.920  12.088  24.099  1.00  0.00    -0.093 SA
BRANCH  16  17
HETATM   17  C16 UNL     1       5.678  13.633  24.529  1.00  0.00     0.145 A 
HETATM   18  N1  UNL     1       7.034  13.815  24.468  1.00  0.00    -0.345 N 
HETATM   19  C17 UNL     1       7.282  15.073  24.848  1.00  0.00     0.107 A 
ATOM     20  H1  UNL     1       7.725  13.121  24.186  1.00  0.00     0.167 HD
HETATM   21  C18 UNL     1       6.111  15.723  25.157  1.00  0.00     0.109 A 
HETATM   22  N2  UNL     1       5.136  14.784  24.943  1.00  0.00    -0.341 N 
HETATM   23  C19 UNL     1       3.721  15.007  25.133  1.00  0.00     0.158 C 
ENDBRANCH  16  17
ENDBRANCH  15  16
ENDBRANCH  14  15
ENDBRANCH  13  14
ENDBRANCH  11  12
BRANCH  10  24
HETATM   24  O4  UNL     1       1.733   6.967  22.922  1.00  0.00    -0.394 OA
ATOM     25  H4  UNL     1       2.164   7.177  22.102  1.00  0.00     0.210 HD
ENDBRANCH  10  24
BRANCH   4  26
HETATM   26  O1  UNL     1       3.384   9.406  26.925  1.00  0.00    -0.395 OA
ATOM     27  H1  UNL     1       3.437   9.896  27.738  1.00  0.00     0.210 HD
ENDBRANCH   4  26
BRANCH   6  28
HETATM   28  O2  UNL     1      -0.332   9.407  24.609  1.00  0.00    -0.394 OA
ATOM     29  H2  UNL     1      -0.210   9.058  23.734  1.00  0.00     0.210 HD
ENDBRANCH   6  28
BRANCH   7  30
HETATM   30  O3  UNL     1      -0.033   7.048  24.515  1.00  0.00    -0.394 OA
ATOM     31  H3  UNL     1      -0.925   6.985  24.835  1.00  0.00     0.210 HD
ENDBRANCH   7  30
TORSDOF 9
ENDMDL
MODEL 4
REMARK VINA RESULT: -6.980249931      1.409      3.285
REMARK  9 active torsions:
REMARK  status: ('A' for Active; 'I' for Inactive)
REMARK    1  A    between atoms: C4_4  and  O1_5 
REMARK    2  A    between atoms: C6_8  and  O2_9 
REMARK    3  A    between atoms: C7_11  and  O3_12 
REMARK    4  A    between atoms: C10_16  and  O4_17 
REMARK    5  A    between atoms: C11_19  and  C12_20 
REMARK    6  A    between atoms: C13_21  and  C14_22 
REMARK    7  A    between atoms: C14_22  and  C15_23 
REMARK    8  A    between atoms: C15_23  and  S1_24 
REMARK    9  A    between atoms: S1_24  and  C16_25 
ROOT
HETATM    1  C1  UNL     1       7.610   9.695  24.227  1.00  0.00     0.012 C 
HETATM    2  C2  UNL     1       6.160   9.866  23.839  1.00  0.00     0.013 C 
HETATM    3  C3  UNL     1       5.960  10.010  22.368  1.00  0.00     0.039 C 
HETATM    4  C4  UNL     1       4.478   9.644  22.212  1.00  0.00     0.133 C 
HETATM    5  C5  UNL     1       4.420   8.399  23.086  1.00  0.00     0.047 C 
HETATM    6  C6  UNL     1       5.325   8.666  24.233  1.00  0.00     0.136 C 
HETATM    7  C7  UNL     1       4.832   7.243  22.220  1.00  0.00     0.138 C 
HETATM    8  C8  UNL     1       3.485   6.849  21.602  1.00  0.00     0.041 C 
HETATM    9  C9  UNL     1       3.572   5.528  20.895  1.00  0.00     0.015 C 
HETATM   10  C10 UNL     1       2.628   6.802  22.842  1.00  0.00     0.133 C 
HETATM   11  C11 UNL     1       2.979   8.165  23.472  1.00  0.00     0.053 C 
ENDROOT
BRANCH  11  12
HETATM   12  C12 UNL     1       2.755   8.106  24.908  1.00  0.00    -0.022 C 
HETATM   13  C13 UNL     1       1.831   8.730  25.597  1.00  0.00    -0.029 C 
BRANCH  13  14
HETATM   14  C14 UNL     1       0.812   9.637  25.046  1.00  0.00     0.037 C 
BRANCH  14  15
HETATM   15  C15 UNL     1       0.385  10.638  26.118  1.00  0.00     0.086 C 
BRANCH  15  16
HETATM   16  S1  UNL     1      -1.019  11.590  25.605  1.00  0.00    -0.093 SA
BRANCH  16  17
HETATM   17  C16 UNL     1      -0.892  12.325  23.996  1.00  0.00     0.145 A 
HETATM   18  N1  UNL     1      -1.944  12.332  23.119  1.00  0.00    -0.345 N 
HETATM   19  C17 UNL     1      -1.531  12.955  22.009  1.00  0.00     0.107 A 
ATOM     20  H1  UNL     1      -2.869  11.936  23.282  1.00  0.00     0.167 HD
HETATM   21  C18 UNL     1      -0.224  13.358  22.142  1.00  0.00     0.109 A 
HETATM   22  N2  UNL     1       0.133  12.943  23.399  1.00  0.00    -0.341 N 
HETATM   23  C19 UNL     1       1.433  13.148  23.996  1.00  0.00     0.158 C 
ENDBRANCH  16  17
ENDBRANCH  15  16
ENDBRANCH  14  15
ENDBRANCH  13  14
ENDBRANCH  11  12
BRANCH  10  24
HETATM   24  O4  UNL     1       3.069   5.847  23.753  1.00  0.00    -0.394 OA
ATOM     25  H4  UNL     1       2.622   5.912  24.589  1.00  0.00     0.210 HD
ENDBRANCH  10  24
BRANCH   4  26
HETATM   26  O1  UNL     1       3.666  10.658  22.656  1.00  0.00    -0.395 OA
ATOM     27  H1  UNL     1       4.044  11.509  22.469  1.00  0.00     0.210 HD
ENDBRANCH   4  26
BRANCH   6  28
HETATM   28  O2  UNL     1       6.110   7.599  24.616  1.00  0.00    -0.394 OA
ATOM     29  H2  UNL     1       5.818   7.223  25.438  1.00  0.00     0.210 HD
ENDBRANCH   6  28
BRANCH   7  30
HETATM   30  O3  UNL     1       5.280   6.144  22.925  1.00  0.00    -0.394 OA
ATOM     31  H3  UNL     1       5.883   5.594  22.440  1.00  0.00     0.210 HD
ENDBRANCH   7  30
TORSDOF 9
ENDMDL
MODEL 5
REMARK VINA RESULT: -6.902199865      3.080      5.249
REMARK  9 active torsions:
REMARK  status: ('A' for Active; 'I' for Inactive)
REMARK    1  A    between atoms: C4_4  and  O1_5 
REMARK    2  A    between atoms: C6_8  and  O2_9 
REMARK    3  A    between atoms: C7_11  and  O3_12 
REMARK    4  A    between atoms: C10_16  and  O4_17 
REMARK    5  A    between atoms: C11_19  and  C12_20 
REMARK    6  A    between atoms: C13_21  and  C14_22 
REMARK    7  A    between atoms: C14_22  and  C15_23 
REMARK    8  A    between atoms: C15_23  and  S1_24 
REMARK    9  A    between atoms: S1_24  and  C16_25 
ROOT
HETATM    1  C1  UNL     1       1.185   8.670  26.049  1.00  0.00     0.012 C 
HETATM    2  C2  UNL     1       2.615   8.506  25.590  1.00  0.00     0.013 C 
HETATM    3  C3  UNL     1       3.252   7.254  26.092  1.00  0.00     0.039 C 
HETATM    4  C4  UNL     1       4.418   7.075  25.110  1.00  0.00     0.133 C 
HETATM    5  C5  UNL     1       3.698   7.342  23.795  1.00  0.00     0.047 C 
HETATM    6  C6  UNL     1       2.717   8.419  24.081  1.00  0.00     0.136 C 
HETATM    7  C7  UNL     1       3.088   6.039  23.363  1.00  0.00     0.138 C 
HETATM    8  C8  UNL     1       4.252   5.420  22.579  1.00  0.00     0.041 C 
HETATM    9  C9  UNL     1       3.809   4.217  21.800  1.00  0.00     0.015 C 
HETATM   10  C10 UNL     1       4.631   6.587  21.702  1.00  0.00     0.133 C 
HETATM   11  C11 UNL     1       4.735   7.705  22.760  1.00  0.00     0.053 C 
ENDROOT
BRANCH  11  12
HETATM   12  C12 UNL     1       4.509   8.994  22.125  1.00  0.00    -0.022 C 
HETATM   13  C13 UNL     1       5.383   9.952  21.932  1.00  0.00    -0.029 C 
BRANCH  13  14
HETATM   14  C14 UNL     1       6.800   9.917  22.328  1.00  0.00     0.037 C 
BRANCH  14  15
HETATM   15  C15 UNL     1       7.023  10.856  23.512  1.00  0.00     0.086 C 
BRANCH  15  16
HETATM   16  S1  UNL     1       5.614  11.892  23.803  1.00  0.00    -0.093 SA
BRANCH  16  17
HETATM   17  C16 UNL     1       5.980  13.521  24.401  1.00  0.00     0.145 A 
HETATM   18  N1  UNL     1       7.265  13.984  24.499  1.00  0.00    -0.345 N 
HETATM   19  C17 UNL     1       7.202  15.232  24.975  1.00  0.00     0.107 A 
ATOM     20  H1  UNL     1       8.113  13.472  24.254  1.00  0.00     0.167 HD
HETATM   21  C18 UNL     1       5.896  15.599  25.193  1.00  0.00     0.109 A 
HETATM   22  N2  UNL     1       5.168  14.499  24.819  1.00  0.00    -0.341 N 
HETATM   23  C19 UNL     1       3.727  14.409  24.867  1.00  0.00     0.158 C 
ENDBRANCH  16  17
ENDBRANCH  15  16
ENDBRANCH  14  15
ENDBRANCH  13  14
ENDBRANCH  11  12
BRANCH  10  24
HETATM   24  O4  UNL     1       3.595   6.972  20.857  1.00  0.00    -0.394 OA
ATOM     25  H4  UNL     1       2.761   6.597  21.113  1.00  0.00     0.210 HD
ENDBRANCH  10  24
BRANCH   4  26
HETATM   26  O1  UNL     1       5.427   7.968  25.368  1.00  0.00    -0.395 OA
ATOM     27  H1  UNL     1       6.243   7.692  24.967  1.00  0.00     0.210 HD
ENDBRANCH   4  26
BRANCH   6  28
HETATM   28  O2  UNL     1       1.480   8.253  23.493  1.00  0.00    -0.394 OA
ATOM     29  H2  UNL     1       1.525   8.337  22.549  1.00  0.00     0.210 HD
ENDBRANCH   6  28
BRANCH   7  30
HETATM   30  O3  UNL     1       2.041   6.176  22.474  1.00  0.00    -0.394 OA
ATOM     31  H3  UNL     1       2.235   5.866  21.598  1.00  0.00     0.210 HD
ENDBRANCH   7  30
TORSDOF 9
ENDMDL
