MODEL 1
REMARK VINA RESULT: -7.704542797      0.000      0.000
REMARK  10 active torsions:
REMARK  status: ('A' for Active; 'I' for Inactive)
REMARK    1  A    between atoms: C2_2  and  S1_3 
REMARK    2  A    between atoms: S1_3  and  C3_4 
REMARK    3  A    between atoms: C4_5  and  O1_6 
REMARK    4  A    between atoms: C5_8  and  O2_9 
REMARK    5  A    between atoms: C6_11  and  O3_12 
REMARK    6  A    between atoms: C7_14  and  C8_15 
REMARK    7  A    between atoms: C8_15  and  O4_16 
REMARK    8  A    between atoms: C9_18  and  O5_19 
REMARK    9  A    between atoms: O5_19  and  C10_20 
REMARK   10  A    between atoms: C10_20  and  C11_22 
ROOT
HETATM    1  C3  UNL     1       0.001  10.438  24.666  1.00  0.00     0.108 C 
HETATM    2  C4  UNL     1      -1.176  11.314  24.652  1.00  0.00     0.165 C 
HETATM    3  C5  UNL     1      -1.190  12.470  23.733  1.00  0.00     0.177 C 
HETATM    4  C6  UNL     1      -0.079  12.505  22.725  1.00  0.00     0.158 C 
HETATM    5  C7  UNL     1       1.232  12.288  23.455  1.00  0.00     0.071 C 
HETATM    6  C9  UNL     1       1.222  10.875  23.922  1.00  0.00     0.157 C 
ENDROOT
BRANCH   6   7
HETATM    7  O5  UNL     1       2.421  10.377  24.403  1.00  0.00    -0.313 OA
BRANCH   7   8
HETATM    8  C10 UNL     1       3.310   9.538  23.820  1.00  0.00     0.271 C 
HETATM    9  O6  UNL     1       2.786   8.450  23.495  1.00  0.00    -0.264 OA
BRANCH   8  10
HETATM   10  C11 UNL     1       4.745   9.814  23.567  1.00  0.00     0.062 C 
HETATM   11  C12 UNL     1       5.640   8.772  24.193  1.00  0.00     0.030 C 
HETATM   12  C13 UNL     1       5.161  11.139  24.073  1.00  0.00    -0.005 C 
HETATM   13  C14 UNL     1       6.286  11.649  23.562  1.00  0.00    -0.086 C 
HETATM   14  C15 UNL     1       6.710  12.982  24.066  1.00  0.00     0.043 C 
HETATM   15  C16 UNL     1       7.109  10.968  22.545  1.00  0.00     0.033 C 
HETATM   16  C17 UNL     1       6.345  10.051  21.648  1.00  0.00     0.006 C 
HETATM   17  C18 UNL     1       4.919   9.845  22.056  1.00  0.00     0.024 C 
ENDBRANCH   8  10
ENDBRANCH   7   8
ENDBRANCH   6   7
BRANCH   1  18
HETATM   18  S1  UNL     1       0.361  10.049  26.432  1.00  0.00    -0.159 SA
BRANCH  18  19
HETATM   19  C2  UNL     1       0.691   8.271  26.541  1.00  0.00     0.070 C 
HETATM   20  C1  UNL     1       0.344   7.772  27.949  1.00  0.00     0.016 C 
ENDBRANCH  18  19
ENDBRANCH   1  18
BRANCH   5  21
HETATM   21  C8  UNL     1       1.514  13.345  24.450  1.00  0.00     0.174 C 
BRANCH  21  22
HETATM   22  O4  UNL     1       2.902  13.480  24.551  1.00  0.00    -0.400 OA
ATOM     23  H4  UNL     1       3.246  12.677  24.927  1.00  0.00     0.209 HD
ENDBRANCH  21  22
ENDBRANCH   5  21
BRANCH   2  24
HETATM   24  O1  UNL     1      -1.488  11.816  25.945  1.00  0.00    -0.392 OA
ATOM     25  H1  UNL     1      -1.612  12.757  25.945  1.00  0.00     0.210 HD
ENDBRANCH   2  24
BRANCH   4  26
HETATM   26  O3  UNL     1      -0.123  13.705  22.039  1.00  0.00    -0.392 OA
ATOM     27  H3  UNL     1      -0.076  13.535  21.105  1.00  0.00     0.210 HD
ENDBRANCH   4  26
BRANCH   3  28
HETATM   28  O2  UNL     1      -2.397  12.584  23.008  1.00  0.00    -0.390 OA
ATOM     29  H2  UNL     1      -2.917  13.334  23.271  1.00  0.00     0.210 HD
ENDBRANCH   3  28
TORSDOF 10
ENDMDL
MODEL 2
REMARK VINA RESULT: -7.678624324      1.760      3.717
REMARK  10 active torsions:
REMARK  status: ('A' for Active; 'I' for Inactive)
REMARK    1  A    between atoms: C2_2  and  S1_3 
REMARK    2  A    between atoms: S1_3  and  C3_4 
REMARK    3  A    between atoms: C4_5  and  O1_6 
REMARK    4  A    between atoms: C5_8  and  O2_9 
REMARK    5  A    between atoms: C6_11  and  O3_12 
REMARK    6  A    between atoms: C7_14  and  C8_15 
REMARK    7  A    between atoms: C8_15  and  O4_16 
REMARK    8  A    between atoms: C9_18  and  O5_19 
REMARK    9  A    between atoms: O5_19  and  C10_20 
REMARK   10  A    between atoms: C10_20  and  C11_22 
ROOT
HETATM    1  C3  UNL     1       0.553  11.650  25.168  1.00  0.00     0.108 C 
HETATM    2  C4  UNL     1      -0.545  11.579  26.139  1.00  0.00     0.165 C 
HETATM    3  C5  UNL     1      -0.567  10.463  27.107  1.00  0.00     0.177 C 
HETATM    4  C6  UNL     1       0.677   9.626  27.152  1.00  0.00     0.158 C 
HETATM    5  C7  UNL     1       1.036   9.231  25.733  1.00  0.00     0.071 C 
HETATM    6  C9  UNL     1       1.474  10.478  25.049  1.00  0.00     0.157 C 
ENDROOT
BRANCH   6   7
HETATM    7  O5  UNL     1       2.081  10.323  23.814  1.00  0.00    -0.313 OA
BRANCH   7   8
HETATM    8  C10 UNL     1       3.171   9.598  23.467  1.00  0.00     0.271 C 
HETATM    9  O6  UNL     1       2.862   8.483  22.992  1.00  0.00    -0.264 OA
BRANCH   8  10
HETATM   10  C11 UNL     1       4.587  10.016  23.607  1.00  0.00     0.062 C 
HETATM   11  C12 UNL     1       5.350   9.121  24.552  1.00  0.00     0.030 C 
HETATM   12  C13 UNL     1       4.718  11.408  24.086  1.00  0.00    -0.005 C 
HETATM   13  C14 UNL     1       5.893  12.008  23.870  1.00  0.00    -0.086 C 
HETATM   14  C15 UNL     1       6.032  13.409  24.350  1.00  0.00     0.043 C 
HETATM   15  C16 UNL     1       7.033  11.361  23.194  1.00  0.00     0.033 C 
HETATM   16  C17 UNL     1       6.648  10.312  22.205  1.00  0.00     0.006 C 
HETATM   17  C18 UNL     1       5.189   9.973  22.210  1.00  0.00     0.024 C 
ENDBRANCH   8  10
ENDBRANCH   7   8
ENDBRANCH   6   7
BRANCH   1  18
HETATM   18  S1  UNL     1      -0.191  12.122  23.548  1.00  0.00    -0.159 SA
BRANCH  18  19
HETATM   19  C2  UNL     1       0.837  13.434  22.839  1.00  0.00     0.070 C 
HETATM   20  C1  UNL     1       1.656  14.099  23.952  1.00  0.00     0.016 C 
ENDBRANCH  18  19
ENDBRANCH   1  18
BRANCH   5  21
HETATM   21  C8  UNL     1      -0.014   8.416  25.083  1.00  0.00     0.174 C 
BRANCH  21  22
HETATM   22  O4  UNL     1       0.617   7.509  24.226  1.00  0.00    -0.400 OA
ATOM     23  H4  UNL     1      -0.014   7.243  23.567  1.00  0.00     0.209 HD
ENDBRANCH  21  22
ENDBRANCH   5  21
BRANCH   2  24
HETATM   24  O1  UNL     1      -1.820  11.600  25.510  1.00  0.00    -0.392 OA
ATOM     25  H1  UNL     1      -2.530  11.657  26.139  1.00  0.00     0.210 HD
ENDBRANCH   2  24
BRANCH   4  26
HETATM   26  O3  UNL     1       0.465   8.537  27.978  1.00  0.00    -0.392 OA
ATOM     27  H3  UNL     1       1.195   7.934  27.896  1.00  0.00     0.210 HD
ENDBRANCH   4  26
BRANCH   3  28
HETATM   28  O2  UNL     1      -0.817  10.886  28.430  1.00  0.00    -0.390 OA
ATOM     29  H2  UNL     1      -0.747  10.182  29.064  1.00  0.00     0.210 HD
ENDBRANCH   3  28
TORSDOF 10
ENDMDL
MODEL 3
REMARK VINA RESULT: -7.344178144      1.362      2.322
REMARK  10 active torsions:
REMARK  status: ('A' for Active; 'I' for Inactive)
REMARK    1  A    between atoms: C2_2  and  S1_3 
REMARK    2  A    between atoms: S1_3  and  C3_4 
REMARK    3  A    between atoms: C4_5  and  O1_6 
REMARK    4  A    between atoms: C5_8  and  O2_9 
REMARK    5  A    between atoms: C6_11  and  O3_12 
REMARK    6  A    between atoms: C7_14  and  C8_15 
REMARK    7  A    between atoms: C8_15  and  O4_16 
REMARK    8  A    between atoms: C9_18  and  O5_19 
REMARK    9  A    between atoms: O5_19  and  C10_20 
REMARK   10  A    between atoms: C10_20  and  C11_22 
ROOT
HETATM    1  C3  UNL     1       0.182  11.024  24.408  1.00  0.00     0.108 C 
HETATM    2  C4  UNL     1      -1.124  11.589  24.050  1.00  0.00     0.165 C 
HETATM    3  C5  UNL     1      -1.180  12.655  23.030  1.00  0.00     0.177 C 
HETATM    4  C6  UNL     1       0.098  12.901  22.283  1.00  0.00     0.158 C 
HETATM    5  C7  UNL     1       1.218  13.046  23.295  1.00  0.00     0.071 C 
HETATM    6  C9  UNL     1       1.414  11.700  23.899  1.00  0.00     0.157 C 
ENDROOT
BRANCH   6   7
HETATM    7  O5  UNL     1       2.548  11.533  24.675  1.00  0.00    -0.313 OA
BRANCH   7   8
HETATM    8  C10 UNL     1       3.849  11.453  24.306  1.00  0.00     0.271 C 
HETATM    9  O6  UNL     1       4.431  12.556  24.394  1.00  0.00    -0.264 OA
BRANCH   8  10
HETATM   10  C11 UNL     1       4.560  10.236  23.845  1.00  0.00     0.062 C 
HETATM   11  C12 UNL     1       4.244   9.908  22.406  1.00  0.00     0.030 C 
HETATM   12  C13 UNL     1       4.238   9.050  24.667  1.00  0.00    -0.005 C 
HETATM   13  C14 UNL     1       5.096   8.027  24.603  1.00  0.00    -0.086 C 
HETATM   14  C15 UNL     1       4.778   6.831  25.428  1.00  0.00     0.043 C 
HETATM   15  C16 UNL     1       6.315   8.027  23.772  1.00  0.00     0.033 C 
HETATM   16  C17 UNL     1       6.899   9.380  23.537  1.00  0.00     0.006 C 
HETATM   17  C18 UNL     1       6.045  10.509  24.028  1.00  0.00     0.024 C 
ENDBRANCH   8  10
ENDBRANCH   7   8
ENDBRANCH   6   7
BRANCH   1  18
HETATM   18  S1  UNL     1       0.200  10.830  26.242  1.00  0.00    -0.159 SA
BRANCH  18  19
HETATM   19  C2  UNL     1       0.644   9.112  26.603  1.00  0.00     0.070 C 
HETATM   20  C1  UNL     1       0.614   8.293  25.307  1.00  0.00     0.016 C 
ENDBRANCH  18  19
ENDBRANCH   1  18
BRANCH   5  21
HETATM   21  C8  UNL     1       1.019  14.193  24.207  1.00  0.00     0.174 C 
BRANCH  21  22
HETATM   22  O4  UNL     1       2.281  14.665  24.584  1.00  0.00    -0.400 OA
ATOM     23  H4  UNL     1       2.469  15.440  24.067  1.00  0.00     0.209 HD
ENDBRANCH  21  22
ENDBRANCH   5  21
BRANCH   2  24
HETATM   24  O1  UNL     1      -1.831  12.071  25.185  1.00  0.00    -0.392 OA
ATOM     25  H1  UNL     1      -2.679  12.430  24.954  1.00  0.00     0.210 HD
ENDBRANCH   2  24
BRANCH   4  26
HETATM   26  O3  UNL     1      -0.050  14.017  21.479  1.00  0.00    -0.392 OA
ATOM     27  H3  UNL     1      -0.852  13.936  20.975  1.00  0.00     0.210 HD
ENDBRANCH   4  26
BRANCH   3  28
HETATM   28  O2  UNL     1      -2.180  12.435  22.057  1.00  0.00    -0.390 OA
ATOM     29  H2  UNL     1      -2.960  12.025  22.413  1.00  0.00     0.210 HD
ENDBRANCH   3  28
TORSDOF 10
ENDMDL
MODEL 4
REMARK VINA RESULT: -7.312282952      1.318      2.514
REMARK  10 active torsions:
REMARK  status: ('A' for Active; 'I' for Inactive)
REMARK    1  A    between atoms: C2_2  and  S1_3 
REMARK    2  A    between atoms: S1_3  and  C3_4 
REMARK    3  A    between atoms: C4_5  and  O1_6 
REMARK    4  A    between atoms: C5_8  and  O2_9 
REMARK    5  A    between atoms: C6_11  and  O3_12 
REMARK    6  A    between atoms: C7_14  and  C8_15 
REMARK    7  A    between atoms: C8_15  and  O4_16 
REMARK    8  A    between atoms: C9_18  and  O5_19 
REMARK    9  A    between atoms: O5_19  and  C10_20 
REMARK   10  A    between atoms: C10_20  and  C11_22 
ROOT
HETATM    1  C3  UNL     1       0.236  10.794  24.497  1.00  0.00     0.108 C 
HETATM    2  C4  UNL     1      -1.059  11.442  24.259  1.00  0.00     0.165 C 
HETATM    3  C5  UNL     1      -1.137  12.529  23.263  1.00  0.00     0.177 C 
HETATM    4  C6  UNL     1       0.085  12.714  22.413  1.00  0.00     0.158 C 
HETATM    5  C7  UNL     1       1.294  12.773  23.326  1.00  0.00     0.071 C 
HETATM    6  C9  UNL     1       1.459  11.407  23.893  1.00  0.00     0.157 C 
ENDROOT
BRANCH   6   7
HETATM    7  O5  UNL     1       2.643  11.158  24.566  1.00  0.00    -0.313 OA
BRANCH   7   8
HETATM    8  C10 UNL     1       3.905  11.038  24.089  1.00  0.00     0.271 C 
HETATM    9  O6  UNL     1       4.416  12.148  23.825  1.00  0.00    -0.264 OA
BRANCH   8  10
HETATM   10  C11 UNL     1       4.650   9.772  23.882  1.00  0.00     0.062 C 
HETATM   11  C12 UNL     1       6.142   9.996  23.831  1.00  0.00     0.030 C 
HETATM   12  C13 UNL     1       4.247   9.078  22.641  1.00  0.00    -0.005 C 
HETATM   13  C14 UNL     1       4.543   7.778  22.559  1.00  0.00    -0.086 C 
HETATM   14  C15 UNL     1       4.141   7.073  21.312  1.00  0.00     0.043 C 
HETATM   15  C16 UNL     1       5.236   7.024  23.621  1.00  0.00     0.033 C 
HETATM   16  C17 UNL     1       5.010   7.553  24.998  1.00  0.00     0.006 C 
HETATM   17  C18 UNL     1       4.276   8.858  25.039  1.00  0.00     0.024 C 
ENDBRANCH   8  10
ENDBRANCH   7   8
ENDBRANCH   6   7
BRANCH   1  18
HETATM   18  S1  UNL     1       0.398  10.566  26.319  1.00  0.00    -0.159 SA
BRANCH  18  19
HETATM   19  C2  UNL     1       0.691   8.804  26.622  1.00  0.00     0.070 C 
HETATM   20  C1  UNL     1       0.615   8.037  25.296  1.00  0.00     0.016 C 
ENDBRANCH  18  19
ENDBRANCH   1  18
BRANCH   5  21
HETATM   21  C8  UNL     1       1.243  13.913  24.269  1.00  0.00     0.174 C 
BRANCH  21  22
HETATM   22  O4  UNL     1       2.557  14.255  24.600  1.00  0.00    -0.400 OA
ATOM     23  H4  UNL     1       2.784  13.799  25.403  1.00  0.00     0.209 HD
ENDBRANCH  21  22
ENDBRANCH   5  21
BRANCH   2  24
HETATM   24  O1  UNL     1      -1.637  11.943  25.458  1.00  0.00    -0.392 OA
ATOM     25  H1  UNL     1      -2.582  12.016  25.397  1.00  0.00     0.210 HD
ENDBRANCH   2  24
BRANCH   4  26
HETATM   26  O3  UNL     1      -0.063  13.851  21.640  1.00  0.00    -0.392 OA
ATOM     27  H3  UNL     1      -0.793  14.362  21.971  1.00  0.00     0.210 HD
ENDBRANCH   4  26
BRANCH   3  28
HETATM   28  O2  UNL     1      -2.228  12.386  22.376  1.00  0.00    -0.390 OA
ATOM     29  H2  UNL     1      -2.776  11.638  22.581  1.00  0.00     0.210 HD
ENDBRANCH   3  28
TORSDOF 10
ENDMDL
MODEL 5
REMARK VINA RESULT: -7.159953376      2.260      4.349
REMARK  10 active torsions:
REMARK  status: ('A' for Active; 'I' for Inactive)
REMARK    1  A    between atoms: C2_2  and  S1_3 
REMARK    2  A    between atoms: S1_3  and  C3_4 
REMARK    3  A    between atoms: C4_5  and  O1_6 
REMARK    4  A    between atoms: C5_8  and  O2_9 
REMARK    5  A    between atoms: C6_11  and  O3_12 
REMARK    6  A    between atoms: C7_14  and  C8_15 
REMARK    7  A    between atoms: C8_15  and  O4_16 
REMARK    8  A    between atoms: C9_18  and  O5_19 
REMARK    9  A    between atoms: O5_19  and  C10_20 
REMARK   10  A    between atoms: C10_20  and  C11_22 
ROOT
HETATM    1  C3  UNL     1       2.142  10.088  24.843  1.00  0.00     0.108 C 
HETATM    2  C4  UNL     1       1.185   9.596  25.841  1.00  0.00     0.165 C 
HETATM    3  C5  UNL     1       1.178   8.156  26.169  1.00  0.00     0.177 C 
HETATM    4  C6  UNL     1       2.321   7.362  25.609  1.00  0.00     0.158 C 
HETATM    5  C7  UNL     1       2.439   7.678  24.130  1.00  0.00     0.071 C 
HETATM    6  C9  UNL     1       2.908   9.087  24.039  1.00  0.00     0.157 C 
ENDROOT
BRANCH   6   7
HETATM    7  O5  UNL     1       3.322   9.519  22.790  1.00  0.00    -0.313 OA
BRANCH   7   8
HETATM    8  C10 UNL     1       4.572   9.738  22.316  1.00  0.00     0.271 C 
HETATM    9  O6  UNL     1       4.623   9.654  21.070  1.00  0.00    -0.264 OA
BRANCH   8  10
HETATM   10  C11 UNL     1       5.777  10.046  23.123  1.00  0.00     0.062 C 
HETATM   11  C12 UNL     1       5.935   9.097  24.287  1.00  0.00     0.030 C 
HETATM   12  C13 UNL     1       5.763  11.425  23.654  1.00  0.00    -0.005 C 
HETATM   13  C14 UNL     1       6.938  11.930  24.040  1.00  0.00    -0.086 C 
HETATM   14  C15 UNL     1       6.931  13.318  24.575  1.00  0.00     0.043 C 
HETATM   15  C16 UNL     1       8.214  11.194  23.963  1.00  0.00     0.033 C 
HETATM   16  C17 UNL     1       8.271  10.174  22.875  1.00  0.00     0.006 C 
HETATM   17  C18 UNL     1       6.965   9.950  22.178  1.00  0.00     0.024 C 
ENDBRANCH   8  10
ENDBRANCH   7   8
ENDBRANCH   6   7
BRANCH   1  18
HETATM   18  S1  UNL     1       1.238  11.293  23.780  1.00  0.00    -0.159 SA
BRANCH  18  19
HETATM   19  C2  UNL     1       2.260  12.784  23.658  1.00  0.00     0.070 C 
HETATM   20  C1  UNL     1       1.466  13.992  24.170  1.00  0.00     0.016 C 
ENDBRANCH  18  19
ENDBRANCH   1  18
BRANCH   5  21
HETATM   21  C8  UNL     1       1.230   7.299  23.366  1.00  0.00     0.174 C 
BRANCH  21  22
HETATM   22  O4  UNL     1       1.642   6.839  22.112  1.00  0.00    -0.400 OA
ATOM     23  H4  UNL     1       2.525   6.498  22.202  1.00  0.00     0.209 HD
ENDBRANCH  21  22
ENDBRANCH   5  21
BRANCH   2  24
HETATM   24  O1  UNL     1      -0.154   9.950  25.521  1.00  0.00    -0.392 OA
ATOM     25  H1  UNL     1      -0.374  10.826  25.816  1.00  0.00     0.210 HD
ENDBRANCH   2  24
BRANCH   4  26
HETATM   26  O3  UNL     1       2.109   6.018  25.858  1.00  0.00    -0.392 OA
ATOM     27  H3  UNL     1       2.274   5.839  26.776  1.00  0.00     0.210 HD
ENDBRANCH   4  26
BRANCH   3  28
HETATM   28  O2  UNL     1       1.157   7.908  27.559  1.00  0.00    -0.390 OA
ATOM     29  H2  UNL     1       0.326   8.129  27.962  1.00  0.00     0.210 HD
ENDBRANCH   3  28
TORSDOF 10
ENDMDL
