MODEL 1
REMARK VINA RESULT: -7.772342885      0.000      0.000
REMARK  9 active torsions:
REMARK  status: ('A' for Active; 'I' for Inactive)
REMARK    1  A    between atoms: C4_6  and  C5_7 
REMARK       I    between atoms: C5_7  and  N2_9 
REMARK    2  A    between atoms: N2_9  and  N3_11 
REMARK    3  A    between atoms: N3_11  and  C6_13 
REMARK    4  A    between atoms: C6_13  and  N4_15 
REMARK    5  A    between atoms: N4_15  and  C7_17 
REMARK    6  A    between atoms: C7_17  and  C8_18 
REMARK    7  A    between atoms: C8_18  and  O2_19 
REMARK    8  A    between atoms: O2_19  and  C9_20 
REMARK       I    between atoms: C9_20  and  N5_22 
REMARK    9  A    between atoms: N5_22  and  C10_24 
ROOT
HETATM    1  N4  UNL     1       4.389   9.028  24.260  1.00  0.00    -0.343 N 
ATOM      2  H4  UNL     1       3.774   9.238  23.474  1.00  0.00     0.167 HD
ENDROOT
BRANCH   1   3
HETATM    3  C6  UNL     1       3.667   8.622  25.365  1.00  0.00     0.190 C 
HETATM    4  S1  UNL     1       4.088   7.450  26.366  1.00  0.00    -0.039 SA
BRANCH   3   5
HETATM    5  N3  UNL     1       2.439   9.325  25.673  1.00  0.00    -0.273 N 
ATOM      6  H3  UNL     1       2.116   9.302  26.640  1.00  0.00     0.189 HD
BRANCH   5   7
HETATM    7  N2  UNL     1       1.674  10.019  24.768  1.00  0.00    -0.262 N 
HETATM    8  C5  UNL     1       0.548  10.753  25.213  1.00  0.00     0.295 C 
HETATM    9  O1  UNL     1       0.243  10.797  26.459  1.00  0.00    -0.264 OA
ATOM     10  H2  UNL     1       1.917  10.007  23.778  1.00  0.00     0.190 HD
BRANCH   8  11
HETATM   11  C4  UNL     1      -0.316  11.486  24.298  1.00  0.00     0.162 A 
HETATM   12  C3  UNL     1      -1.694  11.595  24.343  1.00  0.00     0.133 A 
HETATM   13  N1  UNL     1      -2.070  12.354  23.310  1.00  0.00    -0.347 N 
HETATM   14  C2  UNL     1      -0.961  12.711  22.635  1.00  0.00     0.120 A 
ATOM     15  H1  UNL     1      -3.028  12.615  23.075  1.00  0.00     0.167 HD
HETATM   16  C1  UNL     1      -0.956  13.566  21.404  1.00  0.00     0.098 C 
HETATM   17  O4  UNL     1       0.045  12.180  23.250  1.00  0.00    -0.291 OA
ENDBRANCH   8  11
ENDBRANCH   5   7
ENDBRANCH   3   5
ENDBRANCH   1   3
BRANCH   1  18
HETATM   18  C7  UNL     1       5.735   9.230  23.921  1.00  0.00     0.102 C 
BRANCH  18  19
HETATM   19  C8  UNL     1       6.066  10.545  23.345  1.00  0.00     0.104 C 
HETATM   20  C13 UNL     1       7.291  11.092  24.149  1.00  0.00     0.044 C 
HETATM   21  C14 UNL     1       8.420  10.225  23.706  1.00  0.00     0.004 C 
HETATM   22  C15 UNL     1       8.183  10.023  22.241  1.00  0.00     0.004 C 
HETATM   23  C16 UNL     1       6.758  10.369  21.973  1.00  0.00     0.044 C 
BRANCH  19  24
HETATM   24  O2  UNL     1       5.149  11.546  23.193  1.00  0.00    -0.287 OA
BRANCH  24  25
HETATM   25  C9  UNL     1       4.776  12.369  24.262  1.00  0.00     0.362 C 
HETATM   26  O3  UNL     1       3.942  11.923  25.065  1.00  0.00    -0.238 OA
HETATM   27  N5  UNL     1       5.328  13.644  24.400  1.00  0.00    -0.332 N 
ATOM     28  H5  UNL     1       6.012  13.937  23.702  1.00  0.00     0.165 HD
BRANCH  27  29
HETATM   29  C10 UNL     1       5.015  14.565  25.432  1.00  0.00     0.086 A 
HETATM   30  C11 UNL     1       3.868  15.534  25.282  1.00  0.00     0.027 A 
HETATM   31  C12 UNL     1       5.258  16.058  25.262  1.00  0.00     0.027 A 
ENDBRANCH  27  29
ENDBRANCH  24  25
ENDBRANCH  19  24
ENDBRANCH  18  19
ENDBRANCH   1  18
TORSDOF 9
ENDMDL
MODEL 2
REMARK VINA RESULT: -7.704956934      2.158      6.077
REMARK  9 active torsions:
REMARK  status: ('A' for Active; 'I' for Inactive)
REMARK    1  A    between atoms: C4_6  and  C5_7 
REMARK       I    between atoms: C5_7  and  N2_9 
REMARK    2  A    between atoms: N2_9  and  N3_11 
REMARK    3  A    between atoms: N3_11  and  C6_13 
REMARK    4  A    between atoms: C6_13  and  N4_15 
REMARK    5  A    between atoms: N4_15  and  C7_17 
REMARK    6  A    between atoms: C7_17  and  C8_18 
REMARK    7  A    between atoms: C8_18  and  O2_19 
REMARK    8  A    between atoms: O2_19  and  C9_20 
REMARK       I    between atoms: C9_20  and  N5_22 
REMARK    9  A    between atoms: N5_22  and  C10_24 
ROOT
HETATM    1  N4  UNL     1       2.971   8.260  25.299  1.00  0.00    -0.343 N 
ATOM      2  H4  UNL     1       3.531   7.634  25.878  1.00  0.00     0.167 HD
ENDROOT
BRANCH   1   3
HETATM    3  C6  UNL     1       3.117   7.964  23.958  1.00  0.00     0.190 C 
HETATM    4  S1  UNL     1       2.137   7.034  23.104  1.00  0.00    -0.039 SA
BRANCH   3   5
HETATM    5  N3  UNL     1       4.226   8.560  23.244  1.00  0.00    -0.273 N 
ATOM      6  H3  UNL     1       4.481   8.149  22.347  1.00  0.00     0.189 HD
BRANCH   5   7
HETATM    7  N2  UNL     1       4.962   9.636  23.678  1.00  0.00    -0.262 N 
HETATM    8  C5  UNL     1       4.478  10.950  23.474  1.00  0.00     0.295 C 
HETATM    9  O1  UNL     1       3.344  11.152  22.907  1.00  0.00    -0.264 OA
ATOM     10  H2  UNL     1       5.856   9.487  24.145  1.00  0.00     0.190 HD
BRANCH   8  11
HETATM   11  C4  UNL     1       5.226  12.129  23.887  1.00  0.00     0.162 A 
HETATM   12  C3  UNL     1       6.598  12.305  23.874  1.00  0.00     0.133 A 
HETATM   13  N1  UNL     1       6.849  13.532  24.342  1.00  0.00    -0.347 N 
HETATM   14  C2  UNL     1       5.669  14.109  24.639  1.00  0.00     0.120 A 
ATOM     15  H1  UNL     1       7.770  13.954  24.454  1.00  0.00     0.167 HD
HETATM   16  C1  UNL     1       5.519  15.493  25.195  1.00  0.00     0.098 C 
HETATM   17  O4  UNL     1       4.744  13.251  24.356  1.00  0.00    -0.291 OA
ENDBRANCH   8  11
ENDBRANCH   5   7
ENDBRANCH   3   5
ENDBRANCH   1   3
BRANCH   1  18
HETATM   18  C7  UNL     1       2.266   9.184  26.083  1.00  0.00     0.102 C 
BRANCH  18  19
HETATM   19  C8  UNL     1       0.797   9.079  26.042  1.00  0.00     0.104 C 
HETATM   20  C13 UNL     1       0.435   7.640  26.536  1.00  0.00     0.044 C 
HETATM   21  C14 UNL     1       0.739   7.680  27.995  1.00  0.00     0.004 C 
HETATM   22  C15 UNL     1       0.289   9.041  28.433  1.00  0.00     0.004 C 
HETATM   23  C16 UNL     1       0.171   9.881  27.207  1.00  0.00     0.044 C 
BRANCH  19  24
HETATM   24  O2  UNL     1       0.059   9.367  24.929  1.00  0.00    -0.287 OA
BRANCH  24  25
HETATM   25  C9  UNL     1      -0.322  10.677  24.619  1.00  0.00     0.362 C 
HETATM   26  O3  UNL     1      -1.536  10.937  24.621  1.00  0.00    -0.238 OA
HETATM   27  N5  UNL     1       0.640  11.642  24.314  1.00  0.00    -0.332 N 
ATOM     28  H5  UNL     1       1.618  11.352  24.339  1.00  0.00     0.165 HD
BRANCH  27  29
HETATM   29  C10 UNL     1       0.368  12.991  23.973  1.00  0.00     0.086 A 
HETATM   30  C11 UNL     1       0.991  13.620  22.752  1.00  0.00     0.027 A 
HETATM   31  C12 UNL     1       1.435  14.069  24.096  1.00  0.00     0.027 A 
ENDBRANCH  27  29
ENDBRANCH  24  25
ENDBRANCH  19  24
ENDBRANCH  18  19
ENDBRANCH   1  18
TORSDOF 9
ENDMDL
MODEL 3
REMARK VINA RESULT: -7.673224975      2.231      6.046
REMARK  9 active torsions:
REMARK  status: ('A' for Active; 'I' for Inactive)
REMARK    1  A    between atoms: C4_6  and  C5_7 
REMARK       I    between atoms: C5_7  and  N2_9 
REMARK    2  A    between atoms: N2_9  and  N3_11 
REMARK    3  A    between atoms: N3_11  and  C6_13 
REMARK    4  A    between atoms: C6_13  and  N4_15 
REMARK    5  A    between atoms: N4_15  and  C7_17 
REMARK    6  A    between atoms: C7_17  and  C8_18 
REMARK    7  A    between atoms: C8_18  and  O2_19 
REMARK    8  A    between atoms: O2_19  and  C9_20 
REMARK       I    between atoms: C9_20  and  N5_22 
REMARK    9  A    between atoms: N5_22  and  C10_24 
ROOT
HETATM    1  N4  UNL     1       0.916   7.981  24.587  1.00  0.00    -0.343 N 
ATOM      2  H4  UNL     1       0.218   7.568  23.970  1.00  0.00     0.167 HD
ENDROOT
BRANCH   1   3
HETATM    3  C6  UNL     1       2.090   8.244  23.908  1.00  0.00     0.190 C 
HETATM    4  S1  UNL     1       3.235   7.175  23.590  1.00  0.00    -0.039 SA
BRANCH   3   5
HETATM    5  N3  UNL     1       2.303   9.587  23.410  1.00  0.00    -0.273 N 
ATOM      6  H3  UNL     1       1.730   9.891  22.624  1.00  0.00     0.189 HD
BRANCH   5   7
HETATM    7  N2  UNL     1       3.215  10.483  23.910  1.00  0.00    -0.262 N 
HETATM    8  C5  UNL     1       3.077  11.863  23.626  1.00  0.00     0.295 C 
HETATM    9  O1  UNL     1       2.094  12.293  22.922  1.00  0.00    -0.264 OA
ATOM     10  H2  UNL     1       3.991  10.155  24.486  1.00  0.00     0.190 HD
BRANCH   8  11
HETATM   11  C4  UNL     1       4.027  12.856  24.106  1.00  0.00     0.162 A 
HETATM   12  C3  UNL     1       5.405  12.749  24.160  1.00  0.00     0.133 A 
HETATM   13  N1  UNL     1       5.877  13.890  24.673  1.00  0.00    -0.347 N 
HETATM   14  C2  UNL     1       4.825  14.690  24.933  1.00  0.00     0.120 A 
ATOM     15  H1  UNL     1       6.858  14.113  24.838  1.00  0.00     0.167 HD
HETATM   16  C1  UNL     1       4.931  16.065  25.520  1.00  0.00     0.098 C 
HETATM   17  O4  UNL     1       3.761  14.044  24.585  1.00  0.00    -0.291 OA
ENDBRANCH   8  11
ENDBRANCH   5   7
ENDBRANCH   3   5
ENDBRANCH   1   3
BRANCH   1  18
HETATM   18  C7  UNL     1       0.421   8.127  25.891  1.00  0.00     0.102 C 
BRANCH  18  19
HETATM   19  C8  UNL     1       0.956   9.262  26.664  1.00  0.00     0.104 C 
HETATM   20  C13 UNL     1       0.243   9.233  28.055  1.00  0.00     0.044 C 
HETATM   21  C14 UNL     1       0.835   8.044  28.732  1.00  0.00     0.004 C 
HETATM   22  C15 UNL     1       2.280   8.071  28.338  1.00  0.00     0.004 C 
HETATM   23  C16 UNL     1       2.394   8.952  27.141  1.00  0.00     0.044 C 
BRANCH  19  24
HETATM   24  O2  UNL     1       0.968  10.544  26.194  1.00  0.00    -0.287 OA
BRANCH  24  25
HETATM   25  C9  UNL     1      -0.192  11.161  25.713  1.00  0.00     0.362 C 
HETATM   26  O3  UNL     1      -1.026  11.544  26.549  1.00  0.00    -0.238 OA
HETATM   27  N5  UNL     1      -0.391  11.326  24.342  1.00  0.00    -0.332 N 
ATOM     28  H5  UNL     1       0.344  10.990  23.718  1.00  0.00     0.165 HD
BRANCH  27  29
HETATM   29  C10 UNL     1      -1.530  11.922  23.744  1.00  0.00     0.086 A 
HETATM   30  C11 UNL     1      -1.429  12.614  22.407  1.00  0.00     0.027 A 
HETATM   31  C12 UNL     1      -1.663  13.433  23.624  1.00  0.00     0.027 A 
ENDBRANCH  27  29
ENDBRANCH  24  25
ENDBRANCH  19  24
ENDBRANCH  18  19
ENDBRANCH   1  18
TORSDOF 9
ENDMDL
MODEL 4
REMARK VINA RESULT: -7.549841653      2.256      4.215
REMARK  9 active torsions:
REMARK  status: ('A' for Active; 'I' for Inactive)
REMARK    1  A    between atoms: C4_6  and  C5_7 
REMARK       I    between atoms: C5_7  and  N2_9 
REMARK    2  A    between atoms: N2_9  and  N3_11 
REMARK    3  A    between atoms: N3_11  and  C6_13 
REMARK    4  A    between atoms: C6_13  and  N4_15 
REMARK    5  A    between atoms: N4_15  and  C7_17 
REMARK    6  A    between atoms: C7_17  and  C8_18 
REMARK    7  A    between atoms: C8_18  and  O2_19 
REMARK    8  A    between atoms: O2_19  and  C9_20 
REMARK       I    between atoms: C9_20  and  N5_22 
REMARK    9  A    between atoms: N5_22  and  C10_24 
ROOT
HETATM    1  N4  UNL     1       6.019  12.966  24.486  1.00  0.00    -0.343 N 
ATOM      2  H4  UNL     1       6.710  13.184  25.203  1.00  0.00     0.167 HD
ENDROOT
BRANCH   1   3
HETATM    3  C6  UNL     1       4.796  13.535  24.781  1.00  0.00     0.190 C 
HETATM    4  S1  UNL     1       4.548  15.081  25.103  1.00  0.00    -0.039 SA
BRANCH   3   5
HETATM    5  N3  UNL     1       3.627  12.681  24.771  1.00  0.00    -0.273 N 
ATOM      6  H3  UNL     1       3.694  11.790  25.262  1.00  0.00     0.189 HD
BRANCH   5   7
HETATM    7  N2  UNL     1       2.436  12.974  24.154  1.00  0.00    -0.262 N 
HETATM    8  C5  UNL     1       1.301  12.162  24.390  1.00  0.00     0.295 C 
HETATM    9  O1  UNL     1       1.364  11.163  25.194  1.00  0.00    -0.264 OA
ATOM     10  H2  UNL     1       2.369  13.776  23.527  1.00  0.00     0.190 HD
BRANCH   8  11
HETATM   11  C4  UNL     1       0.020  12.406  23.743  1.00  0.00     0.162 A 
HETATM   12  C3  UNL     1      -1.223  11.934  24.126  1.00  0.00     0.133 A 
HETATM   13  N1  UNL     1      -2.117  12.398  23.247  1.00  0.00    -0.347 N 
HETATM   14  C2  UNL     1      -1.455  13.140  22.339  1.00  0.00     0.120 A 
ATOM     15  H1  UNL     1      -3.121  12.220  23.262  1.00  0.00     0.167 HD
HETATM   16  C1  UNL     1      -2.101  13.837  21.181  1.00  0.00     0.098 C 
HETATM   17  O4  UNL     1      -0.205  13.118  22.669  1.00  0.00    -0.291 OA
ENDBRANCH   8  11
ENDBRANCH   5   7
ENDBRANCH   3   5
ENDBRANCH   1   3
BRANCH   1  18
HETATM   18  C7  UNL     1       6.573  12.171  23.472  1.00  0.00     0.102 C 
BRANCH  18  19
HETATM   19  C8  UNL     1       6.332  10.721  23.582  1.00  0.00     0.104 C 
HETATM   20  C13 UNL     1       6.486  10.130  22.143  1.00  0.00     0.044 C 
HETATM   21  C14 UNL     1       7.950  10.218  21.879  1.00  0.00     0.004 C 
HETATM   22  C15 UNL     1       8.587   9.867  23.188  1.00  0.00     0.004 C 
HETATM   23  C16 UNL     1       7.545  10.026  24.242  1.00  0.00     0.044 C 
BRANCH  19  24
HETATM   24  O2  UNL     1       5.215  10.193  24.165  1.00  0.00    -0.287 OA
BRANCH  24  25
HETATM   25  C9  UNL     1       4.200   9.600  23.405  1.00  0.00     0.362 C 
HETATM   26  O3  UNL     1       3.518  10.343  22.681  1.00  0.00    -0.238 OA
HETATM   27  N5  UNL     1       3.973   8.225  23.475  1.00  0.00    -0.332 N 
ATOM     28  H5  UNL     1       4.580   7.681  24.089  1.00  0.00     0.165 HD
BRANCH  27  29
HETATM   29  C10 UNL     1       2.969   7.522  22.763  1.00  0.00     0.086 A 
HETATM   30  C11 UNL     1       1.574   7.391  23.321  1.00  0.00     0.027 A 
HETATM   31  C12 UNL     1       2.437   6.184  23.255  1.00  0.00     0.027 A 
ENDBRANCH  27  29
ENDBRANCH  24  25
ENDBRANCH  19  24
ENDBRANCH  18  19
ENDBRANCH   1  18
TORSDOF 9
ENDMDL
MODEL 5
REMARK VINA RESULT: -7.522428005      2.134      6.710
REMARK  9 active torsions:
REMARK  status: ('A' for Active; 'I' for Inactive)
REMARK    1  A    between atoms: C4_6  and  C5_7 
REMARK       I    between atoms: C5_7  and  N2_9 
REMARK    2  A    between atoms: N2_9  and  N3_11 
REMARK    3  A    between atoms: N3_11  and  C6_13 
REMARK    4  A    between atoms: C6_13  and  N4_15 
REMARK    5  A    between atoms: N4_15  and  C7_17 
REMARK    6  A    between atoms: C7_17  and  C8_18 
REMARK    7  A    between atoms: C8_18  and  O2_19 
REMARK    8  A    between atoms: O2_19  and  C9_20 
REMARK       I    between atoms: C9_20  and  N5_22 
REMARK    9  A    between atoms: N5_22  and  C10_24 
ROOT
HETATM    1  N4  UNL     1       1.329  10.069  24.526  1.00  0.00    -0.343 N 
ATOM      2  H4  UNL     1       1.913  10.816  24.901  1.00  0.00     0.167 HD
ENDROOT
BRANCH   1   3
HETATM    3  C6  UNL     1       2.088   8.971  24.172  1.00  0.00     0.190 C 
HETATM    4  S1  UNL     1       1.513   7.595  23.596  1.00  0.00    -0.039 SA
BRANCH   3   5
HETATM    5  N3  UNL     1       3.527   9.068  24.297  1.00  0.00    -0.273 N 
ATOM      6  H3  UNL     1       4.072   8.229  24.096  1.00  0.00     0.189 HD
BRANCH   5   7
HETATM    7  N2  UNL     1       4.217  10.196  24.665  1.00  0.00    -0.262 N 
HETATM    8  C5  UNL     1       4.230  11.325  23.811  1.00  0.00     0.295 C 
HETATM    9  O1  UNL     1       3.585  11.317  22.701  1.00  0.00    -0.264 OA
ATOM     10  H2  UNL     1       4.720  10.221  25.552  1.00  0.00     0.190 HD
BRANCH   8  11
HETATM   11  C4  UNL     1       4.967  12.538  24.135  1.00  0.00     0.162 A 
HETATM   12  C3  UNL     1       6.324  12.766  23.993  1.00  0.00     0.133 A 
HETATM   13  N1  UNL     1       6.569  14.009  24.416  1.00  0.00    -0.347 N 
HETATM   14  C2  UNL     1       5.400  14.548  24.811  1.00  0.00     0.120 A 
ATOM     15  H1  UNL     1       7.479  14.468  24.436  1.00  0.00     0.167 HD
HETATM   16  C1  UNL     1       5.246  15.936  25.355  1.00  0.00     0.098 C 
HETATM   17  O4  UNL     1       4.487  13.651  24.627  1.00  0.00    -0.291 OA
ENDBRANCH   8  11
ENDBRANCH   5   7
ENDBRANCH   3   5
ENDBRANCH   1   3
BRANCH   1  18
HETATM   18  C7  UNL     1      -0.024  10.439  24.513  1.00  0.00     0.102 C 
BRANCH  18  19
HETATM   19  C8  UNL     1      -0.332  11.782  25.036  1.00  0.00     0.104 C 
HETATM   20  C13 UNL     1       0.742  12.751  24.443  1.00  0.00     0.044 C 
HETATM   21  C14 UNL     1       0.375  12.848  23.001  1.00  0.00     0.004 C 
HETATM   22  C15 UNL     1      -1.123  12.877  22.999  1.00  0.00     0.004 C 
HETATM   23  C16 UNL     1      -1.576  12.360  24.322  1.00  0.00     0.044 C 
BRANCH  19  24
HETATM   24  O2  UNL     1      -0.487  12.047  26.367  1.00  0.00    -0.287 OA
BRANCH  24  25
HETATM   25  C9  UNL     1      -0.711  11.027  27.298  1.00  0.00     0.362 C 
HETATM   26  O3  UNL     1      -1.754  11.081  27.968  1.00  0.00    -0.238 OA
HETATM   27  N5  UNL     1       0.219   9.999  27.460  1.00  0.00    -0.332 N 
ATOM     28  H5  UNL     1       1.050  10.022  26.868  1.00  0.00     0.165 HD
BRANCH  27  29
HETATM   29  C10 UNL     1       0.103   8.926  28.379  1.00  0.00     0.086 A 
HETATM   30  C11 UNL     1       1.327   8.324  29.023  1.00  0.00     0.027 A 
HETATM   31  C12 UNL     1       0.575   7.523  28.024  1.00  0.00     0.027 A 
ENDBRANCH  27  29
ENDBRANCH  24  25
ENDBRANCH  19  24
ENDBRANCH  18  19
ENDBRANCH   1  18
TORSDOF 9
ENDMDL
