MODEL 1
REMARK VINA RESULT: -7.595009757      0.000      0.000
REMARK  7 active torsions:
REMARK  status: ('A' for Active; 'I' for Inactive)
REMARK    1  A    between atoms: C3_5  and  C5_7 
REMARK    2  A    between atoms: N2_10  and  N3_11 
REMARK    3  A    between atoms: C6_13  and  C7_14 
REMARK    4  A    between atoms: C8_15  and  C9_16 
REMARK    5  A    between atoms: C9_16  and  O3_17 
REMARK    6  A    between atoms: N4_19  and  O4_21 
REMARK    7  A    between atoms: C11_24  and  O5_25 
ROOT
HETATM    1  C7  UNL     1       2.839   8.555  23.694  1.00  0.00     0.046 C 
HETATM    2  C8  UNL     1       3.975   8.273  22.769  1.00  0.00     0.083 C 
HETATM    3  C10 UNL     1       4.739   7.160  23.438  1.00  0.00     0.063 C 
HETATM    4  C11 UNL     1       5.376   7.742  24.649  1.00  0.00     0.045 C 
HETATM    5  C12 UNL     1       4.384   8.042  25.509  1.00  0.00     0.012 C 
HETATM    6  C13 UNL     1       3.084   7.651  24.855  1.00  0.00     0.029 C 
HETATM    7  C14 UNL     1       3.589   6.399  24.115  1.00  0.00    -0.030 C 
HETATM    8  C15 UNL     1       4.076   5.440  25.150  1.00  0.00     0.016 C 
HETATM    9  C16 UNL     1       2.606   5.847  23.164  1.00  0.00     0.016 C 
ENDROOT
BRANCH   1  10
HETATM   10  C6  UNL     1       2.670   9.939  24.099  1.00  0.00     0.086 C 
HETATM   11  N3  UNL     1       2.300  10.915  23.354  1.00  0.00    -0.307 N 
ATOM     12  H3  UNL     1       2.098  10.725  22.373  1.00  0.00     0.186 HD
BRANCH  11  13
HETATM   13  N2  UNL     1       2.159  12.228  23.819  1.00  0.00    -0.216 N 
HETATM   14  C3  UNL     1       0.985  13.014  24.000  1.00  0.00     0.214 A 
HETATM   15  N1  UNL     1       1.439  14.278  24.500  1.00  0.00    -0.353 N 
HETATM   16  C4  UNL     1       0.020  12.396  25.000  1.00  0.00     0.078 C 
HETATM   17  C2  UNL     1       2.710  14.292  24.617  1.00  0.00     0.074 A 
ATOM     18  H1  UNL     1       0.829  15.061  24.732  1.00  0.00     0.162 HD
HETATM   19  C1  UNL     1       3.482  15.463  25.110  1.00  0.00     0.074 C 
HETATM   20  C17 UNL     1       3.273  13.018  24.204  1.00  0.00     0.286 A 
HETATM   21  O6  UNL     1       4.510  12.701  24.198  1.00  0.00    -0.264 OA
BRANCH  14  22
HETATM   22  C5  UNL     1       0.215  13.181  22.738  1.00  0.00     0.226 C 
HETATM   23  O1  UNL     1       0.732  13.364  21.629  1.00  0.00    -0.645 OA
HETATM   24  O2  UNL     1      -1.166  13.128  22.822  1.00  0.00    -0.645 OA
ENDBRANCH  14  22
ENDBRANCH  11  13
ENDBRANCH   1  10
BRANCH   2  25
HETATM   25  C9  UNL     1       4.824   9.417  22.456  1.00  0.00     0.141 C 
HETATM   26  N4  UNL     1       5.114   9.759  21.223  1.00  0.00    -0.251 N 
ATOM     27  H4  UNL     1       5.712  10.568  21.055  1.00  0.00     0.196 HD
BRANCH  25  28
HETATM   28  O3  UNL     1       5.404  10.247  23.424  1.00  0.00    -0.348 OA
ATOM     29  H3  UNL     1       6.339  10.401  23.500  1.00  0.00     0.219 HD
ENDBRANCH  25  28
BRANCH  26  30
HETATM   30  O4  UNL     1       4.626   9.049  20.158  1.00  0.00    -0.288 OA
ATOM     31  H4  UNL     1       4.716   9.372  19.269  1.00  0.00     0.244 HD
ENDBRANCH  26  30
ENDBRANCH   2  25
BRANCH   4  32
HETATM   32  O5  UNL     1       6.740   7.928  24.823  1.00  0.00    -0.365 OA
ATOM     33  H5  UNL     1       7.148   8.283  25.603  1.00  0.00     0.217 HD
ENDBRANCH   4  32
TORSDOF 7
ENDMDL
MODEL 2
REMARK VINA RESULT: -7.530712147      3.813      5.520
REMARK  7 active torsions:
REMARK  status: ('A' for Active; 'I' for Inactive)
REMARK    1  A    between atoms: C3_5  and  C5_7 
REMARK    2  A    between atoms: N2_10  and  N3_11 
REMARK    3  A    between atoms: C6_13  and  C7_14 
REMARK    4  A    between atoms: C8_15  and  C9_16 
REMARK    5  A    between atoms: C9_16  and  O3_17 
REMARK    6  A    between atoms: N4_19  and  O4_21 
REMARK    7  A    between atoms: C11_24  and  O5_25 
ROOT
HETATM    1  C7  UNL     1       4.259   8.628  24.761  1.00  0.00     0.046 C 
HETATM    2  C8  UNL     1       3.587   8.608  23.429  1.00  0.00     0.083 C 
HETATM    3  C10 UNL     1       3.857   9.974  22.849  1.00  0.00     0.063 C 
HETATM    4  C11 UNL     1       3.071  10.946  23.653  1.00  0.00     0.045 C 
HETATM    5  C12 UNL     1       3.625  10.979  24.881  1.00  0.00     0.012 C 
HETATM    6  C13 UNL     1       4.786  10.018  24.880  1.00  0.00     0.029 C 
HETATM    7  C14 UNL     1       5.251  10.253  23.431  1.00  0.00    -0.030 C 
HETATM    8  C15 UNL     1       5.635  11.690  23.317  1.00  0.00     0.016 C 
HETATM    9  C16 UNL     1       6.279   9.293  22.987  1.00  0.00     0.016 C 
ENDROOT
BRANCH   1  10
HETATM   10  C6  UNL     1       3.442   8.248  25.898  1.00  0.00     0.086 C 
HETATM   11  N3  UNL     1       3.078   9.007  26.866  1.00  0.00    -0.307 N 
ATOM     12  H3  UNL     1       3.381   9.980  26.859  1.00  0.00     0.186 HD
BRANCH  11  13
HETATM   13  N2  UNL     1       2.285   8.566  27.933  1.00  0.00    -0.216 N 
HETATM   14  C3  UNL     1       0.876   8.371  28.007  1.00  0.00     0.214 A 
HETATM   15  N1  UNL     1       0.619   7.910  29.340  1.00  0.00    -0.353 N 
HETATM   16  C4  UNL     1       0.379   7.333  27.013  1.00  0.00     0.078 C 
HETATM   17  C2  UNL     1       1.702   7.827  30.010  1.00  0.00     0.074 A 
ATOM     18  H1  UNL     1      -0.305   7.678  29.704  1.00  0.00     0.162 HD
HETATM   19  C1  UNL     1       1.765   7.379  31.427  1.00  0.00     0.074 C 
HETATM   20  C17 UNL     1       2.837   8.227  29.196  1.00  0.00     0.286 A 
HETATM   21  O6  UNL     1       4.060   8.259  29.561  1.00  0.00    -0.264 OA
BRANCH  14  22
HETATM   22  C5  UNL     1       0.116   9.616  27.714  1.00  0.00     0.226 C 
HETATM   23  O1  UNL     1      -0.828  10.030  28.397  1.00  0.00    -0.645 OA
HETATM   24  O2  UNL     1       0.498  10.350  26.603  1.00  0.00    -0.645 OA
ENDBRANCH  14  22
ENDBRANCH  11  13
ENDBRANCH   1  10
BRANCH   2  25
HETATM   25  C9  UNL     1       2.163   8.290  23.452  1.00  0.00     0.141 C 
HETATM   26  N4  UNL     1       1.648   7.328  22.724  1.00  0.00    -0.251 N 
ATOM     27  H4  UNL     1       0.646   7.143  22.776  1.00  0.00     0.196 HD
BRANCH  25  28
HETATM   28  O3  UNL     1       1.224   8.968  24.240  1.00  0.00    -0.348 OA
ATOM     29  H3  UNL     1       0.527   9.508  23.887  1.00  0.00     0.219 HD
ENDBRANCH  25  28
BRANCH  26  30
HETATM   30  O4  UNL     1       2.432   6.568  21.897  1.00  0.00    -0.288 OA
ATOM     31  H4  UNL     1       2.625   6.847  21.010  1.00  0.00     0.244 HD
ENDBRANCH  26  30
ENDBRANCH   2  25
BRANCH   4  32
HETATM   32  O5  UNL     1       1.978  11.665  23.192  1.00  0.00    -0.365 OA
ATOM     33  H5  UNL     1       1.450  12.254  23.717  1.00  0.00     0.217 HD
ENDBRANCH   4  32
TORSDOF 7
ENDMDL
MODEL 3
REMARK VINA RESULT: -7.181446368      2.938      4.820
REMARK  7 active torsions:
REMARK  status: ('A' for Active; 'I' for Inactive)
REMARK    1  A    between atoms: C3_5  and  C5_7 
REMARK    2  A    between atoms: N2_10  and  N3_11 
REMARK    3  A    between atoms: C6_13  and  C7_14 
REMARK    4  A    between atoms: C8_15  and  C9_16 
REMARK    5  A    between atoms: C9_16  and  O3_17 
REMARK    6  A    between atoms: N4_19  and  O4_21 
REMARK    7  A    between atoms: C11_24  and  O5_25 
ROOT
HETATM    1  C7  UNL     1       5.048   9.279  24.284  1.00  0.00     0.046 C 
HETATM    2  C8  UNL     1       5.428   8.094  23.460  1.00  0.00     0.083 C 
HETATM    3  C10 UNL     1       6.168   8.675  22.283  1.00  0.00     0.063 C 
HETATM    4  C11 UNL     1       5.167   9.401  21.459  1.00  0.00     0.045 C 
HETATM    5  C12 UNL     1       4.769  10.471  22.176  1.00  0.00     0.012 C 
HETATM    6  C13 UNL     1       5.520  10.444  23.482  1.00  0.00     0.029 C 
HETATM    7  C14 UNL     1       6.850   9.880  22.948  1.00  0.00    -0.030 C 
HETATM    8  C15 UNL     1       7.376  10.856  21.950  1.00  0.00     0.016 C 
HETATM    9  C16 UNL     1       7.795   9.507  24.018  1.00  0.00     0.016 C 
ENDROOT
BRANCH   1  10
HETATM   10  C6  UNL     1       3.647   9.388  24.643  1.00  0.00     0.086 C 
HETATM   11  N3  UNL     1       3.173   9.739  25.783  1.00  0.00    -0.307 N 
ATOM     12  H3  UNL     1       3.830   9.970  26.529  1.00  0.00     0.186 HD
BRANCH  11  13
HETATM   13  N2  UNL     1       1.803   9.821  26.055  1.00  0.00    -0.216 N 
HETATM   14  C3  UNL     1       0.957   8.928  26.774  1.00  0.00     0.214 A 
HETATM   15  N1  UNL     1      -0.349   9.518  26.735  1.00  0.00    -0.353 N 
HETATM   16  C4  UNL     1       1.388   8.757  28.222  1.00  0.00     0.078 C 
HETATM   17  C2  UNL     1      -0.334  10.618  26.088  1.00  0.00     0.074 A 
ATOM     18  H1  UNL     1      -1.179   9.113  27.167  1.00  0.00     0.162 HD
HETATM   19  C1  UNL     1      -1.536  11.467  25.873  1.00  0.00     0.074 C 
HETATM   20  C17 UNL     1       1.006  10.907  25.608  1.00  0.00     0.286 A 
HETATM   21  O6  UNL     1       1.365  11.927  24.928  1.00  0.00    -0.264 OA
BRANCH  14  22
HETATM   22  C5  UNL     1       0.947   7.561  26.185  1.00  0.00     0.226 C 
HETATM   23  O1  UNL     1      -0.004   7.085  25.554  1.00  0.00    -0.645 OA
HETATM   24  O2  UNL     1       2.078   6.783  26.362  1.00  0.00    -0.645 OA
ENDBRANCH  14  22
ENDBRANCH  11  13
ENDBRANCH   1  10
BRANCH   2  25
HETATM   25  C9  UNL     1       4.320   7.239  23.048  1.00  0.00     0.141 C 
HETATM   26  N4  UNL     1       3.957   6.182  23.736  1.00  0.00    -0.251 N 
ATOM     27  H4  UNL     1       3.174   5.616  23.408  1.00  0.00     0.196 HD
BRANCH  25  28
HETATM   28  O3  UNL     1       3.548   7.459  21.900  1.00  0.00    -0.348 OA
ATOM     29  H3  UNL     1       2.655   7.785  21.916  1.00  0.00     0.219 HD
ENDBRANCH  25  28
BRANCH  26  30
HETATM   30  O4  UNL     1       4.610   5.827  24.886  1.00  0.00    -0.288 OA
ATOM     31  H4  UNL     1       4.232   5.200  25.492  1.00  0.00     0.244 HD
ENDBRANCH  26  30
ENDBRANCH   2  25
BRANCH   4  32
HETATM   32  O5  UNL     1       4.744   9.018  20.194  1.00  0.00    -0.365 OA
ATOM     33  H5  UNL     1       4.136   9.504  19.650  1.00  0.00     0.217 HD
ENDBRANCH   4  32
TORSDOF 7
ENDMDL
MODEL 4
REMARK VINA RESULT: -7.085512161      4.006      5.655
REMARK  7 active torsions:
REMARK  status: ('A' for Active; 'I' for Inactive)
REMARK    1  A    between atoms: C3_5  and  C5_7 
REMARK    2  A    between atoms: N2_10  and  N3_11 
REMARK    3  A    between atoms: C6_13  and  C7_14 
REMARK    4  A    between atoms: C8_15  and  C9_16 
REMARK    5  A    between atoms: C9_16  and  O3_17 
REMARK    6  A    between atoms: N4_19  and  O4_21 
REMARK    7  A    between atoms: C11_24  and  O5_25 
ROOT
HETATM    1  C7  UNL     1       4.694   7.973  25.158  1.00  0.00     0.046 C 
HETATM    2  C8  UNL     1       4.973   6.805  24.273  1.00  0.00     0.083 C 
HETATM    3  C10 UNL     1       4.696   7.312  22.880  1.00  0.00     0.063 C 
HETATM    4  C11 UNL     1       3.228   7.518  22.781  1.00  0.00     0.045 C 
HETATM    5  C12 UNL     1       2.920   8.551  23.589  1.00  0.00     0.012 C 
HETATM    6  C13 UNL     1       4.201   9.026  24.224  1.00  0.00     0.029 C 
HETATM    7  C14 UNL     1       5.135   8.777  23.025  1.00  0.00    -0.030 C 
HETATM    8  C15 UNL     1       4.647   9.628  21.901  1.00  0.00     0.016 C 
HETATM    9  C16 UNL     1       6.564   8.936  23.356  1.00  0.00     0.016 C 
ENDROOT
BRANCH   1  10
HETATM   10  C6  UNL     1       3.778   7.740  26.259  1.00  0.00     0.086 C 
HETATM   11  N3  UNL     1       3.230   8.631  27.001  1.00  0.00    -0.307 N 
ATOM     12  H3  UNL     1       3.444   9.611  26.819  1.00  0.00     0.186 HD
BRANCH  11  13
HETATM   13  N2  UNL     1       2.353   8.327  28.049  1.00  0.00    -0.216 N 
HETATM   14  C3  UNL     1       0.930   8.259  28.061  1.00  0.00     0.214 A 
HETATM   15  N1  UNL     1       0.571   7.905  29.403  1.00  0.00    -0.353 N 
HETATM   16  C4  UNL     1       0.389   7.209  27.104  1.00  0.00     0.078 C 
HETATM   17  C2  UNL     1       1.610   7.771  30.133  1.00  0.00     0.074 A 
ATOM     18  H1  UNL     1      -0.386   7.777  29.732  1.00  0.00     0.162 HD
HETATM   19  C1  UNL     1       1.567   7.407  31.574  1.00  0.00     0.074 C 
HETATM   20  C17 UNL     1       2.812   8.021  29.356  1.00  0.00     0.286 A 
HETATM   21  O6  UNL     1       4.015   7.969  29.782  1.00  0.00    -0.264 OA
BRANCH  14  22
HETATM   22  C5  UNL     1       0.298   9.545  27.658  1.00  0.00     0.226 C 
HETATM   23  O1  UNL     1       0.666  10.226  26.694  1.00  0.00    -0.645 OA
HETATM   24  O2  UNL     1      -0.767   9.997  28.418  1.00  0.00    -0.645 OA
ENDBRANCH  14  22
ENDBRANCH  11  13
ENDBRANCH   1  10
BRANCH   2  25
HETATM   25  C9  UNL     1       4.218   5.595  24.579  1.00  0.00     0.141 C 
HETATM   26  N4  UNL     1       4.803   4.467  24.908  1.00  0.00    -0.251 N 
ATOM     27  H4  UNL     1       4.232   3.648  25.114  1.00  0.00     0.196 HD
BRANCH  25  28
HETATM   28  O3  UNL     1       2.819   5.519  24.555  1.00  0.00    -0.348 OA
ATOM     29  H3  UNL     1       2.245   6.228  24.822  1.00  0.00     0.219 HD
ENDBRANCH  25  28
BRANCH  26  30
HETATM   30  O4  UNL     1       6.168   4.372  24.977  1.00  0.00    -0.288 OA
ATOM     31  H4  UNL     1       6.649   3.784  24.408  1.00  0.00     0.244 HD
ENDBRANCH  26  30
ENDBRANCH   2  25
BRANCH   4  32
HETATM   32  O5  UNL     1       2.367   6.767  21.993  1.00  0.00    -0.365 OA
ATOM     33  H5  UNL     1       1.947   7.072  21.198  1.00  0.00     0.217 HD
ENDBRANCH   4  32
TORSDOF 7
ENDMDL
MODEL 5
REMARK VINA RESULT: -6.947143578      3.071      4.804
REMARK  7 active torsions:
REMARK  status: ('A' for Active; 'I' for Inactive)
REMARK    1  A    between atoms: C3_5  and  C5_7 
REMARK    2  A    between atoms: N2_10  and  N3_11 
REMARK    3  A    between atoms: C6_13  and  C7_14 
REMARK    4  A    between atoms: C8_15  and  C9_16 
REMARK    5  A    between atoms: C9_16  and  O3_17 
REMARK    6  A    between atoms: N4_19  and  O4_21 
REMARK    7  A    between atoms: C11_24  and  O5_25 
ROOT
HETATM    1  C7  UNL     1       2.645   8.824  25.063  1.00  0.00     0.046 C 
HETATM    2  C8  UNL     1       3.048   7.396  25.217  1.00  0.00     0.083 C 
HETATM    3  C10 UNL     1       2.325   6.931  26.456  1.00  0.00     0.063 C 
HETATM    4  C11 UNL     1       2.954   7.626  27.608  1.00  0.00     0.045 C 
HETATM    5  C12 UNL     1       2.641   8.932  27.498  1.00  0.00     0.012 C 
HETATM    6  C13 UNL     1       1.797   9.092  26.260  1.00  0.00     0.029 C 
HETATM    7  C14 UNL     1       1.035   7.757  26.352  1.00  0.00    -0.030 C 
HETATM    8  C15 UNL     1       0.268   7.773  27.631  1.00  0.00     0.016 C 
HETATM    9  C16 UNL     1       0.237   7.458  25.148  1.00  0.00     0.016 C 
ENDROOT
BRANCH   1  10
HETATM   10  C6  UNL     1       3.724   9.784  24.925  1.00  0.00     0.086 C 
HETATM   11  N3  UNL     1       4.316  10.119  23.837  1.00  0.00    -0.307 N 
ATOM     12  H3  UNL     1       4.016   9.679  22.967  1.00  0.00     0.186 HD
BRANCH  11  13
HETATM   13  N2  UNL     1       5.353  11.057  23.783  1.00  0.00    -0.216 N 
HETATM   14  C3  UNL     1       6.653  10.953  23.209  1.00  0.00     0.214 A 
HETATM   15  N1  UNL     1       7.285  12.217  23.450  1.00  0.00    -0.353 N 
HETATM   16  C4  UNL     1       6.609  10.692  21.712  1.00  0.00     0.078 C 
HETATM   17  C2  UNL     1       6.504  13.004  24.083  1.00  0.00     0.074 A 
ATOM     18  H1  UNL     1       8.231  12.456  23.155  1.00  0.00     0.162 HD
HETATM   19  C1  UNL     1       6.871  14.388  24.482  1.00  0.00     0.074 C 
HETATM   20  C17 UNL     1       5.232  12.354  24.347  1.00  0.00     0.286 A 
HETATM   21  O6  UNL     1       4.232  12.862  24.958  1.00  0.00    -0.264 OA
BRANCH  14  22
HETATM   22  C5  UNL     1       7.443   9.837  23.796  1.00  0.00     0.226 C 
HETATM   23  O1  UNL     1       7.041   9.108  24.710  1.00  0.00    -0.645 OA
HETATM   24  O2  UNL     1       8.708   9.612  23.280  1.00  0.00    -0.645 OA
ENDBRANCH  14  22
ENDBRANCH  11  13
ENDBRANCH   1  10
BRANCH   2  25
HETATM   25  C9  UNL     1       4.486   7.158  25.295  1.00  0.00     0.141 C 
HETATM   26  N4  UNL     1       5.160   6.613  24.311  1.00  0.00    -0.251 N 
ATOM     27  H4  UNL     1       6.165   6.467  24.412  1.00  0.00     0.196 HD
BRANCH  25  28
HETATM   28  O3  UNL     1       5.272   7.483  26.408  1.00  0.00    -0.348 OA
ATOM     29  H3  UNL     1       6.008   8.083  26.380  1.00  0.00     0.219 HD
ENDBRANCH  25  28
BRANCH  26  30
HETATM   30  O4  UNL     1       4.539   6.236  23.150  1.00  0.00    -0.288 OA
ATOM     31  H4  UNL     1       4.679   6.713  22.340  1.00  0.00     0.244 HD
ENDBRANCH  26  30
ENDBRANCH   2  25
BRANCH   4  32
HETATM   32  O5  UNL     1       3.715   7.013  28.593  1.00  0.00    -0.365 OA
ATOM     33  H5  UNL     1       3.367   6.562  29.353  1.00  0.00     0.217 HD
ENDBRANCH   4  32
TORSDOF 7
ENDMDL
