MODEL 1
REMARK VINA RESULT: -7.574281985      0.000      0.000
REMARK  8 active torsions:
REMARK  status: ('A' for Active; 'I' for Inactive)
REMARK    1  A    between atoms: C5_5  and  O1_6 
REMARK    2  A    between atoms: O1_6  and  C6_7 
REMARK    3  A    between atoms: C6_7  and  O2_8 
REMARK    4  A    between atoms: C7_10  and  S1_11 
REMARK    5  A    between atoms: S1_11  and  C8_12 
REMARK    6  A    between atoms: C9_15  and  N2_16 
REMARK    7  A    between atoms: C12_24  and  C13_25 
REMARK    8  A    between atoms: C13_25  and  O3_27 
ROOT
HETATM    1  C6  UNL     1       2.509  11.171  23.541  1.00  0.00     0.185 C 
HETATM    2  C7  UNL     1       3.402  10.238  22.930  1.00  0.00     0.115 C 
ENDROOT
BRANCH   1   3
HETATM    3  O1  UNL     1       1.904  11.441  24.669  1.00  0.00    -0.319 OA
BRANCH   3   4
HETATM    4  C5  UNL     1       0.597  11.239  25.141  1.00  0.00     0.186 C 
HETATM    5  C4  UNL     1       0.678  10.370  26.341  1.00  0.00     0.005 C 
HETATM    6  C3  UNL     1       0.542   9.072  26.235  1.00  0.00     0.004 C 
HETATM    7  C2  UNL     1       0.304   8.532  24.857  1.00  0.00     0.205 C 
HETATM    8  C1  UNL     1      -0.143   7.106  24.853  1.00  0.00     0.044 C 
HETATM    9  N4  UNL     1      -0.815   9.351  24.359  1.00  0.00    -0.059 N 
HETATM   10  C12 UNL     1      -0.367  10.724  24.137  1.00  0.00     0.247 C 
ATOM     11  H42 UNL     1      -1.242   8.949  23.525  1.00  0.00     0.278 HD
ATOM     12  H41 UNL     1      -1.625   9.308  24.978  1.00  0.00     0.278 HD
BRANCH  10  13
HETATM   13  C13 UNL     1      -1.658  11.558  24.171  1.00  0.00     0.147 C 
HETATM   14  C14 UNL     1      -1.711  12.511  22.979  1.00  0.00     0.041 C 
BRANCH  13  15
HETATM   15  O3  UNL     1      -2.712  10.648  24.016  1.00  0.00    -0.394 OA
ATOM     16  H3  UNL     1      -3.482  11.168  23.815  1.00  0.00     0.210 HD
ENDBRANCH  13  15
ENDBRANCH  10  13
ENDBRANCH   3   4
ENDBRANCH   1   3
BRANCH   1  17
HETATM   17  O2  UNL     1       2.149  12.155  22.606  1.00  0.00    -0.341 OA
ATOM     18  H2  UNL     1       1.252  11.994  22.338  1.00  0.00     0.220 HD
ENDBRANCH   1  17
BRANCH   2  19
HETATM   19  S1  UNL     1       5.132  10.266  23.235  1.00  0.00    -0.077 SA
BRANCH  19  20
HETATM   20  C8  UNL     1       5.660  11.802  23.991  1.00  0.00     0.109 A 
HETATM   21  N1  UNL     1       4.795  12.756  24.448  1.00  0.00    -0.184 N 
HETATM   22  C9  UNL     1       5.249  13.953  24.876  1.00  0.00     0.676 A 
ATOM     23  H1  UNL     1       3.794  12.561  24.465  1.00  0.00     0.185 HD
HETATM   24  N3  UNL     1       6.571  14.292  24.886  1.00  0.00    -0.201 N 
HETATM   25  C10 UNL     1       7.428  13.380  24.444  1.00  0.00     0.128 A 
ATOM     26  H3  UNL     1       6.886  15.203  25.218  1.00  0.00     0.183 HD
HETATM   27  C11 UNL     1       6.991  12.148  24.001  1.00  0.00     0.061 A 
HETATM   28 BR1  UNL     1       8.333  10.926  23.412  1.00  0.00    -0.047 Br
BRANCH  22  29
HETATM   29  N2  UNL     1       4.462  14.892  25.283  1.00  0.00    -0.234 N 
ATOM     30  H22 UNL     1       4.731  15.824  24.968  1.00  0.00     0.174 HD
ATOM     31  H21 UNL     1       3.632  14.709  25.846  1.00  0.00     0.174 HD
ENDBRANCH  22  29
ENDBRANCH  19  20
ENDBRANCH   2  19
TORSDOF 8
ENDMDL
MODEL 2
REMARK VINA RESULT: -7.562583647      2.363      3.393
REMARK  8 active torsions:
REMARK  status: ('A' for Active; 'I' for Inactive)
REMARK    1  A    between atoms: C5_5  and  O1_6 
REMARK    2  A    between atoms: O1_6  and  C6_7 
REMARK    3  A    between atoms: C6_7  and  O2_8 
REMARK    4  A    between atoms: C7_10  and  S1_11 
REMARK    5  A    between atoms: S1_11  and  C8_12 
REMARK    6  A    between atoms: C9_15  and  N2_16 
REMARK    7  A    between atoms: C12_24  and  C13_25 
REMARK    8  A    between atoms: C13_25  and  O3_27 
ROOT
HETATM    1  C6  UNL     1       2.612  10.984  23.694  1.00  0.00     0.185 C 
HETATM    2  C7  UNL     1       3.654  11.489  24.530  1.00  0.00     0.115 C 
ENDROOT
BRANCH   1   3
HETATM    3  O1  UNL     1       1.310  10.953  23.564  1.00  0.00    -0.319 OA
BRANCH   3   4
HETATM    4  C5  UNL     1       0.340   9.955  23.752  1.00  0.00     0.186 C 
HETATM    5  C4  UNL     1      -0.934  10.625  24.114  1.00  0.00     0.005 C 
HETATM    6  C3  UNL     1      -1.265  10.793  25.371  1.00  0.00     0.004 C 
HETATM    7  C2  UNL     1      -0.299  10.278  26.395  1.00  0.00     0.205 C 
HETATM    8  C1  UNL     1      -0.876  10.226  27.772  1.00  0.00     0.044 C 
HETATM    9  N4  UNL     1      -0.052   8.892  25.962  1.00  0.00    -0.059 N 
HETATM   10  C12 UNL     1       0.708   8.887  24.714  1.00  0.00     0.247 C 
ATOM     11  H42 UNL     1       0.403   8.340  26.689  1.00  0.00     0.278 HD
ATOM     12  H41 UNL     1      -0.916   8.355  25.886  1.00  0.00     0.278 HD
BRANCH  10  13
HETATM   13  C13 UNL     1       0.427   7.506  24.100  1.00  0.00     0.147 C 
HETATM   14  C14 UNL     1       1.732   6.747  23.868  1.00  0.00     0.041 C 
BRANCH  13  15
HETATM   15  O3  UNL     1      -0.298   6.792  25.065  1.00  0.00    -0.394 OA
ATOM     16  H3  UNL     1      -0.595   7.434  25.699  1.00  0.00     0.210 HD
ENDBRANCH  13  15
ENDBRANCH  10  13
ENDBRANCH   3   4
ENDBRANCH   1   3
BRANCH   1  17
HETATM   17  O2  UNL     1       3.175  10.265  22.627  1.00  0.00    -0.341 OA
ATOM     18  H2  UNL     1       2.654  10.433  21.851  1.00  0.00     0.220 HD
ENDBRANCH   1  17
BRANCH   2  19
HETATM   19  S1  UNL     1       4.153  13.173  24.484  1.00  0.00    -0.077 SA
BRANCH  19  20
HETATM   20  C8  UNL     1       5.935  13.351  24.539  1.00  0.00     0.109 A 
HETATM   21  N1  UNL     1       6.804  12.404  24.075  1.00  0.00    -0.184 N 
HETATM   22  C9  UNL     1       8.134  12.529  24.272  1.00  0.00     0.676 A 
ATOM     23  H1  UNL     1       6.443  11.593  23.573  1.00  0.00     0.185 HD
HETATM   24  N3  UNL     1       8.696  13.583  24.932  1.00  0.00    -0.201 N 
HETATM   25  C10 UNL     1       7.869  14.514  25.393  1.00  0.00     0.128 A 
ATOM     26  H3  UNL     1       9.704  13.653  25.065  1.00  0.00     0.183 HD
HETATM   27  C11 UNL     1       6.506  14.411  25.204  1.00  0.00     0.061 A 
HETATM   28 BR1  UNL     1       5.437  15.829  25.902  1.00  0.00    -0.047 Br
BRANCH  22  29
HETATM   29  N2  UNL     1       8.983  11.640  23.880  1.00  0.00    -0.234 N 
ATOM     30  H22 UNL     1       9.833  12.029  23.472  1.00  0.00     0.174 HD
ATOM     31  H21 UNL     1       8.825  10.639  23.995  1.00  0.00     0.174 HD
ENDBRANCH  22  29
ENDBRANCH  19  20
ENDBRANCH   2  19
TORSDOF 8
ENDMDL
MODEL 3
REMARK VINA RESULT: -7.505579052      3.530      6.566
REMARK  8 active torsions:
REMARK  status: ('A' for Active; 'I' for Inactive)
REMARK    1  A    between atoms: C5_5  and  O1_6 
REMARK    2  A    between atoms: O1_6  and  C6_7 
REMARK    3  A    between atoms: C6_7  and  O2_8 
REMARK    4  A    between atoms: C7_10  and  S1_11 
REMARK    5  A    between atoms: S1_11  and  C8_12 
REMARK    6  A    between atoms: C9_15  and  N2_16 
REMARK    7  A    between atoms: C12_24  and  C13_25 
REMARK    8  A    between atoms: C13_25  and  O3_27 
ROOT
HETATM    1  C6  UNL     1       2.331   7.538  24.067  1.00  0.00     0.185 C 
HETATM    2  C7  UNL     1       1.007   8.031  23.852  1.00  0.00     0.115 C 
ENDROOT
BRANCH   1   3
HETATM    3  O1  UNL     1       3.591   7.881  23.983  1.00  0.00    -0.319 OA
BRANCH   3   4
HETATM    4  C5  UNL     1       4.578   7.713  22.998  1.00  0.00     0.186 C 
HETATM    5  C4  UNL     1       5.897   7.689  23.679  1.00  0.00     0.005 C 
HETATM    6  C3  UNL     1       6.602   8.787  23.803  1.00  0.00     0.004 C 
HETATM    7  C2  UNL     1       6.007  10.036  23.227  1.00  0.00     0.205 C 
HETATM    8  C1  UNL     1       6.986  11.162  23.131  1.00  0.00     0.044 C 
HETATM    9  N4  UNL     1       5.648   9.640  21.855  1.00  0.00    -0.059 N 
HETATM   10  C12 UNL     1       4.536   8.693  21.885  1.00  0.00     0.247 C 
ATOM     11  H42 UNL     1       5.446  10.447  21.264  1.00  0.00     0.278 HD
ATOM     12  H41 UNL     1       6.449   9.275  21.339  1.00  0.00     0.278 HD
BRANCH  10  13
HETATM   13  C13 UNL     1       4.621   7.960  20.536  1.00  0.00     0.147 C 
HETATM   14  C14 UNL     1       3.764   6.695  20.558  1.00  0.00     0.041 C 
BRANCH  13  15
HETATM   15  O3  UNL     1       4.054   8.824  19.589  1.00  0.00    -0.394 OA
ATOM     16  H3  UNL     1       4.758   9.066  18.998  1.00  0.00     0.210 HD
ENDBRANCH  13  15
ENDBRANCH  10  13
ENDBRANCH   3   4
ENDBRANCH   1   3
BRANCH   1  17
HETATM   17  O2  UNL     1       2.268   6.218  24.539  1.00  0.00    -0.341 OA
ATOM     18  H2  UNL     1       2.209   5.638  23.789  1.00  0.00     0.220 HD
ENDBRANCH   1  17
BRANCH   2  19
HETATM   19  S1  UNL     1       0.229   9.136  24.975  1.00  0.00    -0.077 SA
BRANCH  19  20
HETATM   20  C8  UNL     1      -0.159  10.710  24.212  1.00  0.00     0.109 A 
HETATM   21  N1  UNL     1      -1.407  11.048  23.769  1.00  0.00    -0.184 N 
HETATM   22  C9  UNL     1      -1.610  12.188  23.074  1.00  0.00     0.676 A 
ATOM     23  H1  UNL     1      -2.195  10.430  23.964  1.00  0.00     0.185 HD
HETATM   24  N3  UNL     1      -0.610  13.066  22.772  1.00  0.00    -0.201 N 
HETATM   25  C10 UNL     1       0.610  12.757  23.192  1.00  0.00     0.128 A 
ATOM     26  H3  UNL     1      -0.793  13.922  22.248  1.00  0.00     0.183 HD
HETATM   27  C11 UNL     1       0.845  11.598  23.904  1.00  0.00     0.061 A 
HETATM   28 BR1  UNL     1       2.642  11.287  24.463  1.00  0.00    -0.047 Br
BRANCH  22  29
HETATM   29  N2  UNL     1      -2.765  12.524  22.609  1.00  0.00    -0.234 N 
ATOM     30  H22 UNL     1      -3.503  11.845  22.797  1.00  0.00     0.174 HD
ATOM     31  H21 UNL     1      -2.927  13.405  22.120  1.00  0.00     0.174 HD
ENDBRANCH  22  29
ENDBRANCH  19  20
ENDBRANCH   2  19
TORSDOF 8
ENDMDL
MODEL 4
REMARK VINA RESULT: -7.482105540      2.475      3.321
REMARK  8 active torsions:
REMARK  status: ('A' for Active; 'I' for Inactive)
REMARK    1  A    between atoms: C5_5  and  O1_6 
REMARK    2  A    between atoms: O1_6  and  C6_7 
REMARK    3  A    between atoms: C6_7  and  O2_8 
REMARK    4  A    between atoms: C7_10  and  S1_11 
REMARK    5  A    between atoms: S1_11  and  C8_12 
REMARK    6  A    between atoms: C9_15  and  N2_16 
REMARK    7  A    between atoms: C12_24  and  C13_25 
REMARK    8  A    between atoms: C13_25  and  O3_27 
ROOT
HETATM    1  C6  UNL     1       1.658  11.692  23.489  1.00  0.00     0.185 C 
HETATM    2  C7  UNL     1       3.074  11.868  23.556  1.00  0.00     0.115 C 
ENDROOT
BRANCH   1   3
HETATM    3  O1  UNL     1       0.650  11.147  24.120  1.00  0.00    -0.319 OA
BRANCH   3   4
HETATM    4  C5  UNL     1       0.311   9.824  24.447  1.00  0.00     0.186 C 
HETATM    5  C4  UNL     1      -0.222   9.822  25.832  1.00  0.00     0.005 C 
HETATM    6  C3  UNL     1       0.567   9.577  26.849  1.00  0.00     0.004 C 
HETATM    7  C2  UNL     1       2.007   9.305  26.533  1.00  0.00     0.205 C 
HETATM    8  C1  UNL     1       2.765   8.739  27.689  1.00  0.00     0.044 C 
HETATM    9  N4  UNL     1       1.935   8.264  25.494  1.00  0.00    -0.059 N 
HETATM   10  C12 UNL     1       1.395   8.828  24.260  1.00  0.00     0.247 C 
ATOM     11  H42 UNL     1       2.836   7.810  25.345  1.00  0.00     0.278 HD
ATOM     12  H41 UNL     1       1.407   7.448  25.805  1.00  0.00     0.278 HD
BRANCH  10  13
HETATM   13  C13 UNL     1       0.863   7.612  23.483  1.00  0.00     0.147 C 
HETATM   14  C14 UNL     1       1.977   6.975  22.655  1.00  0.00     0.041 C 
BRANCH  13  15
HETATM   15  O3  UNL     1       0.481   6.671  24.450  1.00  0.00    -0.394 OA
ATOM     16  H3  UNL     1      -0.002   7.153  25.111  1.00  0.00     0.210 HD
ENDBRANCH  13  15
ENDBRANCH  10  13
ENDBRANCH   3   4
ENDBRANCH   1   3
BRANCH   1  17
HETATM   17  O2  UNL     1       1.161  12.332  22.342  1.00  0.00    -0.341 OA
ATOM     18  H2  UNL     1       1.879  12.442  21.731  1.00  0.00     0.220 HD
ENDBRANCH   1  17
BRANCH   2  19
HETATM   19  S1  UNL     1       3.820  13.026  24.647  1.00  0.00    -0.077 SA
BRANCH  19  20
HETATM   20  C8  UNL     1       5.603  13.066  24.473  1.00  0.00     0.109 A 
HETATM   21  N1  UNL     1       6.337  12.027  23.976  1.00  0.00    -0.184 N 
HETATM   22  C9  UNL     1       7.687  12.058  24.002  1.00  0.00     0.676 A 
ATOM     23  H1  UNL     1       5.860  11.217  23.581  1.00  0.00     0.185 HD
HETATM   24  N3  UNL     1       8.400  13.104  24.513  1.00  0.00    -0.201 N 
HETATM   25  C10 UNL     1       7.706  14.123  25.003  1.00  0.00     0.128 A 
ATOM     26  H3  UNL     1       9.420  13.102  24.517  1.00  0.00     0.183 HD
HETATM   27  C11 UNL     1       6.326  14.117  24.988  1.00  0.00     0.061 A 
HETATM   28 BR1  UNL     1       5.456  15.655  25.706  1.00  0.00    -0.047 Br
BRANCH  22  29
HETATM   29  N2  UNL     1       8.415  11.083  23.575  1.00  0.00    -0.234 N 
ATOM     30  H22 UNL     1       8.150  10.740  22.651  1.00  0.00     0.174 HD
ATOM     31  H21 UNL     1       9.202  10.710  24.105  1.00  0.00     0.174 HD
ENDBRANCH  22  29
ENDBRANCH  19  20
ENDBRANCH   2  19
TORSDOF 8
ENDMDL
MODEL 5
REMARK VINA RESULT: -7.455156282      1.861      2.516
REMARK  8 active torsions:
REMARK  status: ('A' for Active; 'I' for Inactive)
REMARK    1  A    between atoms: C5_5  and  O1_6 
REMARK    2  A    between atoms: O1_6  and  C6_7 
REMARK    3  A    between atoms: C6_7  and  O2_8 
REMARK    4  A    between atoms: C7_10  and  S1_11 
REMARK    5  A    between atoms: S1_11  and  C8_12 
REMARK    6  A    between atoms: C9_15  and  N2_16 
REMARK    7  A    between atoms: C12_24  and  C13_25 
REMARK    8  A    between atoms: C13_25  and  O3_27 
ROOT
HETATM    1  C6  UNL     1       1.582  12.133  24.436  1.00  0.00     0.185 C 
HETATM    2  C7  UNL     1       2.581  11.965  23.428  1.00  0.00     0.115 C 
ENDROOT
BRANCH   1   3
HETATM    3  O1  UNL     1       0.865  11.469  25.306  1.00  0.00    -0.319 OA
BRANCH   3   4
HETATM    4  C5  UNL     1       0.099  10.295  25.236  1.00  0.00     0.186 C 
HETATM    5  C4  UNL     1      -0.787  10.261  26.426  1.00  0.00     0.005 C 
HETATM    6  C3  UNL     1      -0.419   9.625  27.512  1.00  0.00     0.004 C 
HETATM    7  C2  UNL     1       0.919   8.950  27.475  1.00  0.00     0.205 C 
HETATM    8  C1  UNL     1       1.130   8.004  28.612  1.00  0.00     0.044 C 
HETATM    9  N4  UNL     1       0.864   8.155  26.237  1.00  0.00    -0.059 N 
HETATM   10  C12 UNL     1       0.874   9.040  25.075  1.00  0.00     0.247 C 
ATOM     11  H42 UNL     1       1.610   7.461  26.195  1.00  0.00     0.278 HD
ATOM     12  H41 UNL     1       0.067   7.518  26.226  1.00  0.00     0.278 HD
BRANCH  10  13
HETATM   13  C13 UNL     1       0.274   8.193  23.942  1.00  0.00     0.147 C 
HETATM   14  C14 UNL     1       1.377   7.475  23.167  1.00  0.00     0.041 C 
BRANCH  13  15
HETATM   15  O3  UNL     1      -0.500   7.204  24.565  1.00  0.00    -0.394 OA
ATOM     16  H3  UNL     1       0.091   6.730  25.139  1.00  0.00     0.210 HD
ENDBRANCH  13  15
ENDBRANCH  10  13
ENDBRANCH   3   4
ENDBRANCH   1   3
BRANCH   1  17
HETATM   17  O2  UNL     1       1.247  13.493  24.540  1.00  0.00    -0.341 OA
ATOM     18  H2  UNL     1       0.995  13.801  23.678  1.00  0.00     0.220 HD
ENDBRANCH   1  17
BRANCH   2  19
HETATM   19  S1  UNL     1       4.273  11.704  23.825  1.00  0.00    -0.077 SA
BRANCH  19  20
HETATM   20  C8  UNL     1       5.017  13.144  24.588  1.00  0.00     0.109 A 
HETATM   21  N1  UNL     1       4.295  14.174  25.123  1.00  0.00    -0.184 N 
HETATM   22  C9  UNL     1       4.908  15.297  25.555  1.00  0.00     0.676 A 
ATOM     23  H1  UNL     1       3.281  14.093  25.197  1.00  0.00     0.185 HD
HETATM   24  N3  UNL     1       6.258  15.483  25.492  1.00  0.00    -0.201 N 
HETATM   25  C10 UNL     1       6.978  14.495  24.974  1.00  0.00     0.128 A 
ATOM     26  H3  UNL     1       6.695  16.341  25.828  1.00  0.00     0.183 HD
HETATM   27  C11 UNL     1       6.377  13.337  24.526  1.00  0.00     0.061 A 
HETATM   28 BR1  UNL     1       7.533  11.991  23.823  1.00  0.00    -0.047 Br
BRANCH  22  29
HETATM   29  N2  UNL     1       4.259  16.304  26.033  1.00  0.00    -0.234 N 
ATOM     30  H22 UNL     1       3.317  16.079  26.352  1.00  0.00     0.174 HD
ATOM     31  H21 UNL     1       4.667  17.236  26.109  1.00  0.00     0.174 HD
ENDBRANCH  22  29
ENDBRANCH  19  20
ENDBRANCH   2  19
TORSDOF 8
ENDMDL
