MODEL 1
REMARK VINA RESULT: -8.393229464      0.000      0.000
REMARK  11 active torsions:
REMARK  status: ('A' for Active; 'I' for Inactive)
REMARK    1  A    between atoms: C3_4  and  C4_5 
REMARK    2  A    between atoms: C5_6  and  C6_7 
REMARK    3  A    between atoms: C6_7  and  C7_8 
REMARK    4  A    between atoms: C7_8  and  C8_9 
REMARK    5  A    between atoms: C8_9  and  C9_11 
REMARK    6  A    between atoms: C9_11  and  C10_12 
REMARK    7  A    between atoms: C12_15  and  C14_17 
REMARK    8  A    between atoms: C14_17  and  O3_18 
REMARK    9  A    between atoms: C16_22  and  O5_23 
REMARK   10  A    between atoms: C17_25  and  O6_26 
REMARK   11  A    between atoms: C18_28  and  O7_29 
ROOT
HETATM    1  C4  UNL     1       3.564  10.836  24.512  1.00  0.00    -0.072 C 
HETATM    2  C5  UNL     1       4.729  10.861  24.215  1.00  0.00    -0.104 C 
ENDROOT
BRANCH   2   3
HETATM    3  C6  UNL     1       6.157  10.881  23.873  1.00  0.00     0.095 C 
BRANCH   3   4
HETATM    4  C7  UNL     1       6.618  12.276  23.528  1.00  0.00     0.032 C 
BRANCH   4   5
HETATM    5  C8  UNL     1       6.822  13.126  24.734  1.00  0.00     0.085 C 
HETATM    6 CL1  UNL     1       5.444  14.239  24.999  1.00  0.00    -0.125 Cl
BRANCH   5   7
HETATM    7  C9  UNL     1       8.129  13.834  24.828  1.00  0.00     0.054 C 
BRANCH   7   8
HETATM    8  C10 UNL     1       8.318  14.756  25.978  1.00  0.00     0.146 C 
HETATM    9  C11 UNL     1       8.809  14.142  27.243  1.00  0.00     0.200 C 
HETATM   10  O2  UNL     1      10.017  13.494  26.986  1.00  0.00    -0.374 OA
HETATM   11  C12 UNL     1      10.987  14.468  26.751  1.00  0.00     0.100 C 
HETATM   12  C13 UNL     1      11.917  13.955  25.672  1.00  0.00     0.050 C 
HETATM   13  C15 UNL     1      10.410  15.760  26.292  1.00  0.00     0.208 C 
HETATM   14  O4  UNL     1       9.246  15.719  25.595  1.00  0.00    -0.381 OA
BRANCH  11  15
HETATM   15  C14 UNL     1      11.860  14.632  27.996  1.00  0.00     0.203 C 
BRANCH  15  16
HETATM   16  O3  UNL     1      11.588  13.584  28.875  1.00  0.00    -0.398 OA
ATOM     17  H3  UNL     1      12.392  13.342  29.320  1.00  0.00     0.209 HD
ENDBRANCH  15  16
ENDBRANCH  11  15
ENDBRANCH   7   8
ENDBRANCH   5   7
ENDBRANCH   4   5
ENDBRANCH   3   4
ENDBRANCH   2   3
BRANCH   1  18
HETATM   18  C3  UNL     1       2.132  10.785  24.893  1.00  0.00     0.231 C 
HETATM   19  O1  UNL     1       1.759   9.457  24.989  1.00  0.00    -0.363 OA
HETATM   20  C2  UNL     1       0.448   9.311  24.625  1.00  0.00     0.150 C 
HETATM   21  C1  UNL     1      -0.092   7.927  24.933  1.00  0.00     0.042 C 
HETATM   22  C18 UNL     1      -0.398  10.384  25.270  1.00  0.00     0.178 C 
HETATM   23  C17 UNL     1      -0.138  11.656  24.476  1.00  0.00     0.181 C 
HETATM   24  C16 UNL     1       1.296  11.579  23.930  1.00  0.00     0.190 C 
BRANCH  22  25
HETATM   25  O7  UNL     1      -0.175  10.532  26.621  1.00  0.00    -0.390 OA
ATOM     26  H7  UNL     1      -0.334   9.743  27.125  1.00  0.00     0.210 HD
ENDBRANCH  22  25
BRANCH  23  27
HETATM   27  O6  UNL     1      -1.013  11.790  23.405  1.00  0.00    -0.390 OA
ATOM     28  H6  UNL     1      -1.856  12.078  23.737  1.00  0.00     0.210 HD
ENDBRANCH  23  27
BRANCH  24  29
HETATM   29  O5  UNL     1       1.740  12.886  23.819  1.00  0.00    -0.389 OA
ATOM     30  H5  UNL     1       1.091  13.506  24.128  1.00  0.00     0.210 HD
ENDBRANCH  24  29
ENDBRANCH   1  18
TORSDOF 11
ENDMDL
MODEL 2
REMARK VINA RESULT: -8.301329847      1.628      2.270
REMARK  11 active torsions:
REMARK  status: ('A' for Active; 'I' for Inactive)
REMARK    1  A    between atoms: C3_4  and  C4_5 
REMARK    2  A    between atoms: C5_6  and  C6_7 
REMARK    3  A    between atoms: C6_7  and  C7_8 
REMARK    4  A    between atoms: C7_8  and  C8_9 
REMARK    5  A    between atoms: C8_9  and  C9_11 
REMARK    6  A    between atoms: C9_11  and  C10_12 
REMARK    7  A    between atoms: C12_15  and  C14_17 
REMARK    8  A    between atoms: C14_17  and  O3_18 
REMARK    9  A    between atoms: C16_22  and  O5_23 
REMARK   10  A    between atoms: C17_25  and  O6_26 
REMARK   11  A    between atoms: C18_28  and  O7_29 
ROOT
HETATM    1  C4  UNL     1       4.260   9.886  23.850  1.00  0.00    -0.072 C 
HETATM    2  C5  UNL     1       5.382  10.318  23.830  1.00  0.00    -0.104 C 
ENDROOT
BRANCH   2   3
HETATM    3  C6  UNL     1       6.762  10.821  23.806  1.00  0.00     0.095 C 
BRANCH   3   4
HETATM    4  C7  UNL     1       6.802  12.292  23.473  1.00  0.00     0.032 C 
BRANCH   4   5
HETATM    5  C8  UNL     1       6.943  13.150  24.683  1.00  0.00     0.085 C 
HETATM    6 CL1  UNL     1       5.467  14.120  24.981  1.00  0.00    -0.125 Cl
BRANCH   5   7
HETATM    7  C9  UNL     1       8.175  13.982  24.761  1.00  0.00     0.054 C 
BRANCH   7   8
HETATM    8  C10 UNL     1       8.349  14.823  25.973  1.00  0.00     0.146 C 
HETATM    9  C11 UNL     1       8.834  14.126  27.197  1.00  0.00     0.200 C 
HETATM   10  O2  UNL     1      10.048  13.505  26.906  1.00  0.00    -0.374 OA
HETATM   11  C12 UNL     1      11.013  14.499  26.747  1.00  0.00     0.100 C 
HETATM   12  C13 UNL     1      11.955  14.069  25.644  1.00  0.00     0.050 C 
HETATM   13  C15 UNL     1      10.431  15.816  26.374  1.00  0.00     0.208 C 
HETATM   14  O4  UNL     1       9.273  15.817  25.667  1.00  0.00    -0.381 OA
BRANCH  11  15
HETATM   15  C14 UNL     1      11.875  14.582  28.009  1.00  0.00     0.203 C 
BRANCH  15  16
HETATM   16  O3  UNL     1      11.512  13.546  28.868  1.00  0.00    -0.398 OA
ATOM     17  H3  UNL     1      11.803  13.761  29.747  1.00  0.00     0.209 HD
ENDBRANCH  15  16
ENDBRANCH  11  15
ENDBRANCH   7   8
ENDBRANCH   5   7
ENDBRANCH   4   5
ENDBRANCH   3   4
ENDBRANCH   2   3
BRANCH   1  18
HETATM   18  C3  UNL     1       2.885   9.333  23.865  1.00  0.00     0.231 C 
HETATM   19  O1  UNL     1       2.451   9.294  25.178  1.00  0.00    -0.363 OA
HETATM   20  C2  UNL     1       1.612   8.228  25.362  1.00  0.00     0.150 C 
HETATM   21  C1  UNL     1       0.915   8.262  26.709  1.00  0.00     0.042 C 
HETATM   22  C18 UNL     1       0.614   8.145  24.232  1.00  0.00     0.178 C 
HETATM   23  C17 UNL     1       1.372   7.565  23.046  1.00  0.00     0.181 C 
HETATM   24  C16 UNL     1       2.840   8.000  23.175  1.00  0.00     0.190 C 
BRANCH  22  25
HETATM   25  O7  UNL     1      -0.008   9.340  23.948  1.00  0.00    -0.390 OA
ATOM     26  H7  UNL     1       0.408  10.095  24.348  1.00  0.00     0.210 HD
ENDBRANCH  22  25
BRANCH  23  27
HETATM   27  O6  UNL     1       1.321   6.177  23.022  1.00  0.00    -0.390 OA
ATOM     28  H6  UNL     1       0.744   5.883  23.719  1.00  0.00     0.210 HD
ENDBRANCH  23  27
BRANCH  24  29
HETATM   29  O5  UNL     1       3.338   8.071  21.885  1.00  0.00    -0.389 OA
ATOM     30  H5  UNL     1       3.701   7.241  21.600  1.00  0.00     0.210 HD
ENDBRANCH  24  29
ENDBRANCH   1  18
TORSDOF 11
ENDMDL
MODEL 3
REMARK VINA RESULT: -8.295854028      1.019      1.995
REMARK  11 active torsions:
REMARK  status: ('A' for Active; 'I' for Inactive)
REMARK    1  A    between atoms: C3_4  and  C4_5 
REMARK    2  A    between atoms: C5_6  and  C6_7 
REMARK    3  A    between atoms: C6_7  and  C7_8 
REMARK    4  A    between atoms: C7_8  and  C8_9 
REMARK    5  A    between atoms: C8_9  and  C9_11 
REMARK    6  A    between atoms: C9_11  and  C10_12 
REMARK    7  A    between atoms: C12_15  and  C14_17 
REMARK    8  A    between atoms: C14_17  and  O3_18 
REMARK    9  A    between atoms: C16_22  and  O5_23 
REMARK   10  A    between atoms: C17_25  and  O6_26 
REMARK   11  A    between atoms: C18_28  and  O7_29 
ROOT
HETATM    1  C4  UNL     1       4.035  10.238  24.189  1.00  0.00    -0.072 C 
HETATM    2  C5  UNL     1       5.192  10.510  24.008  1.00  0.00    -0.104 C 
ENDROOT
BRANCH   2   3
HETATM    3  C6  UNL     1       6.612  10.820  23.795  1.00  0.00     0.095 C 
BRANCH   3   4
HETATM    4  C7  UNL     1       6.811  12.279  23.471  1.00  0.00     0.032 C 
BRANCH   4   5
HETATM    5  C8  UNL     1       6.958  13.123  24.690  1.00  0.00     0.085 C 
HETATM    6 CL1  UNL     1       5.505  14.130  24.975  1.00  0.00    -0.125 Cl
BRANCH   5   7
HETATM    7  C9  UNL     1       8.211  13.920  24.793  1.00  0.00     0.054 C 
BRANCH   7   8
HETATM    8  C10 UNL     1       8.370  14.780  25.995  1.00  0.00     0.146 C 
HETATM    9  C11 UNL     1       8.851  14.104  27.232  1.00  0.00     0.200 C 
HETATM   10  O2  UNL     1      10.072  13.488  26.958  1.00  0.00    -0.374 OA
HETATM   11  C12 UNL     1      11.030  14.488  26.792  1.00  0.00     0.100 C 
HETATM   12  C13 UNL     1      11.984  14.049  25.701  1.00  0.00     0.050 C 
HETATM   13  C15 UNL     1      10.441  15.795  26.396  1.00  0.00     0.208 C 
HETATM   14  O4  UNL     1       9.288  15.776  25.680  1.00  0.00    -0.381 OA
BRANCH  11  15
HETATM   15  C14 UNL     1      11.882  14.595  28.058  1.00  0.00     0.203 C 
BRANCH  15  16
HETATM   16  O3  UNL     1      11.550  13.545  28.912  1.00  0.00    -0.398 OA
ATOM     17  H3  UNL     1      11.416  13.892  29.786  1.00  0.00     0.209 HD
ENDBRANCH  15  16
ENDBRANCH  11  15
ENDBRANCH   7   8
ENDBRANCH   5   7
ENDBRANCH   4   5
ENDBRANCH   3   4
ENDBRANCH   2   3
BRANCH   1  18
HETATM   18  C3  UNL     1       2.614   9.879  24.410  1.00  0.00     0.231 C 
HETATM   19  O1  UNL     1       1.827  10.834  23.793  1.00  0.00    -0.363 OA
HETATM   20  C2  UNL     1       0.664  11.007  24.493  1.00  0.00     0.150 C 
HETATM   21  C1  UNL     1      -0.344  11.861  23.746  1.00  0.00     0.042 C 
HETATM   22  C18 UNL     1       0.074   9.667  24.867  1.00  0.00     0.178 C 
HETATM   23  C17 UNL     1       0.905   9.156  26.036  1.00  0.00     0.181 C 
HETATM   24  C16 UNL     1       2.327   9.715  25.875  1.00  0.00     0.190 C 
BRANCH  22  25
HETATM   25  O7  UNL     1       0.004   8.777  23.820  1.00  0.00    -0.390 OA
ATOM     26  H7  UNL     1      -0.215   7.890  24.083  1.00  0.00     0.210 HD
ENDBRANCH  22  25
BRANCH  23  27
HETATM   27  O6  UNL     1       0.399   9.577  27.259  1.00  0.00    -0.390 OA
ATOM     28  H6  UNL     1       0.618  10.495  27.378  1.00  0.00     0.210 HD
ENDBRANCH  23  27
BRANCH  24  29
HETATM   29  O5  UNL     1       3.175   8.794  26.466  1.00  0.00    -0.389 OA
ATOM     30  H5  UNL     1       2.969   7.905  26.202  1.00  0.00     0.210 HD
ENDBRANCH  24  29
ENDBRANCH   1  18
TORSDOF 11
ENDMDL
MODEL 4
REMARK VINA RESULT: -8.286855079      1.407      2.118
REMARK  11 active torsions:
REMARK  status: ('A' for Active; 'I' for Inactive)
REMARK    1  A    between atoms: C3_4  and  C4_5 
REMARK    2  A    between atoms: C5_6  and  C6_7 
REMARK    3  A    between atoms: C6_7  and  C7_8 
REMARK    4  A    between atoms: C7_8  and  C8_9 
REMARK    5  A    between atoms: C8_9  and  C9_11 
REMARK    6  A    between atoms: C9_11  and  C10_12 
REMARK    7  A    between atoms: C12_15  and  C14_17 
REMARK    8  A    between atoms: C14_17  and  O3_18 
REMARK    9  A    between atoms: C16_22  and  O5_23 
REMARK   10  A    between atoms: C17_25  and  O6_26 
REMARK   11  A    between atoms: C18_28  and  O7_29 
ROOT
HETATM    1  C4  UNL     1       2.379  12.863  24.591  1.00  0.00    -0.072 C 
HETATM    2  C5  UNL     1       3.240  13.692  24.718  1.00  0.00    -0.104 C 
ENDROOT
BRANCH   2   3
HETATM    3  C6  UNL     1       4.303  14.691  24.891  1.00  0.00     0.095 C 
BRANCH   3   4
HETATM    4  C7  UNL     1       5.525  14.084  25.535  1.00  0.00     0.032 C 
BRANCH   4   5
HETATM    5  C8  UNL     1       6.555  13.677  24.539  1.00  0.00     0.085 C 
HETATM    6 CL1  UNL     1       6.240  12.034  23.897  1.00  0.00    -0.125 Cl
BRANCH   5   7
HETATM    7  C9  UNL     1       7.975  13.845  24.953  1.00  0.00     0.054 C 
BRANCH   7   8
HETATM    8  C10 UNL     1       8.251  14.803  26.054  1.00  0.00     0.146 C 
HETATM    9  C11 UNL     1       8.766  14.220  27.324  1.00  0.00     0.200 C 
HETATM   10  O2  UNL     1       9.933  13.507  27.048  1.00  0.00    -0.374 OA
HETATM   11  C12 UNL     1      10.934  14.426  26.734  1.00  0.00     0.100 C 
HETATM   12  C13 UNL     1      11.796  13.828  25.642  1.00  0.00     0.050 C 
HETATM   13  C15 UNL     1      10.396  15.723  26.243  1.00  0.00     0.208 C 
HETATM   14  O4  UNL     1       9.204  15.707  25.595  1.00  0.00    -0.381 OA
BRANCH  11  15
HETATM   15  C14 UNL     1      11.863  14.601  27.937  1.00  0.00     0.203 C 
BRANCH  15  16
HETATM   16  O3  UNL     1      11.551  13.632  28.888  1.00  0.00    -0.398 OA
ATOM     17  H3  UNL     1      11.528  14.041  29.746  1.00  0.00     0.209 HD
ENDBRANCH  15  16
ENDBRANCH  11  15
ENDBRANCH   7   8
ENDBRANCH   5   7
ENDBRANCH   4   5
ENDBRANCH   3   4
ENDBRANCH   2   3
BRANCH   1  18
HETATM   18  C3  UNL     1       1.331  11.824  24.444  1.00  0.00     0.231 C 
HETATM   19  O1  UNL     1       0.579  11.804  25.604  1.00  0.00    -0.363 OA
HETATM   20  C2  UNL     1       0.137  10.533  25.855  1.00  0.00     0.150 C 
HETATM   21  C1  UNL     1      -0.885  10.482  26.974  1.00  0.00     0.042 C 
HETATM   22  C18 UNL     1      -0.403   9.907  24.591  1.00  0.00     0.178 C 
HETATM   23  C17 UNL     1       0.814   9.509  23.768  1.00  0.00     0.181 C 
HETATM   24  C16 UNL     1       1.944  10.496  24.099  1.00  0.00     0.190 C 
BRANCH  22  25
HETATM   25  O7  UNL     1      -1.284  10.711  23.904  1.00  0.00    -0.390 OA
ATOM     26  H7  UNL     1      -1.630  11.430  24.418  1.00  0.00     0.210 HD
ENDBRANCH  22  25
BRANCH  23  27
HETATM   27  O6  UNL     1       1.248   8.223  24.067  1.00  0.00    -0.390 OA
ATOM     28  H6  UNL     1       0.530   7.747  24.469  1.00  0.00     0.210 HD
ENDBRANCH  23  27
BRANCH  24  29
HETATM   29  O5  UNL     1       2.736  10.574  22.967  1.00  0.00    -0.389 OA
ATOM     30  H5  UNL     1       3.590  10.182  23.106  1.00  0.00     0.210 HD
ENDBRANCH  24  29
ENDBRANCH   1  18
TORSDOF 11
ENDMDL
MODEL 5
REMARK VINA RESULT: -8.159997528      1.303      1.664
REMARK  11 active torsions:
REMARK  status: ('A' for Active; 'I' for Inactive)
REMARK    1  A    between atoms: C3_4  and  C4_5 
REMARK    2  A    between atoms: C5_6  and  C6_7 
REMARK    3  A    between atoms: C6_7  and  C7_8 
REMARK    4  A    between atoms: C7_8  and  C8_9 
REMARK    5  A    between atoms: C8_9  and  C9_11 
REMARK    6  A    between atoms: C9_11  and  C10_12 
REMARK    7  A    between atoms: C12_15  and  C14_17 
REMARK    8  A    between atoms: C14_17  and  O3_18 
REMARK    9  A    between atoms: C16_22  and  O5_23 
REMARK   10  A    between atoms: C17_25  and  O6_26 
REMARK   11  A    between atoms: C18_28  and  O7_29 
ROOT
HETATM    1  C4  UNL     1       4.068  10.328  24.480  1.00  0.00    -0.072 C 
HETATM    2  C5  UNL     1       5.207  10.560  24.171  1.00  0.00    -0.104 C 
ENDROOT
BRANCH   2   3
HETATM    3  C6  UNL     1       6.597  10.825  23.777  1.00  0.00     0.095 C 
BRANCH   3   4
HETATM    4  C7  UNL     1       6.807  12.285  23.462  1.00  0.00     0.032 C 
BRANCH   4   5
HETATM    5  C8  UNL     1       6.957  13.120  24.687  1.00  0.00     0.085 C 
HETATM    6 CL1  UNL     1       5.524  14.161  24.956  1.00  0.00    -0.125 Cl
BRANCH   5   7
HETATM    7  C9  UNL     1       8.227  13.886  24.812  1.00  0.00     0.054 C 
BRANCH   7   8
HETATM    8  C10 UNL     1       8.376  14.761  26.004  1.00  0.00     0.146 C 
HETATM    9  C11 UNL     1       8.859  14.103  27.250  1.00  0.00     0.200 C 
HETATM   10  O2  UNL     1      10.086  13.494  26.985  1.00  0.00    -0.374 OA
HETATM   11  C12 UNL     1      11.037  14.499  26.810  1.00  0.00     0.100 C 
HETATM   12  C13 UNL     1      11.996  14.055  25.726  1.00  0.00     0.050 C 
HETATM   13  C15 UNL     1      10.438  15.797  26.398  1.00  0.00     0.208 C 
HETATM   14  O4  UNL     1       9.287  15.760  25.680  1.00  0.00    -0.381 OA
BRANCH  11  15
HETATM   15  C14 UNL     1      11.885  14.628  28.077  1.00  0.00     0.203 C 
BRANCH  15  16
HETATM   16  O3  UNL     1      11.623  13.537  28.904  1.00  0.00    -0.398 OA
ATOM     17  H3  UNL     1      11.281  13.856  29.732  1.00  0.00     0.209 HD
ENDBRANCH  15  16
ENDBRANCH  11  15
ENDBRANCH   7   8
ENDBRANCH   5   7
ENDBRANCH   4   5
ENDBRANCH   3   4
ENDBRANCH   2   3
BRANCH   1  18
HETATM   18  C3  UNL     1       2.660  10.032  24.838  1.00  0.00     0.231 C 
HETATM   19  O1  UNL     1       2.621   9.675  26.174  1.00  0.00    -0.363 OA
HETATM   20  C2  UNL     1       1.628   8.758  26.385  1.00  0.00     0.150 C 
HETATM   21  C1  UNL     1       1.375   8.503  27.859  1.00  0.00     0.042 C 
HETATM   22  C18 UNL     1       0.363   9.183  25.678  1.00  0.00     0.178 C 
HETATM   23  C17 UNL     1       0.580   8.867  24.205  1.00  0.00     0.181 C 
HETATM   24  C16 UNL     1       2.084   8.992  23.919  1.00  0.00     0.190 C 
BRANCH  22  25
HETATM   25  O7  UNL     1       0.010  10.494  25.906  1.00  0.00    -0.390 OA
ATOM     26  H7  UNL     1       0.744  11.098  25.890  1.00  0.00     0.210 HD
ENDBRANCH  22  25
BRANCH  23  27
HETATM   27  O6  UNL     1       0.174   7.577  23.883  1.00  0.00    -0.390 OA
ATOM     28  H6  UNL     1       0.280   7.026  24.650  1.00  0.00     0.210 HD
ENDBRANCH  23  27
BRANCH  24  29
HETATM   29  O5  UNL     1       2.197   9.362  22.589  1.00  0.00    -0.389 OA
ATOM     30  H5  UNL     1       2.021   8.635  22.005  1.00  0.00     0.210 HD
ENDBRANCH  24  29
ENDBRANCH   1  18
TORSDOF 11
ENDMDL
