MODEL 1
REMARK VINA RESULT: -8.230910907      0.000      0.000
REMARK  8 active torsions:
REMARK  status: ('A' for Active; 'I' for Inactive)
REMARK    1  A    between atoms: O1_2  and  N1_3 
REMARK    2  A    between atoms: C2_5  and  N2_6 
REMARK    3  A    between atoms: C2_5  and  C11_28 
REMARK    4  A    between atoms: N2_6  and  C3_8 
REMARK    5  A    between atoms: C3_8  and  S1_9 
REMARK    6  A    between atoms: S1_9  and  N3_11 
REMARK    7  A    between atoms: S1_9  and  C7_23 
REMARK       I    between atoms: N3_11  and  C4_13 
REMARK       I    between atoms: C4_13  and  N4_14 
REMARK       I    between atoms: C4_13  and  N5_18 
REMARK    8  A    between atoms: N4_14  and  O3_16 
REMARK       I    between atoms: N5_18  and  C5_20 
ROOT
HETATM    1  S1  UNL     1       4.186  10.144  23.154  1.00  0.00     0.113 S 
HETATM    2  O2  UNL     1       3.646  10.546  22.085  1.00  0.00    -0.238 OA
ENDROOT
BRANCH   1   3
HETATM    3  C3  UNL     1       2.740   9.539  24.227  1.00  0.00     0.183 C 
BRANCH   3   4
HETATM    4  N2  UNL     1       1.443   9.539  23.590  1.00  0.00    -0.345 N 
ATOM      5  H2  UNL     1       1.387   9.140  22.653  1.00  0.00     0.167 HD
BRANCH   4   6
HETATM    6  C2  UNL     1       0.253  10.038  24.142  1.00  0.00     0.109 C 
HETATM    7  N1  UNL     1      -0.549   9.240  24.745  1.00  0.00    -0.254 N 
ATOM      8  H1  UNL     1      -1.409   9.628  25.136  1.00  0.00     0.195 HD
BRANCH   7   9
HETATM    9  O1  UNL     1      -0.316   7.881  24.897  1.00  0.00    -0.284 OA
HETATM   10  C1  UNL     1      -0.008   7.379  26.201  1.00  0.00     0.237 C 
ENDBRANCH   7   9
BRANCH   6  11
HETATM   11  C11 UNL     1      -0.114  11.456  24.049  1.00  0.00     0.009 C 
HETATM   12  C12 UNL     1       0.101  12.130  25.429  1.00  0.00     0.023 C 
HETATM   13  C13 UNL     1       0.752  12.264  23.099  1.00  0.00     0.023 C 
HETATM   14  C14 UNL     1      -1.570  11.536  23.686  1.00  0.00     0.023 C 
ENDBRANCH   6  11
ENDBRANCH   4   6
ENDBRANCH   3   4
ENDBRANCH   1   3
BRANCH   1  15
HETATM   15  N3  UNL     1       5.398   8.933  22.372  1.00  0.00    -0.139 N 
HETATM   16  C4  UNL     1       4.398   7.548  21.889  1.00  0.00     0.712 C 
HETATM   17  N4  UNL     1       4.201   8.035  20.852  1.00  0.00    -0.098 N 
HETATM   18  N5  UNL     1       4.631   6.974  23.113  1.00  0.00    -0.158 N 
ATOM     19  H4  UNL     1       3.604   7.370  20.358  1.00  0.00     0.213 HD
HETATM   20  C5  UNL     1       3.933   5.775  23.490  1.00  0.00     0.232 C 
ATOM     21  H5  UNL     1       5.300   7.398  23.755  1.00  0.00     0.187 HD
HETATM   22  C6  UNL     1       4.174   5.137  24.788  1.00  0.00     0.118 C 
HETATM   23  O4  UNL     1       3.115   5.286  22.692  1.00  0.00    -0.273 OA
ATOM     24  H3  UNL     1       6.404   9.047  22.252  1.00  0.00     0.195 HD
BRANCH  17  25
HETATM   25  O3  UNL     1       4.376   9.028  20.006  1.00  0.00    -0.276 OA
ATOM     26  H3  UNL     1       4.203   9.432  19.164  1.00  0.00     0.245 HD
ENDBRANCH  17  25
ENDBRANCH   1  15
BRANCH   1  27
HETATM   27  C7  UNL     1       4.998  11.821  23.865  1.00  0.00     0.085 A 
HETATM   28  C8  UNL     1       4.504  12.909  24.467  1.00  0.00     0.030 A 
HETATM   29  C9  UNL     1       5.359  13.845  24.915  1.00  0.00     0.009 A 
HETATM   30  C10 UNL     1       6.694  13.656  24.741  1.00  0.00     0.051 A 
HETATM   31  S2  UNL     1       6.672  12.112  23.923  1.00  0.00    -0.091 SA
ENDBRANCH   1  27
TORSDOF 8
ENDMDL
MODEL 2
REMARK VINA RESULT: -8.037143076      1.464      2.492
REMARK  8 active torsions:
REMARK  status: ('A' for Active; 'I' for Inactive)
REMARK    1  A    between atoms: O1_2  and  N1_3 
REMARK    2  A    between atoms: C2_5  and  N2_6 
REMARK    3  A    between atoms: C2_5  and  C11_28 
REMARK    4  A    between atoms: N2_6  and  C3_8 
REMARK    5  A    between atoms: C3_8  and  S1_9 
REMARK    6  A    between atoms: S1_9  and  N3_11 
REMARK    7  A    between atoms: S1_9  and  C7_23 
REMARK       I    between atoms: N3_11  and  C4_13 
REMARK       I    between atoms: C4_13  and  N4_14 
REMARK       I    between atoms: C4_13  and  N5_18 
REMARK    8  A    between atoms: N4_14  and  O3_16 
REMARK       I    between atoms: N5_18  and  C5_20 
ROOT
HETATM    1  S1  UNL     1       4.475   9.980  23.259  1.00  0.00     0.113 S 
HETATM    2  O2  UNL     1       3.663  10.330  22.358  1.00  0.00    -0.238 OA
ENDROOT
BRANCH   1   3
HETATM    3  C3  UNL     1       3.402   9.118  24.569  1.00  0.00     0.183 C 
BRANCH   3   4
HETATM    4  N2  UNL     1       2.699   9.993  25.479  1.00  0.00    -0.345 N 
ATOM      5  H2  UNL     1       3.266  10.631  26.038  1.00  0.00     0.167 HD
BRANCH   4   6
HETATM    6  C2  UNL     1       1.310  10.045  25.665  1.00  0.00     0.109 C 
HETATM    7  N1  UNL     1       0.609  10.875  24.983  1.00  0.00    -0.254 N 
ATOM      8  H1  UNL     1      -0.399  10.894  25.139  1.00  0.00     0.195 HD
BRANCH   7   9
HETATM    9  O1  UNL     1       1.143  11.747  24.046  1.00  0.00    -0.284 OA
HETATM   10  C1  UNL     1       0.945  13.152  24.225  1.00  0.00     0.237 C 
ENDBRANCH   7   9
BRANCH   6  11
HETATM   11  C11 UNL     1       0.619   9.177  26.627  1.00  0.00     0.009 C 
HETATM   12  C12 UNL     1       0.047   7.943  25.883  1.00  0.00     0.023 C 
HETATM   13  C13 UNL     1       1.523   8.586  27.694  1.00  0.00     0.023 C 
HETATM   14  C14 UNL     1      -0.517   9.958  27.226  1.00  0.00     0.023 C 
ENDBRANCH   6  11
ENDBRANCH   4   6
ENDBRANCH   3   4
ENDBRANCH   1   3
BRANCH   1  15
HETATM   15  N3  UNL     1       5.650   9.002  22.159  1.00  0.00    -0.139 N 
HETATM   16  C4  UNL     1       4.737   7.548  21.711  1.00  0.00     0.712 C 
HETATM   17  N4  UNL     1       4.303   8.091  20.779  1.00  0.00    -0.098 N 
HETATM   18  N5  UNL     1       5.250   6.907  22.810  1.00  0.00    -0.158 N 
ATOM     19  H4  UNL     1       3.703   7.401  20.327  1.00  0.00     0.213 HD
HETATM   20  C5  UNL     1       4.767   5.602  23.172  1.00  0.00     0.232 C 
ATOM     21  H5  UNL     1       5.974   7.356  23.370  1.00  0.00     0.187 HD
HETATM   22  C6  UNL     1       5.308   4.891  24.335  1.00  0.00     0.118 C 
HETATM   23  O4  UNL     1       3.876   5.082  22.477  1.00  0.00    -0.273 OA
ATOM     24  H3  UNL     1       6.600   9.253  21.883  1.00  0.00     0.195 HD
BRANCH  17  25
HETATM   25  O3  UNL     1       4.212   9.167  20.025  1.00  0.00    -0.276 OA
ATOM     26  H3  UNL     1       3.745   9.679  19.375  1.00  0.00     0.245 HD
ENDBRANCH  17  25
ENDBRANCH   1  15
BRANCH   1  27
HETATM   27  C7  UNL     1       5.170  11.737  23.897  1.00  0.00     0.085 A 
HETATM   28  C8  UNL     1       4.601  12.815  24.450  1.00  0.00     0.030 A 
HETATM   29  C9  UNL     1       5.390  13.825  24.857  1.00  0.00     0.009 A 
HETATM   30  C10 UNL     1       6.735  13.719  24.693  1.00  0.00     0.051 A 
HETATM   31  S2  UNL     1       6.821  12.143  23.944  1.00  0.00    -0.091 SA
ENDBRANCH   1  27
TORSDOF 8
ENDMDL
MODEL 3
REMARK VINA RESULT: -7.911164539      1.565      1.681
REMARK  8 active torsions:
REMARK  status: ('A' for Active; 'I' for Inactive)
REMARK    1  A    between atoms: O1_2  and  N1_3 
REMARK    2  A    between atoms: C2_5  and  N2_6 
REMARK    3  A    between atoms: C2_5  and  C11_28 
REMARK    4  A    between atoms: N2_6  and  C3_8 
REMARK    5  A    between atoms: C3_8  and  S1_9 
REMARK    6  A    between atoms: S1_9  and  N3_11 
REMARK    7  A    between atoms: S1_9  and  C7_23 
REMARK       I    between atoms: N3_11  and  C4_13 
REMARK       I    between atoms: C4_13  and  N4_14 
REMARK       I    between atoms: C4_13  and  N5_18 
REMARK    8  A    between atoms: N4_14  and  O3_16 
REMARK       I    between atoms: N5_18  and  C5_20 
ROOT
HETATM    1  S1  UNL     1       4.416   9.959  23.215  1.00  0.00     0.113 S 
HETATM    2  O2  UNL     1       3.585  10.288  22.324  1.00  0.00    -0.238 OA
ENDROOT
BRANCH   1   3
HETATM    3  C3  UNL     1       3.390   9.016  24.508  1.00  0.00     0.183 C 
BRANCH   3   4
HETATM    4  N2  UNL     1       2.796   9.824  25.548  1.00  0.00    -0.345 N 
ATOM      5  H2  UNL     1       3.385  10.543  25.970  1.00  0.00     0.167 HD
BRANCH   4   6
HETATM    6  C2  UNL     1       1.484   9.711  26.030  1.00  0.00     0.109 C 
HETATM    7  N1  UNL     1       1.232   8.919  27.007  1.00  0.00    -0.254 N 
ATOM      8  H1  UNL     1       0.269   8.854  27.337  1.00  0.00     0.195 HD
BRANCH   7   9
HETATM    9  O1  UNL     1       2.196   8.146  27.639  1.00  0.00    -0.284 OA
HETATM   10  C1  UNL     1       2.327   8.240  29.060  1.00  0.00     0.237 C 
ENDBRANCH   7   9
BRANCH   6  11
HETATM   11  C11 UNL     1       0.371  10.473  25.448  1.00  0.00     0.009 C 
HETATM   12  C12 UNL     1      -0.649  10.820  26.564  1.00  0.00     0.023 C 
HETATM   13  C13 UNL     1       0.771  11.820  24.874  1.00  0.00     0.023 C 
HETATM   14  C14 UNL     1      -0.301   9.604  24.423  1.00  0.00     0.023 C 
ENDBRANCH   6  11
ENDBRANCH   4   6
ENDBRANCH   3   4
ENDBRANCH   1   3
BRANCH   1  15
HETATM   15  N3  UNL     1       5.634   9.065  22.092  1.00  0.00    -0.139 N 
HETATM   16  C4  UNL     1       4.808   7.560  21.643  1.00  0.00     0.712 C 
HETATM   17  N4  UNL     1       4.328   8.083  20.722  1.00  0.00    -0.098 N 
HETATM   18  N5  UNL     1       5.375   6.944  22.729  1.00  0.00    -0.158 N 
ATOM     19  H4  UNL     1       3.766   7.360  20.272  1.00  0.00     0.213 HD
HETATM   20  C5  UNL     1       4.979   5.608  23.087  1.00  0.00     0.232 C 
ATOM     21  H5  UNL     1       6.077   7.433  23.284  1.00  0.00     0.187 HD
HETATM   22  C6  UNL     1       5.579   4.924  24.237  1.00  0.00     0.118 C 
HETATM   23  O4  UNL     1       4.113   5.040  22.400  1.00  0.00    -0.273 OA
ATOM     24  H3  UNL     1       6.562   9.376  21.805  1.00  0.00     0.195 HD
BRANCH  17  25
HETATM   25  O3  UNL     1       4.159   9.156  19.978  1.00  0.00    -0.276 OA
ATOM     26  H3  UNL     1       3.846   9.563  19.179  1.00  0.00     0.245 HD
ENDBRANCH  17  25
ENDBRANCH   1  15
BRANCH   1  27
HETATM   27  C7  UNL     1       5.026  11.734  23.890  1.00  0.00     0.085 A 
HETATM   28  C8  UNL     1       4.400  12.785  24.434  1.00  0.00     0.030 A 
HETATM   29  C9  UNL     1       5.138  13.819  24.875  1.00  0.00     0.009 A 
HETATM   30  C10 UNL     1       6.490  13.763  24.755  1.00  0.00     0.051 A 
HETATM   31  S2  UNL     1       6.658  12.198  23.996  1.00  0.00    -0.091 SA
ENDBRANCH   1  27
TORSDOF 8
ENDMDL
MODEL 4
REMARK VINA RESULT: -7.610969536      1.598      2.619
REMARK  8 active torsions:
REMARK  status: ('A' for Active; 'I' for Inactive)
REMARK    1  A    between atoms: O1_2  and  N1_3 
REMARK    2  A    between atoms: C2_5  and  N2_6 
REMARK    3  A    between atoms: C2_5  and  C11_28 
REMARK    4  A    between atoms: N2_6  and  C3_8 
REMARK    5  A    between atoms: C3_8  and  S1_9 
REMARK    6  A    between atoms: S1_9  and  N3_11 
REMARK    7  A    between atoms: S1_9  and  C7_23 
REMARK       I    between atoms: N3_11  and  C4_13 
REMARK       I    between atoms: C4_13  and  N4_14 
REMARK       I    between atoms: C4_13  and  N5_18 
REMARK    8  A    between atoms: N4_14  and  O3_16 
REMARK       I    between atoms: N5_18  and  C5_20 
ROOT
HETATM    1  S1  UNL     1       4.161   9.836  23.081  1.00  0.00     0.113 S 
HETATM    2  O2  UNL     1       3.931  10.111  21.871  1.00  0.00    -0.238 OA
ENDROOT
BRANCH   1   3
HETATM    3  C3  UNL     1       2.450   9.477  23.827  1.00  0.00     0.183 C 
BRANCH   3   4
HETATM    4  N2  UNL     1       2.229   9.981  25.163  1.00  0.00    -0.345 N 
ATOM      5  H2  UNL     1       3.040  10.351  25.658  1.00  0.00     0.167 HD
BRANCH   4   6
HETATM    6  C2  UNL     1       1.001  10.008  25.841  1.00  0.00     0.109 C 
HETATM    7  N1  UNL     1       0.225  11.021  25.709  1.00  0.00    -0.254 N 
ATOM      8  H1  UNL     1      -0.661  11.017  26.215  1.00  0.00     0.195 HD
BRANCH   7   9
HETATM    9  O1  UNL     1       0.522  12.121  24.917  1.00  0.00    -0.284 OA
HETATM   10  C1  UNL     1      -0.199  12.302  23.696  1.00  0.00     0.237 C 
ENDBRANCH   7   9
BRANCH   6  11
HETATM   11  C11 UNL     1       0.568   8.908  26.712  1.00  0.00     0.009 C 
HETATM   12  C12 UNL     1      -0.029   7.773  25.841  1.00  0.00     0.023 C 
HETATM   13  C13 UNL     1       1.694   8.240  27.479  1.00  0.00     0.023 C 
HETATM   14  C14 UNL     1      -0.500   9.435  27.629  1.00  0.00     0.023 C 
ENDBRANCH   6  11
ENDBRANCH   4   6
ENDBRANCH   3   4
ENDBRANCH   1   3
BRANCH   1  15
HETATM   15  N3  UNL     1       5.407   8.456  22.784  1.00  0.00    -0.139 N 
HETATM   16  C4  UNL     1       4.471   6.960  22.966  1.00  0.00     0.712 C 
HETATM   17  N4  UNL     1       4.203   6.974  21.835  1.00  0.00    -0.098 N 
HETATM   18  N5  UNL     1       4.787   6.943  24.300  1.00  0.00    -0.158 N 
ATOM     19  H4  UNL     1       3.626   6.145  21.690  1.00  0.00     0.213 HD
HETATM   20  C5  UNL     1       4.176   5.977  25.173  1.00  0.00     0.232 C 
ATOM     21  H5  UNL     1       5.456   7.616  24.674  1.00  0.00     0.187 HD
HETATM   22  C6  UNL     1       4.507   5.932  26.601  1.00  0.00     0.118 C 
HETATM   23  O4  UNL     1       3.355   5.176  24.693  1.00  0.00    -0.273 OA
ATOM     24  H3  UNL     1       6.399   8.548  22.567  1.00  0.00     0.195 HD
BRANCH  17  25
HETATM   25  O3  UNL     1       4.285   7.542  20.650  1.00  0.00    -0.276 OA
ATOM     26  H3  UNL     1       4.036   8.236  20.051  1.00  0.00     0.245 HD
ENDBRANCH  17  25
ENDBRANCH   1  15
BRANCH   1  27
HETATM   27  C7  UNL     1       4.930  11.547  23.758  1.00  0.00     0.085 A 
HETATM   28  C8  UNL     1       4.406  12.639  24.328  1.00  0.00     0.030 A 
HETATM   29  C9  UNL     1       5.236  13.604  24.760  1.00  0.00     0.009 A 
HETATM   30  C10 UNL     1       6.577  13.439  24.604  1.00  0.00     0.051 A 
HETATM   31  S2  UNL     1       6.596  11.875  23.825  1.00  0.00    -0.091 SA
ENDBRANCH   1  27
TORSDOF 8
ENDMDL
MODEL 5
REMARK VINA RESULT: -7.598448305      2.259      3.366
REMARK  8 active torsions:
REMARK  status: ('A' for Active; 'I' for Inactive)
REMARK    1  A    between atoms: O1_2  and  N1_3 
REMARK    2  A    between atoms: C2_5  and  N2_6 
REMARK    3  A    between atoms: C2_5  and  C11_28 
REMARK    4  A    between atoms: N2_6  and  C3_8 
REMARK    5  A    between atoms: C3_8  and  S1_9 
REMARK    6  A    between atoms: S1_9  and  N3_11 
REMARK    7  A    between atoms: S1_9  and  C7_23 
REMARK       I    between atoms: N3_11  and  C4_13 
REMARK       I    between atoms: C4_13  and  N4_14 
REMARK       I    between atoms: C4_13  and  N5_18 
REMARK    8  A    between atoms: N4_14  and  O3_16 
REMARK       I    between atoms: N5_18  and  C5_20 
ROOT
HETATM    1  S1  UNL     1       4.279  10.045  23.732  1.00  0.00     0.113 S 
HETATM    2  O2  UNL     1       4.011  10.003  22.499  1.00  0.00    -0.238 OA
ENDROOT
BRANCH   1   3
HETATM    3  C3  UNL     1       2.854  11.039  24.501  1.00  0.00     0.183 C 
BRANCH   3   4
HETATM    4  N2  UNL     1       1.614  11.035  23.759  1.00  0.00    -0.345 N 
ATOM      5  H2  UNL     1       1.636  10.631  22.822  1.00  0.00     0.167 HD
BRANCH   4   6
HETATM    6  C2  UNL     1       0.383  11.536  24.208  1.00  0.00     0.109 C 
HETATM    7  N1  UNL     1       0.119  12.784  24.074  1.00  0.00    -0.254 N 
ATOM      8  H1  UNL     1      -0.782  13.123  24.411  1.00  0.00     0.195 HD
BRANCH   7   9
HETATM    9  O1  UNL     1       0.989  13.698  23.498  1.00  0.00    -0.284 OA
HETATM   10  C1  UNL     1       1.620  14.669  24.338  1.00  0.00     0.237 C 
ENDBRANCH   7   9
BRANCH   6  11
HETATM   11  C11 UNL     1      -0.626  10.675  24.838  1.00  0.00     0.009 C 
HETATM   12  C12 UNL     1      -0.493  10.778  26.379  1.00  0.00     0.023 C 
HETATM   13  C13 UNL     1      -2.060  11.085  24.556  1.00  0.00     0.023 C 
HETATM   14  C14 UNL     1      -0.355   9.258  24.416  1.00  0.00     0.023 C 
ENDBRANCH   6  11
ENDBRANCH   4   6
ENDBRANCH   3   4
ENDBRANCH   1   3
BRANCH   1  15
HETATM   15  N3  UNL     1       4.437   8.189  24.009  1.00  0.00    -0.139 N 
HETATM   16  C4  UNL     1       2.886   7.709  24.724  1.00  0.00     0.712 C 
HETATM   17  N4  UNL     1       2.441   7.522  23.667  1.00  0.00    -0.098 N 
HETATM   18  N5  UNL     1       3.412   7.929  25.972  1.00  0.00    -0.158 N 
ATOM     19  H4  UNL     1       1.483   7.213  23.835  1.00  0.00     0.213 HD
HETATM   20  C5  UNL     1       2.565   7.862  27.133  1.00  0.00     0.232 C 
ATOM     21  H5  UNL     1       4.404   8.140  26.077  1.00  0.00     0.187 HD
HETATM   22  C6  UNL     1       3.107   8.081  28.477  1.00  0.00     0.118 C 
HETATM   23  O4  UNL     1       1.357   7.613  26.975  1.00  0.00    -0.273 OA
ATOM     24  H3  UNL     1       5.237   7.593  23.795  1.00  0.00     0.195 HD
BRANCH  17  25
HETATM   25  O3  UNL     1       2.575   7.516  22.357  1.00  0.00    -0.276 OA
ATOM     26  H3  UNL     1       3.122   7.606  21.586  1.00  0.00     0.245 HD
ENDBRANCH  17  25
ENDBRANCH   1  15
BRANCH   1  27
HETATM   27  C7  UNL     1       5.996  11.058  23.750  1.00  0.00     0.085 A 
HETATM   28  C8  UNL     1       6.319  12.333  23.999  1.00  0.00     0.030 A 
HETATM   29  C9  UNL     1       7.618  12.679  24.015  1.00  0.00     0.009 A 
HETATM   30  C10 UNL     1       8.558  11.726  23.779  1.00  0.00     0.051 A 
HETATM   31  S2  UNL     1       7.522  10.340  23.536  1.00  0.00    -0.091 SA
ENDBRANCH   1  27
TORSDOF 8
ENDMDL
