MODEL 1
REMARK VINA RESULT: -5.687223931      0.000      0.000
REMARK  1 active torsions:
REMARK  status: ('A' for Active; 'I' for Inactive)
REMARK       I    between atoms: C1_2  and  N2_4 
REMARK    1  A    between atoms: N2_4  and  C2_6 
ROOT
HETATM    1  C2  UNL     1      62.832  29.043  35.556  1.00  0.00     0.694 A 
HETATM    2  N3  UNL     1      63.570  29.986  36.137  1.00  0.00    -0.141 N 
ATOM      3  H3  UNL     1      63.646  30.912  35.716  1.00  0.00     0.189 HD
HETATM    4  C3  UNL     1      64.210  29.710  37.272  1.00  0.00     0.342 A 
HETATM    5  O2  UNL     1      64.921  30.596  37.844  1.00  0.00    -0.246 OA
HETATM    6  N4  UNL     1      64.136  28.505  37.857  1.00  0.00    -0.260 N 
ATOM      7  H4  UNL     1      64.633  28.310  38.726  1.00  0.00     0.175 HD
HETATM    8  C4  UNL     1      63.385  27.560  37.258  1.00  0.00     0.342 A 
HETATM    9  O3  UNL     1      63.295  26.417  37.782  1.00  0.00    -0.246 OA
HETATM   10  N5  UNL     1      62.740  27.839  36.114  1.00  0.00    -0.141 N 
ATOM     11  H5  UNL     1      62.172  27.119  35.667  1.00  0.00     0.189 HD
ENDROOT
BRANCH   1  12
HETATM   12  N2  UNL     1      62.206  29.296  34.458  1.00  0.00    -0.143 N 
HETATM   13  C1  UNL     1      61.609  28.234  33.745  1.00  0.00     0.346 C 
HETATM   14  N1  UNL     1      60.334  27.716  34.071  1.00  0.00    -0.039 NA
HETATM   15  O1  UNL     1      62.229  27.724  32.786  1.00  0.00    -0.250 OA
ATOM     16  H2  UNL     1      62.142  30.252  34.108  1.00  0.00     0.188 HD
ENDBRANCH   1  12
TORSDOF 1
ENDMDL
MODEL 2
REMARK VINA RESULT: -5.669005090      0.015      2.263
REMARK  1 active torsions:
REMARK  status: ('A' for Active; 'I' for Inactive)
REMARK       I    between atoms: C1_2  and  N2_4 
REMARK    1  A    between atoms: N2_4  and  C2_6 
ROOT
HETATM    1  C2  UNL     1      62.826  29.028  35.559  1.00  0.00     0.694 A 
HETATM    2  N3  UNL     1      62.730  27.821  36.113  1.00  0.00    -0.141 N 
ATOM      3  H3  UNL     1      62.163  27.097  35.672  1.00  0.00     0.189 HD
HETATM    4  C3  UNL     1      63.380  27.567  37.247  1.00  0.00     0.342 A 
HETATM    5  O2  UNL     1      63.302  26.422  37.793  1.00  0.00    -0.246 OA
HETATM    6  N4  UNL     1      64.135  28.492  37.858  1.00  0.00    -0.260 N 
ATOM      7  H4  UNL     1      64.627  28.281  38.726  1.00  0.00     0.175 HD
HETATM    8  C4  UNL     1      64.224  29.710  37.287  1.00  0.00     0.342 A 
HETATM    9  O3  UNL     1      64.926  30.602  37.836  1.00  0.00    -0.246 OA
HETATM   10  N5  UNL     1      63.569  29.965  36.143  1.00  0.00    -0.141 N 
ATOM     11  H5  UNL     1      63.642  30.889  35.715  1.00  0.00     0.189 HD
ENDROOT
BRANCH   1  12
HETATM   12  N2  UNL     1      62.203  29.289  34.461  1.00  0.00    -0.143 N 
HETATM   13  C1  UNL     1      61.603  28.233  33.742  1.00  0.00     0.346 C 
HETATM   14  N1  UNL     1      60.325  27.720  34.063  1.00  0.00    -0.039 NA
HETATM   15  O1  UNL     1      62.221  27.725  32.782  1.00  0.00    -0.250 OA
ATOM     16  H2  UNL     1      62.145  30.247  34.115  1.00  0.00     0.188 HD
ENDBRANCH   1  12
TORSDOF 1
ENDMDL
MODEL 3
REMARK VINA RESULT: -5.667815380      3.069      4.705
REMARK  1 active torsions:
REMARK  status: ('A' for Active; 'I' for Inactive)
REMARK       I    between atoms: C1_2  and  N2_4 
REMARK    1  A    between atoms: N2_4  and  C2_6 
ROOT
HETATM    1  C2  UNL     1      64.843  28.555  33.881  1.00  0.00     0.694 A 
HETATM    2  N3  UNL     1      63.742  27.880  33.561  1.00  0.00    -0.141 N 
ATOM      3  H3  UNL     1      63.796  27.071  32.943  1.00  0.00     0.189 HD
HETATM    4  C3  UNL     1      62.568  28.271  34.054  1.00  0.00     0.342 A 
HETATM    5  O2  UNL     1      61.503  27.641  33.761  1.00  0.00    -0.246 OA
HETATM    6  N4  UNL     1      62.455  29.330  34.869  1.00  0.00    -0.260 N 
ATOM      7  H4  UNL     1      61.548  29.615  35.239  1.00  0.00     0.175 HD
HETATM    8  C4  UNL     1      63.578  30.005  35.185  1.00  0.00     0.342 A 
HETATM    9  O3  UNL     1      63.505  31.005  35.949  1.00  0.00    -0.246 OA
HETATM   10  N5  UNL     1      64.761  29.610  34.688  1.00  0.00    -0.141 N 
ATOM     11  H5  UNL     1      65.607  30.125  34.933  1.00  0.00     0.189 HD
ENDROOT
BRANCH   1  12
HETATM   12  N2  UNL     1      65.987  28.189  33.412  1.00  0.00    -0.143 N 
HETATM   13  C1  UNL     1      67.163  28.774  33.928  1.00  0.00     0.346 C 
HETATM   14  N1  UNL     1      67.779  28.327  35.120  1.00  0.00    -0.039 NA
HETATM   15  O1  UNL     1      67.686  29.728  33.313  1.00  0.00    -0.250 OA
ATOM     16  H2  UNL     1      66.042  27.484  32.676  1.00  0.00     0.188 HD
ENDBRANCH   1  12
TORSDOF 1
ENDMDL
MODEL 4
REMARK VINA RESULT: -5.666854832      2.560      4.109
REMARK  1 active torsions:
REMARK  status: ('A' for Active; 'I' for Inactive)
REMARK       I    between atoms: C1_2  and  N2_4 
REMARK    1  A    between atoms: N2_4  and  C2_6 
ROOT
HETATM    1  C2  UNL     1      63.745  28.527  33.950  1.00  0.00     0.694 A 
HETATM    2  N3  UNL     1      62.599  28.299  33.313  1.00  0.00    -0.141 N 
ATOM      3  H3  UNL     1      62.584  28.213  32.297  1.00  0.00     0.189 HD
HETATM    4  C3  UNL     1      61.472  28.186  34.012  1.00  0.00     0.342 A 
HETATM    5  O2  UNL     1      60.366  27.969  33.424  1.00  0.00    -0.246 OA
HETATM    6  N4  UNL     1      61.449  28.294  35.349  1.00  0.00    -0.260 N 
ATOM      7  H4  UNL     1      60.576  28.204  35.870  1.00  0.00     0.175 HD
HETATM    8  C4  UNL     1      62.616  28.525  35.982  1.00  0.00     0.342 A 
HETATM    9  O3  UNL     1      62.629  28.631  37.238  1.00  0.00    -0.246 OA
HETATM   10  N5  UNL     1      63.752  28.638  35.276  1.00  0.00    -0.141 N 
ATOM     11  H5  UNL     1      64.633  28.811  35.762  1.00  0.00     0.189 HD
ENDROOT
BRANCH   1  12
HETATM   12  N2  UNL     1      64.845  28.638  33.287  1.00  0.00    -0.143 N 
HETATM   13  C1  UNL     1      66.075  28.555  33.973  1.00  0.00     0.346 C 
HETATM   14  N1  UNL     1      66.682  27.322  34.306  1.00  0.00    -0.039 NA
HETATM   15  O1  UNL     1      66.656  29.611  34.305  1.00  0.00    -0.250 OA
ATOM     16  H2  UNL     1      64.826  28.784  32.277  1.00  0.00     0.188 HD
ENDBRANCH   1  12
TORSDOF 1
ENDMDL
MODEL 5
REMARK VINA RESULT: -5.666384962      3.079      4.211
REMARK  1 active torsions:
REMARK  status: ('A' for Active; 'I' for Inactive)
REMARK       I    between atoms: C1_2  and  N2_4 
REMARK    1  A    between atoms: N2_4  and  C2_6 
ROOT
HETATM    1  C2  UNL     1      64.852  28.563  33.883  1.00  0.00     0.694 A 
HETATM    2  N3  UNL     1      64.779  29.620  34.689  1.00  0.00    -0.141 N 
ATOM      3  H3  UNL     1      65.621  30.139  34.934  1.00  0.00     0.189 HD
HETATM    4  C3  UNL     1      63.596  29.994  35.172  1.00  0.00     0.342 A 
HETATM    5  O2  UNL     1      63.502  31.000  35.943  1.00  0.00    -0.246 OA
HETATM    6  N4  UNL     1      62.464  29.337  34.874  1.00  0.00    -0.260 N 
ATOM      7  H4  UNL     1      61.566  29.637  35.252  1.00  0.00     0.175 HD
HETATM    8  C4  UNL     1      62.553  28.269  34.057  1.00  0.00     0.342 A 
HETATM    9  O3  UNL     1      61.508  27.630  33.757  1.00  0.00    -0.246 OA
HETATM   10  N5  UNL     1      63.746  27.893  33.570  1.00  0.00    -0.141 N 
ATOM     11  H5  UNL     1      63.806  27.084  32.951  1.00  0.00     0.189 HD
ENDROOT
BRANCH   1  12
HETATM   12  N2  UNL     1      65.991  28.190  33.407  1.00  0.00    -0.143 N 
HETATM   13  C1  UNL     1      67.173  28.771  33.913  1.00  0.00     0.346 C 
HETATM   14  N1  UNL     1      67.796  28.324  35.101  1.00  0.00    -0.039 NA
HETATM   15  O1  UNL     1      67.696  29.720  33.290  1.00  0.00    -0.250 OA
ATOM     16  H2  UNL     1      66.036  27.482  32.673  1.00  0.00     0.188 HD
ENDBRANCH   1  12
TORSDOF 1
ENDMDL
