MODEL 1
REMARK VINA RESULT: -5.999960960      0.000      0.000
REMARK  3 active torsions:
REMARK  status: ('A' for Active; 'I' for Inactive)
REMARK    1  A    between atoms: N1_1  and  N2_4 
REMARK    2  A    between atoms: C1_6  and  C2_8 
REMARK       I    between atoms: C2_8  and  N4_10 
REMARK    3  A    between atoms: N4_10  and  C3_12 
ROOT
HETATM    1  C2  UNL     1      65.226  29.019  33.810  1.00  0.00     0.302 C 
HETATM    2  O1  UNL     1      65.142  29.818  34.769  1.00  0.00    -0.264 OA
HETATM    3  N4  UNL     1      64.034  28.661  33.124  1.00  0.00    -0.151 N 
ATOM      4  H4  UNL     1      64.054  28.631  32.105  1.00  0.00     0.188 HD
ENDROOT
BRANCH   1   5
HETATM    5  C1  UNL     1      66.528  28.502  33.449  1.00  0.00     0.199 C 
HETATM    6  N2  UNL     1      66.762  27.248  33.600  1.00  0.00    -0.290 N 
ATOM      7  H2  UNL     1      66.046  26.622  33.968  1.00  0.00     0.187 HD
HETATM    8  N3  UNL     1      67.494  29.409  32.940  1.00  0.00    -0.075 NA
BRANCH   6   9
HETATM    9  N1  UNL     1      68.022  26.766  33.247  1.00  0.00    -0.344 N 
ATOM     10  H12 UNL     1      68.201  25.762  33.244  1.00  0.00     0.176 HD
ATOM     11  H11 UNL     1      68.743  27.443  32.999  1.00  0.00     0.176 HD
ENDBRANCH   6   9
ENDBRANCH   1   5
BRANCH   3  12
HETATM   12  C3  UNL     1      62.936  28.373  33.719  1.00  0.00     0.710 A 
HETATM   13  N5  UNL     1      61.726  28.156  33.180  1.00  0.00    -0.117 N 
HETATM   14  N6  UNL     1      60.855  27.884  34.166  1.00  0.00     0.006 NA
ATOM     15  H5  UNL     1      61.504  28.192  32.186  1.00  0.00     0.202 HD
HETATM   16  N7  UNL     1      61.517  27.932  35.308  1.00  0.00     0.006 NA
HETATM   17  N8  UNL     1      62.793  28.231  35.034  1.00  0.00    -0.117 N 
ATOM     18  H8  UNL     1      63.537  28.334  35.724  1.00  0.00     0.202 HD
ENDBRANCH   3  12
TORSDOF 3
ENDMDL
MODEL 2
REMARK VINA RESULT: -5.972868233      2.112      5.682
REMARK  3 active torsions:
REMARK  status: ('A' for Active; 'I' for Inactive)
REMARK    1  A    between atoms: N1_1  and  N2_4 
REMARK    2  A    between atoms: C1_6  and  C2_8 
REMARK       I    between atoms: C2_8  and  N4_10 
REMARK    3  A    between atoms: N4_10  and  C3_12 
ROOT
HETATM    1  C2  UNL     1      66.629  28.935  33.496  1.00  0.00     0.302 C 
HETATM    2  O1  UNL     1      67.181  29.921  34.032  1.00  0.00    -0.264 OA
HETATM    3  N4  UNL     1      67.368  28.183  32.544  1.00  0.00    -0.151 N 
ATOM      4  H4  UNL     1      67.323  27.165  32.592  1.00  0.00     0.188 HD
ENDROOT
BRANCH   1   5
HETATM    5  C1  UNL     1      65.270  28.610  33.871  1.00  0.00     0.199 C 
HETATM    6  N2  UNL     1      64.313  28.929  33.076  1.00  0.00    -0.290 N 
ATOM      7  H2  UNL     1      64.501  29.403  32.192  1.00  0.00     0.187 HD
HETATM    8  N3  UNL     1      65.054  27.951  35.109  1.00  0.00    -0.075 NA
BRANCH   6   9
HETATM    9  N1  UNL     1      63.009  28.610  33.453  1.00  0.00    -0.344 N 
ATOM     10  H12 UNL     1      62.771  28.528  34.441  1.00  0.00     0.176 HD
ATOM     11  H11 UNL     1      62.318  28.463  32.718  1.00  0.00     0.176 HD
ENDBRANCH   6   9
ENDBRANCH   1   5
BRANCH   3  12
HETATM   12  C3  UNL     1      68.089  28.716  31.628  1.00  0.00     0.710 A 
HETATM   13  N5  UNL     1      69.364  28.450  31.307  1.00  0.00    -0.117 N 
HETATM   14  N6  UNL     1      69.729  29.240  30.284  1.00  0.00     0.006 NA
ATOM     15  H5  UNL     1      69.960  27.760  31.765  1.00  0.00     0.202 HD
HETATM   16  N7  UNL     1      68.688  29.993  29.971  1.00  0.00     0.006 NA
HETATM   17  N8  UNL     1      67.684  29.671  30.795  1.00  0.00    -0.117 N 
ATOM     18  H8  UNL     1      66.754  30.091  30.785  1.00  0.00     0.202 HD
ENDBRANCH   3  12
TORSDOF 3
ENDMDL
MODEL 3
REMARK VINA RESULT: -5.962148231      0.328      1.059
REMARK  3 active torsions:
REMARK  status: ('A' for Active; 'I' for Inactive)
REMARK    1  A    between atoms: N1_1  and  N2_4 
REMARK    2  A    between atoms: C1_6  and  C2_8 
REMARK       I    between atoms: C2_8  and  N4_10 
REMARK    3  A    between atoms: N4_10  and  C3_12 
ROOT
HETATM    1  C2  UNL     1      65.448  29.084  33.925  1.00  0.00     0.302 C 
HETATM    2  O1  UNL     1      65.335  29.781  34.957  1.00  0.00    -0.264 OA
HETATM    3  N4  UNL     1      64.277  28.793  33.175  1.00  0.00    -0.151 N 
ATOM      4  H4  UNL     1      64.323  28.866  32.159  1.00  0.00     0.188 HD
ENDROOT
BRANCH   1   5
HETATM    5  C1  UNL     1      66.762  28.612  33.547  1.00  0.00     0.199 C 
HETATM    6  N2  UNL     1      66.954  27.348  33.417  1.00  0.00    -0.290 N 
ATOM      7  H2  UNL     1      66.197  26.683  33.576  1.00  0.00     0.187 HD
HETATM    8  N3  UNL     1      67.787  29.571  33.335  1.00  0.00    -0.075 NA
BRANCH   6   9
HETATM    9  N1  UNL     1      68.227  26.909  33.053  1.00  0.00    -0.344 N 
ATOM     10  H12 UNL     1      69.049  27.282  33.527  1.00  0.00     0.176 HD
ATOM     11  H11 UNL     1      68.302  26.216  32.308  1.00  0.00     0.176 HD
ENDBRANCH   6   9
ENDBRANCH   1   5
BRANCH   3  12
HETATM   12  C3  UNL     1      63.166  28.442  33.709  1.00  0.00     0.710 A 
HETATM   13  N5  UNL     1      62.813  28.477  35.003  1.00  0.00    -0.117 N 
HETATM   14  N6  UNL     1      61.556  28.019  35.123  1.00  0.00     0.006 NA
ATOM     15  H5  UNL     1      63.402  28.799  35.771  1.00  0.00     0.202 HD
HETATM   16  N7  UNL     1      61.130  27.700  33.913  1.00  0.00     0.006 NA
HETATM   17  N8  UNL     1      62.117  27.960  33.047  1.00  0.00    -0.117 N 
ATOM     18  H8  UNL     1      62.072  27.813  32.039  1.00  0.00     0.202 HD
ENDBRANCH   3  12
TORSDOF 3
ENDMDL
MODEL 4
REMARK VINA RESULT: -5.915482961      2.225      5.723
REMARK  3 active torsions:
REMARK  status: ('A' for Active; 'I' for Inactive)
REMARK    1  A    between atoms: N1_1  and  N2_4 
REMARK    2  A    between atoms: C1_6  and  C2_8 
REMARK       I    between atoms: C2_8  and  N4_10 
REMARK    3  A    between atoms: N4_10  and  C3_12 
ROOT
HETATM    1  C2  UNL     1      66.759  29.006  33.342  1.00  0.00     0.302 C 
HETATM    2  O1  UNL     1      67.341  29.945  33.928  1.00  0.00    -0.264 OA
HETATM    3  N4  UNL     1      67.448  28.332  32.298  1.00  0.00    -0.151 N 
ATOM      4  H4  UNL     1      67.400  27.314  32.266  1.00  0.00     0.188 HD
ENDROOT
BRANCH   1   5
HETATM    5  C1  UNL     1      65.418  28.654  33.755  1.00  0.00     0.199 C 
HETATM    6  N2  UNL     1      64.425  29.039  33.036  1.00  0.00    -0.290 N 
ATOM      7  H2  UNL     1      64.573  29.584  32.186  1.00  0.00     0.187 HD
HETATM    8  N3  UNL     1      65.258  27.895  34.943  1.00  0.00    -0.075 NA
BRANCH   6   9
HETATM    9  N1  UNL     1      63.140  28.692  33.449  1.00  0.00    -0.344 N 
ATOM     10  H12 UNL     1      62.840  28.891  34.403  1.00  0.00     0.176 HD
ATOM     11  H11 UNL     1      62.524  28.239  32.774  1.00  0.00     0.176 HD
ENDBRANCH   6   9
ENDBRANCH   1   5
BRANCH   3  12
HETATM   12  C3  UNL     1      68.127  28.937  31.394  1.00  0.00     0.710 A 
HETATM   13  N5  UNL     1      67.725  29.902  30.553  1.00  0.00    -0.117 N 
HETATM   14  N6  UNL     1      68.758  30.254  29.770  1.00  0.00     0.006 NA
ATOM     15  H5  UNL     1      66.788  30.303  30.514  1.00  0.00     0.202 HD
HETATM   16  N7  UNL     1      69.795  29.513  30.121  1.00  0.00     0.006 NA
HETATM   17  N8  UNL     1      69.407  28.706  31.117  1.00  0.00    -0.117 N 
ATOM     18  H8  UNL     1      70.001  28.023  31.588  1.00  0.00     0.202 HD
ENDBRANCH   3  12
TORSDOF 3
ENDMDL
MODEL 5
REMARK VINA RESULT: -5.831937309      0.936      1.411
REMARK  3 active torsions:
REMARK  status: ('A' for Active; 'I' for Inactive)
REMARK    1  A    between atoms: N1_1  and  N2_4 
REMARK    2  A    between atoms: C1_6  and  C2_8 
REMARK       I    between atoms: C2_8  and  N4_10 
REMARK    3  A    between atoms: N4_10  and  C3_12 
ROOT
HETATM    1  C2  UNL     1      65.414  28.454  34.272  1.00  0.00     0.302 C 
HETATM    2  O1  UNL     1      65.428  27.936  35.411  1.00  0.00    -0.264 OA
HETATM    3  N4  UNL     1      64.220  29.088  33.834  1.00  0.00    -0.151 N 
ATOM      4  H4  UNL     1      64.297  29.989  33.363  1.00  0.00     0.188 HD
ENDROOT
BRANCH   1   5
HETATM    5  C1  UNL     1      66.611  28.384  33.463  1.00  0.00     0.199 C 
HETATM    6  N2  UNL     1      66.696  29.123  32.415  1.00  0.00    -0.290 N 
ATOM      7  H2  UNL     1      65.937  29.751  32.153  1.00  0.00     0.187 HD
HETATM    8  N3  UNL     1      67.644  27.497  33.865  1.00  0.00    -0.075 NA
BRANCH   6   9
HETATM    9  N1  UNL     1      67.857  29.043  31.646  1.00  0.00    -0.344 N 
ATOM     10  H12 UNL     1      68.195  28.135  31.328  1.00  0.00     0.176 HD
ATOM     11  H11 UNL     1      68.344  29.910  31.419  1.00  0.00     0.176 HD
ENDBRANCH   6   9
ENDBRANCH   1   5
BRANCH   3  12
HETATM   12  C3  UNL     1      63.052  28.585  34.000  1.00  0.00     0.710 A 
HETATM   13  N5  UNL     1      62.259  27.997  33.091  1.00  0.00    -0.117 N 
HETATM   14  N6  UNL     1      61.121  27.613  33.692  1.00  0.00     0.006 NA
ATOM     15  H5  UNL     1      62.484  27.864  32.105  1.00  0.00     0.202 HD
HETATM   16  N7  UNL     1      61.205  27.960  34.965  1.00  0.00     0.006 NA
HETATM   17  N8  UNL     1      62.390  28.555  35.153  1.00  0.00    -0.117 N 
ATOM     18  H8  UNL     1      62.730  28.927  36.040  1.00  0.00     0.202 HD
ENDBRANCH   3  12
TORSDOF 3
ENDMDL
