MODEL 1
REMARK VINA RESULT: -6.297804718      0.000      0.000
REMARK  1 active torsions:
REMARK  status: ('A' for Active; 'I' for Inactive)
REMARK       I    between atoms: C1_4  and  N3_6 
REMARK    1  A    between atoms: N3_6  and  N4_8 
ROOT
HETATM    1  N4  UNL     1      65.378  29.348  33.899  1.00  0.00    -0.267 N 
ATOM      2  H4  UNL     1      65.739  30.165  34.390  1.00  0.00     0.190 HD
HETATM    3  C2  UNL     1      64.091  29.095  33.869  1.00  0.00     0.220 C 
HETATM    4  N5  UNL     1      63.258  28.091  33.306  1.00  0.00    -0.236 N 
ATOM      5  H5  UNL     1      63.243  27.563  32.434  1.00  0.00     0.183 HD
HETATM    6  S1  UNL     1      62.284  28.147  34.727  1.00  0.00     0.328 S 
HETATM    7  O1  UNL     1      60.824  27.975  34.514  1.00  0.00    -0.182 OA
HETATM    8  O2  UNL     1      62.873  27.464  35.907  1.00  0.00    -0.182 OA
HETATM    9  N6  UNL     1      62.913  29.707  34.380  1.00  0.00    -0.236 N 
ATOM     10  H6  UNL     1      62.583  30.665  34.492  1.00  0.00     0.183 HD
ENDROOT
BRANCH   1  11
HETATM   11  N3  UNL     1      66.242  28.467  33.240  1.00  0.00    -0.271 N 
HETATM   12  C1  UNL     1      67.485  28.862  32.710  1.00  0.00     0.200 C 
HETATM   13  N1  UNL     1      67.876  28.359  31.593  1.00  0.00    -0.372 N 
HETATM   14  N2  UNL     1      68.326  29.798  33.361  1.00  0.00    -0.062 NA
ATOM     15  H12 UNL     1      68.777  28.646  31.209  1.00  0.00     0.158 HD
ATOM     16  H11 UNL     1      67.271  27.685  31.125  1.00  0.00     0.158 HD
ATOM     17  H3  UNL     1      65.959  27.493  33.139  1.00  0.00     0.189 HD
ENDBRANCH   1  11
TORSDOF 1
ENDMDL
MODEL 2
REMARK VINA RESULT: -5.855983431      1.306      1.556
REMARK  1 active torsions:
REMARK  status: ('A' for Active; 'I' for Inactive)
REMARK       I    between atoms: C1_4  and  N3_6 
REMARK    1  A    between atoms: N3_6  and  N4_8 
ROOT
HETATM    1  N4  UNL     1      65.634  29.093  33.828  1.00  0.00    -0.267 N 
ATOM      2  H4  UNL     1      66.055  29.933  34.225  1.00  0.00     0.190 HD
HETATM    3  C2  UNL     1      64.333  28.916  33.856  1.00  0.00     0.220 C 
HETATM    4  N5  UNL     1      63.428  27.913  33.418  1.00  0.00    -0.236 N 
ATOM      5  H5  UNL     1      63.356  27.302  32.604  1.00  0.00     0.183 HD
HETATM    6  S1  UNL     1      62.502  28.168  34.849  1.00  0.00     0.328 S 
HETATM    7  O1  UNL     1      61.029  28.064  34.690  1.00  0.00    -0.182 OA
HETATM    8  O2  UNL     1      63.086  27.572  36.077  1.00  0.00    -0.182 OA
HETATM    9  N6  UNL     1      63.209  29.646  34.330  1.00  0.00    -0.236 N 
ATOM     10  H6  UNL     1      62.937  30.628  34.352  1.00  0.00     0.183 HD
ENDROOT
BRANCH   1  11
HETATM   11  N3  UNL     1      66.425  28.101  33.242  1.00  0.00    -0.271 N 
HETATM   12  C1  UNL     1      67.239  27.227  33.987  1.00  0.00     0.200 C 
HETATM   13  N1  UNL     1      68.390  26.893  33.520  1.00  0.00    -0.372 N 
HETATM   14  N2  UNL     1      66.839  26.698  35.239  1.00  0.00    -0.062 NA
ATOM     15  H12 UNL     1      68.979  26.259  34.059  1.00  0.00     0.158 HD
ATOM     16  H11 UNL     1      68.677  27.274  32.618  1.00  0.00     0.158 HD
ATOM     17  H3  UNL     1      66.413  28.006  32.226  1.00  0.00     0.189 HD
ENDBRANCH   1  11
TORSDOF 1
ENDMDL
MODEL 3
REMARK VINA RESULT: -5.567817882      2.574      4.810
REMARK  1 active torsions:
REMARK  status: ('A' for Active; 'I' for Inactive)
REMARK       I    between atoms: C1_4  and  N3_6 
REMARK    1  A    between atoms: N3_6  and  N4_8 
ROOT
HETATM    1  N4  UNL     1      63.372  27.746  33.050  1.00  0.00    -0.267 N 
ATOM      2  H4  UNL     1      63.554  26.892  32.523  1.00  0.00     0.190 HD
HETATM    3  C2  UNL     1      64.281  28.250  33.851  1.00  0.00     0.220 C 
HETATM    4  N5  UNL     1      64.377  29.379  34.709  1.00  0.00    -0.236 N 
ATOM      5  H5  UNL     1      64.070  30.350  34.669  1.00  0.00     0.183 HD
HETATM    6  S1  UNL     1      65.234  28.404  35.844  1.00  0.00     0.328 S 
HETATM    7  O1  UNL     1      66.327  29.086  36.582  1.00  0.00    -0.182 OA
HETATM    8  O2  UNL     1      64.382  27.469  36.622  1.00  0.00    -0.182 OA
HETATM    9  N6  UNL     1      65.606  27.911  34.240  1.00  0.00    -0.236 N 
ATOM     10  H6  UNL     1      66.429  27.535  33.768  1.00  0.00     0.183 HD
ENDROOT
BRANCH   1  11
HETATM   11  N3  UNL     1      62.147  28.411  32.936  1.00  0.00    -0.271 N 
HETATM   12  C1  UNL     1      61.089  28.234  33.846  1.00  0.00     0.200 C 
HETATM   13  N1  UNL     1      59.881  28.214  33.406  1.00  0.00    -0.372 N 
HETATM   14  N2  UNL     1      61.303  28.075  35.238  1.00  0.00    -0.062 NA
ATOM     15  H12 UNL     1      59.114  28.086  34.066  1.00  0.00     0.158 HD
ATOM     16  H11 UNL     1      59.727  28.329  32.404  1.00  0.00     0.158 HD
ATOM     17  H3  UNL     1      62.014  29.055  32.156  1.00  0.00     0.189 HD
ENDBRANCH   1  11
TORSDOF 1
ENDMDL
MODEL 4
REMARK VINA RESULT: -5.499814371      4.797      6.075
REMARK  1 active torsions:
REMARK  status: ('A' for Active; 'I' for Inactive)
REMARK       I    between atoms: C1_4  and  N3_6 
REMARK    1  A    between atoms: N3_6  and  N4_8 
ROOT
HETATM    1  N4  UNL     1      67.028  28.473  32.789  1.00  0.00    -0.267 N 
ATOM      2  H4  UNL     1      67.339  27.726  33.410  1.00  0.00     0.190 HD
HETATM    3  C2  UNL     1      67.772  28.863  31.780  1.00  0.00     0.220 C 
HETATM    4  N5  UNL     1      67.668  29.833  30.747  1.00  0.00    -0.236 N 
ATOM      5  H5  UNL     1      66.918  30.186  30.153  1.00  0.00     0.183 HD
HETATM    6  S1  UNL     1      69.351  30.159  30.927  1.00  0.00     0.328 S 
HETATM    7  O1  UNL     1      70.087  30.455  29.672  1.00  0.00    -0.182 OA
HETATM    8  O2  UNL     1      69.698  30.979  32.116  1.00  0.00    -0.182 OA
HETATM    9  N6  UNL     1      69.034  28.499  31.235  1.00  0.00    -0.236 N 
ATOM     10  H6  UNL     1      69.536  27.623  31.089  1.00  0.00     0.183 HD
ENDROOT
BRANCH   1  11
HETATM   11  N3  UNL     1      65.799  29.108  32.990  1.00  0.00    -0.271 N 
HETATM   12  C1  UNL     1      64.791  28.585  33.822  1.00  0.00     0.200 C 
HETATM   13  N1  UNL     1      63.561  28.706  33.466  1.00  0.00    -0.372 N 
HETATM   14  N2  UNL     1      65.079  27.927  35.043  1.00  0.00    -0.062 NA
ATOM     15  H12 UNL     1      62.831  28.327  34.069  1.00  0.00     0.158 HD
ATOM     16  H11 UNL     1      63.354  29.180  32.587  1.00  0.00     0.158 HD
ATOM     17  H3  UNL     1      65.624  29.992  32.512  1.00  0.00     0.189 HD
ENDBRANCH   1  11
TORSDOF 1
ENDMDL
MODEL 5
REMARK VINA RESULT: -5.380348356      5.630      6.909
REMARK  1 active torsions:
REMARK  status: ('A' for Active; 'I' for Inactive)
REMARK       I    between atoms: C1_4  and  N3_6 
REMARK    1  A    between atoms: N3_6  and  N4_8 
ROOT
HETATM    1  N4  UNL     1      69.178  28.473  31.039  1.00  0.00    -0.267 N 
ATOM      2  H4  UNL     1      69.832  27.693  30.979  1.00  0.00     0.190 HD
HETATM    3  C2  UNL     1      69.517  29.669  30.618  1.00  0.00     0.220 C 
HETATM    4  N5  UNL     1      68.892  30.943  30.546  1.00  0.00    -0.236 N 
ATOM      5  H5  UNL     1      67.954  31.283  30.333  1.00  0.00     0.183 HD
HETATM    6  S1  UNL     1      70.396  31.669  30.972  1.00  0.00     0.328 S 
HETATM    7  O1  UNL     1      70.697  32.963  30.309  1.00  0.00    -0.182 OA
HETATM    8  O2  UNL     1      70.751  31.556  32.410  1.00  0.00    -0.182 OA
HETATM    9  N6  UNL     1      70.666  30.261  30.026  1.00  0.00    -0.236 N 
ATOM     10  H6  UNL     1      71.357  29.972  29.334  1.00  0.00     0.183 HD
ENDROOT
BRANCH   1  11
HETATM   11  N3  UNL     1      67.899  28.295  31.573  1.00  0.00    -0.271 N 
HETATM   12  C1  UNL     1      67.566  28.629  32.900  1.00  0.00     0.200 C 
HETATM   13  N1  UNL     1      66.759  27.871  33.552  1.00  0.00    -0.372 N 
HETATM   14  N2  UNL     1      68.089  29.775  33.548  1.00  0.00    -0.062 NA
ATOM     15  H12 UNL     1      66.517  28.113  34.513  1.00  0.00     0.158 HD
ATOM     16  H11 UNL     1      66.382  27.046  33.085  1.00  0.00     0.158 HD
ATOM     17  H3  UNL     1      67.171  27.905  30.974  1.00  0.00     0.189 HD
ENDBRANCH   1  11
TORSDOF 1
ENDMDL
