MODEL 1
REMARK VINA RESULT: -5.732312374      0.000      0.000
REMARK  2 active torsions:
REMARK  status: ('A' for Active; 'I' for Inactive)
REMARK    1  A    between atoms: N1_1  and  C1_4 
REMARK    2  A    between atoms: C3_11  and  N4_12 
REMARK       I    between atoms: N4_12  and  C4_14 
ROOT
HETATM    1  C1  UNL     1      63.661  28.760  33.821  1.00  0.00     0.694 A 
HETATM    2  N2  UNL     1      62.425  28.419  33.420  1.00  0.00    -0.141 N 
ATOM      3  H2  UNL     1      62.196  28.416  32.426  1.00  0.00     0.189 HD
HETATM    4  C2  UNL     1      61.489  28.079  34.322  1.00  0.00     0.352 A 
HETATM    5  O1  UNL     1      60.330  27.757  33.978  1.00  0.00    -0.246 OA
HETATM    6  N3  UNL     1      61.806  28.087  35.640  1.00  0.00    -0.140 N 
ATOM      7  H3  UNL     1      61.104  27.832  36.334  1.00  0.00     0.189 HD
HETATM    8  C3  UNL     1      63.033  28.427  36.030  1.00  0.00     0.704 A 
HETATM    9  N6  UNL     1      63.989  28.772  35.127  1.00  0.00    -0.022 N 
ATOM     10  H6  UNL     1      64.927  29.032  35.429  1.00  0.00     0.203 HD
ENDROOT
BRANCH   8  11
HETATM   11  N4  UNL     1      63.365  28.445  37.268  1.00  0.00    -0.143 N 
HETATM   12  C4  UNL     1      63.644  29.595  38.017  1.00  0.00     0.346 C 
HETATM   13  N5  UNL     1      62.802  29.878  39.152  1.00  0.00    -0.039 NA
HETATM   14  O2  UNL     1      64.570  30.405  37.781  1.00  0.00    -0.250 OA
ATOM     15  H4  UNL     1      63.431  27.547  37.747  1.00  0.00     0.188 HD
ENDBRANCH   8  11
BRANCH   1  16
HETATM   16  N1  UNL     1      64.525  29.078  32.923  1.00  0.00    -0.234 N 
ATOM     17  H12 UNL     1      64.363  28.855  31.940  1.00  0.00     0.174 HD
ATOM     18  H11 UNL     1      65.376  29.556  33.219  1.00  0.00     0.174 HD
ENDBRANCH   1  16
TORSDOF 2
ENDMDL
MODEL 2
REMARK VINA RESULT: -5.729085023      1.582      4.682
REMARK  2 active torsions:
REMARK  status: ('A' for Active; 'I' for Inactive)
REMARK    1  A    between atoms: N1_1  and  C1_4 
REMARK    2  A    between atoms: C3_11  and  N4_12 
REMARK       I    between atoms: N4_12  and  C4_14 
ROOT
HETATM    1  C1  UNL     1      62.735  28.559  37.083  1.00  0.00     0.694 A 
HETATM    2  N2  UNL     1      63.562  29.613  37.165  1.00  0.00    -0.141 N 
ATOM      3  H2  UNL     1      64.044  29.813  38.042  1.00  0.00     0.189 HD
HETATM    4  C2  UNL     1      63.760  30.406  36.099  1.00  0.00     0.352 A 
HETATM    5  O1  UNL     1      64.525  31.395  36.146  1.00  0.00    -0.246 OA
HETATM    6  N3  UNL     1      63.113  30.130  34.941  1.00  0.00    -0.140 N 
ATOM      7  H3  UNL     1      63.254  30.725  34.124  1.00  0.00     0.189 HD
HETATM    8  C3  UNL     1      62.293  29.083  34.866  1.00  0.00     0.704 A 
HETATM    9  N6  UNL     1      62.086  28.273  35.938  1.00  0.00    -0.022 N 
ATOM     10  H6  UNL     1      61.458  27.473  35.877  1.00  0.00     0.203 HD
ENDROOT
BRANCH   8  11
HETATM   11  N4  UNL     1      61.666  28.795  33.786  1.00  0.00    -0.143 N 
HETATM   12  C4  UNL     1      60.425  28.151  33.715  1.00  0.00     0.346 C 
HETATM   13  N5  UNL     1      59.329  28.868  33.112  1.00  0.00    -0.039 NA
HETATM   14  O2  UNL     1      60.184  26.995  34.135  1.00  0.00    -0.250 OA
ATOM     15  H4  UNL     1      62.109  29.056  32.904  1.00  0.00     0.188 HD
ENDBRANCH   8  11
BRANCH   1  16
HETATM   16  N1  UNL     1      62.576  27.827  38.129  1.00  0.00    -0.234 N 
ATOM     17  H12 UNL     1      61.679  27.799  38.615  1.00  0.00     0.174 HD
ATOM     18  H11 UNL     1      63.369  27.278  38.459  1.00  0.00     0.174 HD
ENDBRANCH   1  16
TORSDOF 2
ENDMDL
MODEL 3
REMARK VINA RESULT: -5.683001070      2.333      2.939
REMARK  2 active torsions:
REMARK  status: ('A' for Active; 'I' for Inactive)
REMARK    1  A    between atoms: N1_1  and  C1_4 
REMARK    2  A    between atoms: C3_11  and  N4_12 
REMARK       I    between atoms: N4_12  and  C4_14 
ROOT
HETATM    1  C1  UNL     1      62.305  29.009  34.986  1.00  0.00     0.694 A 
HETATM    2  N2  UNL     1      63.137  30.064  34.980  1.00  0.00    -0.141 N 
ATOM      3  H2  UNL     1      63.284  30.590  34.119  1.00  0.00     0.189 HD
HETATM    4  C2  UNL     1      63.777  30.430  36.103  1.00  0.00     0.352 A 
HETATM    5  O1  UNL     1      64.557  31.407  36.128  1.00  0.00    -0.246 OA
HETATM    6  N3  UNL     1      63.574  29.721  37.241  1.00  0.00    -0.140 N 
ATOM      7  H3  UNL     1      64.054  29.989  38.100  1.00  0.00     0.189 HD
HETATM    8  C3  UNL     1      62.748  28.677  37.240  1.00  0.00     0.704 A 
HETATM    9  N6  UNL     1      62.094  28.298  36.109  1.00  0.00    -0.022 N 
ATOM     10  H6  UNL     1      61.463  27.497  36.112  1.00  0.00     0.203 HD
ENDROOT
BRANCH   8  11
HETATM   11  N4  UNL     1      62.535  27.986  38.298  1.00  0.00    -0.143 N 
HETATM   12  C4  UNL     1      62.585  28.473  39.610  1.00  0.00     0.346 C 
HETATM   13  N5  UNL     1      61.378  28.413  40.396  1.00  0.00    -0.039 NA
HETATM   14  O2  UNL     1      63.598  28.962  40.162  1.00  0.00    -0.250 OA
ATOM     15  H4  UNL     1      62.309  26.999  38.175  1.00  0.00     0.188 HD
ENDBRANCH   8  11
BRANCH   1  16
HETATM   16  N1  UNL     1      61.714  28.695  33.888  1.00  0.00    -0.234 N 
ATOM     17  H12 UNL     1      62.234  28.643  33.011  1.00  0.00     0.174 HD
ATOM     18  H11 UNL     1      60.713  28.501  33.917  1.00  0.00     0.174 HD
ENDBRANCH   1  16
TORSDOF 2
ENDMDL
MODEL 4
REMARK VINA RESULT: -5.621879544      3.019      4.630
REMARK  2 active torsions:
REMARK  status: ('A' for Active; 'I' for Inactive)
REMARK    1  A    between atoms: N1_1  and  C1_4 
REMARK    2  A    between atoms: C3_11  and  N4_12 
REMARK       I    between atoms: N4_12  and  C4_14 
ROOT
HETATM    1  C1  UNL     1      63.830  28.635  33.559  1.00  0.00     0.694 A 
HETATM    2  N2  UNL     1      63.448  29.614  34.394  1.00  0.00    -0.141 N 
ATOM      3  H2  UNL     1      62.502  29.992  34.336  1.00  0.00     0.189 HD
HETATM    4  C2  UNL     1      64.306  30.100  35.308  1.00  0.00     0.352 A 
HETATM    5  O1  UNL     1      63.978  31.012  36.099  1.00  0.00    -0.246 OA
HETATM    6  N3  UNL     1      65.560  29.590  35.374  1.00  0.00    -0.140 N 
ATOM      7  H3  UNL     1      66.220  29.951  36.063  1.00  0.00     0.189 HD
HETATM    8  C3  UNL     1      65.932  28.619  34.543  1.00  0.00     0.704 A 
HETATM    9  N6  UNL     1      65.072  28.119  33.615  1.00  0.00    -0.022 N 
ATOM     10  H6  UNL     1      65.361  27.376  32.979  1.00  0.00     0.203 HD
ENDROOT
BRANCH   8  11
HETATM   11  N4  UNL     1      67.110  28.116  34.579  1.00  0.00    -0.143 N 
HETATM   12  C4  UNL     1      67.489  26.893  34.011  1.00  0.00     0.346 C 
HETATM   13  N5  UNL     1      68.490  26.915  32.975  1.00  0.00    -0.039 NA
HETATM   14  O2  UNL     1      67.026  25.773  34.330  1.00  0.00    -0.250 OA
ATOM     15  H4  UNL     1      67.832  28.650  35.062  1.00  0.00     0.188 HD
ENDBRANCH   8  11
BRANCH   1  16
HETATM   16  N1  UNL     1      62.976  28.201  32.700  1.00  0.00    -0.234 N 
ATOM     17  H12 UNL     1      63.126  27.314  32.218  1.00  0.00     0.174 HD
ATOM     18  H11 UNL     1      62.147  28.766  32.515  1.00  0.00     0.174 HD
ENDBRANCH   1  16
TORSDOF 2
ENDMDL
MODEL 5
REMARK VINA RESULT: -5.594652958      7.938      9.457
REMARK  2 active torsions:
REMARK  status: ('A' for Active; 'I' for Inactive)
REMARK    1  A    between atoms: N1_1  and  C1_4 
REMARK    2  A    between atoms: C3_11  and  N4_12 
REMARK       I    between atoms: N4_12  and  C4_14 
ROOT
HETATM    1  C1  UNL     1      68.615  30.180  30.459  1.00  0.00     0.694 A 
HETATM    2  N2  UNL     1      69.092  31.435  30.428  1.00  0.00    -0.141 N 
ATOM      3  H2  UNL     1      68.457  32.215  30.253  1.00  0.00     0.189 HD
HETATM    4  C2  UNL     1      70.400  31.670  30.627  1.00  0.00     0.352 A 
HETATM    5  O1  UNL     1      70.872  32.829  30.604  1.00  0.00    -0.246 OA
HETATM    6  N3  UNL     1      71.231  30.625  30.858  1.00  0.00    -0.140 N 
ATOM      7  H3  UNL     1      72.226  30.791  31.009  1.00  0.00     0.189 HD
HETATM    8  C3  UNL     1      70.752  29.383  30.887  1.00  0.00     0.704 A 
HETATM    9  N6  UNL     1      69.431  29.134  30.688  1.00  0.00    -0.022 N 
ATOM     10  H6  UNL     1      69.068  28.181  30.711  1.00  0.00     0.203 HD
ENDROOT
BRANCH   8  11
HETATM   11  N4  UNL     1      71.512  28.374  31.102  1.00  0.00    -0.143 N 
HETATM   12  C4  UNL     1      71.076  27.085  31.433  1.00  0.00     0.346 C 
HETATM   13  N5  UNL     1      71.397  26.013  30.524  1.00  0.00    -0.039 NA
HETATM   14  O2  UNL     1      70.424  26.783  32.459  1.00  0.00    -0.250 OA
ATOM     15  H4  UNL     1      72.518  28.521  31.026  1.00  0.00     0.188 HD
ENDBRANCH   8  11
BRANCH   1  16
HETATM   16  N1  UNL     1      67.356  30.003  30.264  1.00  0.00    -0.234 N 
ATOM     17  H12 UNL     1      67.003  29.740  29.343  1.00  0.00     0.174 HD
ATOM     18  H11 UNL     1      66.723  30.132  31.052  1.00  0.00     0.174 HD
ENDBRANCH   1  16
TORSDOF 2
ENDMDL
