MODEL 1
REMARK VINA RESULT: -7.145639380      0.000      0.000
REMARK  19 active torsions:
REMARK  status: ('A' for Active; 'I' for Inactive)
REMARK    1  A    between atoms: C2_2  and  C3_3 
REMARK    2  A    between atoms: C2_2  and  C5_10 
REMARK    3  A    between atoms: C3_3  and  C4_4 
REMARK    4  A    between atoms: C4_4  and  P1_5 
REMARK    5  A    between atoms: P1_5  and  O1_6 
REMARK    6  A    between atoms: P1_5  and  O2_8 
REMARK       I    between atoms: C5_10  and  N1_12 
REMARK    7  A    between atoms: N1_12  and  C6_14 
REMARK    8  A    between atoms: C6_14  and  C7_15 
REMARK    9  A    between atoms: C6_14  and  N8_35 
REMARK   10  A    between atoms: C7_15  and  C8_16 
REMARK   11  A    between atoms: C8_16  and  N2_17 
REMARK   12  A    between atoms: N2_17  and  C9_19 
REMARK   13  A    between atoms: C9_19  and  N7_31 
REMARK   14  A    between atoms: N7_31  and  C14_33 
REMARK   15  A    between atoms: N8_35  and  C15_36 
REMARK   16  A    between atoms: N8_35  and  C17_38 
REMARK   17  A    between atoms: C17_38  and  C18_39 
REMARK   18  A    between atoms: C18_39  and  C19_40 
REMARK   19  A    between atoms: C19_40  and  O5_41 
ROOT
HETATM    1  C6  UNL     1      -7.903  -9.409 -12.007  1.00  0.00     0.325 C 
ENDROOT
BRANCH   1   2
HETATM    2  N1  UNL     1      -6.656  -9.918 -11.321  1.00  0.00    -0.326 N 
HETATM    3  C5  UNL     1      -6.140  -9.576 -10.110  1.00  0.00     0.260 C 
HETATM    4  O3  UNL     1      -6.684  -8.769  -9.327  1.00  0.00    -0.267 OA
ATOM      5  H1  UNL     1      -6.127 -10.618 -11.841  1.00  0.00     0.165 HD
BRANCH   3   6
HETATM    6  C2  UNL     1      -4.871 -10.144  -9.619  1.00  0.00     0.068 C 
HETATM    7  C1  UNL     1      -4.700 -10.231  -8.246  1.00  0.00     0.038 C 
BRANCH   6   8
HETATM    8  C3  UNL     1      -3.810 -10.611 -10.338  1.00  0.00    -0.107 C 
BRANCH   8   9
HETATM    9  C4  UNL     1      -2.827 -11.080 -11.012  1.00  0.00     0.121 C 
BRANCH   9  10
HETATM   10  P1  UNL     1      -3.186 -11.942 -12.636  1.00  0.00     0.197 P 
BRANCH  10  11
HETATM   11  O1  UNL     1      -4.904 -12.053 -12.861  1.00  0.00    -0.346 OA
ATOM     12  H1  UNL     1      -5.337 -11.996 -12.017  1.00  0.00     0.217 HD
ENDBRANCH  10  11
BRANCH  10  13
HETATM   13  O2  UNL     1      -2.526 -13.524 -12.655  1.00  0.00    -0.346 OA
ATOM     14  H2  UNL     1      -2.793 -13.997 -13.434  1.00  0.00     0.217 HD
ENDBRANCH  10  13
ENDBRANCH   9  10
ENDBRANCH   8   9
ENDBRANCH   6   8
ENDBRANCH   3   6
ENDBRANCH   1   2
BRANCH   1  15
HETATM   15  C7  UNL     1      -7.570  -8.147 -12.650  1.00  0.00     0.077 C 
BRANCH  15  16
HETATM   16  C8  UNL     1      -8.028  -6.834 -12.076  1.00  0.00     0.125 C 
BRANCH  16  17
HETATM   17  N2  UNL     1      -9.225  -6.954 -11.305  1.00  0.00    -0.373 N 
ATOM     18  H2  UNL     1      -9.820  -7.760 -11.494  1.00  0.00     0.161 HD
BRANCH  17  19
HETATM   19  C9  UNL     1      -9.671  -6.031 -10.276  1.00  0.00     0.151 C 
HETATM   20  C10 UNL     1     -10.850  -5.428 -10.517  1.00  0.00     0.167 A 
HETATM   21  N3  UNL     1     -11.403  -4.517  -9.612  1.00  0.00    -0.268 N 
HETATM   22  N6  UNL     1     -11.636  -5.721 -11.673  1.00  0.00    -0.327 N 
HETATM   23  N4  UNL     1     -12.559  -3.977  -9.817  1.00  0.00    -0.240 N 
ATOM     24  H3  UNL     1     -10.882  -4.272  -8.770  1.00  0.00     0.190 HD
HETATM   25  N5  UNL     1     -13.304  -4.276 -10.942  1.00  0.00    -0.275 N 
ATOM     26  H4  UNL     1     -12.928  -3.316  -9.135  1.00  0.00     0.208 HD
HETATM   27  C11 UNL     1     -12.924  -5.091 -11.858  1.00  0.00     0.094 A 
ATOM     28  H5  UNL     1     -14.211  -3.822 -11.050  1.00  0.00     0.189 HD
HETATM   29  C12 UNL     1     -13.784  -5.355 -13.020  1.00  0.00     0.090 C 
ATOM     30  H6  UNL     1     -11.287  -6.376 -12.372  1.00  0.00     0.169 HD
BRANCH  19  31
HETATM   31  N7  UNL     1      -8.924  -5.718  -9.155  1.00  0.00    -0.313 N 
HETATM   32  C13 UNL     1      -9.081  -6.564  -7.940  1.00  0.00     0.160 C 
BRANCH  31  33
HETATM   33  C14 UNL     1      -8.047  -4.641  -8.970  1.00  0.00     0.356 C 
HETATM   34  O4  UNL     1      -6.785  -4.757  -9.256  1.00  0.00    -0.283 OA
ENDBRANCH  31  33
ENDBRANCH  19  31
ENDBRANCH  17  19
ENDBRANCH  16  17
ENDBRANCH  15  16
ENDBRANCH   1  15
BRANCH   1  35
HETATM   35  N8  UNL     1      -8.387 -10.528 -12.710  1.00  0.00     0.111 N 
BRANCH  35  36
HETATM   36  C15 UNL     1      -8.871 -11.541 -11.758  1.00  0.00     0.270 C 
HETATM   37  C16 UNL     1      -8.460 -12.924 -12.105  1.00  0.00     0.037 C 
ENDBRANCH  35  36
BRANCH  35  38
HETATM   38  C17 UNL     1      -9.242 -10.407 -13.815  1.00  0.00     0.277 C 
BRANCH  38  39
HETATM   39  C18 UNL     1     -10.684 -10.068 -13.464  1.00  0.00     0.056 C 
BRANCH  39  40
HETATM   40  C19 UNL     1     -11.155  -8.956 -14.405  1.00  0.00     0.165 C 
BRANCH  40  41
HETATM   41  O5  UNL     1     -11.017  -7.731 -13.703  1.00  0.00    -0.401 OA
ATOM     42  H5  UNL     1     -11.705  -7.706 -13.048  1.00  0.00     0.209 HD
ENDBRANCH  40  41
ENDBRANCH  39  40
ENDBRANCH  38  39
ENDBRANCH  35  38
ENDBRANCH   1  35
TORSDOF 19
ENDMDL
MODEL 2
REMARK VINA RESULT: -6.863163318      1.469      2.113
REMARK  19 active torsions:
REMARK  status: ('A' for Active; 'I' for Inactive)
REMARK    1  A    between atoms: C2_2  and  C3_3 
REMARK    2  A    between atoms: C2_2  and  C5_10 
REMARK    3  A    between atoms: C3_3  and  C4_4 
REMARK    4  A    between atoms: C4_4  and  P1_5 
REMARK    5  A    between atoms: P1_5  and  O1_6 
REMARK    6  A    between atoms: P1_5  and  O2_8 
REMARK       I    between atoms: C5_10  and  N1_12 
REMARK    7  A    between atoms: N1_12  and  C6_14 
REMARK    8  A    between atoms: C6_14  and  C7_15 
REMARK    9  A    between atoms: C6_14  and  N8_35 
REMARK   10  A    between atoms: C7_15  and  C8_16 
REMARK   11  A    between atoms: C8_16  and  N2_17 
REMARK   12  A    between atoms: N2_17  and  C9_19 
REMARK   13  A    between atoms: C9_19  and  N7_31 
REMARK   14  A    between atoms: N7_31  and  C14_33 
REMARK   15  A    between atoms: N8_35  and  C15_36 
REMARK   16  A    between atoms: N8_35  and  C17_38 
REMARK   17  A    between atoms: C17_38  and  C18_39 
REMARK   18  A    between atoms: C18_39  and  C19_40 
REMARK   19  A    between atoms: C19_40  and  O5_41 
ROOT
HETATM    1  C6  UNL     1      -7.783  -9.260 -11.306  1.00  0.00     0.325 C 
ENDROOT
BRANCH   1   2
HETATM    2  N1  UNL     1      -6.422  -9.759 -10.878  1.00  0.00    -0.326 N 
HETATM    3  C5  UNL     1      -5.899  -9.864  -9.627  1.00  0.00     0.260 C 
HETATM    4  O3  UNL     1      -6.529  -9.584  -8.585  1.00  0.00    -0.267 OA
ATOM      5  H1  UNL     1      -5.808 -10.058 -11.635  1.00  0.00     0.165 HD
BRANCH   3   6
HETATM    6  C2  UNL     1      -4.518 -10.329  -9.400  1.00  0.00     0.068 C 
HETATM    7  C1  UNL     1      -4.058 -10.349  -8.091  1.00  0.00     0.038 C 
BRANCH   6   8
HETATM    8  C3  UNL     1      -3.599 -10.755 -10.314  1.00  0.00    -0.107 C 
BRANCH   8   9
HETATM    9  C4  UNL     1      -2.759 -11.151 -11.196  1.00  0.00     0.121 C 
BRANCH   9  10
HETATM   10  P1  UNL     1      -3.390 -12.157 -12.644  1.00  0.00     0.197 P 
BRANCH  10  11
HETATM   11  O1  UNL     1      -2.338 -11.928 -14.006  1.00  0.00    -0.346 OA
ATOM     12  H1  UNL     1      -1.440 -12.088 -13.740  1.00  0.00     0.217 HD
ENDBRANCH  10  11
BRANCH  10  13
HETATM   13  O2  UNL     1      -4.975 -11.676 -13.086  1.00  0.00    -0.346 OA
ATOM     14  H2  UNL     1      -5.459 -12.400 -13.465  1.00  0.00     0.217 HD
ENDBRANCH  10  13
ENDBRANCH   9  10
ENDBRANCH   8   9
ENDBRANCH   6   8
ENDBRANCH   3   6
ENDBRANCH   1   2
BRANCH   1  15
HETATM   15  C7  UNL     1      -7.610  -8.504 -12.537  1.00  0.00     0.077 C 
BRANCH  15  16
HETATM   16  C8  UNL     1      -8.259  -7.161 -12.725  1.00  0.00     0.125 C 
BRANCH  16  17
HETATM   17  N2  UNL     1      -9.482  -7.029 -11.998  1.00  0.00    -0.373 N 
ATOM     18  H2  UNL     1     -10.265  -7.610 -12.299  1.00  0.00     0.161 HD
BRANCH  17  19
HETATM   19  C9  UNL     1      -9.712  -6.144 -10.871  1.00  0.00     0.151 C 
HETATM   20  C10 UNL     1     -10.880  -5.474 -10.895  1.00  0.00     0.167 A 
HETATM   21  N3  UNL     1     -11.235  -4.588  -9.873  1.00  0.00    -0.268 N 
HETATM   22  N6  UNL     1     -11.850  -5.666 -11.926  1.00  0.00    -0.327 N 
HETATM   23  N4  UNL     1     -12.378  -3.984  -9.869  1.00  0.00    -0.240 N 
ATOM     24  H3  UNL     1     -10.578  -4.414  -9.114  1.00  0.00     0.190 HD
HETATM   25  N5  UNL     1     -13.304  -4.187 -10.875  1.00  0.00    -0.275 N 
ATOM     26  H4  UNL     1     -12.601  -3.344  -9.108  1.00  0.00     0.208 HD
HETATM   27  C11 UNL     1     -13.115  -4.968 -11.877  1.00  0.00     0.094 A 
ATOM     28  H5  UNL     1     -14.190  -3.685 -10.819  1.00  0.00     0.189 HD
HETATM   29  C12 UNL     1     -14.158  -5.127 -12.900  1.00  0.00     0.090 C 
ATOM     30  H6  UNL     1     -11.650  -6.299 -12.700  1.00  0.00     0.169 HD
BRANCH  19  31
HETATM   31  N7  UNL     1      -8.786  -5.927  -9.869  1.00  0.00    -0.313 N 
HETATM   32  C13 UNL     1      -8.785  -6.842  -8.693  1.00  0.00     0.160 C 
BRANCH  31  33
HETATM   33  C14 UNL     1      -7.844  -4.894  -9.766  1.00  0.00     0.356 C 
HETATM   34  O4  UNL     1      -6.956  -4.710 -10.696  1.00  0.00    -0.283 OA
ENDBRANCH  31  33
ENDBRANCH  19  31
ENDBRANCH  17  19
ENDBRANCH  16  17
ENDBRANCH  15  16
ENDBRANCH   1  15
BRANCH   1  35
HETATM   35  N8  UNL     1      -8.609 -10.396 -11.208  1.00  0.00     0.111 N 
BRANCH  35  36
HETATM   36  C15 UNL     1      -9.560 -10.224 -10.098  1.00  0.00     0.270 C 
HETATM   37  C16 UNL     1     -10.907 -10.781 -10.381  1.00  0.00     0.037 C 
ENDBRANCH  35  36
BRANCH  35  38
HETATM   38  C17 UNL     1      -9.221 -10.976 -12.328  1.00  0.00     0.277 C 
BRANCH  38  39
HETATM   39  C18 UNL     1      -8.466 -12.160 -12.919  1.00  0.00     0.056 C 
BRANCH  39  40
HETATM   40  C19 UNL     1      -8.428 -13.273 -11.869  1.00  0.00     0.165 C 
BRANCH  40  41
HETATM   41  O5  UNL     1      -8.284 -14.499 -12.568  1.00  0.00    -0.401 OA
ATOM     42  H5  UNL     1      -8.824 -14.441 -13.347  1.00  0.00     0.209 HD
ENDBRANCH  40  41
ENDBRANCH  39  40
ENDBRANCH  38  39
ENDBRANCH  35  38
ENDBRANCH   1  35
TORSDOF 19
ENDMDL
MODEL 3
REMARK VINA RESULT: -6.820447418      1.822      2.268
REMARK  19 active torsions:
REMARK  status: ('A' for Active; 'I' for Inactive)
REMARK    1  A    between atoms: C2_2  and  C3_3 
REMARK    2  A    between atoms: C2_2  and  C5_10 
REMARK    3  A    between atoms: C3_3  and  C4_4 
REMARK    4  A    between atoms: C4_4  and  P1_5 
REMARK    5  A    between atoms: P1_5  and  O1_6 
REMARK    6  A    between atoms: P1_5  and  O2_8 
REMARK       I    between atoms: C5_10  and  N1_12 
REMARK    7  A    between atoms: N1_12  and  C6_14 
REMARK    8  A    between atoms: C6_14  and  C7_15 
REMARK    9  A    between atoms: C6_14  and  N8_35 
REMARK   10  A    between atoms: C7_15  and  C8_16 
REMARK   11  A    between atoms: C8_16  and  N2_17 
REMARK   12  A    between atoms: N2_17  and  C9_19 
REMARK   13  A    between atoms: C9_19  and  N7_31 
REMARK   14  A    between atoms: N7_31  and  C14_33 
REMARK   15  A    between atoms: N8_35  and  C15_36 
REMARK   16  A    between atoms: N8_35  and  C17_38 
REMARK   17  A    between atoms: C17_38  and  C18_39 
REMARK   18  A    between atoms: C18_39  and  C19_40 
REMARK   19  A    between atoms: C19_40  and  O5_41 
ROOT
HETATM    1  C6  UNL     1      -8.046  -7.858 -11.551  1.00  0.00     0.325 C 
ENDROOT
BRANCH   1   2
HETATM    2  N1  UNL     1      -6.724  -8.578 -11.409  1.00  0.00    -0.326 N 
HETATM    3  C5  UNL     1      -6.377  -9.579 -10.557  1.00  0.00     0.260 C 
HETATM    4  O3  UNL     1      -7.169 -10.107  -9.747  1.00  0.00    -0.267 OA
ATOM      5  H1  UNL     1      -5.988  -8.268 -12.043  1.00  0.00     0.165 HD
BRANCH   3   6
HETATM    6  C2  UNL     1      -5.010 -10.131 -10.524  1.00  0.00     0.068 C 
HETATM    7  C1  UNL     1      -4.412 -10.281  -9.282  1.00  0.00     0.038 C 
BRANCH   6   8
HETATM    8  C3  UNL     1      -4.224 -10.528 -11.566  1.00  0.00    -0.107 C 
BRANCH   8   9
HETATM    9  C4  UNL     1      -3.487 -10.932 -12.533  1.00  0.00     0.121 C 
BRANCH   9  10
HETATM   10  P1  UNL     1      -2.481 -12.494 -12.299  1.00  0.00     0.197 P 
BRANCH  10  11
HETATM   11  O1  UNL     1      -2.073 -12.671 -10.620  1.00  0.00    -0.346 OA
ATOM     12  H1  UNL     1      -1.226 -12.272 -10.459  1.00  0.00     0.217 HD
ENDBRANCH  10  11
BRANCH  10  13
HETATM   13  O2  UNL     1      -1.033 -12.439 -13.215  1.00  0.00    -0.346 OA
ATOM     14  H2  UNL     1      -0.272 -12.557 -12.658  1.00  0.00     0.217 HD
ENDBRANCH  10  13
ENDBRANCH   9  10
ENDBRANCH   8   9
ENDBRANCH   6   8
ENDBRANCH   3   6
ENDBRANCH   1   2
BRANCH   1  15
HETATM   15  C7  UNL     1      -7.788  -6.583 -12.203  1.00  0.00     0.077 C 
BRANCH  15  16
HETATM   16  C8  UNL     1      -7.855  -5.289 -11.440  1.00  0.00     0.125 C 
BRANCH  16  17
HETATM   17  N2  UNL     1      -9.195  -4.864 -11.185  1.00  0.00    -0.373 N 
ATOM     18  H2  UNL     1      -9.610  -4.215 -11.854  1.00  0.00     0.161 HD
BRANCH  17  19
HETATM   19  C9  UNL     1     -10.019  -5.271 -10.062  1.00  0.00     0.151 C 
HETATM   20  C10 UNL     1     -11.348  -5.191 -10.265  1.00  0.00     0.167 A 
HETATM   21  N3  UNL     1     -12.262  -5.552  -9.270  1.00  0.00    -0.268 N 
HETATM   22  N6  UNL     1     -11.906  -4.792 -11.517  1.00  0.00    -0.327 N 
HETATM   23  N4  UNL     1     -13.536  -5.525  -9.481  1.00  0.00    -0.240 N 
ATOM     24  H3  UNL     1     -11.914  -5.844  -8.357  1.00  0.00     0.190 HD
HETATM   25  N5  UNL     1     -14.056  -5.139 -10.702  1.00  0.00    -0.275 N 
ATOM     26  H4  UNL     1     -14.171  -5.795  -8.731  1.00  0.00     0.208 HD
HETATM   27  C11 UNL     1     -13.340  -4.779 -11.705  1.00  0.00     0.094 A 
ATOM     28  H5  UNL     1     -15.070  -5.139 -10.812  1.00  0.00     0.189 HD
HETATM   29  C12 UNL     1     -13.978  -4.387 -12.970  1.00  0.00     0.090 C 
ATOM     30  H6  UNL     1     -11.292  -4.515 -12.282  1.00  0.00     0.169 HD
BRANCH  19  31
HETATM   31  N7  UNL     1      -9.506  -5.646  -8.834  1.00  0.00    -0.313 N 
HETATM   32  C13 UNL     1      -9.009  -4.582  -7.918  1.00  0.00     0.160 C 
BRANCH  31  33
HETATM   33  C14 UNL     1      -9.325  -6.940  -8.328  1.00  0.00     0.356 C 
HETATM   34  O4  UNL     1      -8.134  -7.397  -8.084  1.00  0.00    -0.283 OA
ENDBRANCH  31  33
ENDBRANCH  19  31
ENDBRANCH  17  19
ENDBRANCH  16  17
ENDBRANCH  15  16
ENDBRANCH   1  15
BRANCH   1  35
HETATM   35  N8  UNL     1      -8.911  -8.834 -12.081  1.00  0.00     0.111 N 
BRANCH  35  36
HETATM   36  C15 UNL     1     -10.295  -8.548 -11.669  1.00  0.00     0.270 C 
HETATM   37  C16 UNL     1     -11.166  -8.108 -12.787  1.00  0.00     0.037 C 
ENDBRANCH  35  36
BRANCH  35  38
HETATM   38  C17 UNL     1      -8.845  -9.247 -13.419  1.00  0.00     0.277 C 
BRANCH  38  39
HETATM   39  C18 UNL     1      -8.318 -10.662 -13.619  1.00  0.00     0.056 C 
BRANCH  39  40
HETATM   40  C19 UNL     1      -9.446 -11.642 -13.288  1.00  0.00     0.165 C 
BRANCH  40  41
HETATM   41  O5  UNL     1      -8.871 -12.938 -13.241  1.00  0.00    -0.401 OA
ATOM     42  H5  UNL     1      -9.327 -13.469 -13.882  1.00  0.00     0.209 HD
ENDBRANCH  40  41
ENDBRANCH  39  40
ENDBRANCH  38  39
ENDBRANCH  35  38
ENDBRANCH   1  35
TORSDOF 19
ENDMDL
MODEL 4
REMARK VINA RESULT: -6.691626808      3.053      8.048
REMARK  19 active torsions:
REMARK  status: ('A' for Active; 'I' for Inactive)
REMARK    1  A    between atoms: C2_2  and  C3_3 
REMARK    2  A    between atoms: C2_2  and  C5_10 
REMARK    3  A    between atoms: C3_3  and  C4_4 
REMARK    4  A    between atoms: C4_4  and  P1_5 
REMARK    5  A    between atoms: P1_5  and  O1_6 
REMARK    6  A    between atoms: P1_5  and  O2_8 
REMARK       I    between atoms: C5_10  and  N1_12 
REMARK    7  A    between atoms: N1_12  and  C6_14 
REMARK    8  A    between atoms: C6_14  and  C7_15 
REMARK    9  A    between atoms: C6_14  and  N8_35 
REMARK   10  A    between atoms: C7_15  and  C8_16 
REMARK   11  A    between atoms: C8_16  and  N2_17 
REMARK   12  A    between atoms: N2_17  and  C9_19 
REMARK   13  A    between atoms: C9_19  and  N7_31 
REMARK   14  A    between atoms: N7_31  and  C14_33 
REMARK   15  A    between atoms: N8_35  and  C15_36 
REMARK   16  A    between atoms: N8_35  and  C17_38 
REMARK   17  A    between atoms: C17_38  and  C18_39 
REMARK   18  A    between atoms: C18_39  and  C19_40 
REMARK   19  A    between atoms: C19_40  and  O5_41 
ROOT
HETATM    1  C6  UNL     1      -9.660  -7.650 -10.179  1.00  0.00     0.325 C 
ENDROOT
BRANCH   1   2
HETATM    2  N1  UNL     1      -9.826  -8.639 -11.311  1.00  0.00    -0.326 N 
HETATM    3  C5  UNL     1     -10.959  -9.226 -11.780  1.00  0.00     0.260 C 
HETATM    4  O3  UNL     1     -12.102  -8.982 -11.339  1.00  0.00    -0.267 OA
ATOM      5  H1  UNL     1      -8.965  -8.903 -11.789  1.00  0.00     0.165 HD
BRANCH   3   6
HETATM    6  C2  UNL     1     -10.924 -10.218 -12.871  1.00  0.00     0.068 C 
HETATM    7  C1  UNL     1     -10.476 -11.493 -12.560  1.00  0.00     0.038 C 
BRANCH   6   8
HETATM    8  C3  UNL     1     -11.278 -10.062 -14.179  1.00  0.00    -0.107 C 
BRANCH   8   9
HETATM    9  C4  UNL     1     -11.617  -9.947 -15.409  1.00  0.00     0.121 C 
BRANCH   9  10
HETATM   10  P1  UNL     1     -12.532  -8.403 -15.944  1.00  0.00     0.197 P 
BRANCH  10  11
HETATM   11  O1  UNL     1     -11.716  -7.692 -17.302  1.00  0.00    -0.346 OA
ATOM     12  H1  UNL     1     -11.972  -6.781 -17.382  1.00  0.00     0.217 HD
ENDBRANCH  10  11
BRANCH  10  13
HETATM   13  O2  UNL     1     -12.594  -7.251 -14.676  1.00  0.00    -0.346 OA
ATOM     14  H2  UNL     1     -11.805  -6.723 -14.654  1.00  0.00     0.217 HD
ENDBRANCH  10  13
ENDBRANCH   9  10
ENDBRANCH   8   9
ENDBRANCH   6   8
ENDBRANCH   3   6
ENDBRANCH   1   2
BRANCH   1  15
HETATM   15  C7  UNL     1      -8.547  -8.099  -9.358  1.00  0.00     0.077 C 
BRANCH  15  16
HETATM   16  C8  UNL     1      -7.698  -9.271  -9.768  1.00  0.00     0.125 C 
BRANCH  16  17
HETATM   17  N2  UNL     1      -6.517  -8.881 -10.470  1.00  0.00    -0.373 N 
ATOM     18  H2  UNL     1      -5.907  -8.203 -10.011  1.00  0.00     0.161 HD
BRANCH  17  19
HETATM   19  C9  UNL     1      -6.104  -9.361 -11.776  1.00  0.00     0.151 C 
HETATM   20  C10 UNL     1      -4.977 -10.097 -11.789  1.00  0.00     0.167 A 
HETATM   21  N3  UNL     1      -4.463 -10.626 -12.977  1.00  0.00    -0.268 N 
HETATM   22  N6  UNL     1      -4.270 -10.432 -10.594  1.00  0.00    -0.327 N 
HETATM   23  N4  UNL     1      -3.410 -11.375 -12.984  1.00  0.00    -0.240 N 
ATOM     24  H3  UNL     1      -4.929 -10.415 -13.859  1.00  0.00     0.190 HD
HETATM   25  N5  UNL     1      -2.742 -11.689 -11.815  1.00  0.00    -0.275 N 
ATOM     26  H4  UNL     1      -3.064 -11.741 -13.870  1.00  0.00     0.208 HD
HETATM   27  C11 UNL     1      -3.096 -11.274 -10.653  1.00  0.00     0.094 A 
ATOM     28  H5  UNL     1      -1.918 -12.287 -11.880  1.00  0.00     0.189 HD
HETATM   29  C12 UNL     1      -2.329 -11.662  -9.461  1.00  0.00     0.090 C 
ATOM     30  H6  UNL     1      -4.594 -10.075  -9.695  1.00  0.00     0.169 HD
BRANCH  19  31
HETATM   31  N7  UNL     1      -6.760  -9.039 -12.950  1.00  0.00    -0.313 N 
HETATM   32  C13 UNL     1      -6.894  -7.602 -13.317  1.00  0.00     0.160 C 
BRANCH  31  33
HETATM   33  C14 UNL     1      -7.393  -9.902 -13.855  1.00  0.00     0.356 C 
HETATM   34  O4  UNL     1      -6.861 -10.155 -15.013  1.00  0.00    -0.283 OA
ENDBRANCH  31  33
ENDBRANCH  19  31
ENDBRANCH  17  19
ENDBRANCH  16  17
ENDBRANCH  15  16
ENDBRANCH   1  15
BRANCH   1  35
HETATM   35  N8  UNL     1      -9.692  -6.395 -10.816  1.00  0.00     0.111 N 
BRANCH  35  36
HETATM   36  C15 UNL     1     -10.912  -5.670 -10.426  1.00  0.00     0.270 C 
HETATM   37  C16 UNL     1     -11.874  -5.486 -11.542  1.00  0.00     0.037 C 
ENDBRANCH  35  36
BRANCH  35  38
HETATM   38  C17 UNL     1      -8.577  -5.545 -10.855  1.00  0.00     0.277 C 
BRANCH  38  39
HETATM   39  C18 UNL     1      -8.617  -4.404  -9.848  1.00  0.00     0.056 C 
BRANCH  39  40
HETATM   40  C19 UNL     1      -7.409  -4.545  -8.919  1.00  0.00     0.165 C 
BRANCH  40  41
HETATM   41  O5  UNL     1      -6.930  -3.235  -8.657  1.00  0.00    -0.401 OA
ATOM     42  H5  UNL     1      -6.332  -3.011  -9.360  1.00  0.00     0.209 HD
ENDBRANCH  40  41
ENDBRANCH  39  40
ENDBRANCH  38  39
ENDBRANCH  35  38
ENDBRANCH   1  35
TORSDOF 19
ENDMDL
MODEL 5
REMARK VINA RESULT: -6.678566729      1.728      2.216
REMARK  19 active torsions:
REMARK  status: ('A' for Active; 'I' for Inactive)
REMARK    1  A    between atoms: C2_2  and  C3_3 
REMARK    2  A    between atoms: C2_2  and  C5_10 
REMARK    3  A    between atoms: C3_3  and  C4_4 
REMARK    4  A    between atoms: C4_4  and  P1_5 
REMARK    5  A    between atoms: P1_5  and  O1_6 
REMARK    6  A    between atoms: P1_5  and  O2_8 
REMARK       I    between atoms: C5_10  and  N1_12 
REMARK    7  A    between atoms: N1_12  and  C6_14 
REMARK    8  A    between atoms: C6_14  and  C7_15 
REMARK    9  A    between atoms: C6_14  and  N8_35 
REMARK   10  A    between atoms: C7_15  and  C8_16 
REMARK   11  A    between atoms: C8_16  and  N2_17 
REMARK   12  A    between atoms: N2_17  and  C9_19 
REMARK   13  A    between atoms: C9_19  and  N7_31 
REMARK   14  A    between atoms: N7_31  and  C14_33 
REMARK   15  A    between atoms: N8_35  and  C15_36 
REMARK   16  A    between atoms: N8_35  and  C17_38 
REMARK   17  A    between atoms: C17_38  and  C18_39 
REMARK   18  A    between atoms: C18_39  and  C19_40 
REMARK   19  A    between atoms: C19_40  and  O5_41 
ROOT
HETATM    1  C6  UNL     1      -8.869  -7.988 -11.740  1.00  0.00     0.325 C 
ENDROOT
BRANCH   1   2
HETATM    2  N1  UNL     1      -7.921  -9.133 -12.017  1.00  0.00    -0.326 N 
HETATM    3  C5  UNL     1      -6.745  -9.442 -11.409  1.00  0.00     0.260 C 
HETATM    4  O3  UNL     1      -6.273  -8.803 -10.445  1.00  0.00    -0.267 OA
ATOM      5  H1  UNL     1      -8.205  -9.763 -12.767  1.00  0.00     0.165 HD
BRANCH   3   6
HETATM    6  C2  UNL     1      -5.919 -10.581 -11.851  1.00  0.00     0.068 C 
HETATM    7  C1  UNL     1      -6.582 -11.712 -12.304  1.00  0.00     0.038 C 
BRANCH   6   8
HETATM    8  C3  UNL     1      -4.559 -10.689 -11.882  1.00  0.00    -0.107 C 
BRANCH   8   9
HETATM    9  C4  UNL     1      -3.284 -10.794 -11.943  1.00  0.00     0.121 C 
BRANCH   9  10
HETATM   10  P1  UNL     1      -2.543 -12.462 -12.361  1.00  0.00     0.197 P 
BRANCH  10  11
HETATM   11  O1  UNL     1      -2.166 -13.309 -10.893  1.00  0.00    -0.346 OA
ATOM     12  H1  UNL     1      -1.788 -14.154 -11.106  1.00  0.00     0.217 HD
ENDBRANCH  10  11
BRANCH  10  13
HETATM   13  O2  UNL     1      -1.105 -12.286 -13.279  1.00  0.00    -0.346 OA
ATOM     14  H2  UNL     1      -0.638 -11.496 -13.035  1.00  0.00     0.217 HD
ENDBRANCH  10  13
ENDBRANCH   9  10
ENDBRANCH   8   9
ENDBRANCH   6   8
ENDBRANCH   3   6
ENDBRANCH   1   2
BRANCH   1  15
HETATM   15  C7  UNL     1      -8.364  -6.817 -12.441  1.00  0.00     0.077 C 
BRANCH  15  16
HETATM   16  C8  UNL     1      -7.872  -5.610 -11.691  1.00  0.00     0.125 C 
BRANCH  16  17
HETATM   17  N2  UNL     1      -8.934  -4.809 -11.171  1.00  0.00    -0.373 N 
ATOM     18  H2  UNL     1      -9.159  -3.951 -11.676  1.00  0.00     0.161 HD
BRANCH  17  19
HETATM   19  C9  UNL     1      -9.724  -5.104  -9.989  1.00  0.00     0.151 C 
HETATM   20  C10 UNL     1     -11.058  -5.046 -10.159  1.00  0.00     0.167 A 
HETATM   21  N3  UNL     1     -11.941  -5.308  -9.107  1.00  0.00    -0.268 N 
HETATM   22  N6  UNL     1     -11.655  -4.773 -11.428  1.00  0.00    -0.327 N 
HETATM   23  N4  UNL     1     -13.221  -5.303  -9.283  1.00  0.00    -0.240 N 
ATOM     24  H3  UNL     1     -11.567  -5.508  -8.180  1.00  0.00     0.190 HD
HETATM   25  N5  UNL     1     -13.779  -5.039 -10.520  1.00  0.00    -0.275 N 
ATOM     26  H4  UNL     1     -13.834  -5.499  -8.491  1.00  0.00     0.208 HD
HETATM   27  C11 UNL     1     -13.093  -4.779 -11.574  1.00  0.00     0.094 A 
ATOM     28  H5  UNL     1     -14.795  -5.051 -10.600  1.00  0.00     0.189 HD
HETATM   29  C12 UNL     1     -13.769  -4.514 -12.851  1.00  0.00     0.090 C 
ATOM     30  H6  UNL     1     -11.064  -4.571 -12.234  1.00  0.00     0.169 HD
BRANCH  19  31
HETATM   31  N7  UNL     1      -9.174  -5.357  -8.746  1.00  0.00    -0.313 N 
HETATM   32  C13 UNL     1      -8.979  -6.774  -8.331  1.00  0.00     0.160 C 
BRANCH  31  33
HETATM   33  C14 UNL     1      -8.808  -4.436  -7.755  1.00  0.00     0.356 C 
HETATM   34  O4  UNL     1      -8.541  -3.202  -8.062  1.00  0.00    -0.283 OA
ENDBRANCH  31  33
ENDBRANCH  19  31
ENDBRANCH  17  19
ENDBRANCH  16  17
ENDBRANCH  15  16
ENDBRANCH   1  15
BRANCH   1  35
HETATM   35  N8  UNL     1     -10.144  -8.536 -11.973  1.00  0.00     0.111 N 
BRANCH  35  36
HETATM   36  C15 UNL     1     -10.878  -8.643 -10.702  1.00  0.00     0.270 C 
HETATM   37  C16 UNL     1     -12.347  -8.494 -10.852  1.00  0.00     0.037 C 
ENDBRANCH  35  36
BRANCH  35  38
HETATM   38  C17 UNL     1     -10.973  -8.092 -13.012  1.00  0.00     0.277 C 
BRANCH  38  39
HETATM   39  C18 UNL     1     -10.943  -8.962 -14.261  1.00  0.00     0.056 C 
BRANCH  39  40
HETATM   40  C19 UNL     1     -11.947  -8.390 -15.265  1.00  0.00     0.165 C 
BRANCH  40  41
HETATM   41  O5  UNL     1     -11.203  -7.651 -16.222  1.00  0.00    -0.401 OA
ATOM     42  H5  UNL     1     -11.455  -7.972 -17.079  1.00  0.00     0.209 HD
ENDBRANCH  40  41
ENDBRANCH  39  40
ENDBRANCH  38  39
ENDBRANCH  35  38
ENDBRANCH   1  35
TORSDOF 19
ENDMDL
