MODEL 1
REMARK VINA RESULT: -6.625616519      0.000      0.000
REMARK  18 active torsions:
REMARK  status: ('A' for Active; 'I' for Inactive)
REMARK    1  A    between atoms: C2_2  and  N1_3 
REMARK    2  A    between atoms: C3_6  and  N3_7 
REMARK    3  A    between atoms: C5_11  and  C6_12 
REMARK    4  A    between atoms: N6_18  and  C10_19 
REMARK    5  A    between atoms: C10_19  and  C11_20 
REMARK    6  A    between atoms: C11_20  and  O1_21 
REMARK    7  A    between atoms: C11_20  and  C12_23 
REMARK    8  A    between atoms: C12_23  and  O2_24 
REMARK    9  A    between atoms: O2_24  and  C13_25 
REMARK   10  A    between atoms: C13_25  and  C14_26 
REMARK   11  A    between atoms: C14_26  and  C15_27 
REMARK   12  A    between atoms: C17_29  and  N7_30 
REMARK   13  A    between atoms: N7_30  and  C18_32 
REMARK   14  A    between atoms: C18_32  and  C19_33 
REMARK   15  A    between atoms: C19_33  and  O3_34 
REMARK   16  A    between atoms: O3_34  and  P1_35 
REMARK   17  A    between atoms: P1_35  and  O4_36 
REMARK   18  A    between atoms: P1_35  and  O5_38 
ROOT
HETATM    1  N1  UNL     1      -6.667  -9.581  -9.344  1.00  0.00    -0.206 N 
HETATM    2  N2  UNL     1      -7.920 -10.152  -9.301  1.00  0.00    -0.264 N 
ATOM      3  H2  UNL     1      -8.111 -10.839  -8.571  1.00  0.00     0.190 HD
HETATM    4  C3  UNL     1      -8.845  -9.873 -10.114  1.00  0.00     0.140 A 
HETATM    5  C5  UNL     1      -8.671  -8.870 -11.228  1.00  0.00     0.099 A 
HETATM    6  C17 UNL     1      -7.374  -8.315 -11.246  1.00  0.00     0.135 A 
HETATM    7  N8  UNL     1      -6.449  -8.675 -10.329  1.00  0.00    -0.264 N 
ATOM      8  H8  UNL     1      -5.529  -8.237 -10.381  1.00  0.00     0.190 HD
ENDROOT
BRANCH   5   9
HETATM    9  C6  UNL     1      -9.657  -8.811 -12.061  1.00  0.00     0.125 A 
HETATM   10  N5  UNL     1     -10.633  -7.751 -11.719  1.00  0.00    -0.351 N 
HETATM   11  C7  UNL     1     -11.608  -7.373 -12.404  1.00  0.00     0.091 A 
ATOM     12  H5  UNL     1     -10.495  -7.278 -10.825  1.00  0.00     0.166 HD
HETATM   13  C8  UNL     1     -11.896  -7.971 -13.688  1.00  0.00     0.034 A 
HETATM   14  C9  UNL     1     -11.073  -8.915 -14.074  1.00  0.00     0.094 A 
HETATM   15  N6  UNL     1      -9.940  -9.373 -13.311  1.00  0.00    -0.340 N 
BRANCH  15  16
HETATM   16  C10 UNL     1      -8.999 -10.202 -13.978  1.00  0.00     0.164 C 
BRANCH  16  17
HETATM   17  C11 UNL     1      -8.994 -11.662 -13.588  1.00  0.00     0.160 C 
BRANCH  17  18
HETATM   18  O1  UNL     1     -10.184 -12.299 -13.491  1.00  0.00    -0.392 OA
ATOM     19  H1  UNL     1     -10.661 -12.478 -14.292  1.00  0.00     0.210 HD
ENDBRANCH  17  18
BRANCH  17  20
HETATM   20  C12 UNL     1      -7.894 -11.999 -12.636  1.00  0.00     0.200 C 
BRANCH  20  21
HETATM   21  O2  UNL     1      -6.800 -11.265 -13.022  1.00  0.00    -0.389 OA
BRANCH  21  22
HETATM   22  C13 UNL     1      -5.625 -11.497 -12.375  1.00  0.00     0.167 C 
BRANCH  22  23
HETATM   23  C14 UNL     1      -4.546 -10.475 -12.652  1.00  0.00     0.026 C 
BRANCH  23  24
HETATM   24  C15 UNL     1      -3.180 -10.964 -12.196  1.00  0.00    -0.002 C 
HETATM   25  C16 UNL     1      -3.017 -12.368 -12.797  1.00  0.00     0.005 C 
ENDBRANCH  23  24
ENDBRANCH  22  23
ENDBRANCH  21  22
ENDBRANCH  20  21
ENDBRANCH  17  20
ENDBRANCH  16  17
ENDBRANCH  15  16
ENDBRANCH   5   9
BRANCH   4  26
HETATM   26  N3  UNL     1     -10.084 -10.551  -9.932  1.00  0.00    -0.339 N 
HETATM   27  C4  UNL     1     -10.937 -10.277  -9.033  1.00  0.00     0.191 C 
HETATM   28  N4  UNL     1     -10.682  -9.227  -8.122  1.00  0.00    -0.097 NA
ATOM     29  H3  UNL     1     -10.303 -11.315 -10.572  1.00  0.00     0.167 HD
ENDBRANCH   4  26
BRANCH   6  30
HETATM   30  N7  UNL     1      -6.727  -7.580 -12.243  1.00  0.00    -0.372 N 
ATOM     31  H7  UNL     1      -5.814  -7.909 -12.558  1.00  0.00     0.161 HD
BRANCH  30  32
HETATM   32  C18 UNL     1      -7.257  -6.389 -12.859  1.00  0.00     0.148 C 
BRANCH  32  33
HETATM   33  C19 UNL     1      -7.827  -5.327 -12.021  1.00  0.00     0.197 C 
BRANCH  33  34
HETATM   34  O3  UNL     1      -6.974  -4.795 -11.084  1.00  0.00    -0.316 OA
BRANCH  34  35
HETATM   35  P1  UNL     1      -7.762  -4.595  -9.550  1.00  0.00     0.329 P 
BRANCH  35  36
HETATM   36  O4  UNL     1      -6.805  -3.484  -8.595  1.00  0.00    -0.328 OA
ATOM     37  H4  UNL     1      -6.429  -2.841  -9.185  1.00  0.00     0.219 HD
ENDBRANCH  35  36
BRANCH  35  38
HETATM   38  O5  UNL     1      -7.881  -6.128  -8.723  1.00  0.00    -0.328 OA
ATOM     39  H5  UNL     1      -7.023  -6.523  -8.629  1.00  0.00     0.219 HD
ENDBRANCH  35  38
ENDBRANCH  34  35
ENDBRANCH  33  34
ENDBRANCH  32  33
ENDBRANCH  30  32
ENDBRANCH   6  30
BRANCH   1  40
HETATM   40  C2  UNL     1      -5.651  -9.940  -8.391  1.00  0.00     0.126 C 
HETATM   41  C1  UNL     1      -4.428 -10.245  -8.734  1.00  0.00     0.033 C 
ENDBRANCH   1  40
TORSDOF 18
ENDMDL
MODEL 2
REMARK VINA RESULT: -6.619636974      2.628      4.171
REMARK  18 active torsions:
REMARK  status: ('A' for Active; 'I' for Inactive)
REMARK    1  A    between atoms: C2_2  and  N1_3 
REMARK    2  A    between atoms: C3_6  and  N3_7 
REMARK    3  A    between atoms: C5_11  and  C6_12 
REMARK    4  A    between atoms: N6_18  and  C10_19 
REMARK    5  A    between atoms: C10_19  and  C11_20 
REMARK    6  A    between atoms: C11_20  and  O1_21 
REMARK    7  A    between atoms: C11_20  and  C12_23 
REMARK    8  A    between atoms: C12_23  and  O2_24 
REMARK    9  A    between atoms: O2_24  and  C13_25 
REMARK   10  A    between atoms: C13_25  and  C14_26 
REMARK   11  A    between atoms: C14_26  and  C15_27 
REMARK   12  A    between atoms: C17_29  and  N7_30 
REMARK   13  A    between atoms: N7_30  and  C18_32 
REMARK   14  A    between atoms: C18_32  and  C19_33 
REMARK   15  A    between atoms: C19_33  and  O3_34 
REMARK   16  A    between atoms: O3_34  and  P1_35 
REMARK   17  A    between atoms: P1_35  and  O4_36 
REMARK   18  A    between atoms: P1_35  and  O5_38 
ROOT
HETATM    1  N1  UNL     1      -8.586  -5.958  -8.990  1.00  0.00    -0.206 N 
HETATM    2  N2  UNL     1      -7.892  -6.266 -10.140  1.00  0.00    -0.264 N 
ATOM      3  H2  UNL     1      -7.056  -5.724 -10.357  1.00  0.00     0.190 HD
HETATM    4  C3  UNL     1      -8.235  -7.181 -10.939  1.00  0.00     0.140 A 
HETATM    5  C5  UNL     1      -9.453  -8.043 -10.713  1.00  0.00     0.099 A 
HETATM    6  C17 UNL     1     -10.140  -7.691  -9.533  1.00  0.00     0.135 A 
HETATM    7  N8  UNL     1      -9.695  -6.696  -8.736  1.00  0.00    -0.264 N 
ATOM      8  H8  UNL     1     -10.225  -6.488  -7.890  1.00  0.00     0.190 HD
ENDROOT
BRANCH   5   9
HETATM    9  C6  UNL     1      -9.750  -8.828 -11.696  1.00  0.00     0.125 A 
HETATM   10  N5  UNL     1     -10.357  -8.108 -12.840  1.00  0.00    -0.351 N 
HETATM   11  C7  UNL     1     -10.623  -8.574 -13.968  1.00  0.00     0.091 A 
ATOM     12  H5  UNL     1     -10.582  -7.124 -12.689  1.00  0.00     0.166 HD
HETATM   13  C8  UNL     1     -10.342  -9.954 -14.293  1.00  0.00     0.034 A 
HETATM   14  C9  UNL     1      -9.795 -10.664 -13.336  1.00  0.00     0.094 A 
HETATM   15  N6  UNL     1      -9.472 -10.159 -12.027  1.00  0.00    -0.340 N 
BRANCH  15  16
HETATM   16  C10 UNL     1      -8.644 -10.967 -11.204  1.00  0.00     0.164 C 
BRANCH  16  17
HETATM   17  C11 UNL     1      -7.254 -11.256 -11.724  1.00  0.00     0.160 C 
BRANCH  17  18
HETATM   18  O1  UNL     1      -7.022 -12.470 -12.275  1.00  0.00    -0.392 OA
ATOM     19  H1  UNL     1      -6.741 -12.502 -13.182  1.00  0.00     0.210 HD
ENDBRANCH  17  18
BRANCH  17  20
HETATM   20  C12 UNL     1      -6.189 -10.593 -10.915  1.00  0.00     0.200 C 
BRANCH  20  21
HETATM   21  O2  UNL     1      -5.673  -9.585 -11.692  1.00  0.00    -0.389 OA
BRANCH  21  22
HETATM   22  C13 UNL     1      -4.638  -9.893 -12.520  1.00  0.00     0.167 C 
BRANCH  22  23
HETATM   23  C14 UNL     1      -3.574 -10.766 -11.894  1.00  0.00     0.026 C 
BRANCH  23  24
HETATM   24  C15 UNL     1      -3.348 -12.037 -12.699  1.00  0.00    -0.002 C 
HETATM   25  C16 UNL     1      -1.874 -12.001 -13.130  1.00  0.00     0.005 C 
ENDBRANCH  23  24
ENDBRANCH  22  23
ENDBRANCH  21  22
ENDBRANCH  20  21
ENDBRANCH  17  20
ENDBRANCH  16  17
ENDBRANCH  15  16
ENDBRANCH   5   9
BRANCH   4  26
HETATM   26  N3  UNL     1      -7.408  -7.374 -12.083  1.00  0.00    -0.339 N 
HETATM   27  C4  UNL     1      -7.165  -6.492 -12.961  1.00  0.00     0.191 C 
HETATM   28  N4  UNL     1      -7.734  -5.204 -12.838  1.00  0.00    -0.097 NA
ATOM     29  H3  UNL     1      -6.979  -8.292 -12.205  1.00  0.00     0.167 HD
ENDBRANCH   4  26
BRANCH   6  30
HETATM   30  N7  UNL     1     -11.426  -8.040  -9.107  1.00  0.00    -0.372 N 
ATOM     31  H7  UNL     1     -11.593  -8.094  -8.102  1.00  0.00     0.161 HD
BRANCH  30  32
HETATM   32  C18 UNL     1     -12.532  -8.328  -9.986  1.00  0.00     0.148 C 
BRANCH  32  33
HETATM   33  C19 UNL     1     -13.317  -7.225 -10.554  1.00  0.00     0.197 C 
BRANCH  33  34
HETATM   34  O3  UNL     1     -12.800  -6.662 -11.696  1.00  0.00    -0.316 OA
BRANCH  34  35
HETATM   35  P1  UNL     1     -12.194  -5.063 -11.396  1.00  0.00     0.329 P 
BRANCH  35  36
HETATM   36  O4  UNL     1     -13.097  -3.949 -12.400  1.00  0.00    -0.328 OA
ATOM     37  H4  UNL     1     -12.509  -3.614 -13.066  1.00  0.00     0.219 HD
ENDBRANCH  35  36
BRANCH  35  38
HETATM   38  O5  UNL     1     -10.498  -4.969 -11.795  1.00  0.00    -0.328 OA
ATOM     39  H5  UNL     1     -10.095  -4.227 -11.360  1.00  0.00     0.219 HD
ENDBRANCH  35  38
ENDBRANCH  34  35
ENDBRANCH  33  34
ENDBRANCH  32  33
ENDBRANCH  30  32
ENDBRANCH   6  30
BRANCH   1  40
HETATM   40  C2  UNL     1      -8.149  -4.901  -8.116  1.00  0.00     0.126 C 
HETATM   41  C1  UNL     1      -7.374  -3.926  -8.509  1.00  0.00     0.033 C 
ENDBRANCH   1  40
TORSDOF 18
ENDMDL
MODEL 3
REMARK VINA RESULT: -6.592130000      1.781      2.737
REMARK  18 active torsions:
REMARK  status: ('A' for Active; 'I' for Inactive)
REMARK    1  A    between atoms: C2_2  and  N1_3 
REMARK    2  A    between atoms: C3_6  and  N3_7 
REMARK    3  A    between atoms: C5_11  and  C6_12 
REMARK    4  A    between atoms: N6_18  and  C10_19 
REMARK    5  A    between atoms: C10_19  and  C11_20 
REMARK    6  A    between atoms: C11_20  and  O1_21 
REMARK    7  A    between atoms: C11_20  and  C12_23 
REMARK    8  A    between atoms: C12_23  and  O2_24 
REMARK    9  A    between atoms: O2_24  and  C13_25 
REMARK   10  A    between atoms: C13_25  and  C14_26 
REMARK   11  A    between atoms: C14_26  and  C15_27 
REMARK   12  A    between atoms: C17_29  and  N7_30 
REMARK   13  A    between atoms: N7_30  and  C18_32 
REMARK   14  A    between atoms: C18_32  and  C19_33 
REMARK   15  A    between atoms: C19_33  and  O3_34 
REMARK   16  A    between atoms: O3_34  and  P1_35 
REMARK   17  A    between atoms: P1_35  and  O4_36 
REMARK   18  A    between atoms: P1_35  and  O5_38 
ROOT
HETATM    1  N1  UNL     1      -6.238  -9.595 -10.261  1.00  0.00    -0.206 N 
HETATM    2  N2  UNL     1      -7.211  -9.909  -9.338  1.00  0.00    -0.264 N 
ATOM      3  H2  UNL     1      -6.998 -10.616  -8.635  1.00  0.00     0.190 HD
HETATM    4  C3  UNL     1      -8.353  -9.371  -9.316  1.00  0.00     0.140 A 
HETATM    5  C5  UNL     1      -8.772  -8.313 -10.308  1.00  0.00     0.099 A 
HETATM    6  C17 UNL     1      -7.753  -8.027 -11.241  1.00  0.00     0.135 A 
HETATM    7  N8  UNL     1      -6.558  -8.654 -11.183  1.00  0.00    -0.264 N 
ATOM      8  H8  UNL     1      -5.853  -8.403 -11.877  1.00  0.00     0.190 HD
ENDROOT
BRANCH   5   9
HETATM    9  C6  UNL     1     -10.018  -7.975 -10.245  1.00  0.00     0.125 A 
HETATM   10  N5  UNL     1     -10.243  -6.774  -9.408  1.00  0.00    -0.351 N 
HETATM   11  C7  UNL     1     -11.312  -6.142  -9.268  1.00  0.00     0.091 A 
ATOM     12  H5  UNL     1      -9.437  -6.425  -8.888  1.00  0.00     0.166 HD
HETATM   13  C8  UNL     1     -12.515  -6.545  -9.960  1.00  0.00     0.034 A 
HETATM   14  C9  UNL     1     -12.402  -7.598 -10.732  1.00  0.00     0.094 A 
HETATM   15  N6  UNL     1     -11.186  -8.348 -10.918  1.00  0.00    -0.340 N 
BRANCH  15  16
HETATM   16  C10 UNL     1     -11.157  -9.286 -11.983  1.00  0.00     0.164 C 
BRANCH  16  17
HETATM   17  C11 UNL     1     -10.783  -8.748 -13.345  1.00  0.00     0.160 C 
BRANCH  17  18
HETATM   18  O1  UNL     1     -11.548  -7.763 -13.872  1.00  0.00    -0.392 OA
ATOM     19  H1  UNL     1     -11.260  -6.866 -13.758  1.00  0.00     0.210 HD
ENDBRANCH  17  18
BRANCH  17  20
HETATM   20  C12 UNL     1     -10.205  -9.795 -14.238  1.00  0.00     0.200 C 
BRANCH  20  21
HETATM   21  O2  UNL     1      -8.844  -9.612 -14.233  1.00  0.00    -0.389 OA
BRANCH  21  22
HETATM   22  C13 UNL     1      -8.065 -10.673 -13.889  1.00  0.00     0.167 C 
BRANCH  22  23
HETATM   23  C14 UNL     1      -8.812 -11.810 -13.232  1.00  0.00     0.026 C 
BRANCH  23  24
HETATM   24  C15 UNL     1      -8.119 -12.275 -11.960  1.00  0.00    -0.002 C 
HETATM   25  C16 UNL     1      -8.501 -13.753 -11.792  1.00  0.00     0.005 C 
ENDBRANCH  23  24
ENDBRANCH  22  23
ENDBRANCH  21  22
ENDBRANCH  20  21
ENDBRANCH  17  20
ENDBRANCH  16  17
ENDBRANCH  15  16
ENDBRANCH   5   9
BRANCH   4  26
HETATM   26  N3  UNL     1      -9.246  -9.805  -8.295  1.00  0.00    -0.339 N 
HETATM   27  C4  UNL     1      -9.209  -9.422  -7.087  1.00  0.00     0.191 C 
HETATM   28  N4  UNL     1      -8.227  -8.493  -6.675  1.00  0.00    -0.097 NA
ATOM     29  H3  UNL     1      -9.970 -10.476  -8.555  1.00  0.00     0.167 HD
ENDBRANCH   4  26
BRANCH   6  30
HETATM   30  N7  UNL     1      -7.817  -7.335 -12.455  1.00  0.00    -0.372 N 
ATOM     31  H7  UNL     1      -8.109  -7.856 -13.282  1.00  0.00     0.161 HD
BRANCH  30  32
HETATM   32  C18 UNL     1      -7.501  -5.938 -12.620  1.00  0.00     0.148 C 
BRANCH  32  33
HETATM   33  C19 UNL     1      -7.887  -4.975 -11.582  1.00  0.00     0.197 C 
BRANCH  33  34
HETATM   34  O3  UNL     1      -6.937  -4.740 -10.616  1.00  0.00    -0.316 OA
BRANCH  34  35
HETATM   35  P1  UNL     1      -7.667  -4.276  -9.110  1.00  0.00     0.329 P 
BRANCH  35  36
HETATM   36  O4  UNL     1      -6.581  -3.162  -8.308  1.00  0.00    -0.328 OA
ATOM     37  H4  UNL     1      -7.083  -2.396  -8.056  1.00  0.00     0.219 HD
ENDBRANCH  35  36
BRANCH  35  38
HETATM   38  O5  UNL     1      -7.924  -5.676  -8.100  1.00  0.00    -0.328 OA
ATOM     39  H5  UNL     1      -8.759  -5.613  -7.653  1.00  0.00     0.219 HD
ENDBRANCH  35  38
ENDBRANCH  34  35
ENDBRANCH  33  34
ENDBRANCH  32  33
ENDBRANCH  30  32
ENDBRANCH   6  30
BRANCH   1  40
HETATM   40  C2  UNL     1      -4.953 -10.243 -10.240  1.00  0.00     0.126 C 
HETATM   41  C1  UNL     1      -4.182 -10.263  -9.185  1.00  0.00     0.033 C 
ENDBRANCH   1  40
TORSDOF 18
ENDMDL
MODEL 4
REMARK VINA RESULT: -6.528466225      2.093      5.673
REMARK  18 active torsions:
REMARK  status: ('A' for Active; 'I' for Inactive)
REMARK    1  A    between atoms: C2_2  and  N1_3 
REMARK    2  A    between atoms: C3_6  and  N3_7 
REMARK    3  A    between atoms: C5_11  and  C6_12 
REMARK    4  A    between atoms: N6_18  and  C10_19 
REMARK    5  A    between atoms: C10_19  and  C11_20 
REMARK    6  A    between atoms: C11_20  and  O1_21 
REMARK    7  A    between atoms: C11_20  and  C12_23 
REMARK    8  A    between atoms: C12_23  and  O2_24 
REMARK    9  A    between atoms: O2_24  and  C13_25 
REMARK   10  A    between atoms: C13_25  and  C14_26 
REMARK   11  A    between atoms: C14_26  and  C15_27 
REMARK   12  A    between atoms: C17_29  and  N7_30 
REMARK   13  A    between atoms: N7_30  and  C18_32 
REMARK   14  A    between atoms: C18_32  and  C19_33 
REMARK   15  A    between atoms: C19_33  and  O3_34 
REMARK   16  A    between atoms: O3_34  and  P1_35 
REMARK   17  A    between atoms: P1_35  and  O4_36 
REMARK   18  A    between atoms: P1_35  and  O5_38 
ROOT
HETATM    1  N1  UNL     1      -9.595  -9.254 -14.047  1.00  0.00    -0.206 N 
HETATM    2  N2  UNL     1      -9.192 -10.539 -13.754  1.00  0.00    -0.264 N 
ATOM      3  H2  UNL     1      -9.825 -11.306 -13.981  1.00  0.00     0.190 HD
HETATM    4  C3  UNL     1      -8.083 -10.819 -13.220  1.00  0.00     0.140 A 
HETATM    5  C5  UNL     1      -7.072  -9.762 -12.846  1.00  0.00     0.099 A 
HETATM    6  C17 UNL     1      -7.524  -8.462 -13.153  1.00  0.00     0.135 A 
HETATM    7  N8  UNL     1      -8.729  -8.261 -13.729  1.00  0.00    -0.264 N 
ATOM      8  H8  UNL     1      -9.005  -7.301 -13.937  1.00  0.00     0.190 HD
ENDROOT
BRANCH   5   9
HETATM    9  C6  UNL     1      -6.058 -10.198 -12.173  1.00  0.00     0.125 A 
HETATM   10  N5  UNL     1      -4.803 -10.193 -12.960  1.00  0.00    -0.351 N 
HETATM   11  C7  UNL     1      -3.650 -10.431 -12.542  1.00  0.00     0.091 A 
ATOM     12  H5  UNL     1      -4.890  -9.971 -13.952  1.00  0.00     0.166 HD
HETATM   13  C8  UNL     1      -3.409 -10.752 -11.154  1.00  0.00     0.034 A 
HETATM   14  C9  UNL     1      -4.469 -10.771 -10.382  1.00  0.00     0.094 A 
HETATM   15  N6  UNL     1      -5.810 -10.499 -10.829  1.00  0.00    -0.340 N 
BRANCH  15  16
HETATM   16  C10 UNL     1      -6.799 -10.293  -9.832  1.00  0.00     0.164 C 
BRANCH  16  17
HETATM   17  C11 UNL     1      -7.605  -9.018  -9.936  1.00  0.00     0.160 C 
BRANCH  17  18
HETATM   18  O1  UNL     1      -6.954  -7.841  -9.789  1.00  0.00    -0.392 OA
ATOM     19  H1  UNL     1      -7.105  -7.343  -8.995  1.00  0.00     0.210 HD
ENDBRANCH  17  18
BRANCH  17  20
HETATM   20  C12 UNL     1      -8.992  -9.169  -9.403  1.00  0.00     0.200 C 
BRANCH  20  21
HETATM   21  O2  UNL     1      -9.653  -7.999  -9.684  1.00  0.00    -0.389 OA
BRANCH  21  22
HETATM   22  C13 UNL     1     -10.639  -8.040 -10.620  1.00  0.00     0.167 C 
BRANCH  22  23
HETATM   23  C14 UNL     1     -11.266  -9.403 -10.810  1.00  0.00     0.026 C 
BRANCH  23  24
HETATM   24  C15 UNL     1     -12.712  -9.425 -10.339  1.00  0.00    -0.002 C 
HETATM   25  C16 UNL     1     -13.191  -7.966 -10.391  1.00  0.00     0.005 C 
ENDBRANCH  23  24
ENDBRANCH  22  23
ENDBRANCH  21  22
ENDBRANCH  20  21
ENDBRANCH  17  20
ENDBRANCH  16  17
ENDBRANCH  15  16
ENDBRANCH   5   9
BRANCH   4  26
HETATM   26  N3  UNL     1      -7.816 -12.198 -12.984  1.00  0.00    -0.339 N 
HETATM   27  C4  UNL     1      -8.380 -12.905 -12.094  1.00  0.00     0.191 C 
HETATM   28  N4  UNL     1      -9.354 -12.325 -11.250  1.00  0.00    -0.097 NA
ATOM     29  H3  UNL     1      -7.119 -12.651 -13.574  1.00  0.00     0.167 HD
ENDBRANCH   4  26
BRANCH   6  30
HETATM   30  N7  UNL     1      -7.035  -7.220 -12.734  1.00  0.00    -0.372 N 
ATOM     31  H7  UNL     1      -6.115  -7.198 -12.295  1.00  0.00     0.161 HD
BRANCH  30  32
HETATM   32  C18 UNL     1      -7.739  -5.971 -12.880  1.00  0.00     0.148 C 
BRANCH  32  33
HETATM   33  C19 UNL     1      -8.177  -5.238 -11.686  1.00  0.00     0.197 C 
BRANCH  33  34
HETATM   34  O3  UNL     1      -7.193  -4.977 -10.762  1.00  0.00    -0.316 OA
BRANCH  34  35
HETATM   35  P1  UNL     1      -7.866  -4.438  -9.255  1.00  0.00     0.329 P 
BRANCH  35  36
HETATM   36  O4  UNL     1      -6.704  -3.369  -8.499  1.00  0.00    -0.328 OA
ATOM     37  H4  UNL     1      -7.059  -3.097  -7.662  1.00  0.00     0.219 HD
ENDBRANCH  35  36
BRANCH  35  38
HETATM   38  O5  UNL     1      -8.181  -5.797  -8.207  1.00  0.00    -0.328 OA
ATOM     39  H5  UNL     1      -8.686  -5.524  -7.451  1.00  0.00     0.219 HD
ENDBRANCH  35  38
ENDBRANCH  34  35
ENDBRANCH  33  34
ENDBRANCH  32  33
ENDBRANCH  30  32
ENDBRANCH   6  30
BRANCH   1  40
HETATM   40  C2  UNL     1     -10.873  -8.995 -14.656  1.00  0.00     0.126 C 
HETATM   41  C1  UNL     1     -11.671  -8.039 -14.258  1.00  0.00     0.033 C 
ENDBRANCH   1  40
TORSDOF 18
ENDMDL
MODEL 5
REMARK VINA RESULT: -6.517563827      2.281      5.773
REMARK  18 active torsions:
REMARK  status: ('A' for Active; 'I' for Inactive)
REMARK    1  A    between atoms: C2_2  and  N1_3 
REMARK    2  A    between atoms: C3_6  and  N3_7 
REMARK    3  A    between atoms: C5_11  and  C6_12 
REMARK    4  A    between atoms: N6_18  and  C10_19 
REMARK    5  A    between atoms: C10_19  and  C11_20 
REMARK    6  A    between atoms: C11_20  and  O1_21 
REMARK    7  A    between atoms: C11_20  and  C12_23 
REMARK    8  A    between atoms: C12_23  and  O2_24 
REMARK    9  A    between atoms: O2_24  and  C13_25 
REMARK   10  A    between atoms: C13_25  and  C14_26 
REMARK   11  A    between atoms: C14_26  and  C15_27 
REMARK   12  A    between atoms: C17_29  and  N7_30 
REMARK   13  A    between atoms: N7_30  and  C18_32 
REMARK   14  A    between atoms: C18_32  and  C19_33 
REMARK   15  A    between atoms: C19_33  and  O3_34 
REMARK   16  A    between atoms: O3_34  and  P1_35 
REMARK   17  A    between atoms: P1_35  and  O4_36 
REMARK   18  A    between atoms: P1_35  and  O5_38 
ROOT
HETATM    1  N1  UNL     1     -10.498  -7.200 -10.989  1.00  0.00    -0.206 N 
HETATM    2  N2  UNL     1      -9.564  -6.960 -11.973  1.00  0.00    -0.264 N 
ATOM      3  H2  UNL     1      -9.730  -6.186 -12.616  1.00  0.00     0.190 HD
HETATM    4  C3  UNL     1      -8.514  -7.645 -12.123  1.00  0.00     0.140 A 
HETATM    5  C5  UNL     1      -8.169  -8.810 -11.227  1.00  0.00     0.099 A 
HETATM    6  C17 UNL     1      -9.153  -9.030 -10.240  1.00  0.00     0.135 A 
HETATM    7  N8  UNL     1     -10.245  -8.239 -10.156  1.00  0.00    -0.264 N 
ATOM      8  H8  UNL     1     -10.922  -8.437  -9.418  1.00  0.00     0.190 HD
ENDROOT
BRANCH   5   9
HETATM    9  C6  UNL     1      -7.143  -9.498 -11.605  1.00  0.00     0.125 A 
HETATM   10  N5  UNL     1      -5.994  -9.368 -10.679  1.00  0.00    -0.351 N 
HETATM   11  C7  UNL     1      -4.923 -10.011 -10.711  1.00  0.00     0.091 A 
ATOM     12  H5  UNL     1      -6.087  -8.678  -9.933  1.00  0.00     0.166 HD
HETATM   13  C8  UNL     1      -4.685 -11.017 -11.722  1.00  0.00     0.034 A 
HETATM   14  C9  UNL     1      -5.658 -11.203 -12.580  1.00  0.00     0.094 A 
HETATM   15  N6  UNL     1      -6.905 -10.482 -12.570  1.00  0.00    -0.340 N 
BRANCH  15  16
HETATM   16  C10 UNL     1      -7.952 -10.983 -13.389  1.00  0.00     0.164 C 
BRANCH  16  17
HETATM   17  C11 UNL     1      -8.860 -12.016 -12.763  1.00  0.00     0.160 C 
BRANCH  17  18
HETATM   18  O1  UNL     1      -8.624 -13.320 -13.038  1.00  0.00    -0.392 OA
ATOM     19  H1  UNL     1      -7.722 -13.596 -13.152  1.00  0.00     0.210 HD
ENDBRANCH  17  18
BRANCH  17  20
HETATM   20  C12 UNL     1     -10.265 -11.533 -12.615  1.00  0.00     0.200 C 
BRANCH  20  21
HETATM   21  O2  UNL     1     -10.916 -11.848 -13.781  1.00  0.00    -0.389 OA
BRANCH  21  22
HETATM   22  C13 UNL     1     -11.442 -10.825 -14.508  1.00  0.00     0.167 C 
BRANCH  22  23
HETATM   23  C14 UNL     1     -11.363  -9.474 -13.834  1.00  0.00     0.026 C 
BRANCH  23  24
HETATM   24  C15 UNL     1     -11.510  -8.339 -14.836  1.00  0.00    -0.002 C 
HETATM   25  C16 UNL     1     -12.221  -8.947 -16.055  1.00  0.00     0.005 C 
ENDBRANCH  23  24
ENDBRANCH  22  23
ENDBRANCH  21  22
ENDBRANCH  20  21
ENDBRANCH  17  20
ENDBRANCH  16  17
ENDBRANCH  15  16
ENDBRANCH   5   9
BRANCH   4  26
HETATM   26  N3  UNL     1      -7.648  -7.265 -13.188  1.00  0.00    -0.339 N 
HETATM   27  C4  UNL     1      -6.922  -6.226 -13.198  1.00  0.00     0.191 C 
HETATM   28  N4  UNL     1      -6.938  -5.348 -12.091  1.00  0.00    -0.097 NA
ATOM     29  H3  UNL     1      -7.609  -7.876 -14.005  1.00  0.00     0.167 HD
ENDBRANCH   4  26
BRANCH   6  30
HETATM   30  N7  UNL     1      -9.358 -10.135  -9.408  1.00  0.00    -0.372 N 
ATOM     31  H7  UNL     1      -8.752 -10.946  -9.540  1.00  0.00     0.161 HD
BRANCH  30  32
HETATM   32  C18 UNL     1     -10.363 -10.212  -8.378  1.00  0.00     0.148 C 
BRANCH  32  33
HETATM   33  C19 UNL     1     -10.082  -9.670  -7.043  1.00  0.00     0.197 C 
BRANCH  33  34
HETATM   34  O3  UNL     1      -9.160 -10.375  -6.305  1.00  0.00    -0.316 OA
BRANCH  34  35
HETATM   35  P1  UNL     1      -7.633  -9.550  -6.245  1.00  0.00     0.329 P 
BRANCH  35  36
HETATM   36  O4  UNL     1      -7.954  -7.832  -6.153  1.00  0.00    -0.328 OA
ATOM     37  H4  UNL     1      -8.326  -7.650  -5.298  1.00  0.00     0.219 HD
ENDBRANCH  35  36
BRANCH  35  38
HETATM   38  O5  UNL     1      -6.696  -9.898  -7.675  1.00  0.00    -0.328 OA
ATOM     39  H5  UNL     1      -5.795 -10.093  -7.443  1.00  0.00     0.219 HD
ENDBRANCH  35  38
ENDBRANCH  34  35
ENDBRANCH  33  34
ENDBRANCH  32  33
ENDBRANCH  30  32
ENDBRANCH   6  30
BRANCH   1  40
HETATM   40  C2  UNL     1     -11.678  -6.386 -10.867  1.00  0.00     0.126 C 
HETATM   41  C1  UNL     1     -12.461  -6.110 -11.876  1.00  0.00     0.033 C 
ENDBRANCH   1  40
TORSDOF 18
ENDMDL
