MODEL 1
REMARK VINA RESULT: -7.499221329      0.000      0.000
REMARK  16 active torsions:
REMARK  status: ('A' for Active; 'I' for Inactive)
REMARK    1  A    between atoms: C2_2  and  C3_3 
REMARK    2  A    between atoms: C3_3  and  C4_4 
REMARK    3  A    between atoms: C4_4  and  N1_5 
REMARK    4  A    between atoms: N1_5  and  C5_7 
REMARK    5  A    between atoms: C5_7  and  N2_8 
REMARK    6  A    between atoms: N2_8  and  C6_10 
REMARK    7  A    between atoms: C6_10  and  C7_11 
REMARK    8  A    between atoms: C7_11  and  O1_12 
REMARK    9  A    between atoms: C8_14  and  C10_16 
REMARK   10  A    between atoms: C12_23  and  N6_24 
REMARK   11  A    between atoms: N6_24  and  C13_26 
REMARK   12  A    between atoms: C13_26  and  C16_34 
REMARK   13  A    between atoms: C14_27  and  C15_28 
REMARK   14  A    between atoms: C15_28  and  P1_29 
REMARK   15  A    between atoms: P1_29  and  O2_30 
REMARK   16  A    between atoms: P1_29  and  O3_32 
ROOT
HETATM    1  C10 UNL     1      -3.460 -11.313  -7.532  1.00  0.00     0.060 A 
HETATM    2  N3  UNL     1      -4.433 -10.640  -8.131  1.00  0.00    -0.278 N 
ATOM      3  H3  UNL     1      -5.123 -10.265  -7.481  1.00  0.00     0.188 HD
HETATM    4  N4  UNL     1      -4.707 -10.342  -9.444  1.00  0.00    -0.080 N 
HETATM    5  C11 UNL     1      -5.887  -9.579  -9.637  1.00  0.00     0.242 A 
HETATM    6  N5  UNL     1      -6.268  -9.227 -10.815  1.00  0.00    -0.185 N 
ATOM      7  H5  UNL     1      -7.124  -8.679 -10.907  1.00  0.00     0.185 HD
HETATM    8  C12 UNL     1      -5.553  -9.566 -11.990  1.00  0.00     0.698 A 
HETATM    9  N7  UNL     1      -4.472 -10.258 -11.873  1.00  0.00    -0.020 N 
ATOM     10  H7  UNL     1      -3.952 -10.507 -12.715  1.00  0.00     0.203 HD
HETATM   11  C17 UNL     1      -3.978 -10.690 -10.608  1.00  0.00     0.718 A 
HETATM   12  N8  UNL     1      -2.884 -11.373 -10.671  1.00  0.00    -0.199 N 
ATOM     13  H8  UNL     1      -2.510 -11.520 -11.609  1.00  0.00     0.183 HD
HETATM   14  C18 UNL     1      -2.131 -11.948  -9.616  1.00  0.00     0.108 A 
HETATM   15  C19 UNL     1      -2.389 -11.913  -8.286  1.00  0.00     0.049 A 
ENDROOT
BRANCH   1  16
HETATM   16  C8  UNL     1      -3.537 -11.399  -6.113  1.00  0.00     0.010 C 
HETATM   17  C5  UNL     1      -3.217 -12.305  -5.273  1.00  0.00     0.105 C 
HETATM   18  C9  UNL     1      -4.135 -10.138  -5.455  1.00  0.00     0.054 C 
BRANCH  17  19
HETATM   19  N1  UNL     1      -3.467 -11.997  -3.857  1.00  0.00    -0.376 N 
ATOM     20  H1  UNL     1      -4.341 -11.556  -3.567  1.00  0.00     0.161 HD
BRANCH  19  21
HETATM   21  C4  UNL     1      -2.470 -12.324  -2.902  1.00  0.00     0.121 C 
BRANCH  21  22
HETATM   22  C3  UNL     1      -1.369 -11.294  -2.866  1.00  0.00     0.019 C 
BRANCH  22  23
HETATM   23  C2  UNL     1      -1.985  -9.957  -2.538  1.00  0.00    -0.003 C 
HETATM   24  C1  UNL     1      -1.661  -9.585  -1.111  1.00  0.00     0.005 C 
ENDBRANCH  22  23
ENDBRANCH  21  22
ENDBRANCH  19  21
ENDBRANCH  17  19
BRANCH  17  25
HETATM   25  N2  UNL     1      -2.651 -13.571  -5.513  1.00  0.00    -0.374 N 
ATOM     26  H2  UNL     1      -1.640 -13.663  -5.609  1.00  0.00     0.161 HD
BRANCH  25  27
HETATM   27  C6  UNL     1      -3.499 -14.755  -5.625  1.00  0.00     0.147 C 
BRANCH  27  28
HETATM   28  C7  UNL     1      -2.833 -15.837  -6.424  1.00  0.00     0.183 C 
BRANCH  28  29
HETATM   29  O1  UNL     1      -2.750 -15.526  -7.781  1.00  0.00    -0.399 OA
ATOM     30  H1  UNL     1      -2.018 -14.954  -7.980  1.00  0.00     0.209 HD
ENDBRANCH  28  29
ENDBRANCH  27  28
ENDBRANCH  25  27
ENDBRANCH  17  25
ENDBRANCH   1  16
BRANCH   8  31
HETATM   31  N6  UNL     1      -6.021  -9.147 -13.288  1.00  0.00    -0.185 N 
ATOM     32  H6  UNL     1      -5.415  -9.273 -14.099  1.00  0.00     0.184 HD
BRANCH  31  33
HETATM   33  C13 UNL     1      -7.299  -8.565 -13.465  1.00  0.00     0.122 C 
HETATM   34  C14 UNL     1      -8.300  -9.342 -13.817  1.00  0.00     0.019 C 
BRANCH  34  35
HETATM   35  C15 UNL     1      -8.100 -10.788 -14.023  1.00  0.00     0.122 C 
BRANCH  35  36
HETATM   36  P1  UNL     1      -9.290 -11.806 -13.026  1.00  0.00     0.166 P 
BRANCH  36  37
HETATM   37  O2  UNL     1     -10.871 -11.791 -13.743  1.00  0.00    -0.349 OA
ATOM     38  H2  UNL     1     -11.407 -12.494 -13.397  1.00  0.00     0.217 HD
ENDBRANCH  36  37
BRANCH  36  39
HETATM   39  O3  UNL     1      -8.703 -13.425 -12.815  1.00  0.00    -0.349 OA
ATOM     40  H3  UNL     1      -9.307 -13.942 -12.296  1.00  0.00     0.217 HD
ENDBRANCH  36  39
ENDBRANCH  35  36
ENDBRANCH  34  35
BRANCH  33  41
HETATM   41  C16 UNL     1      -7.487  -7.123 -13.256  1.00  0.00     0.227 C 
HETATM   42  O4  UNL     1      -7.749  -6.399 -14.230  1.00  0.00    -0.643 OA
HETATM   43  O5  UNL     1      -7.366  -6.614 -11.977  1.00  0.00    -0.643 OA
ENDBRANCH  33  41
ENDBRANCH  31  33
ENDBRANCH   8  31
TORSDOF 16
ENDMDL
MODEL 2
REMARK VINA RESULT: -7.427149382      1.617      2.734
REMARK  16 active torsions:
REMARK  status: ('A' for Active; 'I' for Inactive)
REMARK    1  A    between atoms: C2_2  and  C3_3 
REMARK    2  A    between atoms: C3_3  and  C4_4 
REMARK    3  A    between atoms: C4_4  and  N1_5 
REMARK    4  A    between atoms: N1_5  and  C5_7 
REMARK    5  A    between atoms: C5_7  and  N2_8 
REMARK    6  A    between atoms: N2_8  and  C6_10 
REMARK    7  A    between atoms: C6_10  and  C7_11 
REMARK    8  A    between atoms: C7_11  and  O1_12 
REMARK    9  A    between atoms: C8_14  and  C10_16 
REMARK   10  A    between atoms: C12_23  and  N6_24 
REMARK   11  A    between atoms: N6_24  and  C13_26 
REMARK   12  A    between atoms: C13_26  and  C16_34 
REMARK   13  A    between atoms: C14_27  and  C15_28 
REMARK   14  A    between atoms: C15_28  and  P1_29 
REMARK   15  A    between atoms: P1_29  and  O2_30 
REMARK   16  A    between atoms: P1_29  and  O3_32 
ROOT
HETATM    1  C10 UNL     1      -3.239 -11.443  -7.947  1.00  0.00     0.060 A 
HETATM    2  N3  UNL     1      -4.254 -10.725  -8.409  1.00  0.00    -0.278 N 
ATOM      3  H3  UNL     1      -4.877 -10.389  -7.675  1.00  0.00     0.188 HD
HETATM    4  N4  UNL     1      -4.642 -10.338  -9.669  1.00  0.00    -0.080 N 
HETATM    5  C11 UNL     1      -5.825  -9.556  -9.702  1.00  0.00     0.242 A 
HETATM    6  N5  UNL     1      -6.307  -9.124 -10.815  1.00  0.00    -0.185 N 
ATOM      7  H5  UNL     1      -7.160  -8.565 -10.791  1.00  0.00     0.185 HD
HETATM    8  C12 UNL     1      -5.707  -9.387 -12.070  1.00  0.00     0.698 A 
HETATM    9  N7  UNL     1      -4.628 -10.094 -12.098  1.00  0.00    -0.020 N 
ATOM     10  H7  UNL     1      -4.191 -10.289 -12.999  1.00  0.00     0.203 HD
HETATM   11  C17 UNL     1      -4.027 -10.612 -10.915  1.00  0.00     0.718 A 
HETATM   12  N8  UNL     1      -2.952 -11.297 -11.123  1.00  0.00    -0.199 N 
ATOM     13  H8  UNL     1      -2.668 -11.383 -12.100  1.00  0.00     0.183 HD
HETATM   14  C18 UNL     1      -2.114 -11.947 -10.182  1.00  0.00     0.108 A 
HETATM   15  C19 UNL     1      -2.248 -11.999  -8.835  1.00  0.00     0.049 A 
ENDROOT
BRANCH   1  16
HETATM   16  C8  UNL     1      -3.187 -11.624  -6.537  1.00  0.00     0.010 C 
HETATM   17  C5  UNL     1      -2.572 -12.449  -5.782  1.00  0.00     0.105 C 
HETATM   18  C9  UNL     1      -4.058 -10.615  -5.759  1.00  0.00     0.054 C 
BRANCH  17  19
HETATM   19  N1  UNL     1      -2.795 -12.299  -4.337  1.00  0.00    -0.376 N 
ATOM     20  H1  UNL     1      -3.736 -12.358  -3.946  1.00  0.00     0.161 HD
BRANCH  19  21
HETATM   21  C4  UNL     1      -1.676 -12.070  -3.495  1.00  0.00     0.121 C 
BRANCH  21  22
HETATM   22  C3  UNL     1      -2.058 -11.322  -2.243  1.00  0.00     0.019 C 
BRANCH  22  23
HETATM   23  C2  UNL     1      -1.985  -9.844  -2.538  1.00  0.00    -0.003 C 
HETATM   24  C1  UNL     1      -3.301  -9.192  -2.189  1.00  0.00     0.005 C 
ENDBRANCH  22  23
ENDBRANCH  21  22
ENDBRANCH  19  21
ENDBRANCH  17  19
BRANCH  17  25
HETATM   25  N2  UNL     1      -1.701 -13.494  -6.142  1.00  0.00    -0.374 N 
ATOM     26  H2  UNL     1      -0.877 -13.293  -6.709  1.00  0.00     0.161 HD
BRANCH  25  27
HETATM   27  C6  UNL     1      -1.965 -14.864  -5.710  1.00  0.00     0.147 C 
BRANCH  27  28
HETATM   28  C7  UNL     1      -3.016 -15.517  -6.561  1.00  0.00     0.183 C 
BRANCH  28  29
HETATM   29  O1  UNL     1      -2.695 -15.496  -7.918  1.00  0.00    -0.399 OA
ATOM     30  H1  UNL     1      -2.576 -16.367  -8.278  1.00  0.00     0.209 HD
ENDBRANCH  28  29
ENDBRANCH  27  28
ENDBRANCH  25  27
ENDBRANCH  17  25
ENDBRANCH   1  16
BRANCH   8  31
HETATM   31  N6  UNL     1      -6.285  -8.880 -13.289  1.00  0.00    -0.185 N 
ATOM     32  H6  UNL     1      -5.671  -8.633 -14.065  1.00  0.00     0.184 HD
BRANCH  31  33
HETATM   33  C13 UNL     1      -7.683  -8.715 -13.435  1.00  0.00     0.122 C 
HETATM   34  C14 UNL     1      -8.171  -7.494 -13.480  1.00  0.00     0.019 C 
BRANCH  34  35
HETATM   35  C15 UNL     1      -7.284  -6.320 -13.381  1.00  0.00     0.122 C 
BRANCH  35  36
HETATM   36  P1  UNL     1      -7.644  -5.299 -11.873  1.00  0.00     0.166 P 
BRANCH  36  37
HETATM   37  O2  UNL     1      -9.123  -4.412 -12.063  1.00  0.00    -0.349 OA
ATOM     38  H2  UNL     1      -9.348  -3.950 -11.264  1.00  0.00     0.217 HD
ENDBRANCH  36  37
BRANCH  36  39
HETATM   39  O3  UNL     1      -7.672  -6.284 -10.445  1.00  0.00    -0.349 OA
ATOM     40  H3  UNL     1      -7.202  -5.865  -9.733  1.00  0.00     0.217 HD
ENDBRANCH  36  39
ENDBRANCH  35  36
ENDBRANCH  34  35
BRANCH  33  41
HETATM   41  C16 UNL     1      -8.558  -9.891 -13.533  1.00  0.00     0.227 C 
HETATM   42  O4  UNL     1      -9.294 -10.017 -14.525  1.00  0.00    -0.643 OA
HETATM   43  O5  UNL     1      -8.535 -10.824 -12.514  1.00  0.00    -0.643 OA
ENDBRANCH  33  41
ENDBRANCH  31  33
ENDBRANCH   8  31
TORSDOF 16
ENDMDL
MODEL 3
REMARK VINA RESULT: -7.248482441      1.006      1.140
REMARK  16 active torsions:
REMARK  status: ('A' for Active; 'I' for Inactive)
REMARK    1  A    between atoms: C2_2  and  C3_3 
REMARK    2  A    between atoms: C3_3  and  C4_4 
REMARK    3  A    between atoms: C4_4  and  N1_5 
REMARK    4  A    between atoms: N1_5  and  C5_7 
REMARK    5  A    between atoms: C5_7  and  N2_8 
REMARK    6  A    between atoms: N2_8  and  C6_10 
REMARK    7  A    between atoms: C6_10  and  C7_11 
REMARK    8  A    between atoms: C7_11  and  O1_12 
REMARK    9  A    between atoms: C8_14  and  C10_16 
REMARK   10  A    between atoms: C12_23  and  N6_24 
REMARK   11  A    between atoms: N6_24  and  C13_26 
REMARK   12  A    between atoms: C13_26  and  C16_34 
REMARK   13  A    between atoms: C14_27  and  C15_28 
REMARK   14  A    between atoms: C15_28  and  P1_29 
REMARK   15  A    between atoms: P1_29  and  O2_30 
REMARK   16  A    between atoms: P1_29  and  O3_32 
ROOT
HETATM    1  C10 UNL     1      -3.393 -11.316  -8.040  1.00  0.00     0.060 A 
HETATM    2  N3  UNL     1      -4.431 -10.624  -8.491  1.00  0.00    -0.278 N 
ATOM      3  H3  UNL     1      -5.051 -10.299  -7.749  1.00  0.00     0.188 HD
HETATM    4  N4  UNL     1      -4.846 -10.253  -9.747  1.00  0.00    -0.080 N 
HETATM    5  C11 UNL     1      -6.047  -9.498  -9.766  1.00  0.00     0.242 A 
HETATM    6  N5  UNL     1      -6.555  -9.083 -10.873  1.00  0.00    -0.185 N 
ATOM      7  H5  UNL     1      -7.421  -8.543 -10.840  1.00  0.00     0.185 HD
HETATM    8  C12 UNL     1      -5.967  -9.339 -12.136  1.00  0.00     0.698 A 
HETATM    9  N7  UNL     1      -4.873 -10.021 -12.177  1.00  0.00    -0.020 N 
ATOM     10  H7  UNL     1      -4.445 -10.211 -13.083  1.00  0.00     0.203 HD
HETATM   11  C17 UNL     1      -4.243 -10.519 -11.000  1.00  0.00     0.718 A 
HETATM   12  N8  UNL     1      -3.156 -11.181 -11.221  1.00  0.00    -0.199 N 
ATOM     13  H8  UNL     1      -2.884 -11.265 -12.200  1.00  0.00     0.183 HD
HETATM   14  C18 UNL     1      -2.289 -11.805 -10.288  1.00  0.00     0.108 A 
HETATM   15  C19 UNL     1      -2.403 -11.854  -8.940  1.00  0.00     0.049 A 
ENDROOT
BRANCH   1  16
HETATM   16  C8  UNL     1      -3.316 -11.488  -6.629  1.00  0.00     0.010 C 
HETATM   17  C5  UNL     1      -2.706 -12.323  -5.882  1.00  0.00     0.105 C 
HETATM   18  C9  UNL     1      -4.146 -10.453  -5.841  1.00  0.00     0.054 C 
BRANCH  17  19
HETATM   19  N1  UNL     1      -2.896 -12.158  -4.433  1.00  0.00    -0.376 N 
ATOM     20  H1  UNL     1      -3.826 -12.218  -4.019  1.00  0.00     0.161 HD
BRANCH  19  21
HETATM   21  C4  UNL     1      -1.758 -11.912  -3.621  1.00  0.00     0.121 C 
BRANCH  21  22
HETATM   22  C3  UNL     1      -2.125 -11.212  -2.337  1.00  0.00     0.019 C 
BRANCH  22  23
HETATM   23  C2  UNL     1      -2.402  -9.763  -2.653  1.00  0.00    -0.003 C 
HETATM   24  C1  UNL     1      -2.483  -8.971  -1.370  1.00  0.00     0.005 C 
ENDBRANCH  22  23
ENDBRANCH  21  22
ENDBRANCH  19  21
ENDBRANCH  17  19
BRANCH  17  25
HETATM   25  N2  UNL     1      -1.869 -13.392  -6.251  1.00  0.00    -0.374 N 
ATOM     26  H2  UNL     1      -1.106 -13.232  -6.910  1.00  0.00     0.161 HD
BRANCH  25  27
HETATM   27  C6  UNL     1      -2.080 -14.728  -5.700  1.00  0.00     0.147 C 
BRANCH  27  28
HETATM   28  C7  UNL     1      -3.043 -15.522  -6.535  1.00  0.00     0.183 C 
BRANCH  28  29
HETATM   29  O1  UNL     1      -2.726 -15.489  -7.893  1.00  0.00    -0.399 OA
ATOM     30  H1  UNL     1      -3.450 -15.185  -8.429  1.00  0.00     0.209 HD
ENDBRANCH  28  29
ENDBRANCH  27  28
ENDBRANCH  25  27
ENDBRANCH  17  25
ENDBRANCH   1  16
BRANCH   8  31
HETATM   31  N6  UNL     1      -6.575  -8.851 -13.349  1.00  0.00    -0.185 N 
ATOM     32  H6  UNL     1      -6.221  -9.178 -14.248  1.00  0.00     0.184 HD
BRANCH  31  33
HETATM   33  C13 UNL     1      -7.650  -7.931 -13.323  1.00  0.00     0.122 C 
HETATM   34  C14 UNL     1      -8.872  -8.386 -13.501  1.00  0.00     0.019 C 
BRANCH  34  35
HETATM   35  C15 UNL     1      -9.119  -9.823 -13.722  1.00  0.00     0.122 C 
BRANCH  35  36
HETATM   36  P1  UNL     1     -10.895 -10.167 -14.142  1.00  0.00     0.166 P 
BRANCH  36  37
HETATM   37  O2  UNL     1     -11.269  -9.629 -15.748  1.00  0.00    -0.349 OA
ATOM     38  H2  UNL     1     -11.771  -8.823 -15.728  1.00  0.00     0.217 HD
ENDBRANCH  36  37
BRANCH  36  39
HETATM   39  O3  UNL     1     -11.271 -11.848 -13.931  1.00  0.00    -0.349 OA
ATOM     40  H3  UNL     1     -12.193 -11.970 -13.737  1.00  0.00     0.217 HD
ENDBRANCH  36  39
ENDBRANCH  35  36
ENDBRANCH  34  35
BRANCH  33  41
HETATM   41  C16 UNL     1      -7.392  -6.502 -13.101  1.00  0.00     0.227 C 
HETATM   42  O4  UNL     1      -7.452  -5.719 -14.062  1.00  0.00    -0.643 OA
HETATM   43  O5  UNL     1      -7.088  -6.071 -11.823  1.00  0.00    -0.643 OA
ENDBRANCH  33  41
ENDBRANCH  31  33
ENDBRANCH   8  31
TORSDOF 16
ENDMDL
MODEL 4
REMARK VINA RESULT: -7.237249064      6.293      9.206
REMARK  16 active torsions:
REMARK  status: ('A' for Active; 'I' for Inactive)
REMARK    1  A    between atoms: C2_2  and  C3_3 
REMARK    2  A    between atoms: C3_3  and  C4_4 
REMARK    3  A    between atoms: C4_4  and  N1_5 
REMARK    4  A    between atoms: N1_5  and  C5_7 
REMARK    5  A    between atoms: C5_7  and  N2_8 
REMARK    6  A    between atoms: N2_8  and  C6_10 
REMARK    7  A    between atoms: C6_10  and  C7_11 
REMARK    8  A    between atoms: C7_11  and  O1_12 
REMARK    9  A    between atoms: C8_14  and  C10_16 
REMARK   10  A    between atoms: C12_23  and  N6_24 
REMARK   11  A    between atoms: N6_24  and  C13_26 
REMARK   12  A    between atoms: C13_26  and  C16_34 
REMARK   13  A    between atoms: C14_27  and  C15_28 
REMARK   14  A    between atoms: C15_28  and  P1_29 
REMARK   15  A    between atoms: P1_29  and  O2_30 
REMARK   16  A    between atoms: P1_29  and  O3_32 
ROOT
HETATM    1  C10 UNL     1      -8.884  -8.726 -12.771  1.00  0.00     0.060 A 
HETATM    2  N3  UNL     1      -9.747  -8.618 -13.772  1.00  0.00    -0.278 N 
ATOM      3  H3  UNL     1      -9.431  -9.074 -14.628  1.00  0.00     0.188 HD
HETATM    4  N4  UNL     1     -10.978  -8.022 -13.898  1.00  0.00    -0.080 N 
HETATM    5  C11 UNL     1     -11.563  -8.154 -15.184  1.00  0.00     0.242 A 
HETATM    6  N5  UNL     1     -12.715  -7.644 -15.448  1.00  0.00    -0.185 N 
ATOM      7  H5  UNL     1     -13.097  -7.763 -16.387  1.00  0.00     0.185 HD
HETATM    8  C12 UNL     1     -13.477  -6.926 -14.495  1.00  0.00     0.698 A 
HETATM    9  N7  UNL     1     -12.993  -6.776 -13.308  1.00  0.00    -0.020 N 
ATOM     10  H7  UNL     1     -13.536  -6.259 -12.617  1.00  0.00     0.203 HD
HETATM   11  C17 UNL     1     -11.726  -7.307 -12.931  1.00  0.00     0.718 A 
HETATM   12  N8  UNL     1     -11.394  -7.065 -11.707  1.00  0.00    -0.199 N 
ATOM     13  H8  UNL     1     -12.072  -6.529 -11.165  1.00  0.00     0.183 HD
HETATM   14  C18 UNL     1     -10.216  -7.443 -11.013  1.00  0.00     0.108 A 
HETATM   15  C19 UNL     1      -9.158  -8.149 -11.479  1.00  0.00     0.049 A 
ENDROOT
BRANCH   1  16
HETATM   16  C8  UNL     1      -7.686  -9.443 -13.048  1.00  0.00     0.010 C 
HETATM   17  C5  UNL     1      -7.439 -10.668 -13.306  1.00  0.00     0.105 C 
HETATM   18  C9  UNL     1      -6.423  -8.555 -13.028  1.00  0.00     0.054 C 
BRANCH  17  19
HETATM   19  N1  UNL     1      -6.028 -11.013 -13.534  1.00  0.00    -0.376 N 
ATOM     20  H1  UNL     1      -5.558 -10.741 -14.398  1.00  0.00     0.161 HD
BRANCH  19  21
HETATM   21  C4  UNL     1      -5.332 -11.732 -12.528  1.00  0.00     0.121 C 
BRANCH  21  22
HETATM   22  C3  UNL     1      -3.921 -11.229 -12.354  1.00  0.00     0.019 C 
BRANCH  22  23
HETATM   23  C2  UNL     1      -2.975 -12.367 -12.645  1.00  0.00    -0.003 C 
HETATM   24  C1  UNL     1      -1.801 -11.859 -13.447  1.00  0.00     0.005 C 
ENDBRANCH  22  23
ENDBRANCH  21  22
ENDBRANCH  19  21
ENDBRANCH  17  19
BRANCH  17  25
HETATM   25  N2  UNL     1      -8.336 -11.748 -13.404  1.00  0.00    -0.374 N 
ATOM     26  H2  UNL     1      -8.446 -12.234 -14.293  1.00  0.00     0.161 HD
BRANCH  25  27
HETATM   27  C6  UNL     1      -9.111 -12.178 -12.243  1.00  0.00     0.147 C 
BRANCH  27  28
HETATM   28  C7  UNL     1      -8.592 -13.470 -11.681  1.00  0.00     0.183 C 
BRANCH  28  29
HETATM   29  O1  UNL     1      -8.258 -14.389 -12.676  1.00  0.00    -0.399 OA
ATOM     30  H1  UNL     1      -7.381 -14.740 -12.568  1.00  0.00     0.209 HD
ENDBRANCH  28  29
ENDBRANCH  27  28
ENDBRANCH  25  27
ENDBRANCH  17  25
ENDBRANCH   1  16
BRANCH   8  31
HETATM   31  N6  UNL     1     -14.764  -6.374 -14.839  1.00  0.00    -0.185 N 
ATOM     32  H6  UNL     1     -15.511  -7.003 -15.134  1.00  0.00     0.184 HD
BRANCH  31  33
HETATM   33  C13 UNL     1     -15.016  -4.983 -14.777  1.00  0.00     0.122 C 
HETATM   34  C14 UNL     1     -15.263  -4.339 -15.897  1.00  0.00     0.019 C 
BRANCH  34  35
HETATM   35  C15 UNL     1     -15.277  -5.047 -17.190  1.00  0.00     0.122 C 
BRANCH  35  36
HETATM   36  P1  UNL     1     -14.537  -4.025 -18.553  1.00  0.00     0.166 P 
BRANCH  36  37
HETATM   37  O2  UNL     1     -14.527  -2.342 -18.131  1.00  0.00    -0.349 OA
ATOM     38  H2  UNL     1     -15.274  -1.892 -18.508  1.00  0.00     0.217 HD
ENDBRANCH  36  37
BRANCH  36  39
HETATM   39  O3  UNL     1     -12.948  -4.588 -18.963  1.00  0.00    -0.349 OA
ATOM     40  H3  UNL     1     -12.982  -5.223 -19.669  1.00  0.00     0.217 HD
ENDBRANCH  36  39
ENDBRANCH  35  36
ENDBRANCH  34  35
BRANCH  33  41
HETATM   41  C16 UNL     1     -15.000  -4.288 -13.483  1.00  0.00     0.227 C 
HETATM   42  O4  UNL     1     -16.061  -4.164 -12.849  1.00  0.00    -0.643 OA
HETATM   43  O5  UNL     1     -13.802  -3.790 -13.010  1.00  0.00    -0.643 OA
ENDBRANCH  33  41
ENDBRANCH  31  33
ENDBRANCH   8  31
TORSDOF 16
ENDMDL
MODEL 5
REMARK VINA RESULT: -7.121171699      3.464      9.086
REMARK  16 active torsions:
REMARK  status: ('A' for Active; 'I' for Inactive)
REMARK    1  A    between atoms: C2_2  and  C3_3 
REMARK    2  A    between atoms: C3_3  and  C4_4 
REMARK    3  A    between atoms: C4_4  and  N1_5 
REMARK    4  A    between atoms: N1_5  and  C5_7 
REMARK    5  A    between atoms: C5_7  and  N2_8 
REMARK    6  A    between atoms: N2_8  and  C6_10 
REMARK    7  A    between atoms: C6_10  and  C7_11 
REMARK    8  A    between atoms: C7_11  and  O1_12 
REMARK    9  A    between atoms: C8_14  and  C10_16 
REMARK   10  A    between atoms: C12_23  and  N6_24 
REMARK   11  A    between atoms: N6_24  and  C13_26 
REMARK   12  A    between atoms: C13_26  and  C16_34 
REMARK   13  A    between atoms: C14_27  and  C15_28 
REMARK   14  A    between atoms: C15_28  and  P1_29 
REMARK   15  A    between atoms: P1_29  and  O2_30 
REMARK   16  A    between atoms: P1_29  and  O3_32 
ROOT
HETATM    1  C10 UNL     1      -5.269 -10.311 -11.279  1.00  0.00     0.060 A 
HETATM    2  N3  UNL     1      -5.772 -10.130 -10.065  1.00  0.00    -0.278 N 
ATOM      3  H3  UNL     1      -6.740  -9.810 -10.073  1.00  0.00     0.188 HD
HETATM    4  N4  UNL     1      -5.262 -10.282  -8.798  1.00  0.00    -0.080 N 
HETATM    5  C11 UNL     1      -6.175  -9.965  -7.759  1.00  0.00     0.242 A 
HETATM    6  N5  UNL     1      -5.834 -10.061  -6.521  1.00  0.00    -0.185 N 
ATOM      7  H5  UNL     1      -6.523  -9.822  -5.807  1.00  0.00     0.185 HD
HETATM    8  C12 UNL     1      -4.548 -10.483  -6.105  1.00  0.00     0.698 A 
HETATM    9  N7  UNL     1      -3.678 -10.784  -7.009  1.00  0.00    -0.020 N 
ATOM     10  H7  UNL     1      -2.749 -11.088  -6.717  1.00  0.00     0.203 HD
HETATM   11  C17 UNL     1      -3.971 -10.706  -8.401  1.00  0.00     0.718 A 
HETATM   12  N8  UNL     1      -2.988 -11.043  -9.168  1.00  0.00    -0.199 N 
ATOM     13  H8  UNL     1      -2.131 -11.321  -8.689  1.00  0.00     0.183 HD
HETATM   14  C18 UNL     1      -2.936 -11.080 -10.585  1.00  0.00     0.108 A 
HETATM   15  C19 UNL     1      -3.914 -10.767 -11.468  1.00  0.00     0.049 A 
ENDROOT
BRANCH   1  16
HETATM   16  C8  UNL     1      -6.142 -10.037 -12.369  1.00  0.00     0.010 C 
HETATM   17  C5  UNL     1      -7.027 -10.727 -12.976  1.00  0.00     0.105 C 
HETATM   18  C9  UNL     1      -5.982  -8.610 -12.936  1.00  0.00     0.054 C 
BRANCH  17  19
HETATM   19  N1  UNL     1      -7.724 -10.059 -14.085  1.00  0.00    -0.376 N 
ATOM     20  H1  UNL     1      -7.199  -9.602 -14.830  1.00  0.00     0.161 HD
BRANCH  19  21
HETATM   21  C4  UNL     1      -9.143 -10.062 -14.097  1.00  0.00     0.121 C 
BRANCH  21  22
HETATM   22  C3  UNL     1      -9.716  -9.211 -12.993  1.00  0.00     0.019 C 
BRANCH  22  23
HETATM   23  C2  UNL     1     -10.945  -9.902 -12.456  1.00  0.00    -0.003 C 
HETATM   24  C1  UNL     1     -11.266 -11.104 -13.311  1.00  0.00     0.005 C 
ENDBRANCH  22  23
ENDBRANCH  21  22
ENDBRANCH  19  21
ENDBRANCH  17  19
BRANCH  17  25
HETATM   25  N2  UNL     1      -7.434 -12.051 -12.732  1.00  0.00    -0.374 N 
ATOM     26  H2  UNL     1      -7.178 -12.788 -13.389  1.00  0.00     0.161 HD
BRANCH  25  27
HETATM   27  C6  UNL     1      -8.221 -12.381 -11.546  1.00  0.00     0.147 C 
BRANCH  27  28
HETATM   28  C7  UNL     1      -8.678 -13.811 -11.567  1.00  0.00     0.183 C 
BRANCH  28  29
HETATM   29  O1  UNL     1      -8.206 -14.506 -12.681  1.00  0.00    -0.399 OA
ATOM     30  H1  UNL     1      -7.335 -14.862 -12.545  1.00  0.00     0.209 HD
ENDBRANCH  28  29
ENDBRANCH  27  28
ENDBRANCH  25  27
ENDBRANCH  17  25
ENDBRANCH   1  16
BRANCH   8  31
HETATM   31  N6  UNL     1      -4.215 -10.575  -4.706  1.00  0.00    -0.185 N 
ATOM     32  H6  UNL     1      -3.762  -9.782  -4.250  1.00  0.00     0.184 HD
BRANCH  31  33
HETATM   33  C13 UNL     1      -4.501 -11.736  -3.949  1.00  0.00     0.122 C 
HETATM   34  C14 UNL     1      -3.505 -12.524  -3.605  1.00  0.00     0.019 C 
BRANCH  34  35
HETATM   35  C15 UNL     1      -2.120 -12.207  -3.998  1.00  0.00     0.122 C 
BRANCH  35  36
HETATM   36  P1  UNL     1      -1.486 -13.359  -5.309  1.00  0.00     0.166 P 
BRANCH  36  37
HETATM   37  O2  UNL     1      -1.346 -12.546  -6.835  1.00  0.00    -0.349 OA
ATOM     38  H2  UNL     1      -0.502 -12.118  -6.916  1.00  0.00     0.217 HD
ENDBRANCH  36  37
BRANCH  36  39
HETATM   39  O3  UNL     1       0.019 -14.080  -4.831  1.00  0.00    -0.349 OA
ATOM     40  H3  UNL     1       0.449 -14.493  -5.571  1.00  0.00     0.217 HD
ENDBRANCH  36  39
ENDBRANCH  35  36
ENDBRANCH  34  35
BRANCH  33  41
HETATM   41  C16 UNL     1      -5.885 -12.041  -3.563  1.00  0.00     0.227 C 
HETATM   42  O4  UNL     1      -6.750 -11.155  -3.658  1.00  0.00    -0.643 OA
HETATM   43  O5  UNL     1      -6.184 -13.310  -3.103  1.00  0.00    -0.643 OA
ENDBRANCH  33  41
ENDBRANCH  31  33
ENDBRANCH   8  31
TORSDOF 16
ENDMDL
