MODEL 1
REMARK VINA RESULT: -6.706030485      0.000      0.000
REMARK  7 active torsions:
REMARK  status: ('A' for Active; 'I' for Inactive)
REMARK       I    between atoms: C1_4  and  N3_6 
REMARK    1  A    between atoms: C3_11  and  C4_12 
REMARK    2  A    between atoms: C4_12  and  O1_13 
REMARK    3  A    between atoms: C4_12  and  N5_15 
REMARK    4  A    between atoms: N5_15  and  N6_16 
REMARK    5  A    between atoms: C7_22  and  C8_23 
REMARK    6  A    between atoms: C8_23  and  C9_24 
REMARK    7  A    between atoms: C9_24  and  C10_26 
ROOT
HETATM    1  N1  UNL     1       8.023 -11.922   7.944  1.00  0.00    -0.373 N 
ATOM      2  H11 UNL     1       8.173 -12.804   8.434  1.00  0.00     0.158 HD
ATOM      3  H12 UNL     1       8.348 -11.853   6.980  1.00  0.00     0.158 HD
HETATM    4  C1  UNL     1       7.448 -10.932   8.510  1.00  0.00     0.200 C 
HETATM    5  N2  UNL     1       7.237  -9.696   7.824  1.00  0.00    -0.063 NA
HETATM    6  N3  UNL     1       7.001 -11.026   9.837  1.00  0.00    -0.164 N 
ATOM      7  H3  UNL     1       7.670 -10.802  10.573  1.00  0.00     0.187 HD
HETATM    8  C2  UNL     1       5.829 -11.368  10.198  1.00  0.00     0.685 A 
HETATM    9  N4  UNL     1       4.809 -11.705   9.279  1.00  0.00    -0.187 N 
ATOM     10  H4  UNL     1       5.032 -11.668   8.284  1.00  0.00     0.184 HD
HETATM   11  C3  UNL     1       3.633 -12.050   9.613  1.00  0.00     0.124 A 
HETATM   12  C5  UNL     1       3.294 -12.109  11.009  1.00  0.00     0.225 A 
HETATM   13  O2  UNL     1       2.138 -12.448  11.362  1.00  0.00    -0.284 OA
HETATM   14  C6  UNL     1       4.266 -11.783  12.080  1.00  0.00     0.098 A 
HETATM   15  C7  UNL     1       3.909 -11.850  13.341  1.00  0.00     0.015 C 
HETATM   16  N8  UNL     1       5.550 -11.409  11.613  1.00  0.00    -0.188 N 
ATOM     17  H8  UNL     1       6.282 -11.167  12.281  1.00  0.00     0.184 HD
ENDROOT
BRANCH  11  18
HETATM   18  C4  UNL     1       2.643 -12.383   8.544  1.00  0.00     0.285 C 
BRANCH  18  19
HETATM   19  O1  UNL     1       2.362 -11.224   7.830  1.00  0.00    -0.372 OA
ATOM     20  H1  UNL     1       1.542 -10.866   8.149  1.00  0.00     0.212 HD
ENDBRANCH  18  19
BRANCH  18  21
HETATM   21  N5  UNL     1       3.149 -13.450   7.692  1.00  0.00    -0.110 NA
BRANCH  21  22
HETATM   22  N6  UNL     1       2.627 -14.668   8.089  1.00  0.00    -0.346 N 
ATOM     23  H62 UNL     1       2.751 -15.068   9.019  1.00  0.00     0.172 HD
ATOM     24  H61 UNL     1       2.107 -15.097   7.323  1.00  0.00     0.172 HD
ENDBRANCH  21  22
ENDBRANCH  18  21
ENDBRANCH  11  18
BRANCH  15  25
HETATM   25  C8  UNL     1       4.794 -11.548  14.471  1.00  0.00     0.118 C 
BRANCH  25  26
HETATM   26  C9  UNL     1       5.287 -12.802  15.137  1.00  0.00     0.217 C 
HETATM   27  O3  UNL     1       6.247 -13.389  14.598  1.00  0.00    -0.287 OA
BRANCH  26  28
HETATM   28  C10 UNL     1       4.659 -13.286  16.345  1.00  0.00     0.300 C 
HETATM   29  N7  UNL     1       5.379 -13.330  17.561  1.00  0.00    -0.054 NA
HETATM   30  O4  UNL     1       3.475 -13.669  16.325  1.00  0.00    -0.268 OA
ENDBRANCH  26  28
ENDBRANCH  25  26
ENDBRANCH  15  25
TORSDOF 7
ENDMDL
MODEL 2
REMARK VINA RESULT: -6.683590536      1.986      3.594
REMARK  7 active torsions:
REMARK  status: ('A' for Active; 'I' for Inactive)
REMARK       I    between atoms: C1_4  and  N3_6 
REMARK    1  A    between atoms: C3_11  and  C4_12 
REMARK    2  A    between atoms: C4_12  and  O1_13 
REMARK    3  A    between atoms: C4_12  and  N5_15 
REMARK    4  A    between atoms: N5_15  and  N6_16 
REMARK    5  A    between atoms: C7_22  and  C8_23 
REMARK    6  A    between atoms: C8_23  and  C9_24 
REMARK    7  A    between atoms: C9_24  and  C10_26 
ROOT
HETATM    1  N1  UNL     1       1.202 -12.925   8.185  1.00  0.00    -0.373 N 
ATOM      2  H11 UNL     1       0.820 -12.068   8.584  1.00  0.00     0.158 HD
ATOM      3  H12 UNL     1       0.893 -13.193   7.250  1.00  0.00     0.158 HD
HETATM    4  C1  UNL     1       2.041 -13.644   8.825  1.00  0.00     0.200 C 
HETATM    5  N2  UNL     1       2.578 -14.845   8.266  1.00  0.00    -0.063 NA
HETATM    6  N3  UNL     1       2.467 -13.276  10.110  1.00  0.00    -0.164 N 
ATOM      7  H3  UNL     1       1.900 -13.589  10.898  1.00  0.00     0.187 HD
HETATM    8  C2  UNL     1       3.502 -12.584  10.375  1.00  0.00     0.685 A 
HETATM    9  N4  UNL     1       4.371 -12.088   9.375  1.00  0.00    -0.187 N 
ATOM     10  H4  UNL     1       4.150 -12.301   8.403  1.00  0.00     0.184 HD
HETATM   11  C3  UNL     1       5.409 -11.395   9.612  1.00  0.00     0.124 A 
HETATM   12  C5  UNL     1       5.741 -11.083  10.975  1.00  0.00     0.225 A 
HETATM   13  O2  UNL     1       6.763 -10.399  11.233  1.00  0.00    -0.284 OA
HETATM   14  C6  UNL     1       4.919 -11.537  12.122  1.00  0.00     0.098 A 
HETATM   15  C7  UNL     1       5.265 -11.226  13.349  1.00  0.00     0.015 C 
HETATM   16  N8  UNL     1       3.783 -12.303  11.761  1.00  0.00    -0.188 N 
ATOM     17  H8  UNL     1       3.160 -12.657  12.487  1.00  0.00     0.184 HD
ENDROOT
BRANCH  11  18
HETATM   18  C4  UNL     1       6.247 -10.929   8.467  1.00  0.00     0.285 C 
BRANCH  18  19
HETATM   19  O1  UNL     1       7.566 -11.292   8.711  1.00  0.00    -0.372 OA
ATOM     20  H1  UNL     1       7.627 -12.239   8.681  1.00  0.00     0.212 HD
ENDBRANCH  18  19
BRANCH  18  21
HETATM   21  N5  UNL     1       5.747 -11.473   7.212  1.00  0.00    -0.110 NA
BRANCH  21  22
HETATM   22  N6  UNL     1       6.518 -12.550   6.814  1.00  0.00    -0.346 N 
ATOM     23  H62 UNL     1       6.141 -13.394   6.384  1.00  0.00     0.172 HD
ATOM     24  H61 UNL     1       7.503 -12.372   7.012  1.00  0.00     0.172 HD
ENDBRANCH  21  22
ENDBRANCH  18  21
ENDBRANCH  11  18
BRANCH  15  25
HETATM   25  C8  UNL     1       4.519 -11.628  14.547  1.00  0.00     0.118 C 
BRANCH  25  26
HETATM   26  C9  UNL     1       5.254 -12.682  15.326  1.00  0.00     0.217 C 
HETATM   27  O3  UNL     1       6.396 -12.987  14.927  1.00  0.00    -0.287 OA
BRANCH  26  28
HETATM   28  C10 UNL     1       4.643 -13.299  16.481  1.00  0.00     0.300 C 
HETATM   29  N7  UNL     1       5.338 -13.369  17.710  1.00  0.00    -0.054 NA
HETATM   30  O4  UNL     1       3.496 -13.776  16.402  1.00  0.00    -0.268 OA
ENDBRANCH  26  28
ENDBRANCH  25  26
ENDBRANCH  15  25
TORSDOF 7
ENDMDL
MODEL 3
REMARK VINA RESULT: -6.606089963      6.227      8.974
REMARK  7 active torsions:
REMARK  status: ('A' for Active; 'I' for Inactive)
REMARK       I    between atoms: C1_4  and  N3_6 
REMARK    1  A    between atoms: C3_11  and  C4_12 
REMARK    2  A    between atoms: C4_12  and  O1_13 
REMARK    3  A    between atoms: C4_12  and  N5_15 
REMARK    4  A    between atoms: N5_15  and  N6_16 
REMARK    5  A    between atoms: C7_22  and  C8_23 
REMARK    6  A    between atoms: C8_23  and  C9_24 
REMARK    7  A    between atoms: C9_24  and  C10_26 
ROOT
HETATM    1  N1  UNL     1       1.269 -13.240   8.231  1.00  0.00    -0.373 N 
ATOM      2  H11 UNL     1       0.538 -12.928   7.593  1.00  0.00     0.158 HD
ATOM      3  H12 UNL     1       1.083 -14.068   8.798  1.00  0.00     0.158 HD
HETATM    4  C1  UNL     1       2.383 -12.624   8.325  1.00  0.00     0.200 C 
HETATM    5  N2  UNL     1       3.409 -13.061   9.218  1.00  0.00    -0.063 NA
HETATM    6  N3  UNL     1       2.640 -11.485   7.545  1.00  0.00    -0.164 N 
ATOM      7  H3  UNL     1       2.338 -10.586   7.919  1.00  0.00     0.187 HD
HETATM    8  C2  UNL     1       3.217 -11.482   6.411  1.00  0.00     0.685 A 
HETATM    9  N4  UNL     1       3.681 -12.660   5.782  1.00  0.00    -0.187 N 
ATOM     10  H4  UNL     1       3.544 -13.546   6.268  1.00  0.00     0.184 HD
HETATM   11  C3  UNL     1       4.260 -12.685   4.651  1.00  0.00     0.124 A 
HETATM   12  C5  UNL     1       4.466 -11.449   3.947  1.00  0.00     0.225 A 
HETATM   13  O2  UNL     1       5.035 -11.449   2.827  1.00  0.00    -0.284 OA
HETATM   14  C6  UNL     1       4.028 -10.139   4.489  1.00  0.00     0.098 A 
HETATM   15  C7  UNL     1       4.240  -9.037   3.808  1.00  0.00     0.015 C 
HETATM   16  N8  UNL     1       3.394 -10.210   5.754  1.00  0.00    -0.188 N 
ATOM     17  H8  UNL     1       3.061  -9.357   6.202  1.00  0.00     0.184 HD
ENDROOT
BRANCH  11  18
HETATM   18  C4  UNL     1       4.705 -13.997   4.091  1.00  0.00     0.285 C 
BRANCH  18  19
HETATM   19  O1  UNL     1       4.323 -14.058   2.757  1.00  0.00    -0.372 OA
ATOM     20  H1  UNL     1       4.067 -13.187   2.478  1.00  0.00     0.212 HD
ENDBRANCH  18  19
BRANCH  18  21
HETATM   21  N5  UNL     1       6.141 -14.166   4.265  1.00  0.00    -0.110 NA
BRANCH  21  22
HETATM   22  N6  UNL     1       6.797 -13.958   3.065  1.00  0.00    -0.346 N 
ATOM     23  H62 UNL     1       7.282 -14.689   2.545  1.00  0.00     0.172 HD
ATOM     24  H61 UNL     1       6.722 -12.980   2.785  1.00  0.00     0.172 HD
ENDBRANCH  21  22
ENDBRANCH  18  21
ENDBRANCH  11  18
BRANCH  15  25
HETATM   25  C8  UNL     1       3.847  -7.698   4.257  1.00  0.00     0.118 C 
BRANCH  25  26
HETATM   26  C9  UNL     1       4.849  -6.659   3.837  1.00  0.00     0.217 C 
HETATM   27  O3  UNL     1       4.399  -5.556   3.468  1.00  0.00    -0.287 OA
BRANCH  26  28
HETATM   28  C10 UNL     1       6.264  -6.950   3.867  1.00  0.00     0.300 C 
HETATM   29  N7  UNL     1       7.004  -7.045   2.667  1.00  0.00    -0.054 NA
HETATM   30  O4  UNL     1       6.844  -7.121   4.956  1.00  0.00    -0.268 OA
ENDBRANCH  26  28
ENDBRANCH  25  26
ENDBRANCH  15  25
TORSDOF 7
ENDMDL
MODEL 4
REMARK VINA RESULT: -6.307442582      1.443      1.808
REMARK  7 active torsions:
REMARK  status: ('A' for Active; 'I' for Inactive)
REMARK       I    between atoms: C1_4  and  N3_6 
REMARK    1  A    between atoms: C3_11  and  C4_12 
REMARK    2  A    between atoms: C4_12  and  O1_13 
REMARK    3  A    between atoms: C4_12  and  N5_15 
REMARK    4  A    between atoms: N5_15  and  N6_16 
REMARK    5  A    between atoms: C7_22  and  C8_23 
REMARK    6  A    between atoms: C8_23  and  C9_24 
REMARK    7  A    between atoms: C9_24  and  C10_26 
ROOT
HETATM    1  N1  UNL     1       7.656 -12.185   7.272  1.00  0.00    -0.373 N 
ATOM      2  H11 UNL     1       7.864 -13.017   7.824  1.00  0.00     0.158 HD
ATOM      3  H12 UNL     1       7.914 -12.193   6.285  1.00  0.00     0.158 HD
HETATM    4  C1  UNL     1       7.093 -11.163   7.790  1.00  0.00     0.200 C 
HETATM    5  N2  UNL     1       6.801  -9.997   7.017  1.00  0.00    -0.063 NA
HETATM    6  N3  UNL     1       6.737 -11.152   9.148  1.00  0.00    -0.164 N 
ATOM      7  H3  UNL     1       7.448 -10.849   9.814  1.00  0.00     0.187 HD
HETATM    8  C2  UNL     1       5.603 -11.488   9.617  1.00  0.00     0.685 A 
HETATM    9  N4  UNL     1       4.534 -11.926   8.802  1.00  0.00    -0.187 N 
ATOM     10  H4  UNL     1       4.689 -11.970   7.795  1.00  0.00     0.184 HD
HETATM   11  C3  UNL     1       3.393 -12.267   9.245  1.00  0.00     0.124 A 
HETATM   12  C5  UNL     1       3.150 -12.212  10.660  1.00  0.00     0.225 A 
HETATM   13  O2  UNL     1       2.030 -12.545  11.120  1.00  0.00    -0.284 OA
HETATM   14  C6  UNL     1       4.182 -11.772  11.631  1.00  0.00     0.098 A 
HETATM   15  C7  UNL     1       3.911 -11.738  12.914  1.00  0.00     0.015 C 
HETATM   16  N8  UNL     1       5.421 -11.411  11.046  1.00  0.00    -0.188 N 
ATOM     17  H8  UNL     1       6.188 -11.095  11.639  1.00  0.00     0.184 HD
ENDROOT
BRANCH  11  18
HETATM   18  C4  UNL     1       2.344 -12.714   8.279  1.00  0.00     0.285 C 
BRANCH  18  19
HETATM   19  O1  UNL     1       2.783 -12.433   6.992  1.00  0.00    -0.372 OA
ATOM     20  H1  UNL     1       3.257 -11.610   7.009  1.00  0.00     0.212 HD
ENDBRANCH  18  19
BRANCH  18  21
HETATM   21  N5  UNL     1       2.044 -14.127   8.467  1.00  0.00    -0.110 NA
BRANCH  21  22
HETATM   22  N6  UNL     1       0.790 -14.280   9.031  1.00  0.00    -0.346 N 
ATOM     23  H62 UNL     1      -0.013 -14.673   8.540  1.00  0.00     0.172 HD
ATOM     24  H61 UNL     1       0.793 -13.948   9.995  1.00  0.00     0.172 HD
ENDBRANCH  21  22
ENDBRANCH  18  21
ENDBRANCH  11  18
BRANCH  15  25
HETATM   25  C8  UNL     1       4.861 -11.318  13.950  1.00  0.00     0.118 C 
BRANCH  25  26
HETATM   26  C9  UNL     1       5.513 -12.499  14.612  1.00  0.00     0.217 C 
HETATM   27  O3  UNL     1       4.834 -13.122  15.453  1.00  0.00    -0.287 OA
BRANCH  26  28
HETATM   28  C10 UNL     1       6.865 -12.876  14.273  1.00  0.00     0.300 C 
HETATM   29  N7  UNL     1       7.196 -13.257  12.952  1.00  0.00    -0.054 NA
HETATM   30  O4  UNL     1       7.754 -12.868  15.145  1.00  0.00    -0.268 OA
ENDBRANCH  26  28
ENDBRANCH  25  26
ENDBRANCH  15  25
TORSDOF 7
ENDMDL
MODEL 5
REMARK VINA RESULT: -6.241688471      3.319      7.268
REMARK  7 active torsions:
REMARK  status: ('A' for Active; 'I' for Inactive)
REMARK       I    between atoms: C1_4  and  N3_6 
REMARK    1  A    between atoms: C3_11  and  C4_12 
REMARK    2  A    between atoms: C4_12  and  O1_13 
REMARK    3  A    between atoms: C4_12  and  N5_15 
REMARK    4  A    between atoms: N5_15  and  N6_16 
REMARK    5  A    between atoms: C7_22  and  C8_23 
REMARK    6  A    between atoms: C8_23  and  C9_24 
REMARK    7  A    between atoms: C9_24  and  C10_26 
ROOT
HETATM    1  N1  UNL     1       7.408  -9.256  10.152  1.00  0.00    -0.373 N 
ATOM      2  H11 UNL     1       6.739  -8.506   9.981  1.00  0.00     0.158 HD
ATOM      3  H12 UNL     1       7.995  -9.188  10.984  1.00  0.00     0.158 HD
HETATM    4  C1  UNL     1       7.515 -10.250   9.358  1.00  0.00     0.200 C 
HETATM    5  N2  UNL     1       8.451 -11.303   9.597  1.00  0.00    -0.063 NA
HETATM    6  N3  UNL     1       6.707 -10.344   8.214  1.00  0.00    -0.164 N 
ATOM      7  H3  UNL     1       7.043  -9.887   7.367  1.00  0.00     0.187 HD
HETATM    8  C2  UNL     1       5.590 -10.951   8.146  1.00  0.00     0.685 A 
HETATM    9  N4  UNL     1       5.014 -11.624   9.248  1.00  0.00    -0.187 N 
ATOM     10  H4  UNL     1       5.523 -11.617  10.132  1.00  0.00     0.184 HD
HETATM   11  C3  UNL     1       3.901 -12.237   9.207  1.00  0.00     0.124 A 
HETATM   12  C5  UNL     1       3.165 -12.262   7.973  1.00  0.00     0.225 A 
HETATM   13  O2  UNL     1       2.063 -12.862   7.909  1.00  0.00    -0.284 OA
HETATM   14  C6  UNL     1       3.652 -11.599   6.739  1.00  0.00     0.098 A 
HETATM   15  C7  UNL     1       2.943 -11.651   5.636  1.00  0.00     0.015 C 
HETATM   16  N8  UNL     1       4.899 -10.941   6.880  1.00  0.00    -0.188 N 
ATOM     17  H8  UNL     1       5.310 -10.458   6.082  1.00  0.00     0.184 HD
ENDROOT
BRANCH  11  18
HETATM   18  C4  UNL     1       3.397 -12.909  10.442  1.00  0.00     0.285 C 
BRANCH  18  19
HETATM   19  O1  UNL     1       4.464 -13.079  11.317  1.00  0.00    -0.372 OA
ATOM     20  H1  UNL     1       5.258 -13.181  10.806  1.00  0.00     0.212 HD
ENDBRANCH  18  19
BRANCH  18  21
HETATM   21  N5  UNL     1       2.311 -12.143  11.036  1.00  0.00    -0.110 NA
BRANCH  21  22
HETATM   22  N6  UNL     1       1.144 -12.886  11.037  1.00  0.00    -0.346 N 
ATOM     23  H62 UNL     1       0.922 -13.602  10.346  1.00  0.00     0.172 HD
ATOM     24  H61 UNL     1       0.551 -12.613  11.821  1.00  0.00     0.172 HD
ENDBRANCH  21  22
ENDBRANCH  18  21
ENDBRANCH  11  18
BRANCH  15  25
HETATM   25  C8  UNL     1       3.338 -11.029   4.368  1.00  0.00     0.118 C 
BRANCH  25  26
HETATM   26  C9  UNL     1       4.388 -11.838   3.660  1.00  0.00     0.217 C 
HETATM   27  O3  UNL     1       4.138 -13.046   3.469  1.00  0.00    -0.287 OA
BRANCH  26  28
HETATM   28  C10 UNL     1       5.623 -11.223   3.231  1.00  0.00     0.300 C 
HETATM   29  N7  UNL     1       6.619 -10.878   4.172  1.00  0.00    -0.054 NA
HETATM   30  O4  UNL     1       5.819 -10.990   2.023  1.00  0.00    -0.268 OA
ENDBRANCH  26  28
ENDBRANCH  25  26
ENDBRANCH  15  25
TORSDOF 7
ENDMDL
