MODEL 1
REMARK VINA RESULT: -7.623530053      0.000      0.000
REMARK  6 active torsions:
REMARK  status: ('A' for Active; 'I' for Inactive)
REMARK    1  A    between atoms: N1_1  and  N2_4 
REMARK       I    between atoms: N2_4  and  C1_6 
REMARK    2  A    between atoms: C1_6  and  C2_8 
REMARK    3  A    between atoms: C2_8  and  N3_9 
REMARK       I    between atoms: N3_9  and  C3_11 
REMARK    4  A    between atoms: C3_11  and  C4_13 
REMARK    5  A    between atoms: C5_16  and  C6_17 
REMARK       I    between atoms: C6_17  and  N5_19 
REMARK    6  A    between atoms: N5_19  and  N6_21 
REMARK       I    between atoms: N6_21  and  C7_23 
ROOT
HETATM    1  C4  UNL     1       3.468 -12.695   9.099  1.00  0.00     0.172 A 
HETATM    2  N4  UNL     1       4.111 -12.340  10.212  1.00  0.00    -0.328 N 
ATOM      3  H4  UNL     1       5.100 -12.095  10.165  1.00  0.00     0.168 HD
HETATM    4  C5  UNL     1       3.466 -12.301  11.412  1.00  0.00     0.191 A 
HETATM    5  N8  UNL     1       2.168 -12.632  11.422  1.00  0.00    -0.278 N 
ATOM      6  H8  UNL     1       1.675 -12.607  12.315  1.00  0.00     0.189 HD
HETATM    7  N9  UNL     1       1.488 -12.987  10.351  1.00  0.00    -0.263 N 
ATOM      8  H9  UNL     1       0.500 -13.229  10.415  1.00  0.00     0.190 HD
HETATM    9  C8  UNL     1       2.137 -13.023   9.164  1.00  0.00     0.292 A 
HETATM   10  O5  UNL     1       1.448 -13.366   8.161  1.00  0.00    -0.264 OA
ENDROOT
BRANCH   1  11
HETATM   11  C3  UNL     1       4.175 -12.779   7.844  1.00  0.00     0.274 C 
HETATM   12  N3  UNL     1       3.900 -13.791   6.872  1.00  0.00    -0.347 N 
ATOM     13  H3  UNL     1       3.179 -14.493   7.041  1.00  0.00     0.163 HD
HETATM   14  O2  UNL     1       5.071 -11.915   7.604  1.00  0.00    -0.266 OA
BRANCH  12  15
HETATM   15  C2  UNL     1       4.658 -13.800   5.656  1.00  0.00     0.227 C 
BRANCH  15  16
HETATM   16  C1  UNL     1       4.212 -12.866   4.617  1.00  0.00     0.253 C 
HETATM   17  N2  UNL     1       4.593 -11.545   4.438  1.00  0.00    -0.275 N 
ATOM     18  H2  UNL     1       5.257 -11.112   5.081  1.00  0.00     0.189 HD
HETATM   19  O1  UNL     1       3.363 -13.371   3.780  1.00  0.00    -0.270 OA
BRANCH  17  20
HETATM   20  N1  UNL     1       4.057 -10.795   3.360  1.00  0.00    -0.343 N 
ATOM     21  H12 UNL     1       4.350 -11.016   2.408  1.00  0.00     0.176 HD
ATOM     22  H11 UNL     1       3.388 -10.047   3.543  1.00  0.00     0.176 HD
ENDBRANCH  17  20
ENDBRANCH  15  16
ENDBRANCH  12  15
ENDBRANCH   1  11
BRANCH   4  23
HETATM   23  C6  UNL     1       4.173 -11.883  12.634  1.00  0.00     0.305 C 
HETATM   24  O3  UNL     1       5.197 -11.137  12.480  1.00  0.00    -0.263 OA
HETATM   25  N5  UNL     1       3.770 -12.267  13.927  1.00  0.00    -0.260 N 
ATOM     26  H5  UNL     1       2.950 -12.864  14.029  1.00  0.00     0.190 HD
BRANCH  25  27
HETATM   27  N6  UNL     1       4.455 -11.857  15.083  1.00  0.00    -0.251 N 
HETATM   28  C7  UNL     1       4.441 -12.642  16.262  1.00  0.00     0.347 C 
HETATM   29  N7  UNL     1       5.130 -12.197  17.414  1.00  0.00    -0.038 NA
HETATM   30  O4  UNL     1       3.833 -13.739  16.340  1.00  0.00    -0.249 OA
ATOM     31  H6  UNL     1       4.973 -10.978  15.074  1.00  0.00     0.191 HD
ENDBRANCH  25  27
ENDBRANCH   4  23
TORSDOF 6
ENDMDL
MODEL 2
REMARK VINA RESULT: -7.586790489      1.143      1.177
REMARK  6 active torsions:
REMARK  status: ('A' for Active; 'I' for Inactive)
REMARK    1  A    between atoms: N1_1  and  N2_4 
REMARK       I    between atoms: N2_4  and  C1_6 
REMARK    2  A    between atoms: C1_6  and  C2_8 
REMARK    3  A    between atoms: C2_8  and  N3_9 
REMARK       I    between atoms: N3_9  and  C3_11 
REMARK    4  A    between atoms: C3_11  and  C4_13 
REMARK    5  A    between atoms: C5_16  and  C6_17 
REMARK       I    between atoms: C6_17  and  N5_19 
REMARK    6  A    between atoms: N5_19  and  N6_21 
REMARK       I    between atoms: N6_21  and  C7_23 
ROOT
HETATM    1  C4  UNL     1       3.814 -12.284   9.152  1.00  0.00     0.172 A 
HETATM    2  N4  UNL     1       4.388 -11.994  10.321  1.00  0.00    -0.328 N 
ATOM      3  H4  UNL     1       5.353 -11.666  10.339  1.00  0.00     0.168 HD
HETATM    4  C5  UNL     1       3.703 -12.131  11.491  1.00  0.00     0.191 A 
HETATM    5  N8  UNL     1       2.438 -12.566  11.414  1.00  0.00    -0.278 N 
ATOM      6  H8  UNL     1       1.916 -12.673  12.284  1.00  0.00     0.189 HD
HETATM    7  N9  UNL     1       1.827 -12.864  10.287  1.00  0.00    -0.263 N 
ATOM      8  H9  UNL     1       0.861 -13.190  10.285  1.00  0.00     0.190 HD
HETATM    9  C8  UNL     1       2.515 -12.724   9.130  1.00  0.00     0.292 A 
HETATM   10  O5  UNL     1       1.891 -13.017   8.070  1.00  0.00    -0.264 OA
ENDROOT
BRANCH   1  11
HETATM   11  C3  UNL     1       4.566 -12.180   7.925  1.00  0.00     0.274 C 
HETATM   12  N3  UNL     1       4.927 -13.323   7.144  1.00  0.00    -0.347 N 
ATOM     13  H3  UNL     1       4.653 -14.261   7.437  1.00  0.00     0.163 HD
HETATM   14  O2  UNL     1       4.914 -11.025   7.533  1.00  0.00    -0.266 OA
BRANCH  12  15
HETATM   15  C2  UNL     1       5.681 -13.123   5.943  1.00  0.00     0.227 C 
BRANCH  15  16
HETATM   16  C1  UNL     1       5.055 -13.603   4.706  1.00  0.00     0.253 C 
HETATM   17  N2  UNL     1       3.712 -13.573   4.363  1.00  0.00    -0.275 N 
ATOM     18  H2  UNL     1       3.027 -13.187   5.013  1.00  0.00     0.189 HD
HETATM   19  O1  UNL     1       5.888 -14.108   3.853  1.00  0.00    -0.270 OA
BRANCH  17  20
HETATM   20  N1  UNL     1       3.292 -14.080   3.107  1.00  0.00    -0.343 N 
ATOM     21  H12 UNL     1       2.676 -14.891   3.080  1.00  0.00     0.176 HD
ATOM     22  H11 UNL     1       3.607 -13.632   2.246  1.00  0.00     0.176 HD
ENDBRANCH  17  20
ENDBRANCH  15  16
ENDBRANCH  12  15
ENDBRANCH   1  11
BRANCH   4  23
HETATM   23  C6  UNL     1       4.332 -11.785  12.776  1.00  0.00     0.305 C 
HETATM   24  O3  UNL     1       5.395 -11.080  12.726  1.00  0.00    -0.263 OA
HETATM   25  N5  UNL     1       3.816 -12.192  14.021  1.00  0.00    -0.260 N 
ATOM     26  H5  UNL     1       2.965 -12.755  14.040  1.00  0.00     0.190 HD
BRANCH  25  27
HETATM   27  N6  UNL     1       4.427 -11.851  15.240  1.00  0.00    -0.251 N 
HETATM   28  C7  UNL     1       4.350 -12.707  16.365  1.00  0.00     0.347 C 
HETATM   29  N7  UNL     1       4.965 -12.331  17.581  1.00  0.00    -0.038 NA
HETATM   30  O4  UNL     1       3.748 -13.810  16.339  1.00  0.00    -0.249 OA
ATOM     31  H6  UNL     1       4.936 -10.970  15.315  1.00  0.00     0.191 HD
ENDBRANCH  25  27
ENDBRANCH   4  23
TORSDOF 6
ENDMDL
MODEL 3
REMARK VINA RESULT: -7.430284955      1.584      1.660
REMARK  6 active torsions:
REMARK  status: ('A' for Active; 'I' for Inactive)
REMARK    1  A    between atoms: N1_1  and  N2_4 
REMARK       I    between atoms: N2_4  and  C1_6 
REMARK    2  A    between atoms: C1_6  and  C2_8 
REMARK    3  A    between atoms: C2_8  and  N3_9 
REMARK       I    between atoms: N3_9  and  C3_11 
REMARK    4  A    between atoms: C3_11  and  C4_13 
REMARK    5  A    between atoms: C5_16  and  C6_17 
REMARK       I    between atoms: C6_17  and  N5_19 
REMARK    6  A    between atoms: N5_19  and  N6_21 
REMARK       I    between atoms: N6_21  and  C7_23 
ROOT
HETATM    1  C4  UNL     1       4.374 -11.624   9.718  1.00  0.00     0.172 A 
HETATM    2  N4  UNL     1       4.931 -11.819  10.913  1.00  0.00    -0.328 N 
ATOM      3  H4  UNL     1       5.925 -12.035  10.976  1.00  0.00     0.168 HD
HETATM    4  C5  UNL     1       4.189 -11.733  12.053  1.00  0.00     0.191 A 
HETATM    5  N8  UNL     1       2.888 -11.447  11.919  1.00  0.00    -0.278 N 
ATOM      6  H8  UNL     1       2.323 -11.381  12.766  1.00  0.00     0.189 HD
HETATM    7  N9  UNL     1       2.292 -11.244  10.762  1.00  0.00    -0.263 N 
ATOM      8  H9  UNL     1       1.296 -11.028  10.717  1.00  0.00     0.190 HD
HETATM    9  C8  UNL     1       3.036 -11.331   9.636  1.00  0.00     0.292 A 
HETATM   10  O5  UNL     1       2.427 -11.127   8.547  1.00  0.00    -0.264 OA
ENDROOT
BRANCH   1  11
HETATM   11  C3  UNL     1       5.161 -11.765   8.515  1.00  0.00     0.274 C 
HETATM   12  N3  UNL     1       4.860 -12.735   7.509  1.00  0.00    -0.347 N 
ATOM     13  H3  UNL     1       4.063 -13.363   7.612  1.00  0.00     0.163 HD
HETATM   14  O2  UNL     1       6.153 -10.992   8.356  1.00  0.00    -0.266 OA
BRANCH  12  15
HETATM   15  C2  UNL     1       5.701 -12.807   6.352  1.00  0.00     0.227 C 
BRANCH  15  16
HETATM   16  C1  UNL     1       5.105 -13.425   5.163  1.00  0.00     0.253 C 
HETATM   17  N2  UNL     1       3.839 -13.214   4.636  1.00  0.00    -0.275 N 
ATOM     18  H2  UNL     1       3.197 -12.565   5.092  1.00  0.00     0.189 HD
HETATM   19  O1  UNL     1       5.883 -14.261   4.554  1.00  0.00    -0.270 OA
BRANCH  17  20
HETATM   20  N1  UNL     1       3.439 -13.902   3.462  1.00  0.00    -0.343 N 
ATOM     21  H12 UNL     1       3.486 -14.921   3.444  1.00  0.00     0.176 HD
ATOM     22  H11 UNL     1       3.109 -13.377   2.653  1.00  0.00     0.176 HD
ENDBRANCH  17  20
ENDBRANCH  15  16
ENDBRANCH  12  15
ENDBRANCH   1  11
BRANCH   4  23
HETATM   23  C6  UNL     1       4.814 -11.923  13.374  1.00  0.00     0.305 C 
HETATM   24  O3  UNL     1       6.036 -12.289  13.385  1.00  0.00    -0.263 OA
HETATM   25  N5  UNL     1       4.129 -11.719  14.587  1.00  0.00    -0.260 N 
ATOM     26  H5  UNL     1       3.152 -11.427  14.556  1.00  0.00     0.190 HD
BRANCH  25  27
HETATM   27  N6  UNL     1       4.740 -11.903  15.838  1.00  0.00    -0.251 N 
HETATM   28  C7  UNL     1       4.428 -13.019  16.651  1.00  0.00     0.347 C 
HETATM   29  N7  UNL     1       5.052 -13.170  17.912  1.00  0.00    -0.038 NA
HETATM   30  O4  UNL     1       3.606 -13.904  16.304  1.00  0.00    -0.249 OA
ATOM     31  H6  UNL     1       5.422 -11.219  16.168  1.00  0.00     0.191 HD
ENDBRANCH  25  27
ENDBRANCH   4  23
TORSDOF 6
ENDMDL
MODEL 4
REMARK VINA RESULT: -7.389832045      1.190      1.290
REMARK  6 active torsions:
REMARK  status: ('A' for Active; 'I' for Inactive)
REMARK    1  A    between atoms: N1_1  and  N2_4 
REMARK       I    between atoms: N2_4  and  C1_6 
REMARK    2  A    between atoms: C1_6  and  C2_8 
REMARK    3  A    between atoms: C2_8  and  N3_9 
REMARK       I    between atoms: N3_9  and  C3_11 
REMARK    4  A    between atoms: C3_11  and  C4_13 
REMARK    5  A    between atoms: C5_16  and  C6_17 
REMARK       I    between atoms: C6_17  and  N5_19 
REMARK    6  A    between atoms: N5_19  and  N6_21 
REMARK       I    between atoms: N6_21  and  C7_23 
ROOT
HETATM    1  C4  UNL     1       3.441 -12.167   9.030  1.00  0.00     0.172 A 
HETATM    2  N4  UNL     1       4.080 -11.853  10.156  1.00  0.00    -0.328 N 
ATOM      3  H4  UNL     1       4.991 -11.397  10.107  1.00  0.00     0.168 HD
HETATM    4  C5  UNL     1       3.535 -12.135  11.373  1.00  0.00     0.191 A 
HETATM    5  N8  UNL     1       2.337 -12.735  11.385  1.00  0.00    -0.278 N 
ATOM      6  H8  UNL     1       1.920 -12.951  12.291  1.00  0.00     0.189 HD
HETATM    7  N9  UNL     1       1.665 -13.063  10.302  1.00  0.00    -0.263 N 
ATOM      8  H9  UNL     1       0.755 -13.519  10.368  1.00  0.00     0.190 HD
HETATM    9  C8  UNL     1       2.215 -12.780   9.098  1.00  0.00     0.292 A 
HETATM   10  O5  UNL     1       1.536 -13.109   8.083  1.00  0.00    -0.264 OA
ENDROOT
BRANCH   1  11
HETATM   11  C3  UNL     1       4.051 -11.907   7.748  1.00  0.00     0.274 C 
HETATM   12  N3  UNL     1       3.317 -11.381   6.639  1.00  0.00    -0.347 N 
ATOM     13  H3  UNL     1       2.324 -11.166   6.727  1.00  0.00     0.163 HD
HETATM   14  O2  UNL     1       5.286 -12.158   7.612  1.00  0.00    -0.266 OA
BRANCH  12  15
HETATM   15  C2  UNL     1       4.006 -11.162   5.402  1.00  0.00     0.227 C 
BRANCH  15  16
HETATM   16  C1  UNL     1       4.099 -12.320   4.507  1.00  0.00     0.253 C 
HETATM   17  N2  UNL     1       3.064 -13.012   3.897  1.00  0.00    -0.275 N 
ATOM     18  H2  UNL     1       2.097 -12.732   4.058  1.00  0.00     0.189 HD
HETATM   19  O1  UNL     1       5.311 -12.715   4.278  1.00  0.00    -0.270 OA
BRANCH  17  20
HETATM   20  N1  UNL     1       3.353 -14.112   3.048  1.00  0.00    -0.343 N 
ATOM     21  H12 UNL     1       3.739 -13.935   2.121  1.00  0.00     0.176 HD
ATOM     22  H11 UNL     1       3.174 -15.063   3.369  1.00  0.00     0.176 HD
ENDBRANCH  17  20
ENDBRANCH  15  16
ENDBRANCH  12  15
ENDBRANCH   1  11
BRANCH   4  23
HETATM   23  C6  UNL     1       4.233 -11.763  12.615  1.00  0.00     0.305 C 
HETATM   24  O3  UNL     1       5.291 -11.059  12.493  1.00  0.00    -0.263 OA
HETATM   25  N5  UNL     1       3.786 -12.144  13.895  1.00  0.00    -0.260 N 
ATOM     26  H5  UNL     1       2.938 -12.706  13.971  1.00  0.00     0.190 HD
BRANCH  25  27
HETATM   27  N6  UNL     1       4.463 -11.778  15.070  1.00  0.00    -0.251 N 
HETATM   28  C7  UNL     1       4.399 -12.582  16.234  1.00  0.00     0.347 C 
HETATM   29  N7  UNL     1       5.081 -12.181  17.406  1.00  0.00    -0.038 NA
HETATM   30  O4  UNL     1       3.751 -13.658  16.283  1.00  0.00    -0.249 OA
ATOM     31  H6  UNL     1       5.011 -10.918  15.086  1.00  0.00     0.191 HD
ENDBRANCH  25  27
ENDBRANCH   4  23
TORSDOF 6
ENDMDL
MODEL 5
REMARK VINA RESULT: -7.314047848      1.151      1.235
REMARK  6 active torsions:
REMARK  status: ('A' for Active; 'I' for Inactive)
REMARK    1  A    between atoms: N1_1  and  N2_4 
REMARK       I    between atoms: N2_4  and  C1_6 
REMARK    2  A    between atoms: C1_6  and  C2_8 
REMARK    3  A    between atoms: C2_8  and  N3_9 
REMARK       I    between atoms: N3_9  and  C3_11 
REMARK    4  A    between atoms: C3_11  and  C4_13 
REMARK    5  A    between atoms: C5_16  and  C6_17 
REMARK       I    between atoms: C6_17  and  N5_19 
REMARK    6  A    between atoms: N5_19  and  N6_21 
REMARK       I    between atoms: N6_21  and  C7_23 
ROOT
HETATM    1  C4  UNL     1       3.319 -12.621   8.816  1.00  0.00     0.172 A 
HETATM    2  N4  UNL     1       4.011 -12.153   9.855  1.00  0.00    -0.328 N 
ATOM      3  H4  UNL     1       4.944 -11.771   9.706  1.00  0.00     0.168 HD
HETATM    4  C5  UNL     1       3.488 -12.178  11.113  1.00  0.00     0.191 A 
HETATM    5  N8  UNL     1       2.258 -12.689  11.258  1.00  0.00    -0.278 N 
ATOM      6  H8  UNL     1       1.858 -12.713  12.195  1.00  0.00     0.189 HD
HETATM    7  N9  UNL     1       1.535 -13.162  10.264  1.00  0.00    -0.263 N 
ATOM      8  H9  UNL     1       0.602 -13.540  10.430  1.00  0.00     0.190 HD
HETATM    9  C8  UNL     1       2.062 -13.133   9.018  1.00  0.00     0.292 A 
HETATM   10  O5  UNL     1       1.334 -13.594   8.093  1.00  0.00    -0.264 OA
ENDROOT
BRANCH   1  11
HETATM   11  C3  UNL     1       3.903 -12.633   7.496  1.00  0.00     0.274 C 
HETATM   12  N3  UNL     1       3.135 -12.397   6.313  1.00  0.00    -0.347 N 
ATOM     13  H3  UNL     1       2.135 -12.205   6.371  1.00  0.00     0.163 HD
HETATM   14  O2  UNL     1       5.146 -12.861   7.395  1.00  0.00    -0.266 OA
BRANCH  12  15
HETATM   15  C2  UNL     1       3.800 -12.436   5.045  1.00  0.00     0.227 C 
BRANCH  15  16
HETATM   16  C1  UNL     1       4.038 -11.137   4.406  1.00  0.00     0.253 C 
HETATM   17  N2  UNL     1       3.103 -10.179   4.049  1.00  0.00    -0.275 N 
ATOM     18  H2  UNL     1       2.111 -10.343   4.220  1.00  0.00     0.189 HD
HETATM   19  O1  UNL     1       5.286 -10.888   4.163  1.00  0.00    -0.270 OA
BRANCH  17  20
HETATM   20  N1  UNL     1       3.527  -8.968   3.443  1.00  0.00    -0.343 N 
ATOM     21  H12 UNL     1       2.826  -8.301   3.124  1.00  0.00     0.176 HD
ATOM     22  H11 UNL     1       4.523  -8.776   3.334  1.00  0.00     0.176 HD
ENDBRANCH  17  20
ENDBRANCH  15  16
ENDBRANCH  12  15
ENDBRANCH   1  11
BRANCH   4  23
HETATM   23  C6  UNL     1       4.246 -11.635  12.254  1.00  0.00     0.305 C 
HETATM   24  O3  UNL     1       5.365 -11.081  11.991  1.00  0.00    -0.263 OA
HETATM   25  N5  UNL     1       3.790 -11.703  13.584  1.00  0.00    -0.260 N 
ATOM     26  H5  UNL     1       2.893 -12.150  13.774  1.00  0.00     0.190 HD
BRANCH  25  27
HETATM   27  N6  UNL     1       4.524 -11.178  14.661  1.00  0.00    -0.251 N 
HETATM   28  C7  UNL     1       4.945 -12.002  15.733  1.00  0.00     0.347 C 
HETATM   29  N7  UNL     1       5.672 -11.441  16.809  1.00  0.00    -0.038 NA
HETATM   30  O4  UNL     1       4.700 -13.233  15.781  1.00  0.00    -0.249 OA
ATOM     31  H6  UNL     1       4.758 -10.185  14.671  1.00  0.00     0.191 HD
ENDBRANCH  25  27
ENDBRANCH   4  23
TORSDOF 6
ENDMDL
