MODEL 1
REMARK VINA RESULT: -4.740923330      0.000      0.000
REMARK  8 active torsions:
REMARK  status: ('A' for Active; 'I' for Inactive)
REMARK    1  A    between atoms: N1_1  and  C1_4 
REMARK    2  A    between atoms: C3_11  and  N4_12 
REMARK    3  A    between atoms: N4_12  and  C4_14 
REMARK    4  A    between atoms: C4_14  and  C5_15 
REMARK    5  A    between atoms: C5_15  and  C6_16 
REMARK    6  A    between atoms: C6_16  and  S1_17 
REMARK    7  A    between atoms: S1_17  and  C7_18 
REMARK    8  A    between atoms: N8_27  and  N9_28 
ROOT
HETATM    1  C4  UNL     1      44.090  16.253  34.304  1.00  0.00     0.139 C 
ENDROOT
BRANCH   1   2
HETATM    2  N4  UNL     1      44.518  15.819  33.007  1.00  0.00    -0.225 N 
ATOM      3  H4  UNL     1      43.810  15.708  32.281  1.00  0.00     0.177 HD
BRANCH   2   4
HETATM    4  C3  UNL     1      45.749  15.559  32.699  1.00  0.00     0.696 A 
HETATM    5  N3  UNL     1      46.017  14.476  31.950  1.00  0.00    -0.140 N 
HETATM    6  C2  UNL     1      47.291  14.169  31.606  1.00  0.00     0.352 A 
ATOM      7  H3  UNL     1      45.252  13.878  31.636  1.00  0.00     0.189 HD
HETATM    8  N2  UNL     1      48.296  14.948  32.013  1.00  0.00    -0.141 N 
HETATM    9  O1  UNL     1      47.514  13.148  30.903  1.00  0.00    -0.246 OA
HETATM   10  C1  UNL     1      48.068  16.052  32.771  1.00  0.00     0.694 A 
ATOM     11  H2  UNL     1      49.252  14.710  31.749  1.00  0.00     0.189 HD
HETATM   12  N10 UNL     1      46.786  16.318  33.089  1.00  0.00    -0.022 N 
ATOM     13  H10 UNL     1      46.592  17.143  33.657  1.00  0.00     0.203 HD
BRANCH  10  14
HETATM   14  N1  UNL     1      49.057  16.796  33.157  1.00  0.00    -0.234 N 
ATOM     15  H12 UNL     1      49.430  16.770  34.106  1.00  0.00     0.174 HD
ATOM     16  H11 UNL     1      49.499  17.444  32.505  1.00  0.00     0.174 HD
ENDBRANCH  10  14
ENDBRANCH   2   4
ENDBRANCH   1   2
BRANCH   1  17
HETATM   17  C5  UNL     1      42.944  15.326  34.723  1.00  0.00     0.031 C 
BRANCH  17  18
HETATM   18  C6  UNL     1      43.576  14.084  35.369  1.00  0.00     0.084 C 
BRANCH  18  19
HETATM   19  S1  UNL     1      43.338  12.637  34.360  1.00  0.00    -0.090 SA
BRANCH  19  20
HETATM   20  C7  UNL     1      42.156  12.916  33.080  1.00  0.00     0.185 A 
HETATM   21  N5  UNL     1      42.609  13.110  31.846  1.00  0.00    -0.264 N 
HETATM   22  N6  UNL     1      41.797  13.338  30.756  1.00  0.00    -0.237 N 
ATOM     23  H5  UNL     1      43.618  13.088  31.697  1.00  0.00     0.190 HD
HETATM   24  N7  UNL     1      40.421  13.371  30.947  1.00  0.00    -0.235 N 
ATOM     25  H6  UNL     1      42.198  13.480  29.829  1.00  0.00     0.208 HD
HETATM   26  C8  UNL     1      39.859  13.175  32.233  1.00  0.00     0.363 A 
ATOM     27  H7  UNL     1      39.807  13.539  30.150  1.00  0.00     0.193 HD
HETATM   28  O2  UNL     1      38.640  13.189  32.492  1.00  0.00    -0.243 OA
HETATM   29  N8  UNL     1      40.773  12.941  33.323  1.00  0.00    -0.186 N 
BRANCH  29  30
HETATM   30  N9  UNL     1      40.236  12.745  34.579  1.00  0.00    -0.332 N 
ATOM     31  H92 UNL     1      40.315  11.814  34.988  1.00  0.00     0.177 HD
ATOM     32  H91 UNL     1      39.774  13.490  35.100  1.00  0.00     0.177 HD
ENDBRANCH  29  30
ENDBRANCH  19  20
ENDBRANCH  18  19
ENDBRANCH  17  18
ENDBRANCH   1  17
TORSDOF 8
ENDMDL
MODEL 2
REMARK VINA RESULT: -4.692672395      2.022      2.238
REMARK  8 active torsions:
REMARK  status: ('A' for Active; 'I' for Inactive)
REMARK    1  A    between atoms: N1_1  and  C1_4 
REMARK    2  A    between atoms: C3_11  and  N4_12 
REMARK    3  A    between atoms: N4_12  and  C4_14 
REMARK    4  A    between atoms: C4_14  and  C5_15 
REMARK    5  A    between atoms: C5_15  and  C6_16 
REMARK    6  A    between atoms: C6_16  and  S1_17 
REMARK    7  A    between atoms: S1_17  and  C7_18 
REMARK    8  A    between atoms: N8_27  and  N9_28 
ROOT
HETATM    1  C4  UNL     1      43.732  15.761  34.480  1.00  0.00     0.139 C 
ENDROOT
BRANCH   1   2
HETATM    2  N4  UNL     1      44.207  15.386  33.181  1.00  0.00    -0.225 N 
ATOM      3  H4  UNL     1      43.517  15.143  32.470  1.00  0.00     0.177 HD
BRANCH   2   4
HETATM    4  C3  UNL     1      45.459  15.338  32.853  1.00  0.00     0.696 A 
HETATM    5  N3  UNL     1      45.882  14.351  32.044  1.00  0.00    -0.140 N 
HETATM    6  C2  UNL     1      47.184  14.265  31.678  1.00  0.00     0.352 A 
ATOM      7  H3  UNL     1      45.215  13.659  31.701  1.00  0.00     0.189 HD
HETATM    8  N2  UNL     1      48.061  15.168  32.122  1.00  0.00    -0.141 N 
HETATM    9  O1  UNL     1      47.553  13.331  30.919  1.00  0.00    -0.246 OA
HETATM   10  C1  UNL     1      47.675  16.180  32.942  1.00  0.00     0.694 A 
ATOM     11  H2  UNL     1      49.039  15.096  31.842  1.00  0.00     0.189 HD
HETATM   12  N10 UNL     1      46.371  16.226  33.280  1.00  0.00    -0.022 N 
ATOM     13  H10 UNL     1      46.059  16.979  33.894  1.00  0.00     0.203 HD
BRANCH  10  14
HETATM   14  N1  UNL     1      48.541  17.047  33.364  1.00  0.00    -0.234 N 
ATOM     15  H12 UNL     1      48.358  17.675  34.147  1.00  0.00     0.174 HD
ATOM     16  H11 UNL     1      49.453  17.126  32.913  1.00  0.00     0.174 HD
ENDBRANCH  10  14
ENDBRANCH   2   4
ENDBRANCH   1   2
BRANCH   1  17
HETATM   17  C5  UNL     1      42.333  15.152  34.630  1.00  0.00     0.031 C 
BRANCH  17  18
HETATM   18  C6  UNL     1      42.417  13.697  34.149  1.00  0.00     0.084 C 
BRANCH  18  19
HETATM   19  S1  UNL     1      41.030  13.275  33.116  1.00  0.00    -0.090 SA
BRANCH  19  20
HETATM   20  C7  UNL     1      41.540  12.475  31.628  1.00  0.00     0.185 A 
HETATM   21  N5  UNL     1      41.469  13.166  30.494  1.00  0.00    -0.264 N 
HETATM   22  N6  UNL     1      41.835  12.665  29.264  1.00  0.00    -0.237 N 
ATOM     23  H5  UNL     1      41.124  14.125  30.538  1.00  0.00     0.190 HD
HETATM   24  N7  UNL     1      42.307  11.359  29.192  1.00  0.00    -0.235 N 
ATOM     25  H6  UNL     1      41.762  13.239  28.425  1.00  0.00     0.208 HD
HETATM   26  C8  UNL     1      42.411  10.557  30.355  1.00  0.00     0.363 A 
ATOM     27  H7  UNL     1      42.582  10.973  28.288  1.00  0.00     0.193 HD
HETATM   28  O2  UNL     1      42.821   9.380  30.379  1.00  0.00    -0.243 OA
HETATM   29  N8  UNL     1      42.009  11.153  31.605  1.00  0.00    -0.186 N 
BRANCH  29  30
HETATM   30  N9  UNL     1      42.110  10.380  32.745  1.00  0.00    -0.332 N 
ATOM     31  H92 UNL     1      43.044  10.125  33.063  1.00  0.00     0.177 HD
ATOM     32  H91 UNL     1      41.293  10.066  33.268  1.00  0.00     0.177 HD
ENDBRANCH  29  30
ENDBRANCH  19  20
ENDBRANCH  18  19
ENDBRANCH  17  18
ENDBRANCH   1  17
TORSDOF 8
ENDMDL
MODEL 3
REMARK VINA RESULT: -4.680230142      2.494      3.333
REMARK  8 active torsions:
REMARK  status: ('A' for Active; 'I' for Inactive)
REMARK    1  A    between atoms: N1_1  and  C1_4 
REMARK    2  A    between atoms: C3_11  and  N4_12 
REMARK    3  A    between atoms: N4_12  and  C4_14 
REMARK    4  A    between atoms: C4_14  and  C5_15 
REMARK    5  A    between atoms: C5_15  and  C6_16 
REMARK    6  A    between atoms: C6_16  and  S1_17 
REMARK    7  A    between atoms: S1_17  and  C7_18 
REMARK    8  A    between atoms: N8_27  and  N9_28 
ROOT
HETATM    1  C4  UNL     1      43.556  14.651  34.447  1.00  0.00     0.139 C 
ENDROOT
BRANCH   1   2
HETATM    2  N4  UNL     1      44.038  14.762  33.101  1.00  0.00    -0.225 N 
ATOM      3  H4  UNL     1      43.732  15.562  32.548  1.00  0.00     0.177 HD
BRANCH   2   4
HETATM    4  C3  UNL     1      44.839  13.909  32.545  1.00  0.00     0.696 A 
HETATM    5  N3  UNL     1      45.983  14.353  31.997  1.00  0.00    -0.140 N 
HETATM    6  C2  UNL     1      46.847  13.493  31.405  1.00  0.00     0.352 A 
ATOM      7  H3  UNL     1      46.203  15.349  32.027  1.00  0.00     0.189 HD
HETATM    8  N2  UNL     1      46.564  12.189  31.364  1.00  0.00    -0.141 N 
HETATM    9  O1  UNL     1      47.912  13.935  30.899  1.00  0.00    -0.246 OA
HETATM   10  C1  UNL     1      45.418  11.700  31.906  1.00  0.00     0.694 A 
ATOM     11  H2  UNL     1      47.220  11.549  30.917  1.00  0.00     0.189 HD
HETATM   12  N10 UNL     1      44.589  12.591  32.483  1.00  0.00    -0.022 N 
ATOM     13  H10 UNL     1      43.723  12.246  32.897  1.00  0.00     0.203 HD
BRANCH  10  14
HETATM   14  N1  UNL     1      45.161  10.430  31.856  1.00  0.00    -0.234 N 
ATOM     15  H12 UNL     1      44.535   9.967  32.515  1.00  0.00     0.174 HD
ATOM     16  H11 UNL     1      45.587   9.846  31.137  1.00  0.00     0.174 HD
ENDBRANCH  10  14
ENDBRANCH   2   4
ENDBRANCH   1   2
BRANCH   1  17
HETATM   17  C5  UNL     1      42.026  14.677  34.370  1.00  0.00     0.031 C 
BRANCH  17  18
HETATM   18  C6  UNL     1      41.546  13.219  34.371  1.00  0.00     0.084 C 
BRANCH  18  19
HETATM   19  S1  UNL     1      40.359  12.926  33.076  1.00  0.00    -0.090 SA
BRANCH  19  20
HETATM   20  C7  UNL     1      41.125  12.309  31.612  1.00  0.00     0.185 A 
HETATM   21  N5  UNL     1      41.233  13.130  30.572  1.00  0.00    -0.264 N 
HETATM   22  N6  UNL     1      41.809  12.778  29.371  1.00  0.00    -0.237 N 
ATOM     23  H5  UNL     1      40.868  14.078  30.670  1.00  0.00     0.190 HD
HETATM   24  N7  UNL     1      42.309  11.490  29.225  1.00  0.00    -0.235 N 
ATOM     25  H6  UNL     1      41.867  13.449  28.605  1.00  0.00     0.208 HD
HETATM   26  C8  UNL     1      42.232  10.554  30.287  1.00  0.00     0.363 A 
ATOM     27  H7  UNL     1      42.738  11.214  28.342  1.00  0.00     0.193 HD
HETATM   28  O2  UNL     1      42.653   9.382  30.240  1.00  0.00    -0.243 OA
HETATM   29  N8  UNL     1      41.616  10.997  31.512  1.00  0.00    -0.186 N 
BRANCH  29  30
HETATM   30  N9  UNL     1      41.538  10.094  32.553  1.00  0.00    -0.332 N 
ATOM     31  H92 UNL     1      42.116   9.256  32.498  1.00  0.00     0.177 HD
ATOM     32  H91 UNL     1      40.933  10.240  33.362  1.00  0.00     0.177 HD
ENDBRANCH  29  30
ENDBRANCH  19  20
ENDBRANCH  18  19
ENDBRANCH  17  18
ENDBRANCH   1  17
TORSDOF 8
ENDMDL
MODEL 4
REMARK VINA RESULT: -4.644344658      1.599      1.891
REMARK  8 active torsions:
REMARK  status: ('A' for Active; 'I' for Inactive)
REMARK    1  A    between atoms: N1_1  and  C1_4 
REMARK    2  A    between atoms: C3_11  and  N4_12 
REMARK    3  A    between atoms: N4_12  and  C4_14 
REMARK    4  A    between atoms: C4_14  and  C5_15 
REMARK    5  A    between atoms: C5_15  and  C6_16 
REMARK    6  A    between atoms: C6_16  and  S1_17 
REMARK    7  A    between atoms: S1_17  and  C7_18 
REMARK    8  A    between atoms: N8_27  and  N9_28 
ROOT
HETATM    1  C4  UNL     1      44.092  16.201  34.327  1.00  0.00     0.139 C 
ENDROOT
BRANCH   1   2
HETATM    2  N4  UNL     1      44.489  15.659  33.060  1.00  0.00    -0.225 N 
ATOM      3  H4  UNL     1      43.756  15.409  32.396  1.00  0.00     0.177 HD
BRANCH   2   4
HETATM    4  C3  UNL     1      45.720  15.467  32.707  1.00  0.00     0.696 A 
HETATM    5  N3  UNL     1      46.028  14.372  31.991  1.00  0.00    -0.140 N 
HETATM    6  C2  UNL     1      47.304  14.135  31.602  1.00  0.00     0.352 A 
ATOM      7  H3  UNL     1      45.293  13.713  31.736  1.00  0.00     0.189 HD
HETATM    8  N2  UNL     1      48.271  14.995  31.931  1.00  0.00    -0.141 N 
HETATM    9  O1  UNL     1      47.566  13.102  30.931  1.00  0.00    -0.246 OA
HETATM   10  C1  UNL     1      48.002  16.113  32.655  1.00  0.00     0.694 A 
ATOM     11  H2  UNL     1      49.229  14.809  31.634  1.00  0.00     0.189 HD
HETATM   12  N10 UNL     1      46.719  16.308  33.019  1.00  0.00    -0.022 N 
ATOM     13  H10 UNL     1      46.494  17.142  33.563  1.00  0.00     0.203 HD
BRANCH  10  14
HETATM   14  N1  UNL     1      48.954  16.937  32.966  1.00  0.00    -0.234 N 
ATOM     15  H12 UNL     1      49.635  16.742  33.700  1.00  0.00     0.174 HD
ATOM     16  H11 UNL     1      49.050  17.823  32.471  1.00  0.00     0.174 HD
ENDBRANCH  10  14
ENDBRANCH   2   4
ENDBRANCH   1   2
BRANCH   1  17
HETATM   17  C5  UNL     1      42.820  15.456  34.746  1.00  0.00     0.031 C 
BRANCH  17  18
HETATM   18  C6  UNL     1      43.001  13.985  34.342  1.00  0.00     0.084 C 
BRANCH  18  19
HETATM   19  S1  UNL     1      41.545  13.351  33.536  1.00  0.00    -0.090 SA
BRANCH  19  20
HETATM   20  C7  UNL     1      41.919  12.652  31.961  1.00  0.00     0.185 A 
HETATM   21  N5  UNL     1      43.094  12.048  31.811  1.00  0.00    -0.264 N 
HETATM   22  N6  UNL     1      43.513  11.461  30.638  1.00  0.00    -0.237 N 
ATOM     23  H5  UNL     1      43.723  12.018  32.614  1.00  0.00     0.190 HD
HETATM   24  N7  UNL     1      42.666  11.496  29.536  1.00  0.00    -0.235 N 
ATOM     25  H6  UNL     1      44.427  11.010  30.578  1.00  0.00     0.208 HD
HETATM   26  C8  UNL     1      41.396  12.121  29.615  1.00  0.00     0.363 A 
ATOM     27  H7  UNL     1      42.962  11.065  28.661  1.00  0.00     0.193 HD
HETATM   28  O2  UNL     1      40.577  12.198  28.678  1.00  0.00    -0.243 OA
HETATM   29  N8  UNL     1      41.029  12.713  30.877  1.00  0.00    -0.186 N 
BRANCH  29  30
HETATM   30  N9  UNL     1      39.794  13.321  30.964  1.00  0.00    -0.332 N 
ATOM     31  H92 UNL     1      39.552  13.779  31.843  1.00  0.00     0.177 HD
ATOM     32  H91 UNL     1      39.130  13.329  30.189  1.00  0.00     0.177 HD
ENDBRANCH  29  30
ENDBRANCH  19  20
ENDBRANCH  18  19
ENDBRANCH  17  18
ENDBRANCH   1  17
TORSDOF 8
ENDMDL
MODEL 5
REMARK VINA RESULT: -4.639322306      2.639      3.337
REMARK  8 active torsions:
REMARK  status: ('A' for Active; 'I' for Inactive)
REMARK    1  A    between atoms: N1_1  and  C1_4 
REMARK    2  A    between atoms: C3_11  and  N4_12 
REMARK    3  A    between atoms: N4_12  and  C4_14 
REMARK    4  A    between atoms: C4_14  and  C5_15 
REMARK    5  A    between atoms: C5_15  and  C6_16 
REMARK    6  A    between atoms: C6_16  and  S1_17 
REMARK    7  A    between atoms: S1_17  and  C7_18 
REMARK    8  A    between atoms: N8_27  and  N9_28 
ROOT
HETATM    1  C4  UNL     1      45.413  15.486  33.559  1.00  0.00     0.139 C 
ENDROOT
BRANCH   1   2
HETATM    2  N4  UNL     1      44.824  16.579  32.843  1.00  0.00    -0.225 N 
ATOM      3  H4  UNL     1      43.992  16.391  32.283  1.00  0.00     0.177 HD
BRANCH   2   4
HETATM    4  C3  UNL     1      45.283  17.790  32.862  1.00  0.00     0.696 A 
HETATM    5  N3  UNL     1      46.585  17.996  32.601  1.00  0.00    -0.140 N 
HETATM    6  C2  UNL     1      47.104  19.247  32.611  1.00  0.00     0.352 A 
ATOM      7  H3  UNL     1      47.190  17.201  32.393  1.00  0.00     0.189 HD
HETATM    8  N2  UNL     1      46.318  20.291  32.882  1.00  0.00    -0.141 N 
HETATM    9  O1  UNL     1      48.328  19.412  32.363  1.00  0.00    -0.246 OA
HETATM   10  C1  UNL     1      44.997  20.127  33.151  1.00  0.00     0.694 A 
ATOM     11  H2  UNL     1      46.717  21.230  32.887  1.00  0.00     0.189 HD
HETATM   12  N10 UNL     1      44.524  18.865  33.130  1.00  0.00    -0.022 N 
ATOM     13  H10 UNL     1      43.534  18.718  33.328  1.00  0.00     0.203 HD
BRANCH  10  14
HETATM   14  N1  UNL     1      44.249  21.153  33.412  1.00  0.00    -0.234 N 
ATOM     15  H12 UNL     1      43.230  21.110  33.405  1.00  0.00     0.174 HD
ATOM     16  H11 UNL     1      44.671  22.054  33.638  1.00  0.00     0.174 HD
ENDBRANCH  10  14
ENDBRANCH   2   4
ENDBRANCH   1   2
BRANCH   1  17
HETATM   17  C5  UNL     1      45.945  14.506  32.509  1.00  0.00     0.031 C 
BRANCH  17  18
HETATM   18  C6  UNL     1      45.487  13.101  32.924  1.00  0.00     0.084 C 
BRANCH  18  19
HETATM   19  S1  UNL     1      44.027  13.169  33.941  1.00  0.00    -0.090 SA
BRANCH  19  20
HETATM   20  C7  UNL     1      42.556  13.262  32.971  1.00  0.00     0.185 A 
HETATM   21  N5  UNL     1      42.677  13.184  31.650  1.00  0.00    -0.264 N 
HETATM   22  N6  UNL     1      41.613  13.242  30.776  1.00  0.00    -0.237 N 
ATOM     23  H5  UNL     1      43.612  13.074  31.259  1.00  0.00     0.190 HD
HETATM   24  N7  UNL     1      40.332  13.393  31.296  1.00  0.00    -0.235 N 
ATOM     25  H6  UNL     1      41.761  13.177  29.769  1.00  0.00     0.208 HD
HETATM   26  C8  UNL     1      40.120  13.485  32.694  1.00  0.00     0.363 A 
ATOM     27  H7  UNL     1      39.534  13.438  30.662  1.00  0.00     0.193 HD
HETATM   28  O2  UNL     1      39.010  13.622  33.243  1.00  0.00    -0.243 OA
HETATM   29  N8  UNL     1      41.283  13.415  33.543  1.00  0.00    -0.186 N 
BRANCH  29  30
HETATM   30  N9  UNL     1      41.088  13.501  34.907  1.00  0.00    -0.332 N 
ATOM     31  H92 UNL     1      40.228  13.107  35.288  1.00  0.00     0.177 HD
ATOM     32  H91 UNL     1      41.766  13.936  35.532  1.00  0.00     0.177 HD
ENDBRANCH  29  30
ENDBRANCH  19  20
ENDBRANCH  18  19
ENDBRANCH  17  18
ENDBRANCH   1  17
TORSDOF 8
ENDMDL
