MODEL 1
REMARK VINA RESULT: -4.151208035      0.000      0.000
REMARK  9 active torsions:
REMARK  status: ('A' for Active; 'I' for Inactive)
REMARK    1  A    between atoms: N1_1  and  C1_4 
REMARK    2  A    between atoms: N4_14  and  C5_15 
REMARK    3  A    between atoms: C5_15  and  C6_16 
REMARK    4  A    between atoms: C6_16  and  C7_17 
REMARK    5  A    between atoms: C6_16  and  C8_20 
REMARK    6  A    between atoms: C6_16  and  C9_23 
REMARK    7  A    between atoms: C7_17  and  O3_18 
REMARK    8  A    between atoms: C8_20  and  O4_21 
REMARK    9  A    between atoms: C9_23  and  O5_24 
ROOT
HETATM    1  C1  UNL     1      44.746  13.135  32.675  1.00  0.00     0.171 C 
HETATM    2  N2  UNL     1      45.836  13.089  31.882  1.00  0.00    -0.303 N 
ATOM      3  H2  UNL     1      45.887  12.258  31.294  1.00  0.00     0.171 HD
HETATM    4  C2  UNL     1      46.873  13.941  31.724  1.00  0.00     0.277 C 
HETATM    5  O1  UNL     1      47.761  13.683  30.883  1.00  0.00    -0.265 OA
HETATM    6  C3  UNL     1      47.109  15.135  32.402  1.00  0.00     0.150 A 
HETATM    7  N3  UNL     1      48.221  15.856  32.418  1.00  0.00    -0.301 N 
ATOM      8  H3  UNL     1      49.071  15.611  31.911  1.00  0.00     0.171 HD
HETATM    9  C4  UNL     1      48.091  16.952  33.187  1.00  0.00     0.328 A 
HETATM   10  O2  UNL     1      49.032  17.797  33.350  1.00  0.00    -0.246 OA
HETATM   11  N4  UNL     1      46.842  16.935  33.686  1.00  0.00    -0.282 N 
HETATM   12  C10 UNL     1      46.219  15.820  33.212  1.00  0.00     0.147 A 
HETATM   13  N5  UNL     1      44.946  15.461  33.472  1.00  0.00    -0.304 N 
ATOM     14  H5  UNL     1      44.350  16.219  33.804  1.00  0.00     0.171 HD
HETATM   15  C11 UNL     1      44.329  14.272  33.368  1.00  0.00     0.290 C 
HETATM   16  O6  UNL     1      43.228  14.091  33.944  1.00  0.00    -0.264 OA
ENDROOT
BRANCH  11  17
HETATM   17  C5  UNL     1      46.273  17.899  34.548  1.00  0.00     0.151 C 
BRANCH  17  18
HETATM   18  C6  UNL     1      45.751  19.164  33.998  1.00  0.00     0.040 C 
BRANCH  18  19
HETATM   19  C7  UNL     1      45.583  19.194  32.497  1.00  0.00     0.179 C 
BRANCH  19  20
HETATM   20  O3  UNL     1      44.425  19.926  32.146  1.00  0.00    -0.400 OA
ATOM     21  H3  UNL     1      44.658  20.673  31.608  1.00  0.00     0.209 HD
ENDBRANCH  19  20
ENDBRANCH  18  19
BRANCH  18  22
HETATM   22  C8  UNL     1      46.749  20.303  34.287  1.00  0.00     0.179 C 
BRANCH  22  23
HETATM   23  O4  UNL     1      46.889  21.035  33.109  1.00  0.00    -0.400 OA
ATOM     24  H4  UNL     1      46.511  21.892  33.266  1.00  0.00     0.209 HD
ENDBRANCH  22  23
ENDBRANCH  18  22
BRANCH  18  25
HETATM   25  C9  UNL     1      44.483  19.575  34.701  1.00  0.00     0.179 C 
BRANCH  25  26
HETATM   26  O5  UNL     1      44.454  20.985  34.870  1.00  0.00    -0.400 OA
ATOM     27  H5  UNL     1      44.703  21.416  34.062  1.00  0.00     0.209 HD
ENDBRANCH  25  26
ENDBRANCH  18  25
ENDBRANCH  17  18
ENDBRANCH  11  17
BRANCH   1  28
HETATM   28  N1  UNL     1      44.034  12.068  32.812  1.00  0.00    -0.381 N 
ATOM     29  H12 UNL     1      43.655  11.649  31.963  1.00  0.00     0.157 HD
ATOM     30  H11 UNL     1      43.884  11.696  33.749  1.00  0.00     0.157 HD
ENDBRANCH   1  28
TORSDOF 9
ENDMDL
MODEL 2
REMARK VINA RESULT: -4.110310120      0.103      1.377
REMARK  9 active torsions:
REMARK  status: ('A' for Active; 'I' for Inactive)
REMARK    1  A    between atoms: N1_1  and  C1_4 
REMARK    2  A    between atoms: N4_14  and  C5_15 
REMARK    3  A    between atoms: C5_15  and  C6_16 
REMARK    4  A    between atoms: C6_16  and  C7_17 
REMARK    5  A    between atoms: C6_16  and  C8_20 
REMARK    6  A    between atoms: C6_16  and  C9_23 
REMARK    7  A    between atoms: C7_17  and  O3_18 
REMARK    8  A    between atoms: C8_20  and  O4_21 
REMARK    9  A    between atoms: C9_23  and  O5_24 
ROOT
HETATM    1  C1  UNL     1      44.741  13.067  32.637  1.00  0.00     0.171 C 
HETATM    2  N2  UNL     1      45.843  13.028  31.861  1.00  0.00    -0.303 N 
ATOM      3  H2  UNL     1      45.909  12.195  31.277  1.00  0.00     0.171 HD
HETATM    4  C2  UNL     1      46.874  13.888  31.715  1.00  0.00     0.277 C 
HETATM    5  O1  UNL     1      47.778  13.635  30.888  1.00  0.00    -0.265 OA
HETATM    6  C3  UNL     1      47.090  15.086  32.393  1.00  0.00     0.150 A 
HETATM    7  N3  UNL     1      48.196  15.817  32.423  1.00  0.00    -0.301 N 
ATOM      8  H3  UNL     1      49.056  15.577  31.930  1.00  0.00     0.171 HD
HETATM    9  C4  UNL     1      48.045  16.914  33.186  1.00  0.00     0.328 A 
HETATM   10  O2  UNL     1      48.976  17.767  33.360  1.00  0.00    -0.246 OA
HETATM   11  N4  UNL     1      46.789  16.888  33.667  1.00  0.00    -0.282 N 
HETATM   12  C10 UNL     1      46.183  15.767  33.187  1.00  0.00     0.147 A 
HETATM   13  N5  UNL     1      44.908  15.397  33.429  1.00  0.00    -0.304 N 
ATOM     14  H5  UNL     1      44.301  16.152  33.750  1.00  0.00     0.171 HD
HETATM   15  C11 UNL     1      44.303  14.203  33.320  1.00  0.00     0.290 C 
HETATM   16  O6  UNL     1      43.195  14.015  33.880  1.00  0.00    -0.264 OA
ENDROOT
BRANCH  11  17
HETATM   17  C5  UNL     1      46.199  17.850  34.517  1.00  0.00     0.151 C 
BRANCH  17  18
HETATM   18  C6  UNL     1      45.801  19.164  33.980  1.00  0.00     0.040 C 
BRANCH  18  19
HETATM   19  C7  UNL     1      46.794  20.281  34.204  1.00  0.00     0.179 C 
BRANCH  19  20
HETATM   20  O3  UNL     1      46.986  21.016  33.012  1.00  0.00    -0.400 OA
ATOM     21  H3  UNL     1      46.706  20.506  32.261  1.00  0.00     0.209 HD
ENDBRANCH  19  20
ENDBRANCH  18  19
BRANCH  18  22
HETATM   22  C8  UNL     1      44.524  19.649  34.693  1.00  0.00     0.179 C 
BRANCH  22  23
HETATM   23  O4  UNL     1      44.678  21.013  34.932  1.00  0.00    -0.400 OA
ATOM     24  H4  UNL     1      45.612  21.192  34.946  1.00  0.00     0.209 HD
ENDBRANCH  22  23
ENDBRANCH  18  22
BRANCH  18  25
HETATM   25  C9  UNL     1      45.414  19.058  32.527  1.00  0.00     0.179 C 
BRANCH  25  26
HETATM   26  O5  UNL     1      44.397  20.001  32.222  1.00  0.00    -0.400 OA
ATOM     27  H5  UNL     1      43.795  20.079  32.953  1.00  0.00     0.209 HD
ENDBRANCH  25  26
ENDBRANCH  18  25
ENDBRANCH  17  18
ENDBRANCH  11  17
BRANCH   1  28
HETATM   28  N1  UNL     1      44.035  11.995  32.766  1.00  0.00    -0.381 N 
ATOM     29  H12 UNL     1      44.238  11.225  32.129  1.00  0.00     0.157 HD
ATOM     30  H11 UNL     1      43.317  11.965  33.490  1.00  0.00     0.157 HD
ENDBRANCH   1  28
TORSDOF 9
ENDMDL
MODEL 3
REMARK VINA RESULT: -4.059852657      2.180      5.585
REMARK  9 active torsions:
REMARK  status: ('A' for Active; 'I' for Inactive)
REMARK    1  A    between atoms: N1_1  and  C1_4 
REMARK    2  A    between atoms: N4_14  and  C5_15 
REMARK    3  A    between atoms: C5_15  and  C6_16 
REMARK    4  A    between atoms: C6_16  and  C7_17 
REMARK    5  A    between atoms: C6_16  and  C8_20 
REMARK    6  A    between atoms: C6_16  and  C9_23 
REMARK    7  A    between atoms: C7_17  and  O3_18 
REMARK    8  A    between atoms: C8_20  and  O4_21 
REMARK    9  A    between atoms: C9_23  and  O5_24 
ROOT
HETATM    1  C1  UNL     1      45.580  19.551  33.081  1.00  0.00     0.171 C 
HETATM    2  N2  UNL     1      46.803  19.999  32.735  1.00  0.00    -0.303 N 
ATOM      3  H2  UNL     1      46.840  21.000  32.543  1.00  0.00     0.171 HD
HETATM    4  C2  UNL     1      47.989  19.368  32.596  1.00  0.00     0.277 C 
HETATM    5  O1  UNL     1      49.009  20.026  32.293  1.00  0.00    -0.265 OA
HETATM    6  C3  UNL     1      48.257  18.010  32.751  1.00  0.00     0.150 A 
HETATM    7  N3  UNL     1      49.353  17.350  32.401  1.00  0.00    -0.301 N 
ATOM      8  H3  UNL     1      50.166  17.781  31.960  1.00  0.00     0.171 HD
HETATM    9  C4  UNL     1      49.262  16.042  32.699  1.00  0.00     0.328 A 
HETATM   10  O2  UNL     1      50.198  15.212  32.456  1.00  0.00    -0.246 OA
HETATM   11  N4  UNL     1      48.056  15.851  33.264  1.00  0.00    -0.282 N 
HETATM   12  C10 UNL     1      47.421  17.055  33.306  1.00  0.00     0.147 A 
HETATM   13  N5  UNL     1      46.195  17.280  33.821  1.00  0.00    -0.304 N 
ATOM     14  H5  UNL     1      45.866  16.559  34.464  1.00  0.00     0.171 HD
HETATM   15  C11 UNL     1      45.333  18.292  33.630  1.00  0.00     0.290 C 
HETATM   16  O6  UNL     1      44.131  18.156  33.968  1.00  0.00    -0.264 OA
ENDROOT
BRANCH  11  17
HETATM   17  C5  UNL     1      47.537  14.624  33.733  1.00  0.00     0.151 C 
BRANCH  17  18
HETATM   18  C6  UNL     1      46.705  13.788  32.847  1.00  0.00     0.040 C 
BRANCH  18  19
HETATM   19  C7  UNL     1      45.213  13.991  32.984  1.00  0.00     0.179 C 
BRANCH  19  20
HETATM   20  O3  UNL     1      44.782  15.047  32.149  1.00  0.00    -0.400 OA
ATOM     21  H3  UNL     1      44.576  14.719  31.281  1.00  0.00     0.209 HD
ENDBRANCH  19  20
ENDBRANCH  18  19
BRANCH  18  22
HETATM   22  C8  UNL     1      46.915  12.301  33.193  1.00  0.00     0.179 C 
BRANCH  22  23
HETATM   23  O4  UNL     1      48.104  12.210  33.913  1.00  0.00    -0.400 OA
ATOM     24  H4  UNL     1      47.930  11.669  34.675  1.00  0.00     0.209 HD
ENDBRANCH  22  23
ENDBRANCH  18  22
BRANCH  18  25
HETATM   25  C9  UNL     1      47.146  13.917  31.412  1.00  0.00     0.179 C 
BRANCH  25  26
HETATM   26  O5  UNL     1      48.282  13.098  31.176  1.00  0.00    -0.400 OA
ATOM     27  H5  UNL     1      48.052  12.380  30.599  1.00  0.00     0.209 HD
ENDBRANCH  25  26
ENDBRANCH  18  25
ENDBRANCH  17  18
ENDBRANCH  11  17
BRANCH   1  28
HETATM   28  N1  UNL     1      44.562  20.322  32.897  1.00  0.00    -0.381 N 
ATOM     29  H12 UNL     1      44.752  21.308  32.717  1.00  0.00     0.157 HD
ATOM     30  H11 UNL     1      43.627  19.918  32.940  1.00  0.00     0.157 HD
ENDBRANCH   1  28
TORSDOF 9
ENDMDL
MODEL 4
REMARK VINA RESULT: -4.010111733      1.399      3.079
REMARK  9 active torsions:
REMARK  status: ('A' for Active; 'I' for Inactive)
REMARK    1  A    between atoms: N1_1  and  C1_4 
REMARK    2  A    between atoms: N4_14  and  C5_15 
REMARK    3  A    between atoms: C5_15  and  C6_16 
REMARK    4  A    between atoms: C6_16  and  C7_17 
REMARK    5  A    between atoms: C6_16  and  C8_20 
REMARK    6  A    between atoms: C6_16  and  C9_23 
REMARK    7  A    between atoms: C7_17  and  O3_18 
REMARK    8  A    between atoms: C8_20  and  O4_21 
REMARK    9  A    between atoms: C9_23  and  O5_24 
ROOT
HETATM    1  C1  UNL     1      46.524  13.913  32.021  1.00  0.00     0.171 C 
HETATM    2  N2  UNL     1      45.343  13.586  32.584  1.00  0.00    -0.303 N 
ATOM      3  H2  UNL     1      45.012  12.653  32.343  1.00  0.00     0.171 HD
HETATM    4  C2  UNL     1      44.519  14.268  33.409  1.00  0.00     0.277 C 
HETATM    5  O1  UNL     1      43.475  13.722  33.830  1.00  0.00    -0.265 OA
HETATM    6  C3  UNL     1      44.671  15.568  33.887  1.00  0.00     0.150 A 
HETATM    7  N3  UNL     1      43.771  16.320  34.505  1.00  0.00    -0.301 N 
ATOM      8  H3  UNL     1      42.819  16.019  34.714  1.00  0.00     0.171 HD
HETATM    9  C4  UNL     1      44.267  17.529  34.822  1.00  0.00     0.328 A 
HETATM   10  O2  UNL     1      43.582  18.419  35.425  1.00  0.00    -0.246 OA
HETATM   11  N4  UNL     1      45.540  17.556  34.389  1.00  0.00    -0.282 N 
HETATM   12  C10 UNL     1      45.809  16.353  33.810  1.00  0.00     0.147 A 
HETATM   13  N5  UNL     1      46.990  15.986  33.272  1.00  0.00    -0.304 N 
ATOM     14  H5  UNL     1      47.789  16.540  33.584  1.00  0.00     0.171 HD
HETATM   15  C11 UNL     1      47.294  15.015  32.396  1.00  0.00     0.290 C 
HETATM   16  O6  UNL     1      48.400  15.038  31.801  1.00  0.00    -0.264 OA
ENDROOT
BRANCH  11  17
HETATM   17  C5  UNL     1      46.442  18.637  34.513  1.00  0.00     0.151 C 
BRANCH  17  18
HETATM   18  C6  UNL     1      46.372  19.768  33.569  1.00  0.00     0.040 C 
BRANCH  18  19
HETATM   19  C7  UNL     1      45.327  19.639  32.484  1.00  0.00     0.179 C 
BRANCH  19  20
HETATM   20  O3  UNL     1      44.165  20.364  32.833  1.00  0.00    -0.400 OA
ATOM     21  H3  UNL     1      43.460  19.770  33.061  1.00  0.00     0.209 HD
ENDBRANCH  19  20
ENDBRANCH  18  19
BRANCH  18  22
HETATM   22  C8  UNL     1      47.702  19.880  32.798  1.00  0.00     0.179 C 
BRANCH  22  23
HETATM   23  O4  UNL     1      47.829  18.725  32.027  1.00  0.00    -0.400 OA
ATOM     24  H4  UNL     1      48.303  18.090  32.551  1.00  0.00     0.209 HD
ENDBRANCH  22  23
ENDBRANCH  18  22
BRANCH  18  25
HETATM   25  C9  UNL     1      46.241  21.077  34.304  1.00  0.00     0.179 C 
BRANCH  25  26
HETATM   26  O5  UNL     1      45.358  20.931  35.407  1.00  0.00    -0.400 OA
ATOM     27  H5  UNL     1      44.890  21.743  35.559  1.00  0.00     0.209 HD
ENDBRANCH  25  26
ENDBRANCH  18  25
ENDBRANCH  17  18
ENDBRANCH  11  17
BRANCH   1  28
HETATM   28  N1  UNL     1      46.984  13.169  31.072  1.00  0.00    -0.381 N 
ATOM     29  H12 UNL     1      46.847  13.496  30.116  1.00  0.00     0.157 HD
ATOM     30  H11 UNL     1      47.459  12.300  31.317  1.00  0.00     0.157 HD
ENDBRANCH   1  28
TORSDOF 9
ENDMDL
MODEL 5
REMARK VINA RESULT: -4.007752591      0.644      1.511
REMARK  9 active torsions:
REMARK  status: ('A' for Active; 'I' for Inactive)
REMARK    1  A    between atoms: N1_1  and  C1_4 
REMARK    2  A    between atoms: N4_14  and  C5_15 
REMARK    3  A    between atoms: C5_15  and  C6_16 
REMARK    4  A    between atoms: C6_16  and  C7_17 
REMARK    5  A    between atoms: C6_16  and  C8_20 
REMARK    6  A    between atoms: C6_16  and  C9_23 
REMARK    7  A    between atoms: C7_17  and  O3_18 
REMARK    8  A    between atoms: C8_20  and  O4_21 
REMARK    9  A    between atoms: C9_23  and  O5_24 
ROOT
HETATM    1  C1  UNL     1      44.783  13.377  32.915  1.00  0.00     0.171 C 
HETATM    2  N2  UNL     1      45.813  13.301  32.048  1.00  0.00    -0.303 N 
ATOM      3  H2  UNL     1      45.813  12.456  31.477  1.00  0.00     0.171 HD
HETATM    4  C2  UNL     1      46.843  14.138  31.796  1.00  0.00     0.277 C 
HETATM    5  O1  UNL     1      47.667  13.851  30.899  1.00  0.00    -0.265 OA
HETATM    6  C3  UNL     1      47.139  15.343  32.427  1.00  0.00     0.150 A 
HETATM    7  N3  UNL     1      48.257  16.052  32.348  1.00  0.00    -0.301 N 
ATOM      8  H3  UNL     1      49.066  15.786  31.786  1.00  0.00     0.171 HD
HETATM    9  C4  UNL     1      48.192  17.166  33.098  1.00  0.00     0.328 A 
HETATM   10  O2  UNL     1      49.151  18.004  33.174  1.00  0.00    -0.246 OA
HETATM   11  N4  UNL     1      46.983  17.174  33.686  1.00  0.00    -0.282 N 
HETATM   12  C10 UNL     1      46.317  16.057  33.283  1.00  0.00     0.147 A 
HETATM   13  N5  UNL     1      45.062  15.717  33.642  1.00  0.00    -0.304 N 
ATOM     14  H5  UNL     1      44.499  16.490  33.999  1.00  0.00     0.171 HD
HETATM   15  C11 UNL     1      44.428  14.534  33.610  1.00  0.00     0.290 C 
HETATM   16  O6  UNL     1      43.369  14.378  34.268  1.00  0.00    -0.264 OA
ENDROOT
BRANCH  11  17
HETATM   17  C5  UNL     1      46.487  18.163  34.565  1.00  0.00     0.151 C 
BRANCH  17  18
HETATM   18  C6  UNL     1      45.795  19.349  34.025  1.00  0.00     0.040 C 
BRANCH  18  19
HETATM   19  C7  UNL     1      44.426  19.619  34.607  1.00  0.00     0.179 C 
BRANCH  19  20
HETATM   20  O3  UNL     1      43.751  18.402  34.857  1.00  0.00    -0.400 OA
ATOM     21  H3  UNL     1      43.201  18.171  34.118  1.00  0.00     0.209 HD
ENDBRANCH  19  20
ENDBRANCH  18  19
BRANCH  18  22
HETATM   22  C8  UNL     1      45.531  19.152  32.520  1.00  0.00     0.179 C 
BRANCH  22  23
HETATM   23  O4  UNL     1      44.438  19.949  32.186  1.00  0.00    -0.400 OA
ATOM     24  H4  UNL     1      44.207  19.746  31.287  1.00  0.00     0.209 HD
ENDBRANCH  22  23
ENDBRANCH  18  22
BRANCH  18  25
HETATM   25  C9  UNL     1      46.675  20.570  34.106  1.00  0.00     0.179 C 
BRANCH  25  26
HETATM   26  O5  UNL     1      47.389  20.739  32.890  1.00  0.00    -0.400 OA
ATOM     27  H5  UNL     1      48.080  20.091  32.824  1.00  0.00     0.209 HD
ENDBRANCH  25  26
ENDBRANCH  18  25
ENDBRANCH  17  18
ENDBRANCH  11  17
BRANCH   1  28
HETATM   28  N1  UNL     1      44.072  12.321  33.127  1.00  0.00    -0.381 N 
ATOM     29  H12 UNL     1      43.962  11.670  32.350  1.00  0.00     0.157 HD
ATOM     30  H11 UNL     1      43.658  12.187  34.049  1.00  0.00     0.157 HD
ENDBRANCH   1  28
TORSDOF 9
ENDMDL
