MODEL 1
REMARK VINA RESULT: -4.696708174      0.000      0.000
REMARK  9 active torsions:
REMARK  status: ('A' for Active; 'I' for Inactive)
REMARK    1  A    between atoms: N1_1  and  C1_4 
REMARK    2  A    between atoms: C3_10  and  N4_11 
REMARK    3  A    between atoms: N4_11  and  C4_13 
REMARK    4  A    between atoms: C4_13  and  C5_14 
REMARK       I    between atoms: C5_14  and  N5_16 
REMARK    5  A    between atoms: N5_16  and  C6_18 
REMARK    6  A    between atoms: C6_18  and  C7_19 
REMARK    7  A    between atoms: N7_24  and  N8_25 
REMARK    8  A    between atoms: C9_28  and  C10_29 
REMARK    9  A    between atoms: C10_29  and  N9_30 
ROOT
HETATM    1  C5  UNL     1      42.631  12.315  32.119  1.00  0.00     0.236 C 
HETATM    2  O1  UNL     1      43.312  11.435  32.694  1.00  0.00    -0.272 OA
HETATM    3  N5  UNL     1      42.924  13.673  32.403  1.00  0.00    -0.354 N 
ATOM      4  H5  UNL     1      42.373  14.390  31.930  1.00  0.00     0.162 HD
ENDROOT
BRANCH   3   5
HETATM    5  C6  UNL     1      43.943  14.102  33.309  1.00  0.00     0.181 C 
BRANCH   5   6
HETATM    6  C7  UNL     1      45.297  14.211  32.736  1.00  0.00     0.058 A 
HETATM    7  N6  UNL     1      45.934  13.303  31.979  1.00  0.00    -0.307 N 
HETATM    8  C8  UNL     1      47.153  13.838  31.709  1.00  0.00     0.345 A 
ATOM      9  H6  UNL     1      45.577  12.399  31.671  1.00  0.00     0.170 HD
HETATM   10  O2  UNL     1      48.054  13.287  31.018  1.00  0.00    -0.245 OA
HETATM   11  N7  UNL     1      47.266  15.055  32.289  1.00  0.00    -0.213 N 
HETATM   12  C9  UNL     1      46.119  15.316  32.941  1.00  0.00     0.088 A 
BRANCH  11  13
HETATM   13  N8  UNL     1      48.397  15.871  32.204  1.00  0.00    -0.334 N 
ATOM     14  H82 UNL     1      49.334  15.600  31.906  1.00  0.00     0.177 HD
ATOM     15  H81 UNL     1      48.413  16.864  32.437  1.00  0.00     0.177 HD
ENDBRANCH  11  13
BRANCH  12  16
HETATM   16  C10 UNL     1      45.797  16.541  33.720  1.00  0.00     0.290 C 
BRANCH  16  17
HETATM   17  N9  UNL     1      45.148  17.542  32.903  1.00  0.00    -0.074 N 
ATOM     18  H93 UNL     1      45.075  17.238  31.932  1.00  0.00     0.274 HD
ATOM     19  H92 UNL     1      44.154  17.614  33.122  1.00  0.00     0.274 HD
ATOM     20  H91 UNL     1      45.610  18.448  32.976  1.00  0.00     0.274 HD
ENDBRANCH  16  17
ENDBRANCH  12  16
ENDBRANCH   5   6
ENDBRANCH   3   5
BRANCH   1  21
HETATM   21  C4  UNL     1      41.566  11.894  31.182  1.00  0.00     0.240 C 
BRANCH  21  22
HETATM   22  N4  UNL     1      41.740  12.537  29.911  1.00  0.00    -0.217 N 
ATOM     23  H4  UNL     1      41.815  13.553  29.886  1.00  0.00     0.178 HD
BRANCH  22  24
HETATM   24  C3  UNL     1      41.805  11.893  28.811  1.00  0.00     0.693 A 
HETATM   25  N3  UNL     1      41.839  12.564  27.659  1.00  0.00    -0.187 N 
HETATM   26  C2  UNL     1      41.907  11.965  26.468  1.00  0.00     0.215 A 
ATOM     27  H3  UNL     1      41.812  13.584  27.690  1.00  0.00     0.185 HD
HETATM   28  N2  UNL     1      41.941  10.624  26.445  1.00  0.00    -0.187 N 
HETATM   29  C1  UNL     1      41.908   9.919  27.589  1.00  0.00     0.691 A 
ATOM     30  H2  UNL     1      41.992  10.135  25.551  1.00  0.00     0.185 HD
HETATM   31  N10 UNL     1      41.840  10.553  28.774  1.00  0.00    -0.023 N 
ATOM     32  H10 UNL     1      41.814  10.016  29.642  1.00  0.00     0.203 HD
BRANCH  29  33
HETATM   33  N1  UNL     1      41.943   8.633  27.521  1.00  0.00    -0.234 N 
ATOM     34  H12 UNL     1      42.825   8.134  27.412  1.00  0.00     0.174 HD
ATOM     35  H11 UNL     1      41.065   8.117  27.579  1.00  0.00     0.174 HD
ENDBRANCH  29  33
ENDBRANCH  22  24
ENDBRANCH  21  22
ENDBRANCH   1  21
TORSDOF 9
ENDMDL
MODEL 2
REMARK VINA RESULT: -4.668244359      1.398      1.679
REMARK  9 active torsions:
REMARK  status: ('A' for Active; 'I' for Inactive)
REMARK    1  A    between atoms: N1_1  and  C1_4 
REMARK    2  A    between atoms: C3_10  and  N4_11 
REMARK    3  A    between atoms: N4_11  and  C4_13 
REMARK    4  A    between atoms: C4_13  and  C5_14 
REMARK       I    between atoms: C5_14  and  N5_16 
REMARK    5  A    between atoms: N5_16  and  C6_18 
REMARK    6  A    between atoms: C6_18  and  C7_19 
REMARK    7  A    between atoms: N7_24  and  N8_25 
REMARK    8  A    between atoms: C9_28  and  C10_29 
REMARK    9  A    between atoms: C10_29  and  N9_30 
ROOT
HETATM    1  C5  UNL     1      42.324  12.173  31.486  1.00  0.00     0.236 C 
HETATM    2  O1  UNL     1      42.948  11.132  31.798  1.00  0.00    -0.272 OA
HETATM    3  N5  UNL     1      42.676  13.380  32.140  1.00  0.00    -0.354 N 
ATOM      4  H5  UNL     1      42.171  14.228  31.882  1.00  0.00     0.162 HD
ENDROOT
BRANCH   3   5
HETATM    5  C6  UNL     1      43.693  13.485  33.139  1.00  0.00     0.181 C 
BRANCH   5   6
HETATM    6  C7  UNL     1      45.057  13.725  32.632  1.00  0.00     0.058 A 
HETATM    7  N6  UNL     1      45.808  12.892  31.895  1.00  0.00    -0.307 N 
HETATM    8  C8  UNL     1      46.984  13.537  31.690  1.00  0.00     0.345 A 
ATOM      9  H6  UNL     1      45.548  11.965  31.558  1.00  0.00     0.170 HD
HETATM   10  O2  UNL     1      47.962  13.082  31.036  1.00  0.00    -0.245 OA
HETATM   11  N7  UNL     1      46.960  14.749  32.291  1.00  0.00    -0.213 N 
HETATM   12  C9  UNL     1      45.765  14.896  32.890  1.00  0.00     0.088 A 
BRANCH  11  13
HETATM   13  N8  UNL     1      48.015  15.665  32.271  1.00  0.00    -0.334 N 
ATOM     14  H82 UNL     1      49.013  15.460  32.327  1.00  0.00     0.177 HD
ATOM     15  H81 UNL     1      47.903  16.676  32.194  1.00  0.00     0.177 HD
ENDBRANCH  11  13
BRANCH  12  16
HETATM   16  C10 UNL     1      45.298  16.073  33.670  1.00  0.00     0.290 C 
BRANCH  16  17
HETATM   17  N9  UNL     1      44.753  17.102  32.813  1.00  0.00    -0.074 N 
ATOM     18  H93 UNL     1      44.131  16.707  32.108  1.00  0.00     0.274 HD
ATOM     19  H92 UNL     1      44.080  17.684  33.312  1.00  0.00     0.274 HD
ATOM     20  H91 UNL     1      45.488  17.667  32.386  1.00  0.00     0.274 HD
ENDBRANCH  16  17
ENDBRANCH  12  16
ENDBRANCH   5   6
ENDBRANCH   3   5
BRANCH   1  21
HETATM   21  C4  UNL     1      41.261  12.086  30.460  1.00  0.00     0.240 C 
BRANCH  21  22
HETATM   22  N4  UNL     1      41.818  12.277  29.151  1.00  0.00    -0.217 N 
ATOM     23  H4  UNL     1      42.775  12.618  29.075  1.00  0.00     0.178 HD
BRANCH  22  24
HETATM   24  C3  UNL     1      41.168  12.041  28.078  1.00  0.00     0.693 A 
HETATM   25  N3  UNL     1      41.825  11.657  26.984  1.00  0.00    -0.187 N 
HETATM   26  C2  UNL     1      41.218  11.392  25.825  1.00  0.00     0.215 A 
ATOM     27  H3  UNL     1      42.840  11.562  27.035  1.00  0.00     0.185 HD
HETATM   28  N2  UNL     1      39.884  11.523  25.775  1.00  0.00    -0.187 N 
HETATM   29  C1  UNL     1      39.193  11.908  26.860  1.00  0.00     0.691 A 
ATOM     30  H2  UNL     1      39.389  11.329  24.903  1.00  0.00     0.185 HD
HETATM   31  N10 UNL     1      39.834  12.168  28.015  1.00  0.00    -0.023 N 
ATOM     32  H10 UNL     1      39.308  12.461  28.839  1.00  0.00     0.203 HD
BRANCH  29  33
HETATM   33  N1  UNL     1      37.913  12.021  26.768  1.00  0.00    -0.234 N 
ATOM     34  H12 UNL     1      37.337  11.246  26.441  1.00  0.00     0.174 HD
ATOM     35  H11 UNL     1      37.481  12.907  27.031  1.00  0.00     0.174 HD
ENDBRANCH  29  33
ENDBRANCH  22  24
ENDBRANCH  21  22
ENDBRANCH   1  21
TORSDOF 9
ENDMDL
MODEL 3
REMARK VINA RESULT: -4.664077476      1.125      1.451
REMARK  9 active torsions:
REMARK  status: ('A' for Active; 'I' for Inactive)
REMARK    1  A    between atoms: N1_1  and  C1_4 
REMARK    2  A    between atoms: C3_10  and  N4_11 
REMARK    3  A    between atoms: N4_11  and  C4_13 
REMARK    4  A    between atoms: C4_13  and  C5_14 
REMARK       I    between atoms: C5_14  and  N5_16 
REMARK    5  A    between atoms: N5_16  and  C6_18 
REMARK    6  A    between atoms: C6_18  and  C7_19 
REMARK    7  A    between atoms: N7_24  and  N8_25 
REMARK    8  A    between atoms: C9_28  and  C10_29 
REMARK    9  A    between atoms: C10_29  and  N9_30 
ROOT
HETATM    1  C5  UNL     1      42.512  12.146  31.736  1.00  0.00     0.236 C 
HETATM    2  O1  UNL     1      43.168  11.175  32.180  1.00  0.00    -0.272 OA
HETATM    3  N5  UNL     1      42.826  13.439  32.225  1.00  0.00    -0.354 N 
ATOM      4  H5  UNL     1      42.294  14.230  31.859  1.00  0.00     0.162 HD
ENDROOT
BRANCH   3   5
HETATM    5  C6  UNL     1      43.839  13.706  33.197  1.00  0.00     0.181 C 
BRANCH   5   6
HETATM    6  C7  UNL     1      45.198  13.901  32.659  1.00  0.00     0.058 A 
HETATM    7  N6  UNL     1      45.906  13.041  31.909  1.00  0.00    -0.307 N 
HETATM    8  C8  UNL     1      47.097  13.649  31.675  1.00  0.00     0.345 A 
ATOM      9  H6  UNL     1      45.610  12.121  31.583  1.00  0.00     0.170 HD
HETATM   10  O2  UNL     1      48.046  13.160  31.001  1.00  0.00    -0.245 OA
HETATM   11  N7  UNL     1      47.124  14.864  32.270  1.00  0.00    -0.213 N 
HETATM   12  C9  UNL     1      45.948  15.050  32.895  1.00  0.00     0.088 A 
BRANCH  11  13
HETATM   13  N8  UNL     1      48.207  15.745  32.222  1.00  0.00    -0.334 N 
ATOM     14  H82 UNL     1      48.583  16.219  31.401  1.00  0.00     0.177 HD
ATOM     15  H81 UNL     1      48.762  16.024  33.031  1.00  0.00     0.177 HD
ENDBRANCH  11  13
BRANCH  12  16
HETATM   16  C10 UNL     1      45.536  16.245  33.679  1.00  0.00     0.290 C 
BRANCH  16  17
HETATM   17  N9  UNL     1      44.815  17.198  32.865  1.00  0.00    -0.074 N 
ATOM     18  H93 UNL     1      44.632  16.827  31.932  1.00  0.00     0.274 HD
ATOM     19  H92 UNL     1      43.853  17.308  33.184  1.00  0.00     0.274 HD
ATOM     20  H91 UNL     1      45.296  18.097  32.819  1.00  0.00     0.274 HD
ENDBRANCH  16  17
ENDBRANCH  12  16
ENDBRANCH   5   6
ENDBRANCH   3   5
BRANCH   1  21
HETATM   21  C4  UNL     1      41.453  11.891  30.735  1.00  0.00     0.240 C 
BRANCH  21  22
HETATM   22  N4  UNL     1      41.823  12.452  29.468  1.00  0.00    -0.217 N 
ATOM     23  H4  UNL     1      42.613  13.095  29.432  1.00  0.00     0.178 HD
BRANCH  22  24
HETATM   24  C3  UNL     1      41.208  12.182  28.382  1.00  0.00     0.693 A 
HETATM   25  N3  UNL     1      39.879  12.081  28.388  1.00  0.00    -0.187 N 
HETATM   26  C2  UNL     1      39.164  11.802  27.296  1.00  0.00     0.215 A 
ATOM     27  H3  UNL     1      39.384  12.225  29.269  1.00  0.00     0.185 HD
HETATM   28  N2  UNL     1      39.829  11.615  26.146  1.00  0.00    -0.187 N 
HETATM   29  C1  UNL     1      41.169  11.709  26.107  1.00  0.00     0.691 A 
ATOM     30  H2  UNL     1      39.313  11.398  25.293  1.00  0.00     0.185 HD
HETATM   31  N10 UNL     1      41.861  11.992  27.226  1.00  0.00    -0.023 N 
ATOM     32  H10 UNL     1      42.879  12.063  27.195  1.00  0.00     0.203 HD
BRANCH  29  33
HETATM   33  N1  UNL     1      41.767  11.522  24.982  1.00  0.00    -0.234 N 
ATOM     34  H12 UNL     1      41.430  10.831  24.312  1.00  0.00     0.174 HD
ATOM     35  H11 UNL     1      42.592  12.083  24.769  1.00  0.00     0.174 HD
ENDBRANCH  29  33
ENDBRANCH  22  24
ENDBRANCH  21  22
ENDBRANCH   1  21
TORSDOF 9
ENDMDL
MODEL 4
REMARK VINA RESULT: -4.653834336      2.028      6.957
REMARK  9 active torsions:
REMARK  status: ('A' for Active; 'I' for Inactive)
REMARK    1  A    between atoms: N1_1  and  C1_4 
REMARK    2  A    between atoms: C3_10  and  N4_11 
REMARK    3  A    between atoms: N4_11  and  C4_13 
REMARK    4  A    between atoms: C4_13  and  C5_14 
REMARK       I    between atoms: C5_14  and  N5_16 
REMARK    5  A    between atoms: N5_16  and  C6_18 
REMARK    6  A    between atoms: C6_18  and  C7_19 
REMARK    7  A    between atoms: N7_24  and  N8_25 
REMARK    8  A    between atoms: C9_28  and  C10_29 
REMARK    9  A    between atoms: C10_29  and  N9_30 
ROOT
HETATM    1  C5  UNL     1      45.485  11.369  32.134  1.00  0.00     0.236 C 
HETATM    2  O1  UNL     1      45.094  10.955  33.250  1.00  0.00    -0.272 OA
HETATM    3  N5  UNL     1      44.582  11.292  31.043  1.00  0.00    -0.354 N 
ATOM      4  H5  UNL     1      44.899  11.634  30.136  1.00  0.00     0.162 HD
ENDROOT
BRANCH   3   5
HETATM    5  C6  UNL     1      43.257  10.765  31.133  1.00  0.00     0.181 C 
BRANCH   5   6
HETATM    6  C7  UNL     1      42.217  11.730  31.535  1.00  0.00     0.058 A 
HETATM    7  N6  UNL     1      42.071  12.314  32.735  1.00  0.00    -0.307 N 
HETATM    8  C8  UNL     1      40.970  13.102  32.632  1.00  0.00     0.345 A 
ATOM      9  H6  UNL     1      42.665  12.192  33.555  1.00  0.00     0.170 HD
HETATM   10  O2  UNL     1      40.499  13.822  33.555  1.00  0.00    -0.245 OA
HETATM   11  N7  UNL     1      40.445  13.005  31.389  1.00  0.00    -0.213 N 
HETATM   12  C9  UNL     1      41.204  12.152  30.678  1.00  0.00     0.088 A 
BRANCH  11  13
HETATM   13  N8  UNL     1      39.307  13.690  30.955  1.00  0.00    -0.334 N 
ATOM     14  H82 UNL     1      38.380  13.681  31.379  1.00  0.00     0.177 HD
ATOM     15  H81 UNL     1      39.275  14.298  30.136  1.00  0.00     0.177 HD
ENDBRANCH  11  13
BRANCH  12  16
HETATM   16  C10 UNL     1      41.000  11.746  29.262  1.00  0.00     0.290 C 
BRANCH  16  17
HETATM   17  N9  UNL     1      41.804  12.535  28.357  1.00  0.00    -0.074 N 
ATOM     18  H93 UNL     1      41.498  13.508  28.339  1.00  0.00     0.274 HD
ATOM     19  H92 UNL     1      42.747  12.672  28.720  1.00  0.00     0.274 HD
ATOM     20  H91 UNL     1      41.823  12.134  27.419  1.00  0.00     0.274 HD
ENDBRANCH  16  17
ENDBRANCH  12  16
ENDBRANCH   5   6
ENDBRANCH   3   5
BRANCH   1  21
HETATM   21  C4  UNL     1      46.856  11.911  32.015  1.00  0.00     0.240 C 
BRANCH  21  22
HETATM   22  N4  UNL     1      46.841  13.143  31.280  1.00  0.00    -0.217 N 
ATOM     23  H4  UNL     1      46.848  13.102  30.262  1.00  0.00     0.178 HD
BRANCH  22  24
HETATM   24  C3  UNL     1      46.820  14.288  31.844  1.00  0.00     0.693 A 
HETATM   25  N3  UNL     1      47.969  14.904  32.123  1.00  0.00    -0.187 N 
HETATM   26  C2  UNL     1      48.031  16.101  32.711  1.00  0.00     0.215 A 
ATOM     27  H3  UNL     1      48.843  14.438  31.877  1.00  0.00     0.185 HD
HETATM   28  N2  UNL     1      46.873  16.700  33.030  1.00  0.00    -0.187 N 
HETATM   29  C1  UNL     1      45.698  16.105  32.762  1.00  0.00     0.691 A 
ATOM     30  H2  UNL     1      46.885  17.615  33.481  1.00  0.00     0.185 HD
HETATM   31  N10 UNL     1      45.670  14.897  32.168  1.00  0.00    -0.023 N 
ATOM     32  H10 UNL     1      44.777  14.447  31.965  1.00  0.00     0.203 HD
BRANCH  29  33
HETATM   33  N1  UNL     1      44.611  16.716  33.085  1.00  0.00    -0.234 N 
ATOM     34  H12 UNL     1      44.082  16.449  33.915  1.00  0.00     0.174 HD
ATOM     35  H11 UNL     1      44.284  17.477  32.490  1.00  0.00     0.174 HD
ENDBRANCH  29  33
ENDBRANCH  22  24
ENDBRANCH  21  22
ENDBRANCH   1  21
TORSDOF 9
ENDMDL
MODEL 5
REMARK VINA RESULT: -4.645989096      1.378      2.526
REMARK  9 active torsions:
REMARK  status: ('A' for Active; 'I' for Inactive)
REMARK    1  A    between atoms: N1_1  and  C1_4 
REMARK    2  A    between atoms: C3_10  and  N4_11 
REMARK    3  A    between atoms: N4_11  and  C4_13 
REMARK    4  A    between atoms: C4_13  and  C5_14 
REMARK       I    between atoms: C5_14  and  N5_16 
REMARK    5  A    between atoms: N5_16  and  C6_18 
REMARK    6  A    between atoms: C6_18  and  C7_19 
REMARK    7  A    between atoms: N7_24  and  N8_25 
REMARK    8  A    between atoms: C9_28  and  C10_29 
REMARK    9  A    between atoms: C10_29  and  N9_30 
ROOT
HETATM    1  C5  UNL     1      42.167  12.186  31.884  1.00  0.00     0.236 C 
HETATM    2  O1  UNL     1      42.816  11.217  32.342  1.00  0.00    -0.272 OA
HETATM    3  N5  UNL     1      42.385  13.463  32.461  1.00  0.00    -0.354 N 
ATOM      4  H5  UNL     1      41.861  14.253  32.084  1.00  0.00     0.162 HD
ENDROOT
BRANCH   3   5
HETATM    5  C6  UNL     1      43.293  13.714  33.535  1.00  0.00     0.181 C 
BRANCH   5   6
HETATM    6  C7  UNL     1      44.464  14.545  33.196  1.00  0.00     0.058 A 
HETATM    7  N6  UNL     1      44.537  15.885  33.202  1.00  0.00    -0.307 N 
HETATM    8  C8  UNL     1      45.799  16.188  32.803  1.00  0.00     0.345 A 
ATOM      9  H6  UNL     1      43.798  16.541  33.454  1.00  0.00     0.170 HD
HETATM   10  O2  UNL     1      46.266  17.354  32.680  1.00  0.00    -0.245 OA
HETATM   11  N7  UNL     1      46.493  15.053  32.555  1.00  0.00    -0.213 N 
HETATM   12  C9  UNL     1      45.682  14.006  32.792  1.00  0.00     0.088 A 
BRANCH  11  13
HETATM   13  N8  UNL     1      47.823  15.015  32.127  1.00  0.00    -0.334 N 
ATOM     14  H82 UNL     1      48.168  15.108  31.171  1.00  0.00     0.177 HD
ATOM     15  H81 UNL     1      48.625  14.887  32.743  1.00  0.00     0.177 HD
ENDBRANCH  11  13
BRANCH  12  16
HETATM   16  C10 UNL     1      46.024  12.565  32.650  1.00  0.00     0.290 C 
BRANCH  16  17
HETATM   17  N9  UNL     1      45.730  12.073  31.323  1.00  0.00    -0.074 N 
ATOM     18  H93 UNL     1      45.997  11.094  31.222  1.00  0.00     0.274 HD
ATOM     19  H92 UNL     1      44.725  11.980  31.175  1.00  0.00     0.274 HD
ATOM     20  H91 UNL     1      46.160  12.652  30.601  1.00  0.00     0.274 HD
ENDBRANCH  16  17
ENDBRANCH  12  16
ENDBRANCH   5   6
ENDBRANCH   3   5
BRANCH   1  21
HETATM   21  C4  UNL     1      41.216  11.948  30.777  1.00  0.00     0.240 C 
BRANCH  21  22
HETATM   22  N4  UNL     1      41.707  12.538  29.565  1.00  0.00    -0.217 N 
ATOM     23  H4  UNL     1      42.014  13.510  29.586  1.00  0.00     0.178 HD
BRANCH  22  24
HETATM   24  C3  UNL     1      41.777  11.901  28.461  1.00  0.00     0.693 A 
HETATM   25  N3  UNL     1      41.833  10.569  28.473  1.00  0.00    -0.187 N 
HETATM   26  C2  UNL     1      41.908   9.833  27.362  1.00  0.00     0.215 A 
ATOM     27  H3  UNL     1      41.817  10.091  29.374  1.00  0.00     0.185 HD
HETATM   28  N2  UNL     1      41.929  10.478  26.186  1.00  0.00    -0.187 N 
HETATM   29  C1  UNL     1      41.875  11.819  26.140  1.00  0.00     0.691 A 
ATOM     30  H2  UNL     1      41.987   9.944  25.318  1.00  0.00     0.185 HD
HETATM   31  N10 UNL     1      41.799  12.534  27.278  1.00  0.00    -0.023 N 
ATOM     32  H10 UNL     1      41.759  13.553  27.242  1.00  0.00     0.203 HD
BRANCH  29  33
HETATM   33  N1  UNL     1      41.897  12.398  24.989  1.00  0.00    -0.234 N 
ATOM     34  H12 UNL     1      42.708  12.321  24.375  1.00  0.00     0.174 HD
ATOM     35  H11 UNL     1      41.083  12.939  24.699  1.00  0.00     0.174 HD
ENDBRANCH  29  33
ENDBRANCH  22  24
ENDBRANCH  21  22
ENDBRANCH   1  21
TORSDOF 9
ENDMDL
