MODEL 1
REMARK VINA RESULT: -4.584232110      0.000      0.000
REMARK  9 active torsions:
REMARK  status: ('A' for Active; 'I' for Inactive)
REMARK    1  A    between atoms: C2_5  and  N2_6 
REMARK    2  A    between atoms: N2_6  and  C3_8 
REMARK    3  A    between atoms: C3_8  and  C4_9 
REMARK    4  A    between atoms: C4_9  and  O2_10 
REMARK    5  A    between atoms: C5_14  and  N4_15 
REMARK    6  A    between atoms: N4_15  and  C6_17 
REMARK    7  A    between atoms: C6_17  and  C7_18 
REMARK    8  A    between atoms: C7_18  and  N5_19 
REMARK    9  A    between atoms: C9_21  and  O3_22 
ROOT
HETATM    1  O1  UNL     1      47.984  13.180  31.082  1.00  0.00    -0.246 OA
HETATM    2  C1  UNL     1      47.243  14.002  31.685  1.00  0.00     0.352 A 
HETATM    3  N1  UNL     1      45.955  13.666  31.860  1.00  0.00    -0.140 N 
ATOM      4  H1  UNL     1      45.596  12.776  31.513  1.00  0.00     0.189 HD
HETATM    5  C2  UNL     1      45.147  14.530  32.502  1.00  0.00     0.696 A 
HETATM    6  N3  UNL     1      45.627  15.703  32.956  1.00  0.00    -0.022 N 
ATOM      7  H3  UNL     1      44.996  16.343  33.440  1.00  0.00     0.203 HD
HETATM    8  C5  UNL     1      46.914  16.056  32.791  1.00  0.00     0.696 A 
HETATM    9  N7  UNL     1      47.720  15.192  32.150  1.00  0.00    -0.140 N 
ATOM     10  H7  UNL     1      48.702  15.430  32.009  1.00  0.00     0.189 HD
ENDROOT
BRANCH   8  11
HETATM   11  N4  UNL     1      47.338  17.205  33.249  1.00  0.00    -0.224 N 
ATOM     12  H4  UNL     1      47.935  17.219  34.076  1.00  0.00     0.177 HD
BRANCH  11  13
HETATM   13  C6  UNL     1      46.987  18.448  32.620  1.00  0.00     0.158 C 
BRANCH  13  14
HETATM   14  C7  UNL     1      46.812  19.473  33.747  1.00  0.00     0.153 C 
BRANCH  14  15
HETATM   15  N5  UNL     1      45.441  19.633  34.123  1.00  0.00    -0.304 N 
HETATM   16  C8  UNL     1      44.661  20.672  33.766  1.00  0.00     0.151 A 
HETATM   17  C9  UNL     1      43.394  20.512  34.300  1.00  0.00     0.160 A 
HETATM   18  N6  UNL     1      43.439  19.359  34.979  1.00  0.00    -0.288 N 
HETATM   19  C10 UNL     1      44.667  18.839  34.868  1.00  0.00     0.328 A 
ATOM     20  H6  UNL     1      42.664  18.944  35.496  1.00  0.00     0.172 HD
HETATM   21  O4  UNL     1      45.060  17.752  35.389  1.00  0.00    -0.246 OA
BRANCH  17  22
HETATM   22  O3  UNL     1      42.319  21.371  34.153  1.00  0.00    -0.345 OA
ATOM     23  H3  UNL     1      41.410  21.184  34.356  1.00  0.00     0.219 HD
ENDBRANCH  17  22
ENDBRANCH  14  15
ENDBRANCH  13  14
ENDBRANCH  11  13
ENDBRANCH   8  11
BRANCH   5  24
HETATM   24  N2  UNL     1      43.908  14.279  32.705  1.00  0.00    -0.223 N 
ATOM     25  H2  UNL     1      43.287  15.075  32.844  1.00  0.00     0.177 HD
BRANCH  24  26
HETATM   26  C3  UNL     1      43.321  12.975  32.752  1.00  0.00     0.164 C 
BRANCH  26  27
HETATM   27  C4  UNL     1      41.897  12.978  32.220  1.00  0.00     0.184 C 
BRANCH  27  28
HETATM   28  O2  UNL     1      41.858  13.302  30.873  1.00  0.00    -0.399 OA
ATOM     29  H2  UNL     1      41.683  14.226  30.741  1.00  0.00     0.209 HD
ENDBRANCH  27  28
ENDBRANCH  26  27
ENDBRANCH  24  26
ENDBRANCH   5  24
TORSDOF 9
ENDMDL
MODEL 2
REMARK VINA RESULT: -4.540959967      1.297      1.361
REMARK  9 active torsions:
REMARK  status: ('A' for Active; 'I' for Inactive)
REMARK    1  A    between atoms: C2_5  and  N2_6 
REMARK    2  A    between atoms: N2_6  and  C3_8 
REMARK    3  A    between atoms: C3_8  and  C4_9 
REMARK    4  A    between atoms: C4_9  and  O2_10 
REMARK    5  A    between atoms: C5_14  and  N4_15 
REMARK    6  A    between atoms: N4_15  and  C6_17 
REMARK    7  A    between atoms: C6_17  and  C7_18 
REMARK    8  A    between atoms: C7_18  and  N5_19 
REMARK    9  A    between atoms: C9_21  and  O3_22 
ROOT
HETATM    1  O1  UNL     1      48.255  13.197  31.152  1.00  0.00    -0.246 OA
HETATM    2  C1  UNL     1      47.562  14.098  31.697  1.00  0.00     0.352 A 
HETATM    3  N1  UNL     1      46.240  13.886  31.808  1.00  0.00    -0.140 N 
ATOM      4  H1  UNL     1      45.820  13.024  31.461  1.00  0.00     0.189 HD
HETATM    5  C2  UNL     1      45.483  14.837  32.387  1.00  0.00     0.696 A 
HETATM    6  N3  UNL     1      46.044  15.972  32.842  1.00  0.00    -0.022 N 
ATOM      7  H3  UNL     1      45.451  16.678  33.277  1.00  0.00     0.203 HD
HETATM    8  C5  UNL     1      47.365  16.202  32.741  1.00  0.00     0.696 A 
HETATM    9  N7  UNL     1      48.121  15.252  32.162  1.00  0.00    -0.140 N 
ATOM     10  H7  UNL     1      49.127  15.396  32.071  1.00  0.00     0.189 HD
ENDROOT
BRANCH   8  11
HETATM   11  N4  UNL     1      47.869  17.319  33.197  1.00  0.00    -0.224 N 
ATOM     12  H4  UNL     1      48.504  17.287  33.994  1.00  0.00     0.177 HD
BRANCH  11  13
HETATM   13  C6  UNL     1      47.553  18.590  32.607  1.00  0.00     0.158 C 
BRANCH  13  14
HETATM   14  C7  UNL     1      47.279  19.554  33.767  1.00  0.00     0.153 C 
BRANCH  14  15
HETATM   15  N5  UNL     1      45.889  19.621  34.098  1.00  0.00    -0.304 N 
HETATM   16  C8  UNL     1      45.046  20.589  33.688  1.00  0.00     0.151 A 
HETATM   17  C9  UNL     1      43.778  20.348  34.187  1.00  0.00     0.160 A 
HETATM   18  N6  UNL     1      43.886  19.220  34.900  1.00  0.00    -0.288 N 
HETATM   19  C10 UNL     1      45.152  18.791  34.842  1.00  0.00     0.328 A 
ATOM     20  H6  UNL     1      43.128  18.763  35.405  1.00  0.00     0.172 HD
HETATM   21  O4  UNL     1      45.607  17.751  35.405  1.00  0.00    -0.246 OA
BRANCH  17  22
HETATM   22  O3  UNL     1      42.648  21.120  33.983  1.00  0.00    -0.345 OA
ATOM     23  H3  UNL     1      41.745  20.853  34.114  1.00  0.00     0.219 HD
ENDBRANCH  17  22
ENDBRANCH  14  15
ENDBRANCH  13  14
ENDBRANCH  11  13
ENDBRANCH   8  11
BRANCH   5  24
HETATM   24  N2  UNL     1      44.218  14.704  32.527  1.00  0.00    -0.223 N 
ATOM     25  H2  UNL     1      43.621  15.185  31.855  1.00  0.00     0.177 HD
BRANCH  24  26
HETATM   26  C3  UNL     1      43.569  13.937  33.545  1.00  0.00     0.164 C 
BRANCH  26  27
HETATM   27  C4  UNL     1      42.721  14.810  34.455  1.00  0.00     0.184 C 
BRANCH  27  28
HETATM   28  O2  UNL     1      43.338  16.023  34.716  1.00  0.00    -0.399 OA
ATOM     29  H2  UNL     1      42.703  16.701  34.917  1.00  0.00     0.209 HD
ENDBRANCH  27  28
ENDBRANCH  26  27
ENDBRANCH  24  26
ENDBRANCH   5  24
TORSDOF 9
ENDMDL
MODEL 3
REMARK VINA RESULT: -4.506473420      6.712      9.626
REMARK  9 active torsions:
REMARK  status: ('A' for Active; 'I' for Inactive)
REMARK    1  A    between atoms: C2_5  and  N2_6 
REMARK    2  A    between atoms: N2_6  and  C3_8 
REMARK    3  A    between atoms: C3_8  and  C4_9 
REMARK    4  A    between atoms: C4_9  and  O2_10 
REMARK    5  A    between atoms: C5_14  and  N4_15 
REMARK    6  A    between atoms: N4_15  and  C6_17 
REMARK    7  A    between atoms: C6_17  and  C7_18 
REMARK    8  A    between atoms: C7_18  and  N5_19 
REMARK    9  A    between atoms: C9_21  and  O3_22 
ROOT
HETATM    1  O1  UNL     1      43.328   9.559  31.260  1.00  0.00    -0.246 OA
HETATM    2  C1  UNL     1      42.696  10.485  30.685  1.00  0.00     0.352 A 
HETATM    3  N1  UNL     1      42.200  11.470  31.453  1.00  0.00    -0.140 N 
ATOM      4  H1  UNL     1      42.336  11.461  32.464  1.00  0.00     0.189 HD
HETATM    5  C2  UNL     1      41.521  12.468  30.859  1.00  0.00     0.696 A 
HETATM    6  N3  UNL     1      41.346  12.474  29.525  1.00  0.00    -0.022 N 
ATOM      7  H3  UNL     1      40.828  13.241  29.096  1.00  0.00     0.203 HD
HETATM    8  C5  UNL     1      41.835  11.497  28.739  1.00  0.00     0.696 A 
HETATM    9  N7  UNL     1      42.513  10.500  29.334  1.00  0.00    -0.140 N 
ATOM     10  H7  UNL     1      42.897   9.744  28.766  1.00  0.00     0.189 HD
ENDROOT
BRANCH   8  11
HETATM   11  N4  UNL     1      41.642  11.542  27.447  1.00  0.00    -0.224 N 
ATOM     12  H4  UNL     1      42.163  12.221  26.891  1.00  0.00     0.177 HD
BRANCH  11  13
HETATM   13  C6  UNL     1      40.716  10.663  26.788  1.00  0.00     0.158 C 
BRANCH  13  14
HETATM   14  C7  UNL     1      39.945  11.520  25.777  1.00  0.00     0.153 C 
BRANCH  14  15
HETATM   15  N5  UNL     1      38.573  11.686  26.145  1.00  0.00    -0.304 N 
HETATM   16  C8  UNL     1      37.524  11.242  25.426  1.00  0.00     0.151 A 
HETATM   17  C9  UNL     1      36.343  11.570  26.068  1.00  0.00     0.160 A 
HETATM   18  N6  UNL     1      36.712  12.217  27.181  1.00  0.00    -0.288 N 
HETATM   19  C10 UNL     1      38.048  12.282  27.220  1.00  0.00     0.328 A 
ATOM     20  H6  UNL     1      36.079  12.597  27.884  1.00  0.00     0.172 HD
HETATM   21  O4  UNL     1      38.736  12.827  28.134  1.00  0.00    -0.246 OA
BRANCH  17  22
HETATM   22  O3  UNL     1      35.058  11.284  25.638  1.00  0.00    -0.345 OA
ATOM     23  H3  UNL     1      34.364  10.882  26.148  1.00  0.00     0.219 HD
ENDBRANCH  17  22
ENDBRANCH  14  15
ENDBRANCH  13  14
ENDBRANCH  11  13
ENDBRANCH   8  11
BRANCH   5  24
HETATM   24  N2  UNL     1      41.021  13.440  31.526  1.00  0.00    -0.223 N 
ATOM     25  H2  UNL     1      41.414  14.367  31.365  1.00  0.00     0.177 HD
BRANCH  24  26
HETATM   26  C3  UNL     1      39.959  13.336  32.479  1.00  0.00     0.164 C 
BRANCH  26  27
HETATM   27  C4  UNL     1      38.596  13.353  31.808  1.00  0.00     0.184 C 
BRANCH  27  28
HETATM   28  O2  UNL     1      38.622  14.066  30.619  1.00  0.00    -0.399 OA
ATOM     29  H2  UNL     1      38.152  13.612  29.930  1.00  0.00     0.209 HD
ENDBRANCH  27  28
ENDBRANCH  26  27
ENDBRANCH  24  26
ENDBRANCH   5  24
TORSDOF 9
ENDMDL
MODEL 4
REMARK VINA RESULT: -4.379476718      2.443      3.160
REMARK  9 active torsions:
REMARK  status: ('A' for Active; 'I' for Inactive)
REMARK    1  A    between atoms: C2_5  and  N2_6 
REMARK    2  A    between atoms: N2_6  and  C3_8 
REMARK    3  A    between atoms: C3_8  and  C4_9 
REMARK    4  A    between atoms: C4_9  and  O2_10 
REMARK    5  A    between atoms: C5_14  and  N4_15 
REMARK    6  A    between atoms: N4_15  and  C6_17 
REMARK    7  A    between atoms: C6_17  and  C7_18 
REMARK    8  A    between atoms: C7_18  and  N5_19 
REMARK    9  A    between atoms: C9_21  and  O3_22 
ROOT
HETATM    1  O1  UNL     1      49.317  14.839  32.033  1.00  0.00    -0.246 OA
HETATM    2  C1  UNL     1      48.104  14.496  32.048  1.00  0.00     0.352 A 
HETATM    3  N1  UNL     1      47.812  13.227  31.719  1.00  0.00    -0.140 N 
ATOM      4  H1  UNL     1      48.551  12.570  31.468  1.00  0.00     0.189 HD
HETATM    5  C2  UNL     1      46.522  12.842  31.728  1.00  0.00     0.696 A 
HETATM    6  N3  UNL     1      45.552  13.714  32.060  1.00  0.00    -0.022 N 
ATOM      7  H3  UNL     1      44.582  13.399  32.060  1.00  0.00     0.203 HD
HETATM    8  C5  UNL     1      45.825  14.988  32.392  1.00  0.00     0.696 A 
HETATM    9  N7  UNL     1      47.114  15.372  32.383  1.00  0.00    -0.140 N 
ATOM     10  H7  UNL     1      47.355  16.332  32.631  1.00  0.00     0.189 HD
ENDROOT
BRANCH   8  11
HETATM   11  N4  UNL     1      44.853  15.802  32.709  1.00  0.00    -0.224 N 
ATOM     12  H4  UNL     1      44.368  16.307  31.967  1.00  0.00     0.177 HD
BRANCH  11  13
HETATM   13  C6  UNL     1      44.447  16.006  34.072  1.00  0.00     0.158 C 
BRANCH  13  14
HETATM   14  C7  UNL     1      45.317  17.142  34.621  1.00  0.00     0.153 C 
BRANCH  14  15
HETATM   15  N5  UNL     1      45.029  18.395  33.994  1.00  0.00    -0.304 N 
HETATM   16  C8  UNL     1      44.061  19.247  34.386  1.00  0.00     0.151 A 
HETATM   17  C9  UNL     1      44.056  20.360  33.564  1.00  0.00     0.160 A 
HETATM   18  N6  UNL     1      45.038  20.151  32.678  1.00  0.00    -0.288 N 
HETATM   19  C10 UNL     1      45.615  18.973  32.942  1.00  0.00     0.328 A 
ATOM     20  H6  UNL     1      45.303  20.785  31.925  1.00  0.00     0.172 HD
HETATM   21  O4  UNL     1      46.580  18.461  32.299  1.00  0.00    -0.246 OA
BRANCH  17  22
HETATM   22  O3  UNL     1      43.209  21.451  33.652  1.00  0.00    -0.345 OA
ATOM     23  H3  UNL     1      43.420  22.354  33.443  1.00  0.00     0.219 HD
ENDBRANCH  17  22
ENDBRANCH  14  15
ENDBRANCH  13  14
ENDBRANCH  11  13
ENDBRANCH   8  11
BRANCH   5  24
HETATM   24  N2  UNL     1      46.168  11.649  31.426  1.00  0.00    -0.223 N 
ATOM     25  H2  UNL     1      45.718  11.511  30.523  1.00  0.00     0.177 HD
BRANCH  24  26
HETATM   26  C3  UNL     1      46.352  10.493  32.249  1.00  0.00     0.164 C 
BRANCH  26  27
HETATM   27  C4  UNL     1      47.363   9.529  31.651  1.00  0.00     0.184 C 
BRANCH  27  28
HETATM   28  O2  UNL     1      48.339  10.199  30.930  1.00  0.00    -0.399 OA
ATOM     29  H2  UNL     1      48.309   9.972  30.008  1.00  0.00     0.209 HD
ENDBRANCH  27  28
ENDBRANCH  26  27
ENDBRANCH  24  26
ENDBRANCH   5  24
TORSDOF 9
ENDMDL
MODEL 5
REMARK VINA RESULT: -4.341268617      6.939      8.454
REMARK  9 active torsions:
REMARK  status: ('A' for Active; 'I' for Inactive)
REMARK    1  A    between atoms: C2_5  and  N2_6 
REMARK    2  A    between atoms: N2_6  and  C3_8 
REMARK    3  A    between atoms: C3_8  and  C4_9 
REMARK    4  A    between atoms: C4_9  and  O2_10 
REMARK    5  A    between atoms: C5_14  and  N4_15 
REMARK    6  A    between atoms: N4_15  and  C6_17 
REMARK    7  A    between atoms: C6_17  and  C7_18 
REMARK    8  A    between atoms: C7_18  and  N5_19 
REMARK    9  A    between atoms: C9_21  and  O3_22 
ROOT
HETATM    1  O1  UNL     1      42.397   9.521  26.167  1.00  0.00    -0.246 OA
HETATM    2  C1  UNL     1      41.643  10.366  26.720  1.00  0.00     0.352 A 
HETATM    3  N1  UNL     1      40.450  10.601  26.150  1.00  0.00    -0.140 N 
ATOM      4  H1  UNL     1      40.171  10.110  25.301  1.00  0.00     0.189 HD
HETATM    5  C2  UNL     1      39.630  11.501  26.724  1.00  0.00     0.696 A 
HETATM    6  N3  UNL     1      40.004  12.147  27.845  1.00  0.00    -0.022 N 
ATOM      7  H3  UNL     1      39.366  12.825  28.262  1.00  0.00     0.203 HD
HETATM    8  C5  UNL     1      41.194  11.924  28.430  1.00  0.00     0.696 A 
HETATM    9  N7  UNL     1      42.013  11.025  27.855  1.00  0.00    -0.140 N 
ATOM     10  H7  UNL     1      42.922  10.833  28.274  1.00  0.00     0.189 HD
ENDROOT
BRANCH   8  11
HETATM   11  N4  UNL     1      41.517  12.573  29.517  1.00  0.00    -0.224 N 
ATOM     12  H4  UNL     1      41.622  13.587  29.477  1.00  0.00     0.177 HD
BRANCH  11  13
HETATM   13  C6  UNL     1      41.729  11.899  30.768  1.00  0.00     0.158 C 
BRANCH  13  14
HETATM   14  C7  UNL     1      40.345  11.493  31.286  1.00  0.00     0.153 C 
BRANCH  14  15
HETATM   15  N5  UNL     1      39.648  12.590  31.883  1.00  0.00    -0.304 N 
HETATM   16  C8  UNL     1      39.749  12.953  33.177  1.00  0.00     0.151 A 
HETATM   17  C9  UNL     1      38.944  14.052  33.419  1.00  0.00     0.160 A 
HETATM   18  N6  UNL     1      38.365  14.333  32.245  1.00  0.00    -0.288 N 
HETATM   19  C10 UNL     1      38.792  13.454  31.331  1.00  0.00     0.328 A 
ATOM     20  H6  UNL     1      37.706  15.093  32.076  1.00  0.00     0.172 HD
HETATM   21  O4  UNL     1      38.444  13.426  30.113  1.00  0.00    -0.246 OA
BRANCH  17  22
HETATM   22  O3  UNL     1      38.783  14.711  34.626  1.00  0.00    -0.345 OA
ATOM     23  H3  UNL     1      38.688  15.648  34.754  1.00  0.00     0.219 HD
ENDBRANCH  17  22
ENDBRANCH  14  15
ENDBRANCH  13  14
ENDBRANCH  11  13
ENDBRANCH   8  11
BRANCH   5  24
HETATM   24  N2  UNL     1      38.478  11.777  26.239  1.00  0.00    -0.223 N 
ATOM     25  H2  UNL     1      38.443  12.082  25.266  1.00  0.00     0.177 HD
BRANCH  24  26
HETATM   26  C3  UNL     1      37.235  11.692  26.942  1.00  0.00     0.164 C 
BRANCH  26  27
HETATM   27  C4  UNL     1      36.513  13.028  26.974  1.00  0.00     0.184 C 
BRANCH  27  28
HETATM   28  O2  UNL     1      37.253  13.992  27.640  1.00  0.00    -0.399 OA
ATOM     29  H2  UNL     1      37.590  13.664  28.465  1.00  0.00     0.209 HD
ENDBRANCH  27  28
ENDBRANCH  26  27
ENDBRANCH  24  26
ENDBRANCH   5  24
TORSDOF 9
ENDMDL
