MODEL 1
REMARK VINA RESULT: -6.758119613      0.000      0.000
REMARK  8 active torsions:
REMARK  status: ('A' for Active; 'I' for Inactive)
REMARK    1  A    between atoms: O1_2  and  C2_3 
REMARK    2  A    between atoms: C4_5  and  O2_6 
REMARK    3  A    between atoms: C6_8  and  O3_9 
REMARK    4  A    between atoms: C10_15  and  N2_16 
REMARK    5  A    between atoms: N2_16  and  N3_18 
REMARK    6  A    between atoms: N4_21  and  C11_22 
REMARK    7  A    between atoms: C12_25  and  N6_26 
REMARK    8  A    between atoms: N9_36  and  O7_37 
ROOT
HETATM    1  C11 UNL     1     -18.296 -21.323  -1.906  1.00  0.00     0.170 A 
HETATM    2  N5  UNL     1     -18.717 -20.138  -2.451  1.00  0.00    -0.173 N 
ATOM      3  H5  UNL     1     -19.715 -19.949  -2.547  1.00  0.00     0.186 HD
HETATM    4  C12 UNL     1     -17.817 -19.219  -2.861  1.00  0.00     0.680 A 
HETATM    5  N7  UNL     1     -16.500 -19.451  -2.742  1.00  0.00    -0.155 N 
ATOM      6  H7  UNL     1     -15.828 -18.751  -3.056  1.00  0.00     0.187 HD
HETATM    7  C13 UNL     1     -16.068 -20.607  -2.209  1.00  0.00     0.284 A 
HETATM    8  O6  UNL     1     -14.854 -20.836  -2.092  1.00  0.00    -0.266 OA
HETATM    9  C14 UNL     1     -16.969 -21.588  -1.769  1.00  0.00     0.159 A 
HETATM   10  C15 UNL     1     -16.503 -22.800  -1.195  1.00  0.00     0.109 C 
HETATM   11  N8  UNL     1     -16.110 -23.761  -0.727  1.00  0.00    -0.191 NA
ENDROOT
BRANCH   1  12
HETATM   12  N4  UNL     1     -19.297 -22.215  -1.494  1.00  0.00    -0.204 N 
HETATM   13  C10 UNL     1     -19.721 -22.215  -0.121  1.00  0.00     0.337 C 
HETATM   14  N1  UNL     1     -20.327 -23.472   0.263  1.00  0.00    -0.345 N 
HETATM   15  C9  UNL     1     -20.853 -24.393  -0.650  1.00  0.00     0.099 A 
ATOM     16  H1  UNL     1     -20.372 -23.700   1.256  1.00  0.00     0.163 HD
HETATM   17  C2  UNL     1     -21.599 -25.494  -0.215  1.00  0.00     0.100 A 
HETATM   18  C8  UNL     1     -20.649 -24.217  -2.002  1.00  0.00     0.146 A 
HETATM   19  C3  UNL     1     -22.122 -26.387  -1.121  1.00  0.00     0.078 A 
HETATM   20  C4  UNL     1     -21.938 -26.240  -2.476  1.00  0.00     0.106 A 
HETATM   21  C6  UNL     1     -21.195 -25.141  -2.886  1.00  0.00     0.135 A 
HETATM   22  N9  UNL     1     -19.858 -23.113  -2.440  1.00  0.00    -0.151 N 
BRANCH  13  23
HETATM   23  N2  UNL     1     -20.505 -21.093   0.275  1.00  0.00    -0.234 N 
ATOM     24  H2  UNL     1     -21.507 -21.113   0.085  1.00  0.00     0.190 HD
BRANCH  23  25
HETATM   25  N3  UNL     1     -19.983 -19.980   0.903  1.00  0.00    -0.040 N 
HETATM   26  O4  UNL     1     -19.766 -18.879   0.369  1.00  0.00    -0.517 OA
HETATM   27  O5  UNL     1     -19.659 -20.032   2.261  1.00  0.00    -0.517 OA
ENDBRANCH  23  25
ENDBRANCH  13  23
BRANCH  17  28
HETATM   28  O1  UNL     1     -21.780 -25.633   1.168  1.00  0.00    -0.353 OA
HETATM   29  C1  UNL     1     -23.038 -25.383   1.723  1.00  0.00     0.210 C 
ENDBRANCH  17  28
BRANCH  20  30
HETATM   30  O2  UNL     1     -22.439 -27.099  -3.403  1.00  0.00    -0.353 OA
HETATM   31  C5  UNL     1     -23.768 -27.487  -3.545  1.00  0.00     0.210 C 
ENDBRANCH  20  30
BRANCH  21  32
HETATM   32  O3  UNL     1     -20.993 -24.966  -4.260  1.00  0.00    -0.351 OA
HETATM   33  C7  UNL     1     -22.125 -24.423  -4.972  1.00  0.00     0.210 C 
ENDBRANCH  21  32
BRANCH  22  34
HETATM   34  O7  UNL     1     -19.640 -22.956  -3.751  1.00  0.00    -0.267 OA
ATOM     35  H7  UNL     1     -19.309 -23.693  -4.252  1.00  0.00     0.247 HD
ENDBRANCH  22  34
ENDBRANCH   1  12
BRANCH   4  36
HETATM   36  N6  UNL     1     -18.262 -18.108  -3.376  1.00  0.00    -0.234 N 
ATOM     37  H62 UNL     1     -18.886 -18.113  -4.184  1.00  0.00     0.174 HD
ATOM     38  H61 UNL     1     -17.972 -17.229  -2.949  1.00  0.00     0.174 HD
ENDBRANCH   4  36
TORSDOF 8
ENDMDL
MODEL 2
REMARK VINA RESULT: -6.736261036      2.201      7.042
REMARK  8 active torsions:
REMARK  status: ('A' for Active; 'I' for Inactive)
REMARK    1  A    between atoms: O1_2  and  C2_3 
REMARK    2  A    between atoms: C4_5  and  O2_6 
REMARK    3  A    between atoms: C6_8  and  O3_9 
REMARK    4  A    between atoms: C10_15  and  N2_16 
REMARK    5  A    between atoms: N2_16  and  N3_18 
REMARK    6  A    between atoms: N4_21  and  C11_22 
REMARK    7  A    between atoms: C12_25  and  N6_26 
REMARK    8  A    between atoms: N9_36  and  O7_37 
ROOT
HETATM    1  C11 UNL     1     -19.434 -23.737  -1.198  1.00  0.00     0.170 A 
HETATM    2  N5  UNL     1     -19.844 -24.468  -0.114  1.00  0.00    -0.173 N 
ATOM      3  H5  UNL     1     -19.535 -24.205   0.822  1.00  0.00     0.186 HD
HETATM    4  C12 UNL     1     -20.655 -25.534  -0.278  1.00  0.00     0.680 A 
HETATM    5  N7  UNL     1     -21.072 -25.894  -1.503  1.00  0.00    -0.155 N 
ATOM      6  H7  UNL     1     -21.684 -26.702  -1.617  1.00  0.00     0.187 HD
HETATM    7  C13 UNL     1     -20.681 -25.189  -2.578  1.00  0.00     0.284 A 
HETATM    8  O6  UNL     1     -21.058 -25.509  -3.716  1.00  0.00    -0.266 OA
HETATM    9  C14 UNL     1     -19.839 -24.074  -2.452  1.00  0.00     0.159 A 
HETATM   10  C15 UNL     1     -19.444 -23.328  -3.593  1.00  0.00     0.109 C 
HETATM   11  N8  UNL     1     -19.146 -22.735  -4.519  1.00  0.00    -0.191 NA
ENDROOT
BRANCH   1  12
HETATM   12  N4  UNL     1     -18.603 -22.638  -0.936  1.00  0.00    -0.204 N 
HETATM   13  C10 UNL     1     -19.182 -21.328  -0.820  1.00  0.00     0.337 C 
HETATM   14  N1  UNL     1     -18.217 -20.280  -1.078  1.00  0.00    -0.345 N 
HETATM   15  C9  UNL     1     -16.832 -20.462  -0.998  1.00  0.00     0.099 A 
ATOM     16  H1  UNL     1     -18.567 -19.356  -1.332  1.00  0.00     0.163 HD
HETATM   17  C2  UNL     1     -15.957 -19.371  -1.064  1.00  0.00     0.100 A 
HETATM   18  C8  UNL     1     -16.310 -21.728  -0.842  1.00  0.00     0.146 A 
HETATM   19  C3  UNL     1     -14.597 -19.559  -0.973  1.00  0.00     0.078 A 
HETATM   20  C4  UNL     1     -14.044 -20.809  -0.815  1.00  0.00     0.106 A 
HETATM   21  C6  UNL     1     -14.930 -21.876  -0.753  1.00  0.00     0.135 A 
HETATM   22  N9  UNL     1     -17.203 -22.841  -0.810  1.00  0.00    -0.151 N 
BRANCH  13  23
HETATM   23  N2  UNL     1     -19.929 -21.095   0.371  1.00  0.00    -0.234 N 
ATOM     24  H2  UNL     1     -20.574 -21.820   0.685  1.00  0.00     0.190 HD
BRANCH  23  25
HETATM   25  N3  UNL     1     -19.827 -19.942   1.123  1.00  0.00    -0.040 N 
HETATM   26  O4  UNL     1     -19.931 -18.781   0.693  1.00  0.00    -0.517 OA
HETATM   27  O5  UNL     1     -19.595 -20.024   2.498  1.00  0.00    -0.517 OA
ENDBRANCH  23  25
ENDBRANCH  13  23
BRANCH  17  28
HETATM   28  O1  UNL     1     -16.531 -18.103  -1.224  1.00  0.00    -0.353 OA
HETATM   29  C1  UNL     1     -16.558 -17.221  -0.140  1.00  0.00     0.210 C 
ENDBRANCH  17  28
BRANCH  20  30
HETATM   30  O2  UNL     1     -12.707 -21.036  -0.720  1.00  0.00    -0.353 OA
HETATM   31  C5  UNL     1     -11.828 -20.459   0.191  1.00  0.00     0.210 C 
ENDBRANCH  20  30
BRANCH  21  32
HETATM   32  O3  UNL     1     -14.396 -23.160  -0.591  1.00  0.00    -0.351 OA
HETATM   33  C7  UNL     1     -14.017 -23.490   0.762  1.00  0.00     0.210 C 
ENDBRANCH  21  32
BRANCH  22  34
HETATM   34  O7  UNL     1     -16.695 -24.072  -0.683  1.00  0.00    -0.267 OA
ATOM     35  H7  UNL     1     -17.275 -24.819  -0.778  1.00  0.00     0.247 HD
ENDBRANCH  22  34
ENDBRANCH   1  12
BRANCH   4  36
HETATM   36  N6  UNL     1     -21.018 -26.201   0.780  1.00  0.00    -0.234 N 
ATOM     37  H62 UNL     1     -20.571 -26.041   1.684  1.00  0.00     0.174 HD
ATOM     38  H61 UNL     1     -21.764 -26.890   0.684  1.00  0.00     0.174 HD
ENDBRANCH   4  36
TORSDOF 8
ENDMDL
MODEL 3
REMARK VINA RESULT: -6.634153119      1.825      6.855
REMARK  8 active torsions:
REMARK  status: ('A' for Active; 'I' for Inactive)
REMARK    1  A    between atoms: O1_2  and  C2_3 
REMARK    2  A    between atoms: C4_5  and  O2_6 
REMARK    3  A    between atoms: C6_8  and  O3_9 
REMARK    4  A    between atoms: C10_15  and  N2_16 
REMARK    5  A    between atoms: N2_16  and  N3_18 
REMARK    6  A    between atoms: N4_21  and  C11_22 
REMARK    7  A    between atoms: C12_25  and  N6_26 
REMARK    8  A    between atoms: N9_36  and  O7_37 
ROOT
HETATM    1  C11 UNL     1     -20.209 -23.767  -0.940  1.00  0.00     0.170 A 
HETATM    2  N5  UNL     1     -20.555 -23.996   0.366  1.00  0.00    -0.173 N 
ATOM      3  H5  UNL     1     -20.294 -23.321   1.086  1.00  0.00     0.186 HD
HETATM    4  C12 UNL     1     -21.239 -25.108   0.705  1.00  0.00     0.680 A 
HETATM    5  N7  UNL     1     -21.590 -26.006  -0.229  1.00  0.00    -0.155 N 
ATOM      6  H7  UNL     1     -22.106 -26.845   0.037  1.00  0.00     0.187 HD
HETATM    7  C13 UNL     1     -21.261 -25.799  -1.516  1.00  0.00     0.284 A 
HETATM    8  O6  UNL     1     -21.579 -26.620  -2.391  1.00  0.00    -0.266 OA
HETATM    9  C14 UNL     1     -20.551 -24.656  -1.911  1.00  0.00     0.159 A 
HETATM   10  C15 UNL     1     -20.220 -24.440  -3.275  1.00  0.00     0.109 C 
HETATM   11  N8  UNL     1     -19.973 -24.278  -4.375  1.00  0.00    -0.191 NA
ENDROOT
BRANCH   1  12
HETATM   12  N4  UNL     1     -19.511 -22.580  -1.206  1.00  0.00    -0.204 N 
HETATM   13  C10 UNL     1     -20.243 -21.362  -1.411  1.00  0.00     0.337 C 
HETATM   14  N1  UNL     1     -19.484 -20.389  -2.169  1.00  0.00    -0.345 N 
HETATM   15  C9  UNL     1     -18.091 -20.418  -2.295  1.00  0.00     0.099 A 
ATOM     16  H1  UNL     1     -19.994 -19.640  -2.636  1.00  0.00     0.163 HD
HETATM   17  C2  UNL     1     -17.397 -19.348  -2.870  1.00  0.00     0.100 A 
HETATM   18  C8  UNL     1     -17.379 -21.508  -1.840  1.00  0.00     0.146 A 
HETATM   19  C3  UNL     1     -16.025 -19.381  -2.980  1.00  0.00     0.078 A 
HETATM   20  C4  UNL     1     -15.286 -20.452  -2.534  1.00  0.00     0.106 A 
HETATM   21  C6  UNL     1     -15.994 -21.503  -1.967  1.00  0.00     0.135 A 
HETATM   22  N9  UNL     1     -18.093 -22.612  -1.286  1.00  0.00    -0.151 N 
BRANCH  13  23
HETATM   23  N2  UNL     1     -20.830 -20.798  -0.241  1.00  0.00    -0.234 N 
ATOM     24  H2  UNL     1     -21.826 -20.950  -0.081  1.00  0.00     0.190 HD
BRANCH  23  25
HETATM   25  N3  UNL     1     -20.125 -20.059   0.686  1.00  0.00    -0.040 N 
HETATM   26  O4  UNL     1     -19.777 -20.448   1.815  1.00  0.00    -0.517 OA
HETATM   27  O5  UNL     1     -19.731 -18.753   0.385  1.00  0.00    -0.517 OA
ENDBRANCH  23  25
ENDBRANCH  13  23
BRANCH  17  28
HETATM   28  O1  UNL     1     -18.160 -18.261  -3.320  1.00  0.00    -0.353 OA
HETATM   29  C1  UNL     1     -18.430 -18.132  -4.684  1.00  0.00     0.210 C 
ENDBRANCH  17  28
BRANCH  20  30
HETATM   30  O2  UNL     1     -13.931 -20.522  -2.623  1.00  0.00    -0.353 OA
HETATM   31  C5  UNL     1     -13.016 -19.595  -2.133  1.00  0.00     0.210 C 
ENDBRANCH  20  30
BRANCH  21  32
HETATM   32  O3  UNL     1     -15.268 -22.606  -1.504  1.00  0.00    -0.351 OA
HETATM   33  C7  UNL     1     -14.637 -22.416  -0.220  1.00  0.00     0.210 C 
ENDBRANCH  21  32
BRANCH  22  34
HETATM   34  O7  UNL     1     -17.404 -23.680  -0.866  1.00  0.00    -0.267 OA
ATOM     35  H7  UNL     1     -17.870 -24.496  -0.717  1.00  0.00     0.247 HD
ENDBRANCH  22  34
ENDBRANCH   1  12
BRANCH   4  36
HETATM   36  N6  UNL     1     -21.544 -25.286   1.959  1.00  0.00    -0.234 N 
ATOM     37  H62 UNL     1     -20.881 -25.060   2.701  1.00  0.00     0.174 HD
ATOM     38  H61 UNL     1     -22.468 -25.657   2.183  1.00  0.00     0.174 HD
ENDBRANCH   4  36
TORSDOF 8
ENDMDL
MODEL 4
REMARK VINA RESULT: -6.498126865      2.436      7.152
REMARK  8 active torsions:
REMARK  status: ('A' for Active; 'I' for Inactive)
REMARK    1  A    between atoms: O1_2  and  C2_3 
REMARK    2  A    between atoms: C4_5  and  O2_6 
REMARK    3  A    between atoms: C6_8  and  O3_9 
REMARK    4  A    between atoms: C10_15  and  N2_16 
REMARK    5  A    between atoms: N2_16  and  N3_18 
REMARK    6  A    between atoms: N4_21  and  C11_22 
REMARK    7  A    between atoms: C12_25  and  N6_26 
REMARK    8  A    between atoms: N9_36  and  O7_37 
ROOT
HETATM    1  C11 UNL     1     -19.854 -22.147  -1.178  1.00  0.00     0.170 A 
HETATM    2  N5  UNL     1     -20.150 -22.945  -0.104  1.00  0.00    -0.173 N 
ATOM      3  H5  UNL     1     -19.581 -22.890   0.741  1.00  0.00     0.186 HD
HETATM    4  C12 UNL     1     -21.191 -23.802  -0.158  1.00  0.00     0.680 A 
HETATM    5  N7  UNL     1     -21.950 -23.887  -1.262  1.00  0.00    -0.155 N 
ATOM      6  H7  UNL     1     -22.734 -24.539  -1.294  1.00  0.00     0.187 HD
HETATM    7  C13 UNL     1     -21.676 -23.113  -2.326  1.00  0.00     0.284 A 
HETATM    8  O6  UNL     1     -22.369 -23.180  -3.353  1.00  0.00    -0.266 OA
HETATM    9  C14 UNL     1     -20.604 -22.208  -2.311  1.00  0.00     0.159 A 
HETATM   10  C15 UNL     1     -20.332 -21.385  -3.435  1.00  0.00     0.109 C 
HETATM   11  N8  UNL     1     -20.135 -20.724  -4.342  1.00  0.00    -0.191 NA
ENDROOT
BRANCH   1  12
HETATM   12  N4  UNL     1     -18.765 -21.276  -1.033  1.00  0.00    -0.204 N 
HETATM   13  C10 UNL     1     -18.996 -19.859  -0.990  1.00  0.00     0.337 C 
HETATM   14  N1  UNL     1     -17.819 -19.103  -1.364  1.00  0.00    -0.345 N 
HETATM   15  C9  UNL     1     -16.519 -19.619  -1.327  1.00  0.00     0.099 A 
ATOM     16  H1  UNL     1     -17.945 -18.139  -1.671  1.00  0.00     0.163 HD
HETATM   17  C2  UNL     1     -15.408 -18.788  -1.508  1.00  0.00     0.100 A 
HETATM   18  C8  UNL     1     -16.317 -20.964  -1.099  1.00  0.00     0.146 A 
HETATM   19  C3  UNL     1     -14.133 -19.303  -1.459  1.00  0.00     0.078 A 
HETATM   20  C4  UNL     1     -13.897 -20.639  -1.231  1.00  0.00     0.106 A 
HETATM   21  C6  UNL     1     -15.013 -21.446  -1.055  1.00  0.00     0.135 A 
HETATM   22  N9  UNL     1     -17.453 -21.814  -0.949  1.00  0.00    -0.151 N 
BRANCH  13  23
HETATM   23  N2  UNL     1     -19.592 -19.374   0.210  1.00  0.00    -0.234 N 
ATOM     24  H2  UNL     1     -20.508 -18.928   0.147  1.00  0.00     0.190 HD
BRANCH  23  25
HETATM   25  N3  UNL     1     -19.000 -19.474   1.452  1.00  0.00    -0.040 N 
HETATM   26  O4  UNL     1     -17.885 -19.022   1.765  1.00  0.00    -0.517 OA
HETATM   27  O5  UNL     1     -19.667 -20.123   2.494  1.00  0.00    -0.517 OA
ENDBRANCH  23  25
ENDBRANCH  13  23
BRANCH  17  28
HETATM   28  O1  UNL     1     -15.661 -17.428  -1.738  1.00  0.00    -0.353 OA
HETATM   29  C1  UNL     1     -14.822 -16.711  -2.595  1.00  0.00     0.210 C 
ENDBRANCH  17  28
BRANCH  20  30
HETATM   30  O2  UNL     1     -12.654 -21.186  -1.175  1.00  0.00    -0.353 OA
HETATM   31  C5  UNL     1     -11.872 -21.588  -2.253  1.00  0.00     0.210 C 
ENDBRANCH  20  30
BRANCH  21  32
HETATM   32  O3  UNL     1     -14.803 -22.809  -0.821  1.00  0.00    -0.351 OA
HETATM   33  C7  UNL     1     -14.380 -23.133   0.521  1.00  0.00     0.210 C 
ENDBRANCH  21  32
BRANCH  22  34
HETATM   34  O7  UNL     1     -17.257 -23.123  -0.751  1.00  0.00    -0.267 OA
ATOM     35  H7  UNL     1     -17.403 -23.482   0.116  1.00  0.00     0.247 HD
ENDBRANCH  22  34
ENDBRANCH   1  12
BRANCH   4  36
HETATM   36  N6  UNL     1     -21.434 -24.543   0.886  1.00  0.00    -0.234 N 
ATOM     37  H62 UNL     1     -21.975 -25.405   0.807  1.00  0.00     0.174 HD
ATOM     38  H61 UNL     1     -21.068 -24.240   1.788  1.00  0.00     0.174 HD
ENDBRANCH   4  36
TORSDOF 8
ENDMDL
MODEL 5
REMARK VINA RESULT: -6.420252138      1.357      1.589
REMARK  8 active torsions:
REMARK  status: ('A' for Active; 'I' for Inactive)
REMARK    1  A    between atoms: O1_2  and  C2_3 
REMARK    2  A    between atoms: C4_5  and  O2_6 
REMARK    3  A    between atoms: C6_8  and  O3_9 
REMARK    4  A    between atoms: C10_15  and  N2_16 
REMARK    5  A    between atoms: N2_16  and  N3_18 
REMARK    6  A    between atoms: N4_21  and  C11_22 
REMARK    7  A    between atoms: C12_25  and  N6_26 
REMARK    8  A    between atoms: N9_36  and  O7_37 
ROOT
HETATM    1  C11 UNL     1     -17.616 -20.933  -1.216  1.00  0.00     0.170 A 
HETATM    2  N5  UNL     1     -17.855 -19.597  -1.406  1.00  0.00    -0.173 N 
ATOM      3  H5  UNL     1     -18.802 -19.274  -1.602  1.00  0.00     0.186 HD
HETATM    4  C12 UNL     1     -16.843 -18.707  -1.334  1.00  0.00     0.680 A 
HETATM    5  N7  UNL     1     -15.590 -19.116  -1.077  1.00  0.00    -0.155 N 
ATOM      6  H7  UNL     1     -14.832 -18.436  -1.026  1.00  0.00     0.187 HD
HETATM    7  C13 UNL     1     -15.336 -20.422  -0.888  1.00  0.00     0.284 A 
HETATM    8  O6  UNL     1     -14.183 -20.814  -0.649  1.00  0.00    -0.266 OA
HETATM    9  C14 UNL     1     -16.359 -21.380  -0.953  1.00  0.00     0.159 A 
HETATM   10  C15 UNL     1     -16.082 -22.756  -0.738  1.00  0.00     0.109 C 
HETATM   11  N8  UNL     1     -15.843 -23.853  -0.551  1.00  0.00    -0.191 NA
ENDROOT
BRANCH   1  12
HETATM   12  N4  UNL     1     -18.726 -21.787  -1.295  1.00  0.00    -0.204 N 
HETATM   13  C10 UNL     1     -19.515 -22.028  -0.119  1.00  0.00     0.337 C 
HETATM   14  N1  UNL     1     -20.253 -23.271  -0.202  1.00  0.00    -0.345 N 
HETATM   15  C9  UNL     1     -20.539 -23.927  -1.405  1.00  0.00     0.099 A 
ATOM     16  H1  UNL     1     -20.582 -23.694   0.666  1.00  0.00     0.163 HD
HETATM   17  C2  UNL     1     -21.419 -25.014  -1.441  1.00  0.00     0.100 A 
HETATM   18  C8  UNL     1     -19.959 -23.497  -2.580  1.00  0.00     0.146 A 
HETATM   19  C3  UNL     1     -21.703 -25.645  -2.631  1.00  0.00     0.078 A 
HETATM   20  C4  UNL     1     -21.144 -25.239  -3.821  1.00  0.00     0.106 A 
HETATM   21  C6  UNL     1     -20.273 -24.160  -3.761  1.00  0.00     0.135 A 
HETATM   22  N9  UNL     1     -19.036 -22.410  -2.533  1.00  0.00    -0.151 N 
BRANCH  13  23
HETATM   23  N2  UNL     1     -20.334 -20.940   0.300  1.00  0.00    -0.234 N 
ATOM     24  H2  UNL     1     -21.288 -20.888  -0.059  1.00  0.00     0.190 HD
BRANCH  23  25
HETATM   25  N3  UNL     1     -19.909 -19.952   1.164  1.00  0.00    -0.040 N 
HETATM   26  O4  UNL     1     -19.566 -20.119   2.348  1.00  0.00    -0.517 OA
HETATM   27  O5  UNL     1     -19.825 -18.629   0.726  1.00  0.00    -0.517 OA
ENDBRANCH  23  25
ENDBRANCH  13  23
BRANCH  17  28
HETATM   28  O1  UNL     1     -21.984 -25.417  -0.223  1.00  0.00    -0.353 OA
HETATM   29  C1  UNL     1     -21.564 -26.613   0.364  1.00  0.00     0.210 C 
ENDBRANCH  17  28
BRANCH  20  30
HETATM   30  O2  UNL     1     -21.399 -25.835  -5.016  1.00  0.00    -0.353 OA
HETATM   31  C5  UNL     1     -22.651 -26.154  -5.535  1.00  0.00     0.210 C 
ENDBRANCH  20  30
BRANCH  21  32
HETATM   32  O3  UNL     1     -19.690 -23.725  -4.957  1.00  0.00    -0.351 OA
HETATM   33  C7  UNL     1     -20.567 -22.966  -5.816  1.00  0.00     0.210 C 
ENDBRANCH  21  32
BRANCH  22  34
HETATM   34  O7  UNL     1     -18.455 -22.008  -3.670  1.00  0.00    -0.267 OA
ATOM     35  H7  UNL     1     -17.721 -22.507  -4.010  1.00  0.00     0.247 HD
ENDBRANCH  22  34
ENDBRANCH   1  12
BRANCH   4  36
HETATM   36  N6  UNL     1     -17.116 -17.447  -1.523  1.00  0.00    -0.234 N 
ATOM     37  H62 UNL     1     -17.071 -17.032  -2.454  1.00  0.00     0.174 HD
ATOM     38  H61 UNL     1     -17.379 -16.884  -0.715  1.00  0.00     0.174 HD
ENDBRANCH   4  36
TORSDOF 8
ENDMDL
