MODEL 1
REMARK VINA RESULT: -7.553573197      0.000      0.000
REMARK  10 active torsions:
REMARK  status: ('A' for Active; 'I' for Inactive)
REMARK    1  A    between atoms: O1_2  and  C2_3 
REMARK    2  A    between atoms: C2_3  and  C3_5 
REMARK    3  A    between atoms: C4_6  and  O3_7 
REMARK    4  A    between atoms: C6_9  and  O4_10 
REMARK    5  A    between atoms: C8_12  and  O5_13 
REMARK    6  A    between atoms: C9_15  and  O6_16 
REMARK    7  A    between atoms: C10_18  and  C11_19 
REMARK       I    between atoms: C11_19  and  N1_21 
REMARK    8  A    between atoms: N1_21  and  N2_22 
REMARK    9  A    between atoms: N2_22  and  C12_24 
REMARK   10  A    between atoms: C13_27  and  N4_28 
ROOT
HETATM    1  C11 UNL     1     -20.595 -21.452  -0.188  1.00  0.00     0.350 C 
HETATM    2  O7  UNL     1     -21.767 -21.047  -0.473  1.00  0.00    -0.249 OA
HETATM    3  N1  UNL     1     -20.354 -22.745   0.215  1.00  0.00    -0.266 NA
ENDROOT
BRANCH   1   4
HETATM    4  C10 UNL     1     -19.529 -20.438  -0.321  1.00  0.00     0.103 A 
HETATM    5  C3  UNL     1     -18.965 -20.195  -1.534  1.00  0.00     0.095 A 
HETATM    6  C4  UNL     1     -17.957 -19.219  -1.658  1.00  0.00     0.121 A 
HETATM    7  C6  UNL     1     -17.522 -18.490  -0.566  1.00  0.00     0.139 A 
HETATM    8  C8  UNL     1     -18.100 -18.740   0.672  1.00  0.00     0.136 A 
HETATM    9  C9  UNL     1     -19.099 -19.714   0.781  1.00  0.00     0.120 A 
BRANCH   5  10
HETATM   10  C2  UNL     1     -19.365 -20.916  -2.717  1.00  0.00     0.297 C 
HETATM   11  O2  UNL     1     -20.233 -20.538  -3.549  1.00  0.00    -0.259 OA
BRANCH  10  12
HETATM   12  O1  UNL     1     -18.748 -22.147  -2.994  1.00  0.00    -0.322 OA
HETATM   13  C1  UNL     1     -19.477 -23.328  -3.273  1.00  0.00     0.213 C 
ENDBRANCH  10  12
ENDBRANCH   5  10
BRANCH   6  14
HETATM   14  O3  UNL     1     -17.416 -19.006  -2.899  1.00  0.00    -0.352 OA
HETATM   15  C5  UNL     1     -16.272 -19.584  -3.440  1.00  0.00     0.210 C 
ENDBRANCH   6  14
BRANCH   7  16
HETATM   16  O4  UNL     1     -16.547 -17.533  -0.644  1.00  0.00    -0.351 OA
HETATM   17  C7  UNL     1     -15.176 -17.742  -0.524  1.00  0.00     0.210 C 
ENDBRANCH   7  16
BRANCH   8  18
HETATM   18  O5  UNL     1     -17.651 -18.003   1.749  1.00  0.00    -0.356 OA
ATOM     19  H5  UNL     1     -17.295 -18.477   2.491  1.00  0.00     0.218 HD
ENDBRANCH   8  18
BRANCH   9  20
HETATM   20  O6  UNL     1     -19.649 -19.940   2.010  1.00  0.00    -0.357 OA
ATOM     21  H6  UNL     1     -20.591 -19.859   2.104  1.00  0.00     0.218 HD
ENDBRANCH   9  20
ENDBRANCH   1   4
BRANCH   3  22
HETATM   22  N2  UNL     1     -20.127 -23.964   0.594  1.00  0.00    -0.061 N 
ATOM     23  H2  UNL     1     -19.149 -24.178   0.789  1.00  0.00     0.221 HD
BRANCH  22  24
HETATM   24  C12 UNL     1     -20.938 -24.945   0.763  1.00  0.00     0.710 A 
HETATM   25  N3  UNL     1     -20.644 -26.178   0.333  1.00  0.00    -0.174 N 
HETATM   26  C13 UNL     1     -21.500 -27.220   0.523  1.00  0.00     0.130 A 
ATOM     27  H3  UNL     1     -19.759 -26.340  -0.148  1.00  0.00     0.186 HD
HETATM   28  C14 UNL     1     -22.682 -26.950   1.177  1.00  0.00     0.071 A 
HETATM   29  C15 UNL     1     -23.763 -27.735   1.541  1.00  0.00     0.126 A 
HETATM   30  C17 UNL     1     -23.013 -25.670   1.637  1.00  0.00     0.152 A 
HETATM   31  N5  UNL     1     -24.651 -26.953   2.167  1.00  0.00    -0.307 N 
HETATM   32  N6  UNL     1     -24.220 -25.709   2.236  1.00  0.00    -0.280 N 
ATOM     33  H5  UNL     1     -25.543 -27.277   2.542  1.00  0.00     0.186 HD
HETATM   34  C16 UNL     1     -24.884 -24.557   2.840  1.00  0.00     0.179 C 
HETATM   35  N7  UNL     1     -22.103 -24.717   1.399  1.00  0.00    -0.172 N 
ATOM     36  H7  UNL     1     -22.303 -23.768   1.716  1.00  0.00     0.186 HD
BRANCH  26  37
HETATM   37  N4  UNL     1     -21.234 -28.411   0.110  1.00  0.00    -0.384 N 
ATOM     38  H42 UNL     1     -20.275 -28.686  -0.107  1.00  0.00     0.157 HD
ATOM     39  H41 UNL     1     -21.958 -29.118  -0.013  1.00  0.00     0.157 HD
ENDBRANCH  26  37
ENDBRANCH  22  24
ENDBRANCH   3  22
TORSDOF 10
ENDMDL
MODEL 2
REMARK VINA RESULT: -7.189019915      1.907      2.600
REMARK  10 active torsions:
REMARK  status: ('A' for Active; 'I' for Inactive)
REMARK    1  A    between atoms: O1_2  and  C2_3 
REMARK    2  A    between atoms: C2_3  and  C3_5 
REMARK    3  A    between atoms: C4_6  and  O3_7 
REMARK    4  A    between atoms: C6_9  and  O4_10 
REMARK    5  A    between atoms: C8_12  and  O5_13 
REMARK    6  A    between atoms: C9_15  and  O6_16 
REMARK    7  A    between atoms: C10_18  and  C11_19 
REMARK       I    between atoms: C11_19  and  N1_21 
REMARK    8  A    between atoms: N1_21  and  N2_22 
REMARK    9  A    between atoms: N2_22  and  C12_24 
REMARK   10  A    between atoms: C13_27  and  N4_28 
ROOT
HETATM    1  C11 UNL     1     -20.481 -21.096  -0.042  1.00  0.00     0.350 C 
HETATM    2  O7  UNL     1     -21.559 -20.452  -0.240  1.00  0.00    -0.249 OA
HETATM    3  N1  UNL     1     -20.482 -22.446   0.226  1.00  0.00    -0.266 NA
ENDROOT
BRANCH   1   4
HETATM    4  C10 UNL     1     -19.243 -20.293  -0.122  1.00  0.00     0.103 A 
HETATM    5  C3  UNL     1     -18.498 -20.298  -1.259  1.00  0.00     0.095 A 
HETATM    6  C4  UNL     1     -17.325 -19.521  -1.335  1.00  0.00     0.121 A 
HETATM    7  C6  UNL     1     -16.908 -18.742  -0.271  1.00  0.00     0.139 A 
HETATM    8  C8  UNL     1     -17.671 -18.738   0.889  1.00  0.00     0.136 A 
HETATM    9  C9  UNL     1     -18.833 -19.516   0.951  1.00  0.00     0.120 A 
BRANCH   5  10
HETATM   10  C2  UNL     1     -18.869 -21.086  -2.408  1.00  0.00     0.297 C 
HETATM   11  O2  UNL     1     -18.518 -22.277  -2.628  1.00  0.00    -0.259 OA
BRANCH  10  12
HETATM   12  O1  UNL     1     -19.697 -20.504  -3.383  1.00  0.00    -0.322 OA
HETATM   13  C1  UNL     1     -20.773 -21.194  -3.990  1.00  0.00     0.213 C 
ENDBRANCH  10  12
ENDBRANCH   5  10
BRANCH   6  14
HETATM   14  O3  UNL     1     -16.604 -19.555  -2.500  1.00  0.00    -0.352 OA
HETATM   15  C5  UNL     1     -16.570 -18.598  -3.509  1.00  0.00     0.210 C 
ENDBRANCH   6  14
BRANCH   7  16
HETATM   16  O4  UNL     1     -15.777 -17.972  -0.305  1.00  0.00    -0.351 OA
HETATM   17  C7  UNL     1     -14.477 -18.407  -0.060  1.00  0.00     0.210 C 
ENDBRANCH   7  16
BRANCH   8  18
HETATM   18  O5  UNL     1     -17.237 -17.955   1.939  1.00  0.00    -0.356 OA
ATOM     19  H5  UNL     1     -16.299 -17.870   2.068  1.00  0.00     0.218 HD
ENDBRANCH   8  18
BRANCH   9  20
HETATM   20  O6  UNL     1     -19.563 -19.496   2.104  1.00  0.00    -0.357 OA
ATOM     21  H6  UNL     1     -20.465 -19.201   2.061  1.00  0.00     0.218 HD
ENDBRANCH   9  20
ENDBRANCH   1   4
BRANCH   3  22
HETATM   22  N2  UNL     1     -20.484 -23.718   0.479  1.00  0.00    -0.061 N 
ATOM     23  H2  UNL     1     -20.123 -23.974   1.398  1.00  0.00     0.221 HD
BRANCH  22  24
HETATM   24  C12 UNL     1     -20.870 -24.706  -0.244  1.00  0.00     0.710 A 
HETATM   25  N3  UNL     1     -20.672 -25.972   0.140  1.00  0.00    -0.174 N 
HETATM   26  C13 UNL     1     -21.092 -27.021  -0.622  1.00  0.00     0.130 A 
ATOM     27  H3  UNL     1     -20.197 -26.157   1.024  1.00  0.00     0.186 HD
HETATM   28  C14 UNL     1     -21.728 -26.720  -1.806  1.00  0.00     0.071 A 
HETATM   29  C15 UNL     1     -22.278 -27.500  -2.810  1.00  0.00     0.126 A 
HETATM   30  C17 UNL     1     -21.948 -25.404  -2.231  1.00  0.00     0.152 A 
HETATM   31  N5  UNL     1     -22.778 -26.682  -3.744  1.00  0.00    -0.307 N 
HETATM   32  N6  UNL     1     -22.590 -25.418  -3.416  1.00  0.00    -0.280 N 
ATOM     33  H5  UNL     1     -23.242 -26.994  -4.597  1.00  0.00     0.186 HD
HETATM   34  C16 UNL     1     -22.988 -24.225  -4.158  1.00  0.00     0.179 C 
HETATM   35  N7  UNL     1     -21.496 -24.449  -1.409  1.00  0.00    -0.172 N 
ATOM     36  H7  UNL     1     -21.633 -23.475  -1.679  1.00  0.00     0.186 HD
BRANCH  26  37
HETATM   37  N4  UNL     1     -20.904 -28.245  -0.268  1.00  0.00    -0.384 N 
ATOM     38  H42 UNL     1     -20.143 -28.495   0.364  1.00  0.00     0.157 HD
ATOM     39  H41 UNL     1     -21.502 -29.003  -0.597  1.00  0.00     0.157 HD
ENDBRANCH  26  37
ENDBRANCH  22  24
ENDBRANCH   3  22
TORSDOF 10
ENDMDL
MODEL 3
REMARK VINA RESULT: -7.077402265      1.165      3.237
REMARK  10 active torsions:
REMARK  status: ('A' for Active; 'I' for Inactive)
REMARK    1  A    between atoms: O1_2  and  C2_3 
REMARK    2  A    between atoms: C2_3  and  C3_5 
REMARK    3  A    between atoms: C4_6  and  O3_7 
REMARK    4  A    between atoms: C6_9  and  O4_10 
REMARK    5  A    between atoms: C8_12  and  O5_13 
REMARK    6  A    between atoms: C9_15  and  O6_16 
REMARK    7  A    between atoms: C10_18  and  C11_19 
REMARK       I    between atoms: C11_19  and  N1_21 
REMARK    8  A    between atoms: N1_21  and  N2_22 
REMARK    9  A    between atoms: N2_22  and  C12_24 
REMARK   10  A    between atoms: C13_27  and  N4_28 
ROOT
HETATM    1  C11 UNL     1     -20.764 -21.443  -0.593  1.00  0.00     0.350 C 
HETATM    2  O7  UNL     1     -21.798 -20.746  -0.344  1.00  0.00    -0.249 OA
HETATM    3  N1  UNL     1     -20.516 -22.630   0.059  1.00  0.00    -0.266 NA
ENDROOT
BRANCH   1   4
HETATM    4  C10 UNL     1     -19.863 -20.887  -1.623  1.00  0.00     0.103 A 
HETATM    5  C3  UNL     1     -18.925 -19.963  -1.283  1.00  0.00     0.095 A 
HETATM    6  C4  UNL     1     -18.060 -19.444  -2.266  1.00  0.00     0.121 A 
HETATM    7  C6  UNL     1     -18.139 -19.856  -3.585  1.00  0.00     0.139 A 
HETATM    8  C8  UNL     1     -19.098 -20.800  -3.929  1.00  0.00     0.136 A 
HETATM    9  C9  UNL     1     -19.951 -21.306  -2.942  1.00  0.00     0.120 A 
BRANCH   5  10
HETATM   10  C2  UNL     1     -18.784 -19.484   0.070  1.00  0.00     0.297 C 
HETATM   11  O2  UNL     1     -18.045 -19.992   0.956  1.00  0.00    -0.259 OA
BRANCH  10  12
HETATM   12  O1  UNL     1     -19.519 -18.352   0.462  1.00  0.00    -0.322 OA
HETATM   13  C1  UNL     1     -18.916 -17.102   0.739  1.00  0.00     0.213 C 
ENDBRANCH  10  12
ENDBRANCH   5  10
BRANCH   6  14
HETATM   14  O3  UNL     1     -17.129 -18.515  -1.880  1.00  0.00    -0.352 OA
HETATM   15  C5  UNL     1     -15.772 -18.715  -1.647  1.00  0.00     0.210 C 
ENDBRANCH   6  14
BRANCH   7  16
HETATM   16  O4  UNL     1     -17.317 -19.378  -4.569  1.00  0.00    -0.351 OA
HETATM   17  C7  UNL     1     -17.448 -18.161  -5.231  1.00  0.00     0.210 C 
ENDBRANCH   7  16
BRANCH   8  18
HETATM   18  O5  UNL     1     -19.160 -21.197  -5.249  1.00  0.00    -0.356 OA
ATOM     19  H5  UNL     1     -18.390 -21.608  -5.623  1.00  0.00     0.218 HD
ENDBRANCH   8  18
BRANCH   9  20
HETATM   20  O6  UNL     1     -20.886 -22.231  -3.309  1.00  0.00    -0.357 OA
ATOM     21  H6  UNL     1     -20.720 -22.755  -4.083  1.00  0.00     0.218 HD
ENDBRANCH   9  20
ENDBRANCH   1   4
BRANCH   3  22
HETATM   22  N2  UNL     1     -20.283 -23.748   0.673  1.00  0.00    -0.061 N 
ATOM     23  H2  UNL     1     -19.370 -23.808   1.123  1.00  0.00     0.221 HD
BRANCH  22  24
HETATM   24  C12 UNL     1     -21.020 -24.790   0.806  1.00  0.00     0.710 A 
HETATM   25  N3  UNL     1     -20.647 -25.978   0.316  1.00  0.00    -0.174 N 
HETATM   26  C13 UNL     1     -21.424 -27.087   0.467  1.00  0.00     0.130 A 
ATOM     27  H3  UNL     1     -19.760 -26.055  -0.183  1.00  0.00     0.186 HD
HETATM   28  C14 UNL     1     -22.612 -26.931   1.147  1.00  0.00     0.071 A 
HETATM   29  C15 UNL     1     -23.629 -27.807   1.487  1.00  0.00     0.126 A 
HETATM   30  C17 UNL     1     -23.026 -25.701   1.671  1.00  0.00     0.152 A 
HETATM   31  N5  UNL     1     -24.561 -27.120   2.160  1.00  0.00    -0.307 N 
HETATM   32  N6  UNL     1     -24.218 -25.852   2.281  1.00  0.00    -0.280 N 
ATOM     33  H5  UNL     1     -25.421 -27.523   2.530  1.00  0.00     0.186 HD
HETATM   34  C16 UNL     1     -24.952 -24.779   2.947  1.00  0.00     0.179 C 
HETATM   35  N7  UNL     1     -22.189 -24.675   1.466  1.00  0.00    -0.172 N 
ATOM     36  H7  UNL     1     -22.450 -23.759   1.829  1.00  0.00     0.186 HD
BRANCH  26  37
HETATM   37  N4  UNL     1     -21.080 -28.235  -0.004  1.00  0.00    -0.384 N 
ATOM     38  H42 UNL     1     -20.382 -28.308  -0.744  1.00  0.00     0.157 HD
ATOM     39  H41 UNL     1     -21.483 -29.106   0.340  1.00  0.00     0.157 HD
ENDBRANCH  26  37
ENDBRANCH  22  24
ENDBRANCH   3  22
TORSDOF 10
ENDMDL
MODEL 4
REMARK VINA RESULT: -7.007314033      2.172      3.369
REMARK  10 active torsions:
REMARK  status: ('A' for Active; 'I' for Inactive)
REMARK    1  A    between atoms: O1_2  and  C2_3 
REMARK    2  A    between atoms: C2_3  and  C3_5 
REMARK    3  A    between atoms: C4_6  and  O3_7 
REMARK    4  A    between atoms: C6_9  and  O4_10 
REMARK    5  A    between atoms: C8_12  and  O5_13 
REMARK    6  A    between atoms: C9_15  and  O6_16 
REMARK    7  A    between atoms: C10_18  and  C11_19 
REMARK       I    between atoms: C11_19  and  N1_21 
REMARK    8  A    between atoms: N1_21  and  N2_22 
REMARK    9  A    between atoms: N2_22  and  C12_24 
REMARK   10  A    between atoms: C13_27  and  N4_28 
ROOT
HETATM    1  C11 UNL     1     -19.515 -20.001   0.859  1.00  0.00     0.350 C 
HETATM    2  O7  UNL     1     -19.510 -20.020   2.130  1.00  0.00    -0.249 OA
HETATM    3  N1  UNL     1     -20.564 -20.512   0.130  1.00  0.00    -0.266 NA
ENDROOT
BRANCH   1   4
HETATM    4  C10 UNL     1     -18.321 -19.395   0.233  1.00  0.00     0.103 A 
HETATM    5  C3  UNL     1     -17.587 -20.102  -0.666  1.00  0.00     0.095 A 
HETATM    6  C4  UNL     1     -16.457 -19.516  -1.269  1.00  0.00     0.121 A 
HETATM    7  C6  UNL     1     -16.069 -18.223  -0.966  1.00  0.00     0.139 A 
HETATM    8  C8  UNL     1     -16.820 -17.503  -0.047  1.00  0.00     0.136 A 
HETATM    9  C9  UNL     1     -17.940 -18.098   0.545  1.00  0.00     0.120 A 
BRANCH   5  10
HETATM   10  C2  UNL     1     -17.929 -21.456  -1.030  1.00  0.00     0.297 C 
HETATM   11  O2  UNL     1     -17.573 -22.495  -0.412  1.00  0.00    -0.259 OA
BRANCH  10  12
HETATM   12  O1  UNL     1     -18.732 -21.663  -2.165  1.00  0.00    -0.322 OA
HETATM   13  C1  UNL     1     -18.378 -22.557  -3.204  1.00  0.00     0.213 C 
ENDBRANCH  10  12
ENDBRANCH   5  10
BRANCH   6  14
HETATM   14  O3  UNL     1     -15.746 -20.265  -2.171  1.00  0.00    -0.352 OA
HETATM   15  C5  UNL     1     -14.553 -20.946  -1.959  1.00  0.00     0.210 C 
ENDBRANCH   6  14
BRANCH   7  16
HETATM   16  O4  UNL     1     -14.980 -17.617  -1.530  1.00  0.00    -0.351 OA
HETATM   17  C7  UNL     1     -14.927 -17.019  -2.786  1.00  0.00     0.210 C 
ENDBRANCH   7  16
BRANCH   8  18
HETATM   18  O5  UNL     1     -16.417 -16.215   0.241  1.00  0.00    -0.356 OA
ATOM     19  H5  UNL     1     -17.087 -15.585   0.480  1.00  0.00     0.218 HD
ENDBRANCH   8  18
BRANCH   9  20
HETATM   20  O6  UNL     1     -18.659 -17.368   1.447  1.00  0.00    -0.357 OA
ATOM     21  H6  UNL     1     -18.821 -16.451   1.257  1.00  0.00     0.218 HD
ENDBRANCH   9  20
ENDBRANCH   1   4
BRANCH   3  22
HETATM   22  N2  UNL     1     -21.554 -20.994  -0.555  1.00  0.00    -0.061 N 
ATOM     23  H2  UNL     1     -22.373 -20.388  -0.610  1.00  0.00     0.221 HD
BRANCH  22  24
HETATM   24  C12 UNL     1     -21.667 -22.112  -1.176  1.00  0.00     0.710 A 
HETATM   25  N3  UNL     1     -21.944 -22.161  -2.484  1.00  0.00    -0.174 N 
HETATM   26  C13 UNL     1     -22.053 -23.348  -3.144  1.00  0.00     0.130 A 
ATOM     27  H3  UNL     1     -22.077 -21.290  -2.998  1.00  0.00     0.186 HD
HETATM   28  C14 UNL     1     -21.865 -24.495  -2.406  1.00  0.00     0.071 A 
HETATM   29  C15 UNL     1     -21.894 -25.842  -2.727  1.00  0.00     0.126 A 
HETATM   30  C17 UNL     1     -21.573 -24.472  -1.037  1.00  0.00     0.152 A 
HETATM   31  N5  UNL     1     -21.636 -26.540  -1.613  1.00  0.00    -0.307 N 
HETATM   32  N6  UNL     1     -21.441 -25.735  -0.586  1.00  0.00    -0.280 N 
ATOM     33  H5  UNL     1     -21.597 -27.557  -1.565  1.00  0.00     0.186 HD
HETATM   34  C16 UNL     1     -21.130 -26.095   0.795  1.00  0.00     0.179 C 
HETATM   35  N7  UNL     1     -21.489 -23.255  -0.485  1.00  0.00    -0.172 N 
ATOM     36  H7  UNL     1     -21.279 -23.189   0.511  1.00  0.00     0.186 HD
BRANCH  26  37
HETATM   37  N4  UNL     1     -22.324 -23.411  -4.402  1.00  0.00    -0.384 N 
ATOM     38  H42 UNL     1     -23.133 -22.922  -4.786  1.00  0.00     0.157 HD
ATOM     39  H41 UNL     1     -21.749 -23.940  -5.056  1.00  0.00     0.157 HD
ENDBRANCH  26  37
ENDBRANCH  22  24
ENDBRANCH   3  22
TORSDOF 10
ENDMDL
MODEL 5
REMARK VINA RESULT: -6.920973113      5.200      8.751
REMARK  10 active torsions:
REMARK  status: ('A' for Active; 'I' for Inactive)
REMARK    1  A    between atoms: O1_2  and  C2_3 
REMARK    2  A    between atoms: C2_3  and  C3_5 
REMARK    3  A    between atoms: C4_6  and  O3_7 
REMARK    4  A    between atoms: C6_9  and  O4_10 
REMARK    5  A    between atoms: C8_12  and  O5_13 
REMARK    6  A    between atoms: C9_15  and  O6_16 
REMARK    7  A    between atoms: C10_18  and  C11_19 
REMARK       I    between atoms: C11_19  and  N1_21 
REMARK    8  A    between atoms: N1_21  and  N2_22 
REMARK    9  A    between atoms: N2_22  and  C12_24 
REMARK   10  A    between atoms: C13_27  and  N4_28 
ROOT
HETATM    1  C11 UNL     1     -17.255 -18.710   0.569  1.00  0.00     0.350 C 
HETATM    2  O7  UNL     1     -17.203 -18.679   1.839  1.00  0.00    -0.249 OA
HETATM    3  N1  UNL     1     -16.580 -17.795  -0.206  1.00  0.00    -0.266 NA
ENDROOT
BRANCH   1   4
HETATM    4  C10 UNL     1     -18.084 -19.792  -0.001  1.00  0.00     0.103 A 
HETATM    5  C3  UNL     1     -17.497 -20.850  -0.620  1.00  0.00     0.095 A 
HETATM    6  C4  UNL     1     -18.291 -21.884  -1.151  1.00  0.00     0.121 A 
HETATM    7  C6  UNL     1     -19.671 -21.853  -1.058  1.00  0.00     0.139 A 
HETATM    8  C8  UNL     1     -20.269 -20.771  -0.426  1.00  0.00     0.136 A 
HETATM    9  C9  UNL     1     -19.467 -19.749   0.097  1.00  0.00     0.120 A 
BRANCH   5  10
HETATM   10  C2  UNL     1     -16.064 -20.952  -0.756  1.00  0.00     0.297 C 
HETATM   11  O2  UNL     1     -15.387 -20.531  -1.733  1.00  0.00    -0.259 OA
BRANCH  10  12
HETATM   12  O1  UNL     1     -15.333 -21.563   0.277  1.00  0.00    -0.322 OA
HETATM   13  C1  UNL     1     -14.598 -22.759   0.095  1.00  0.00     0.213 C 
ENDBRANCH  10  12
ENDBRANCH   5  10
BRANCH   6  14
HETATM   14  O3  UNL     1     -17.657 -22.933  -1.765  1.00  0.00    -0.352 OA
HETATM   15  C5  UNL     1     -17.537 -23.174  -3.130  1.00  0.00     0.210 C 
ENDBRANCH   6  14
BRANCH   7  16
HETATM   16  O4  UNL     1     -20.478 -22.837  -1.559  1.00  0.00    -0.351 OA
HETATM   17  C7  UNL     1     -20.808 -24.033  -0.928  1.00  0.00     0.210 C 
ENDBRANCH   7  16
BRANCH   8  18
HETATM   18  O5  UNL     1     -21.646 -20.758  -0.344  1.00  0.00    -0.356 OA
ATOM     19  H5  UNL     1     -22.054 -21.307   0.315  1.00  0.00     0.218 HD
ENDBRANCH   8  18
BRANCH   9  20
HETATM   20  O6  UNL     1     -20.081 -18.696   0.711  1.00  0.00    -0.357 OA
ATOM     21  H6  UNL     1     -19.717 -18.377   1.528  1.00  0.00     0.218 HD
ENDBRANCH   9  20
ENDBRANCH   1   4
BRANCH   3  22
HETATM   22  N2  UNL     1     -15.943 -16.932  -0.936  1.00  0.00    -0.061 N 
ATOM     23  H2  UNL     1     -15.624 -16.101  -0.438  1.00  0.00     0.221 HD
BRANCH  22  24
HETATM   24  C12 UNL     1     -15.651 -16.958  -2.185  1.00  0.00     0.710 A 
HETATM   25  N3  UNL     1     -14.809 -16.069  -2.725  1.00  0.00    -0.174 N 
HETATM   26  C13 UNL     1     -14.491 -16.104  -4.050  1.00  0.00     0.130 A 
ATOM     27  H3  UNL     1     -14.397 -15.349  -2.132  1.00  0.00     0.186 HD
HETATM   28  C14 UNL     1     -15.074 -17.094  -4.809  1.00  0.00     0.071 A 
HETATM   29  C15 UNL     1     -14.988 -17.434  -6.149  1.00  0.00     0.126 A 
HETATM   30  C17 UNL     1     -15.957 -18.037  -4.269  1.00  0.00     0.152 A 
HETATM   31  N5  UNL     1     -15.772 -18.499  -6.357  1.00  0.00    -0.307 N 
HETATM   32  N6  UNL     1     -16.363 -18.878  -5.241  1.00  0.00    -0.280 N 
ATOM     33  H5  UNL     1     -15.895 -18.958  -7.260  1.00  0.00     0.186 HD
HETATM   34  C16 UNL     1     -17.285 -19.993  -5.042  1.00  0.00     0.179 C 
HETATM   35  N7  UNL     1     -16.203 -17.913  -2.958  1.00  0.00    -0.172 N 
ATOM     36  H7  UNL     1     -16.842 -18.578  -2.522  1.00  0.00     0.186 HD
BRANCH  26  37
HETATM   37  N4  UNL     1     -13.686 -15.252  -4.585  1.00  0.00    -0.384 N 
ATOM     38  H42 UNL     1     -12.692 -15.461  -4.679  1.00  0.00     0.157 HD
ATOM     39  H41 UNL     1     -14.005 -14.348  -4.933  1.00  0.00     0.157 HD
ENDBRANCH  26  37
ENDBRANCH  22  24
ENDBRANCH   3  22
TORSDOF 10
ENDMDL
