MODEL 1
REMARK VINA RESULT: -8.997816354      0.000      0.000
REMARK  6 active torsions:
REMARK  status: ('A' for Active; 'I' for Inactive)
REMARK    1  A    between atoms: C2_2  and  N1_3 
REMARK       I    between atoms: N1_3  and  C3_5 
REMARK       I    between atoms: C3_5  and  N2_7 
REMARK       I    between atoms: N2_7  and  C4_9 
REMARK    2  A    between atoms: C4_9  and  C5_11 
REMARK    3  A    between atoms: C5_11  and  S1_12 
REMARK    4  A    between atoms: S1_12  and  C6_13 
REMARK    5  A    between atoms: C6_13  and  C7_14 
REMARK    6  A    between atoms: C14_31  and  N8_32 
ROOT
HETATM    1  C7  UNL     1     -20.571 -22.323  -0.918  1.00  0.00     0.121 A 
HETATM    2  N3  UNL     1     -20.755 -21.081  -0.437  1.00  0.00    -0.177 N 
ATOM      3  H3  UNL     1     -21.623 -20.700  -0.061  1.00  0.00     0.185 HD
HETATM    4  C8  UNL     1     -19.580 -20.436  -0.547  1.00  0.00     0.703 A 
HETATM    5  N4  UNL     1     -18.702 -21.280  -1.086  1.00  0.00    -0.103 N 
HETATM    6  N5  UNL     1     -19.312 -22.454  -1.318  1.00  0.00    -0.270 N 
ATOM      7  H5  UNL     1     -18.888 -23.288  -1.724  1.00  0.00     0.189 HD
HETATM    8  C9  UNL     1     -17.298 -21.188  -1.455  1.00  0.00     0.145 C 
HETATM    9  C10 UNL     1     -17.240 -20.244  -2.661  1.00  0.00     0.051 C 
HETATM   10  C11 UNL     1     -16.772 -22.517  -1.932  1.00  0.00     0.051 C 
HETATM   11  C12 UNL     1     -16.439 -20.667  -0.365  1.00  0.00     0.253 C 
HETATM   12  O3  UNL     1     -15.600 -21.512   0.088  1.00  0.00    -0.270 OA
HETATM   13  N6  UNL     1     -16.290 -19.425   0.345  1.00  0.00    -0.307 N 
ATOM     14  H6  UNL     1     -15.374 -19.298   0.776  1.00  0.00     0.170 HD
HETATM   15  C13 UNL     1     -17.193 -18.334   0.556  1.00  0.00     0.170 A 
HETATM   16  N7  UNL     1     -16.481 -17.289   1.019  1.00  0.00    -0.172 N 
ATOM     17  H7  UNL     1     -15.475 -17.392   1.151  1.00  0.00     0.186 HD
HETATM   18  C14 UNL     1     -17.068 -16.108   1.312  1.00  0.00     0.692 A 
HETATM   19  N9  UNL     1     -18.395 -15.988   1.133  1.00  0.00    -0.131 N 
ATOM     20  H9  UNL     1     -18.845 -15.100   1.352  1.00  0.00     0.205 HD
HETATM   21  N10 UNL     1     -19.145 -17.007   0.673  1.00  0.00    -0.268 N 
ATOM     22  H10 UNL     1     -20.151 -16.888   0.547  1.00  0.00     0.189 HD
HETATM   23  C15 UNL     1     -18.562 -18.177   0.383  1.00  0.00     0.181 A 
HETATM   24  N11 UNL     1     -19.568 -19.070  -0.076  1.00  0.00    -0.170 N 
ATOM     25  H11 UNL     1     -20.498 -18.649  -0.073  1.00  0.00     0.186 HD
ENDROOT
BRANCH   1  26
HETATM   26  C6  UNL     1     -21.574 -23.419  -1.014  1.00  0.00     0.152 C 
BRANCH  26  27
HETATM   27  S1  UNL     1     -20.729 -24.985  -1.270  1.00  0.00    -0.152 SA
BRANCH  27  28
HETATM   28  C5  UNL     1     -20.499 -25.806   0.328  1.00  0.00     0.177 C 
BRANCH  28  29
HETATM   29  C4  UNL     1     -21.800 -25.860   1.089  1.00  0.00     0.234 C 
HETATM   30  N2  UNL     1     -22.683 -26.903   0.850  1.00  0.00    -0.279 N 
HETATM   31  C3  UNL     1     -23.919 -27.094   1.463  1.00  0.00     0.322 C 
ATOM     32  H2  UNL     1     -22.399 -27.597   0.158  1.00  0.00     0.173 HD
HETATM   33  N1  UNL     1     -24.471 -26.250   2.434  1.00  0.00    -0.343 N 
HETATM   34  O1  UNL     1     -24.580 -28.137   1.082  1.00  0.00    -0.247 OA
ATOM     35  H1  UNL     1     -23.963 -25.423   2.744  1.00  0.00     0.164 HD
HETATM   36  O2  UNL     1     -21.994 -24.948   1.893  1.00  0.00    -0.272 OA
BRANCH  33  37
HETATM   37  C2  UNL     1     -25.796 -26.567   3.008  1.00  0.00     0.120 C 
HETATM   38  C1  UNL     1     -25.777 -26.145   4.456  1.00  0.00     0.026 C 
ENDBRANCH  33  37
ENDBRANCH  28  29
ENDBRANCH  27  28
ENDBRANCH  26  27
ENDBRANCH   1  26
BRANCH  18  39
HETATM   39  N8  UNL     1     -16.403 -15.099   1.755  1.00  0.00    -0.233 N 
ATOM     40  H82 UNL     1     -15.504 -14.873   1.330  1.00  0.00     0.174 HD
ATOM     41  H81 UNL     1     -16.742 -14.513   2.518  1.00  0.00     0.174 HD
ENDBRANCH  18  39
TORSDOF 6
ENDMDL
MODEL 2
REMARK VINA RESULT: -8.584887159      1.180      1.364
REMARK  6 active torsions:
REMARK  status: ('A' for Active; 'I' for Inactive)
REMARK    1  A    between atoms: C2_2  and  N1_3 
REMARK       I    between atoms: N1_3  and  C3_5 
REMARK       I    between atoms: C3_5  and  N2_7 
REMARK       I    between atoms: N2_7  and  C4_9 
REMARK    2  A    between atoms: C4_9  and  C5_11 
REMARK    3  A    between atoms: C5_11  and  S1_12 
REMARK    4  A    between atoms: S1_12  and  C6_13 
REMARK    5  A    between atoms: C6_13  and  C7_14 
REMARK    6  A    between atoms: C14_31  and  N8_32 
ROOT
HETATM    1  C7  UNL     1     -20.460 -22.057  -0.571  1.00  0.00     0.121 A 
HETATM    2  N3  UNL     1     -20.657 -20.809  -0.111  1.00  0.00    -0.177 N 
ATOM      3  H3  UNL     1     -21.518 -20.440   0.291  1.00  0.00     0.185 HD
HETATM    4  C8  UNL     1     -19.503 -20.138  -0.282  1.00  0.00     0.703 A 
HETATM    5  N4  UNL     1     -18.626 -20.974  -0.838  1.00  0.00    -0.103 N 
HETATM    6  N5  UNL     1     -19.215 -22.167  -1.019  1.00  0.00    -0.270 N 
ATOM      7  H5  UNL     1     -18.787 -23.000  -1.423  1.00  0.00     0.189 HD
HETATM    8  C9  UNL     1     -17.240 -20.857  -1.265  1.00  0.00     0.145 C 
HETATM    9  C10 UNL     1     -17.254 -19.939  -2.493  1.00  0.00     0.051 C 
HETATM   10  C11 UNL     1     -16.702 -22.183  -1.733  1.00  0.00     0.051 C 
HETATM   11  C12 UNL     1     -16.352 -20.290  -0.222  1.00  0.00     0.253 C 
HETATM   12  O3  UNL     1     -15.476 -21.104   0.215  1.00  0.00    -0.270 OA
HETATM   13  N6  UNL     1     -16.206 -19.029   0.453  1.00  0.00    -0.307 N 
ATOM     14  H6  UNL     1     -15.278 -18.870   0.844  1.00  0.00     0.170 HD
HETATM   15  C13 UNL     1     -17.127 -17.955   0.677  1.00  0.00     0.170 A 
HETATM   16  N7  UNL     1     -16.424 -16.883   1.087  1.00  0.00    -0.172 N 
ATOM     17  H7  UNL     1     -15.411 -16.959   1.180  1.00  0.00     0.186 HD
HETATM   18  C14 UNL     1     -17.027 -15.710   1.377  1.00  0.00     0.692 A 
HETATM   19  N9  UNL     1     -18.363 -15.626   1.249  1.00  0.00    -0.131 N 
ATOM     20  H9  UNL     1     -18.826 -14.744   1.466  1.00  0.00     0.205 HD
HETATM   21  N10 UNL     1     -19.106 -16.673   0.843  1.00  0.00    -0.268 N 
ATOM     22  H10 UNL     1     -20.118 -16.581   0.755  1.00  0.00     0.189 HD
HETATM   23  C15 UNL     1     -18.506 -17.835   0.556  1.00  0.00     0.181 A 
HETATM   24  N11 UNL     1     -19.507 -18.763   0.157  1.00  0.00    -0.170 N 
ATOM     25  H11 UNL     1     -20.445 -18.364   0.189  1.00  0.00     0.186 HD
ENDROOT
BRANCH   1  26
HETATM   26  C6  UNL     1     -21.439 -23.178  -0.602  1.00  0.00     0.152 C 
BRANCH  26  27
HETATM   27  S1  UNL     1     -20.581 -24.714  -0.974  1.00  0.00    -0.152 SA
BRANCH  27  28
HETATM   28  C5  UNL     1     -20.465 -25.712   0.533  1.00  0.00     0.177 C 
BRANCH  28  29
HETATM   29  C4  UNL     1     -21.725 -26.516   0.734  1.00  0.00     0.234 C 
HETATM   30  N2  UNL     1     -22.793 -25.946   1.410  1.00  0.00    -0.279 N 
HETATM   31  C3  UNL     1     -24.018 -26.553   1.679  1.00  0.00     0.322 C 
ATOM     32  H2  UNL     1     -22.670 -24.990   1.743  1.00  0.00     0.173 HD
HETATM   33  N1  UNL     1     -24.368 -27.854   1.300  1.00  0.00    -0.343 N 
HETATM   34  O1  UNL     1     -24.871 -25.833   2.331  1.00  0.00    -0.247 OA
ATOM     35  H1  UNL     1     -23.706 -28.435   0.786  1.00  0.00     0.164 HD
HETATM   36  O2  UNL     1     -21.718 -27.656   0.269  1.00  0.00    -0.272 OA
BRANCH  33  37
HETATM   37  C2  UNL     1     -25.705 -28.380   1.648  1.00  0.00     0.120 C 
HETATM   38  C1  UNL     1     -26.389 -28.769   0.360  1.00  0.00     0.026 C 
ENDBRANCH  33  37
ENDBRANCH  28  29
ENDBRANCH  27  28
ENDBRANCH  26  27
ENDBRANCH   1  26
BRANCH  18  39
HETATM   39  N8  UNL     1     -16.371 -14.675   1.770  1.00  0.00    -0.233 N 
ATOM     40  H82 UNL     1     -16.864 -13.933   2.264  1.00  0.00     0.174 HD
ATOM     41  H81 UNL     1     -15.369 -14.569   1.607  1.00  0.00     0.174 HD
ENDBRANCH  18  39
TORSDOF 6
ENDMDL
MODEL 3
REMARK VINA RESULT: -7.960787241      2.541      3.272
REMARK  6 active torsions:
REMARK  status: ('A' for Active; 'I' for Inactive)
REMARK    1  A    between atoms: C2_2  and  N1_3 
REMARK       I    between atoms: N1_3  and  C3_5 
REMARK       I    between atoms: C3_5  and  N2_7 
REMARK       I    between atoms: N2_7  and  C4_9 
REMARK    2  A    between atoms: C4_9  and  C5_11 
REMARK    3  A    between atoms: C5_11  and  S1_12 
REMARK    4  A    between atoms: S1_12  and  C6_13 
REMARK    5  A    between atoms: C6_13  and  C7_14 
REMARK    6  A    between atoms: C14_31  and  N8_32 
ROOT
HETATM    1  C7  UNL     1     -20.332 -22.292  -0.432  1.00  0.00     0.121 A 
HETATM    2  N3  UNL     1     -20.559 -21.043   0.011  1.00  0.00    -0.177 N 
ATOM      3  H3  UNL     1     -21.421 -20.696   0.431  1.00  0.00     0.185 HD
HETATM    4  C8  UNL     1     -19.434 -20.337  -0.203  1.00  0.00     0.703 A 
HETATM    5  N4  UNL     1     -18.544 -21.152  -0.767  1.00  0.00    -0.103 N 
HETATM    6  N5  UNL     1     -19.096 -22.368  -0.911  1.00  0.00    -0.270 N 
ATOM      7  H5  UNL     1     -18.651 -23.193  -1.312  1.00  0.00     0.189 HD
HETATM    8  C9  UNL     1     -17.175 -20.995  -1.234  1.00  0.00     0.145 C 
HETATM    9  C10 UNL     1     -17.253 -20.101  -2.476  1.00  0.00     0.051 C 
HETATM   10  C11 UNL     1     -16.603 -22.310  -1.693  1.00  0.00     0.051 C 
HETATM   11  C12 UNL     1     -16.280 -20.380  -0.225  1.00  0.00     0.253 C 
HETATM   12  O3  UNL     1     -15.364 -21.155   0.202  1.00  0.00    -0.270 OA
HETATM   13  N6  UNL     1     -16.159 -19.102   0.424  1.00  0.00    -0.307 N 
ATOM     14  H6  UNL     1     -15.227 -18.904   0.786  1.00  0.00     0.170 HD
HETATM   15  C13 UNL     1     -17.111 -18.056   0.653  1.00  0.00     0.170 A 
HETATM   16  N7  UNL     1     -16.435 -16.953   1.026  1.00  0.00    -0.172 N 
ATOM     17  H7  UNL     1     -15.418 -16.993   1.093  1.00  0.00     0.186 HD
HETATM   18  C14 UNL     1     -17.071 -15.796   1.312  1.00  0.00     0.692 A 
HETATM   19  N9  UNL     1     -18.411 -15.760   1.219  1.00  0.00    -0.131 N 
ATOM     20  H9  UNL     1     -18.899 -14.891   1.433  1.00  0.00     0.205 HD
HETATM   21  N10 UNL     1     -19.128 -16.839   0.851  1.00  0.00    -0.268 N 
ATOM     22  H10 UNL     1     -20.144 -16.784   0.789  1.00  0.00     0.189 HD
HETATM   23  C15 UNL     1     -18.496 -17.985   0.568  1.00  0.00     0.181 A 
HETATM   24  N11 UNL     1     -19.474 -18.954   0.213  1.00  0.00    -0.170 N 
ATOM     25  H11 UNL     1     -20.425 -18.587   0.263  1.00  0.00     0.186 HD
ENDROOT
BRANCH   1  26
HETATM   26  C6  UNL     1     -21.272 -23.446  -0.417  1.00  0.00     0.152 C 
BRANCH  26  27
HETATM   27  S1  UNL     1     -20.435 -24.893   0.248  1.00  0.00    -0.152 SA
BRANCH  27  28
HETATM   28  C5  UNL     1     -21.622 -26.252   0.397  1.00  0.00     0.177 C 
BRANCH  28  29
HETATM   29  C4  UNL     1     -21.699 -27.032  -0.892  1.00  0.00     0.234 C 
HETATM   30  N2  UNL     1     -22.655 -26.689  -1.837  1.00  0.00    -0.279 N 
HETATM   31  C3  UNL     1     -22.857 -27.308  -3.068  1.00  0.00     0.322 C 
ATOM     32  H2  UNL     1     -23.270 -25.908  -1.607  1.00  0.00     0.173 HD
HETATM   33  N1  UNL     1     -22.112 -28.389  -3.554  1.00  0.00    -0.343 N 
HETATM   34  O1  UNL     1     -23.813 -26.823  -3.791  1.00  0.00    -0.247 OA
ATOM     35  H1  UNL     1     -21.355 -28.783  -2.995  1.00  0.00     0.164 HD
HETATM   36  O2  UNL     1     -20.883 -27.945  -1.020  1.00  0.00    -0.272 OA
BRANCH  33  37
HETATM   37  C2  UNL     1     -22.429 -28.955  -4.882  1.00  0.00     0.120 C 
HETATM   38  C1  UNL     1     -22.849 -30.390  -4.676  1.00  0.00     0.026 C 
ENDBRANCH  33  37
ENDBRANCH  28  29
ENDBRANCH  27  28
ENDBRANCH  26  27
ENDBRANCH   1  26
BRANCH  18  39
HETATM   39  N8  UNL     1     -16.440 -14.733   1.669  1.00  0.00    -0.233 N 
ATOM     40  H82 UNL     1     -16.194 -14.041   0.961  1.00  0.00     0.174 HD
ATOM     41  H81 UNL     1     -16.176 -14.553   2.638  1.00  0.00     0.174 HD
ENDBRANCH  18  39
TORSDOF 6
ENDMDL
MODEL 4
REMARK VINA RESULT: -7.777560736      4.097      6.969
REMARK  6 active torsions:
REMARK  status: ('A' for Active; 'I' for Inactive)
REMARK    1  A    between atoms: C2_2  and  N1_3 
REMARK       I    between atoms: N1_3  and  C3_5 
REMARK       I    between atoms: C3_5  and  N2_7 
REMARK       I    between atoms: N2_7  and  C4_9 
REMARK    2  A    between atoms: C4_9  and  C5_11 
REMARK    3  A    between atoms: C5_11  and  S1_12 
REMARK    4  A    between atoms: S1_12  and  C6_13 
REMARK    5  A    between atoms: C6_13  and  C7_14 
REMARK    6  A    between atoms: C14_31  and  N8_32 
ROOT
HETATM    1  C7  UNL     1     -16.179 -19.795  -1.079  1.00  0.00     0.121 A 
HETATM    2  N3  UNL     1     -15.790 -20.549  -0.037  1.00  0.00    -0.177 N 
ATOM      3  H3  UNL     1     -15.968 -20.359   0.949  1.00  0.00     0.185 HD
HETATM    4  C8  UNL     1     -15.121 -21.604  -0.539  1.00  0.00     0.703 A 
HETATM    5  N4  UNL     1     -15.110 -21.483  -1.866  1.00  0.00    -0.103 N 
HETATM    6  N5  UNL     1     -15.766 -20.361  -2.207  1.00  0.00    -0.270 N 
ATOM      7  H5  UNL     1     -15.918 -20.011  -3.153  1.00  0.00     0.189 HD
HETATM    8  C9  UNL     1     -14.558 -22.275  -2.954  1.00  0.00     0.145 C 
HETATM    9  C10 UNL     1     -13.036 -22.125  -2.854  1.00  0.00     0.051 C 
HETATM   10  C11 UNL     1     -14.952 -21.709  -4.293  1.00  0.00     0.051 C 
HETATM   11  C12 UNL     1     -14.929 -23.708  -2.881  1.00  0.00     0.253 C 
HETATM   12  O3  UNL     1     -15.679 -24.101  -3.833  1.00  0.00    -0.270 OA
HETATM   13  N6  UNL     1     -14.665 -24.813  -2.000  1.00  0.00    -0.307 N 
ATOM     14  H6  UNL     1     -14.774 -25.729  -2.434  1.00  0.00     0.170 HD
HETATM   15  C13 UNL     1     -14.275 -24.860  -0.622  1.00  0.00     0.170 A 
HETATM   16  N7  UNL     1     -13.861 -26.112  -0.351  1.00  0.00    -0.172 N 
ATOM     17  H7  UNL     1     -13.874 -26.812  -1.092  1.00  0.00     0.186 HD
HETATM   18  C14 UNL     1     -13.429 -26.463   0.881  1.00  0.00     0.692 A 
HETATM   19  N9  UNL     1     -13.419 -25.530   1.847  1.00  0.00    -0.131 N 
ATOM     20  H9  UNL     1     -13.094 -25.786   2.780  1.00  0.00     0.205 HD
HETATM   21  N10 UNL     1     -13.824 -24.266   1.621  1.00  0.00    -0.268 N 
ATOM     22  H10 UNL     1     -13.806 -23.578   2.373  1.00  0.00     0.189 HD
HETATM   23  C15 UNL     1     -14.252 -23.920   0.400  1.00  0.00     0.181 A 
HETATM   24  N11 UNL     1     -14.618 -22.547   0.432  1.00  0.00    -0.170 N 
ATOM     25  H11 UNL     1     -14.496 -22.130   1.356  1.00  0.00     0.186 HD
ENDROOT
BRANCH   1  26
HETATM   26  C6  UNL     1     -16.948 -18.521  -1.042  1.00  0.00     0.152 C 
BRANCH  26  27
HETATM   27  S1  UNL     1     -17.357 -18.116   0.662  1.00  0.00    -0.152 SA
BRANCH  27  28
HETATM   28  C5  UNL     1     -19.145 -18.281   0.901  1.00  0.00     0.177 C 
BRANCH  28  29
HETATM   29  C4  UNL     1     -19.568 -19.722   0.759  1.00  0.00     0.234 C 
HETATM   30  N2  UNL     1     -19.858 -20.223  -0.502  1.00  0.00    -0.279 N 
HETATM   31  C3  UNL     1     -20.263 -21.522  -0.800  1.00  0.00     0.322 C 
ATOM     32  H2  UNL     1     -19.767 -19.577  -1.286  1.00  0.00     0.173 HD
HETATM   33  N1  UNL     1     -20.439 -22.543   0.142  1.00  0.00    -0.343 N 
HETATM   34  O1  UNL     1     -20.484 -21.769  -2.049  1.00  0.00    -0.247 OA
ATOM     35  H1  UNL     1     -20.270 -22.363   1.131  1.00  0.00     0.164 HD
HETATM   36  O2  UNL     1     -19.626 -20.372   1.802  1.00  0.00    -0.272 OA
BRANCH  33  37
HETATM   37  C2  UNL     1     -20.873 -23.883  -0.307  1.00  0.00     0.120 C 
HETATM   38  C1  UNL     1     -21.324 -24.646   0.913  1.00  0.00     0.026 C 
ENDBRANCH  33  37
ENDBRANCH  28  29
ENDBRANCH  27  28
ENDBRANCH  26  27
ENDBRANCH   1  26
BRANCH  18  39
HETATM   39  N8  UNL     1     -13.029 -27.655   1.157  1.00  0.00    -0.233 N 
ATOM     40  H82 UNL     1     -12.029 -27.848   1.188  1.00  0.00     0.174 HD
ATOM     41  H81 UNL     1     -13.679 -28.418   1.349  1.00  0.00     0.174 HD
ENDBRANCH  18  39
TORSDOF 6
ENDMDL
MODEL 5
REMARK VINA RESULT: -7.626380742      1.607      1.882
REMARK  6 active torsions:
REMARK  status: ('A' for Active; 'I' for Inactive)
REMARK    1  A    between atoms: C2_2  and  N1_3 
REMARK       I    between atoms: N1_3  and  C3_5 
REMARK       I    between atoms: C3_5  and  N2_7 
REMARK       I    between atoms: N2_7  and  C4_9 
REMARK    2  A    between atoms: C4_9  and  C5_11 
REMARK    3  A    between atoms: C5_11  and  S1_12 
REMARK    4  A    between atoms: S1_12  and  C6_13 
REMARK    5  A    between atoms: C6_13  and  C7_14 
REMARK    6  A    between atoms: C14_31  and  N8_32 
ROOT
HETATM    1  C7  UNL     1     -18.487 -22.260  -2.683  1.00  0.00     0.121 A 
HETATM    2  N3  UNL     1     -19.022 -21.360  -1.839  1.00  0.00    -0.177 N 
ATOM      3  H3  UNL     1     -19.891 -21.462  -1.316  1.00  0.00     0.185 HD
HETATM    4  C8  UNL     1     -18.195 -20.298  -1.816  1.00  0.00     0.703 A 
HETATM    5  N4  UNL     1     -17.177 -20.559  -2.635  1.00  0.00    -0.103 N 
HETATM    6  N5  UNL     1     -17.353 -21.776  -3.176  1.00  0.00    -0.270 N 
ATOM      7  H5  UNL     1     -16.733 -22.241  -3.839  1.00  0.00     0.189 HD
HETATM    8  C9  UNL     1     -15.986 -19.829  -3.040  1.00  0.00     0.145 C 
HETATM    9  C10 UNL     1     -16.478 -18.663  -3.904  1.00  0.00     0.051 C 
HETATM   10  C11 UNL     1     -15.106 -20.672  -3.925  1.00  0.00     0.051 C 
HETATM   11  C12 UNL     1     -15.200 -19.310  -1.894  1.00  0.00     0.253 C 
HETATM   12  O3  UNL     1     -14.050 -19.841  -1.768  1.00  0.00    -0.270 OA
HETATM   13  N6  UNL     1     -15.391 -18.338  -0.852  1.00  0.00    -0.307 N 
ATOM     14  H6  UNL     1     -14.524 -17.975  -0.457  1.00  0.00     0.170 HD
HETATM   15  C13 UNL     1     -16.577 -17.786  -0.269  1.00  0.00     0.170 A 
HETATM   16  N7  UNL     1     -16.222 -16.701   0.446  1.00  0.00    -0.172 N 
ATOM     17  H7  UNL     1     -15.240 -16.429   0.483  1.00  0.00     0.186 HD
HETATM   18  C14 UNL     1     -17.136 -15.965   1.116  1.00  0.00     0.692 A 
HETATM   19  N9  UNL     1     -18.426 -16.337   1.059  1.00  0.00    -0.131 N 
ATOM     20  H9  UNL     1     -19.123 -15.788   1.561  1.00  0.00     0.205 HD
HETATM   21  N10 UNL     1     -18.826 -17.415   0.357  1.00  0.00    -0.268 N 
ATOM     22  H10 UNL     1     -19.812 -17.674   0.330  1.00  0.00     0.189 HD
HETATM   23  C15 UNL     1     -17.918 -18.142  -0.307  1.00  0.00     0.181 A 
HETATM   24  N11 UNL     1     -18.597 -19.210  -0.956  1.00  0.00    -0.170 N 
ATOM     25  H11 UNL     1     -19.601 -19.206  -0.772  1.00  0.00     0.186 HD
ENDROOT
BRANCH   1  26
HETATM   26  C6  UNL     1     -19.028 -23.598  -3.047  1.00  0.00     0.152 C 
BRANCH  26  27
HETATM   27  S1  UNL     1     -20.494 -23.940  -2.064  1.00  0.00    -0.152 SA
BRANCH  27  28
HETATM   28  C5  UNL     1     -20.010 -24.825  -0.560  1.00  0.00     0.177 C 
BRANCH  28  29
HETATM   29  C4  UNL     1     -21.211 -25.075   0.318  1.00  0.00     0.234 C 
HETATM   30  N2  UNL     1     -21.629 -26.379   0.539  1.00  0.00    -0.279 N 
HETATM   31  C3  UNL     1     -22.715 -26.777   1.316  1.00  0.00     0.322 C 
ATOM     32  H2  UNL     1     -21.089 -27.119   0.089  1.00  0.00     0.173 HD
HETATM   33  N1  UNL     1     -23.566 -25.907   2.009  1.00  0.00    -0.343 N 
HETATM   34  O1  UNL     1     -22.924 -28.050   1.380  1.00  0.00    -0.247 OA
ATOM     35  H1  UNL     1     -23.414 -24.900   1.967  1.00  0.00     0.164 HD
HETATM   36  O2  UNL     1     -21.752 -24.076   0.790  1.00  0.00    -0.272 OA
BRANCH  33  37
HETATM   37  C2  UNL     1     -24.686 -26.459   2.801  1.00  0.00     0.120 C 
HETATM   38  C1  UNL     1     -25.880 -26.567   1.885  1.00  0.00     0.026 C 
ENDBRANCH  33  37
ENDBRANCH  28  29
ENDBRANCH  27  28
ENDBRANCH  26  27
ENDBRANCH   1  26
BRANCH  18  39
HETATM   39  N8  UNL     1     -16.814 -14.927   1.804  1.00  0.00    -0.233 N 
ATOM     40  H82 UNL     1     -15.860 -14.838   2.151  1.00  0.00     0.174 HD
ATOM     41  H81 UNL     1     -17.481 -14.184   2.017  1.00  0.00     0.174 HD
ENDBRANCH  18  39
TORSDOF 6
ENDMDL
