MODEL 1
REMARK VINA RESULT: -6.627265328      0.000      0.000
REMARK  6 active torsions:
REMARK  status: ('A' for Active; 'I' for Inactive)
REMARK       I    between atoms: N1_2  and  C2_4 
REMARK    1  A    between atoms: C2_4  and  C3_6 
REMARK    2  A    between atoms: C4_9  and  C5_10 
REMARK    3  A    between atoms: N6_21  and  O4_23 
REMARK    4  A    between atoms: C9_25  and  C10_26 
REMARK    5  A    between atoms: C10_26  and  C12_31 
REMARK    6  A    between atoms: N7_27  and  O5_29 
ROOT
HETATM    1  C3  UNL     1     -19.700 -22.188  -0.674  1.00  0.00     0.118 A 
HETATM    2  N2  UNL     1     -20.359 -23.291  -0.163  1.00  0.00    -0.334 N 
ATOM      3  H2  UNL     1     -20.902 -23.192   0.694  1.00  0.00     0.168 HD
HETATM    4  C4  UNL     1     -20.300 -24.479  -0.762  1.00  0.00     0.154 A 
HETATM    5  N5  UNL     1     -19.576 -24.545  -1.880  1.00  0.00    -0.323 N 
ATOM      6  H5  UNL     1     -19.522 -25.443  -2.360  1.00  0.00     0.169 HD
HETATM    7  C7  UNL     1     -18.915 -23.515  -2.415  1.00  0.00     0.142 A 
HETATM    8  N6  UNL     1     -18.234 -23.639  -3.503  1.00  0.00    -0.250 N 
ATOM      9  H6  UNL     1     -17.731 -22.849  -3.908  1.00  0.00     0.196 HD
HETATM   10  C9  UNL     1     -18.948 -22.219  -1.793  1.00  0.00     0.073 A 
ENDROOT
BRANCH  10  11
HETATM   11  C10 UNL     1     -17.961 -21.317  -2.269  1.00  0.00     0.106 C 
HETATM   12  N7  UNL     1     -16.749 -21.466  -1.743  1.00  0.00    -0.264 N 
ATOM     13  H7  UNL     1     -16.584 -22.193  -1.046  1.00  0.00     0.194 HD
BRANCH  12  14
HETATM   14  O5  UNL     1     -15.743 -20.669  -2.122  1.00  0.00    -0.285 OA
HETATM   15  C11 UNL     1     -14.771 -20.090  -1.282  1.00  0.00     0.237 C 
ENDBRANCH  12  14
BRANCH  11  16
HETATM   16  C12 UNL     1     -18.026 -20.144  -3.128  1.00  0.00     0.122 A 
HETATM   17  N8  UNL     1     -18.127 -18.869  -2.806  1.00  0.00    -0.290 N 
HETATM   18  N9  UNL     1     -18.317 -17.967  -3.660  1.00  0.00    -0.279 N 
ATOM     19  H8  UNL     1     -18.048 -18.605  -1.824  1.00  0.00     0.188 HD
HETATM   20  C13 UNL     1     -18.423 -18.312  -4.946  1.00  0.00     0.159 A 
ATOM     21  H9  UNL     1     -18.389 -16.990  -3.376  1.00  0.00     0.189 HD
HETATM   22  N10 UNL     1     -18.619 -17.524  -5.966  1.00  0.00    -0.379 N 
HETATM   23  S1  UNL     1     -18.230 -19.999  -4.842  1.00  0.00    -0.032 SA
ATOM     24 2H10 UNL     1     -18.734 -16.513  -6.029  1.00  0.00     0.158 HD
ATOM     25 1H10 UNL     1     -18.699 -17.787  -6.949  1.00  0.00     0.158 HD
ENDBRANCH  11  16
ENDBRANCH  10  11
BRANCH   1  26
HETATM   26  C2  UNL     1     -20.022 -20.913  -0.053  1.00  0.00     0.268 C 
HETATM   27  N1  UNL     1     -19.018 -20.137   0.543  1.00  0.00    -0.360 N 
HETATM   28  C1  UNL     1     -19.291 -18.842   1.174  1.00  0.00     0.149 C 
ATOM     29  H1  UNL     1     -18.060 -20.487   0.537  1.00  0.00     0.162 HD
HETATM   30  O1  UNL     1     -21.198 -20.511  -0.069  1.00  0.00    -0.266 OA
ENDBRANCH   1  26
BRANCH   8  31
HETATM   31  O4  UNL     1     -18.214 -24.876  -4.090  1.00  0.00    -0.284 OA
HETATM   32  C8  UNL     1     -17.532 -25.161  -5.291  1.00  0.00     0.237 C 
ENDBRANCH   8  31
BRANCH   4  33
HETATM   33  C5  UNL     1     -21.002 -25.642  -0.211  1.00  0.00     0.175 A 
HETATM   34  N3  UNL     1     -20.685 -26.930  -0.397  1.00  0.00    -0.236 N 
HETATM   35  O2  UNL     1     -21.507 -27.706   0.230  1.00  0.00    -0.179 OA
ATOM     36  H3  UNL     1     -19.898 -27.255  -0.960  1.00  0.00     0.197 HD
HETATM   37  C6  UNL     1     -22.369 -26.908   0.831  1.00  0.00     0.388 A 
HETATM   38  O3  UNL     1     -23.324 -27.337   1.543  1.00  0.00    -0.236 OA
HETATM   39  N4  UNL     1     -22.075 -25.624   0.572  1.00  0.00    -0.282 N 
ATOM     40  H4  UNL     1     -22.576 -24.801   0.908  1.00  0.00     0.172 HD
ENDBRANCH   4  33
TORSDOF 6
ENDMDL
MODEL 2
REMARK VINA RESULT: -6.471547129      2.209      4.380
REMARK  6 active torsions:
REMARK  status: ('A' for Active; 'I' for Inactive)
REMARK       I    between atoms: N1_2  and  C2_4 
REMARK    1  A    between atoms: C2_4  and  C3_6 
REMARK    2  A    between atoms: C4_9  and  C5_10 
REMARK    3  A    between atoms: N6_21  and  O4_23 
REMARK    4  A    between atoms: C9_25  and  C10_26 
REMARK    5  A    between atoms: C10_26  and  C12_31 
REMARK    6  A    between atoms: N7_27  and  O5_29 
ROOT
HETATM    1  C3  UNL     1     -17.949 -22.227  -2.416  1.00  0.00     0.118 A 
HETATM    2  N2  UNL     1     -18.548 -23.371  -1.923  1.00  0.00    -0.334 N 
ATOM      3  H2  UNL     1     -18.352 -24.267  -2.370  1.00  0.00     0.168 HD
HETATM    4  C4  UNL     1     -19.374 -23.334  -0.879  1.00  0.00     0.154 A 
HETATM    5  N5  UNL     1     -19.589 -22.135  -0.336  1.00  0.00    -0.323 N 
ATOM      6  H5  UNL     1     -20.214 -22.084   0.469  1.00  0.00     0.169 HD
HETATM    7  C7  UNL     1     -19.043 -20.998  -0.773  1.00  0.00     0.142 A 
HETATM    8  N6  UNL     1     -19.286 -19.867  -0.202  1.00  0.00    -0.250 N 
ATOM      9  H6  UNL     1     -18.867 -19.001  -0.538  1.00  0.00     0.196 HD
HETATM   10  C9  UNL     1     -18.152 -20.997  -1.901  1.00  0.00     0.073 A 
ENDROOT
BRANCH  10  11
HETATM   11  C10 UNL     1     -17.910 -19.712  -2.452  1.00  0.00     0.106 C 
HETATM   12  N7  UNL     1     -18.725 -19.348  -3.437  1.00  0.00    -0.264 N 
ATOM     13  H7  UNL     1     -19.463 -19.982  -3.745  1.00  0.00     0.194 HD
BRANCH  12  14
HETATM   14  O5  UNL     1     -18.585 -18.156  -4.028  1.00  0.00    -0.285 OA
HETATM   15  C11 UNL     1     -18.944 -17.829  -5.351  1.00  0.00     0.237 C 
ENDBRANCH  12  14
BRANCH  11  16
HETATM   16  C12 UNL     1     -16.844 -18.740  -2.260  1.00  0.00     0.122 A 
HETATM   17  N8  UNL     1     -16.850 -17.605  -1.588  1.00  0.00    -0.290 N 
HETATM   18  N9  UNL     1     -15.893 -16.790  -1.625  1.00  0.00    -0.279 N 
ATOM     19  H8  UNL     1     -17.663 -17.380  -1.016  1.00  0.00     0.188 HD
HETATM   20  C13 UNL     1     -14.828 -17.083  -2.375  1.00  0.00     0.159 A 
ATOM     21  H9  UNL     1     -15.930 -15.921  -1.091  1.00  0.00     0.189 HD
HETATM   22  N10 UNL     1     -13.750 -16.369  -2.538  1.00  0.00    -0.379 N 
HETATM   23  S1  UNL     1     -15.290 -18.591  -3.013  1.00  0.00    -0.032 SA
ATOM     24 2H10 UNL     1     -13.472 -15.464  -2.155  1.00  0.00     0.158 HD
ATOM     25 1H10 UNL     1     -12.936 -16.592  -3.111  1.00  0.00     0.158 HD
ENDBRANCH  11  16
ENDBRANCH  10  11
BRANCH   1  26
HETATM   26  C2  UNL     1     -16.906 -22.433  -3.409  1.00  0.00     0.268 C 
HETATM   27  N1  UNL     1     -15.557 -22.449  -3.031  1.00  0.00    -0.360 N 
HETATM   28  C1  UNL     1     -14.471 -22.662  -3.994  1.00  0.00     0.149 C 
ATOM     29  H1  UNL     1     -15.321 -22.307  -2.049  1.00  0.00     0.162 HD
HETATM   30  O1  UNL     1     -17.227 -22.611  -4.596  1.00  0.00    -0.266 OA
ENDBRANCH   1  26
BRANCH   8  31
HETATM   31  O4  UNL     1     -20.132 -19.880   0.876  1.00  0.00    -0.284 OA
HETATM   32  C8  UNL     1     -19.703 -19.708   2.208  1.00  0.00     0.237 C 
ENDBRANCH   8  31
BRANCH   4  33
HETATM   33  C5  UNL     1     -20.005 -24.554  -0.367  1.00  0.00     0.175 A 
HETATM   34  N3  UNL     1     -20.454 -24.760   0.878  1.00  0.00    -0.236 N 
HETATM   35  O2  UNL     1     -20.956 -25.946   1.000  1.00  0.00    -0.179 OA
ATOM     36  H3  UNL     1     -20.407 -24.073   1.630  1.00  0.00     0.197 HD
HETATM   37  C6  UNL     1     -20.828 -26.516  -0.184  1.00  0.00     0.388 A 
HETATM   38  O3  UNL     1     -21.220 -27.694  -0.426  1.00  0.00    -0.236 OA
HETATM   39  N4  UNL     1     -20.241 -25.671  -1.047  1.00  0.00    -0.282 N 
ATOM     40  H4  UNL     1     -20.021 -25.851  -2.027  1.00  0.00     0.172 HD
ENDBRANCH   4  33
TORSDOF 6
ENDMDL
MODEL 3
REMARK VINA RESULT: -6.465552550      0.787      1.044
REMARK  6 active torsions:
REMARK  status: ('A' for Active; 'I' for Inactive)
REMARK       I    between atoms: N1_2  and  C2_4 
REMARK    1  A    between atoms: C2_4  and  C3_6 
REMARK    2  A    between atoms: C4_9  and  C5_10 
REMARK    3  A    between atoms: N6_21  and  O4_23 
REMARK    4  A    between atoms: C9_25  and  C10_26 
REMARK    5  A    between atoms: C10_26  and  C12_31 
REMARK    6  A    between atoms: N7_27  and  O5_29 
ROOT
HETATM    1  C3  UNL     1     -19.625 -21.750  -0.581  1.00  0.00     0.118 A 
HETATM    2  N2  UNL     1     -20.342 -22.740   0.065  1.00  0.00    -0.334 N 
ATOM      3  H2  UNL     1     -20.732 -22.549   0.987  1.00  0.00     0.168 HD
HETATM    4  C4  UNL     1     -20.536 -23.936  -0.488  1.00  0.00     0.154 A 
HETATM    5  N5  UNL     1     -20.003 -24.124  -1.696  1.00  0.00    -0.323 N 
ATOM      6  H5  UNL     1     -20.144 -25.031  -2.142  1.00  0.00     0.169 HD
HETATM    7  C7  UNL     1     -19.297 -23.208  -2.363  1.00  0.00     0.142 A 
HETATM    8  N6  UNL     1     -18.810 -23.447  -3.533  1.00  0.00    -0.250 N 
ATOM      9  H6  UNL     1     -18.272 -22.744  -4.039  1.00  0.00     0.196 HD
HETATM   10  C9  UNL     1     -19.061 -21.908  -1.796  1.00  0.00     0.073 A 
ENDROOT
BRANCH  10  11
HETATM   11  C10 UNL     1     -18.044 -21.163  -2.447  1.00  0.00     0.106 C 
HETATM   12  N7  UNL     1     -16.797 -21.472  -2.101  1.00  0.00    -0.264 N 
ATOM     13  H7  UNL     1     -16.629 -22.202  -1.409  1.00  0.00     0.194 HD
BRANCH  12  14
HETATM   14  O5  UNL     1     -15.761 -20.831  -2.655  1.00  0.00    -0.285 OA
HETATM   15  C11 UNL     1     -14.669 -20.258  -1.974  1.00  0.00     0.237 C 
ENDBRANCH  12  14
BRANCH  11  16
HETATM   16  C12 UNL     1     -18.078 -20.007  -3.331  1.00  0.00     0.122 A 
HETATM   17  N8  UNL     1     -18.137 -18.723  -3.037  1.00  0.00    -0.290 N 
HETATM   18  N9  UNL     1     -18.304 -17.834  -3.910  1.00  0.00    -0.279 N 
ATOM     19  H8  UNL     1     -18.044 -18.440  -2.061  1.00  0.00     0.188 HD
HETATM   20  C13 UNL     1     -18.428 -18.203  -5.187  1.00  0.00     0.159 A 
ATOM     21  H9  UNL     1     -18.344 -16.849  -3.647  1.00  0.00     0.189 HD
HETATM   22  N10 UNL     1     -18.606 -17.433  -6.224  1.00  0.00    -0.379 N 
HETATM   23  S1  UNL     1     -18.287 -19.893  -5.047  1.00  0.00    -0.032 SA
ATOM     24 2H10 UNL     1     -18.690 -16.420  -6.308  1.00  0.00     0.158 HD
ATOM     25 1H10 UNL     1     -18.701 -17.715  -7.200  1.00  0.00     0.158 HD
ENDBRANCH  11  16
ENDBRANCH  10  11
BRANCH   1  26
HETATM   26  C2  UNL     1     -19.674 -20.430   0.029  1.00  0.00     0.268 C 
HETATM   27  N1  UNL     1     -18.494 -19.781   0.418  1.00  0.00    -0.360 N 
HETATM   28  C1  UNL     1     -18.492 -18.447   1.028  1.00  0.00     0.149 C 
ATOM     29  H1  UNL     1     -17.603 -20.255   0.271  1.00  0.00     0.162 HD
HETATM   30  O1  UNL     1     -20.775 -19.877   0.187  1.00  0.00    -0.266 OA
ENDBRANCH   1  26
BRANCH   8  31
HETATM   31  O4  UNL     1     -19.046 -24.687  -4.066  1.00  0.00    -0.284 OA
HETATM   32  C8  UNL     1     -19.759 -24.900  -5.264  1.00  0.00     0.237 C 
ENDBRANCH   8  31
BRANCH   4  33
HETATM   33  C5  UNL     1     -21.297 -24.978   0.207  1.00  0.00     0.175 A 
HETATM   34  N3  UNL     1     -22.285 -24.791   1.091  1.00  0.00    -0.236 N 
HETATM   35  O2  UNL     1     -22.747 -25.922   1.517  1.00  0.00    -0.179 OA
ATOM     36  H3  UNL     1     -22.628 -23.878   1.389  1.00  0.00     0.197 HD
HETATM   37  C6  UNL     1     -22.045 -26.854   0.900  1.00  0.00     0.388 A 
HETATM   38  O3  UNL     1     -22.234 -28.092   1.082  1.00  0.00    -0.236 OA
HETATM   39  N4  UNL     1     -21.141 -26.292   0.082  1.00  0.00    -0.282 N 
ATOM     40  H4  UNL     1     -20.469 -26.776  -0.515  1.00  0.00     0.172 HD
ENDBRANCH   4  33
TORSDOF 6
ENDMDL
MODEL 4
REMARK VINA RESULT: -6.394487501      1.399      1.423
REMARK  6 active torsions:
REMARK  status: ('A' for Active; 'I' for Inactive)
REMARK       I    between atoms: N1_2  and  C2_4 
REMARK    1  A    between atoms: C2_4  and  C3_6 
REMARK    2  A    between atoms: C4_9  and  C5_10 
REMARK    3  A    between atoms: N6_21  and  O4_23 
REMARK    4  A    between atoms: C9_25  and  C10_26 
REMARK    5  A    between atoms: C10_26  and  C12_31 
REMARK    6  A    between atoms: N7_27  and  O5_29 
ROOT
HETATM    1  C3  UNL     1     -20.464 -22.469  -0.683  1.00  0.00     0.118 A 
HETATM    2  N2  UNL     1     -21.171 -23.438   0.005  1.00  0.00    -0.334 N 
ATOM      3  H2  UNL     1     -21.517 -23.230   0.941  1.00  0.00     0.168 HD
HETATM    4  C4  UNL     1     -21.411 -24.636  -0.525  1.00  0.00     0.154 A 
HETATM    5  N5  UNL     1     -20.935 -24.847  -1.753  1.00  0.00    -0.323 N 
ATOM      6  H5  UNL     1     -21.113 -25.756  -2.181  1.00  0.00     0.169 HD
HETATM    7  C7  UNL     1     -20.243 -23.952  -2.460  1.00  0.00     0.142 A 
HETATM    8  N6  UNL     1     -19.812 -24.213  -3.647  1.00  0.00    -0.250 N 
ATOM      9  H6  UNL     1     -19.284 -23.526  -4.184  1.00  0.00     0.196 HD
HETATM   10  C9  UNL     1     -19.957 -22.651  -1.920  1.00  0.00     0.073 A 
ENDROOT
BRANCH  10  11
HETATM   11  C10 UNL     1     -18.956 -21.932  -2.623  1.00  0.00     0.106 C 
HETATM   12  N7  UNL     1     -17.705 -22.169  -2.239  1.00  0.00    -0.264 N 
ATOM     13  H7  UNL     1     -17.523 -22.832  -1.485  1.00  0.00     0.194 HD
BRANCH  12  14
HETATM   14  O5  UNL     1     -16.683 -21.546  -2.836  1.00  0.00    -0.285 OA
HETATM   15  C11 UNL     1     -15.431 -21.249  -2.262  1.00  0.00     0.237 C 
ENDBRANCH  12  14
BRANCH  11  16
HETATM   16  C12 UNL     1     -19.015 -20.859  -3.605  1.00  0.00     0.122 A 
HETATM   17  N8  UNL     1     -18.834 -19.563  -3.447  1.00  0.00    -0.290 N 
HETATM   18  N9  UNL     1     -19.056 -18.731  -4.362  1.00  0.00    -0.279 N 
ATOM     19  H8  UNL     1     -18.500 -19.221  -2.545  1.00  0.00     0.188 HD
HETATM   20  C13 UNL     1     -19.495 -19.176  -5.543  1.00  0.00     0.159 A 
ATOM     21  H9  UNL     1     -18.904 -17.734  -4.207  1.00  0.00     0.189 HD
HETATM   22  N10 UNL     1     -19.779 -18.471  -6.602  1.00  0.00    -0.379 N 
HETATM   23  S1  UNL     1     -19.563 -20.850  -5.249  1.00  0.00    -0.032 SA
ATOM     24 2H10 UNL     1     -19.738 -17.467  -6.779  1.00  0.00     0.158 HD
ATOM     25 1H10 UNL     1     -20.114 -18.811  -7.504  1.00  0.00     0.158 HD
ENDBRANCH  11  16
ENDBRANCH  10  11
BRANCH   1  26
HETATM   26  C2  UNL     1     -20.463 -21.142  -0.087  1.00  0.00     0.268 C 
HETATM   27  N1  UNL     1     -19.336 -20.673   0.603  1.00  0.00    -0.360 N 
HETATM   28  C1  UNL     1     -19.283 -19.340   1.213  1.00  0.00     0.149 C 
ATOM     29  H1  UNL     1     -18.522 -21.282   0.683  1.00  0.00     0.162 HD
HETATM   30  O1  UNL     1     -21.467 -20.421  -0.210  1.00  0.00    -0.266 OA
ENDBRANCH   1  26
BRANCH   8  31
HETATM   31  O4  UNL     1     -20.094 -25.454  -4.155  1.00  0.00    -0.284 OA
HETATM   32  C8  UNL     1     -20.887 -25.667  -5.302  1.00  0.00     0.237 C 
ENDBRANCH   8  31
BRANCH   4  33
HETATM   33  C5  UNL     1     -22.160 -25.656   0.215  1.00  0.00     0.175 A 
HETATM   34  N3  UNL     1     -22.175 -26.972  -0.031  1.00  0.00    -0.236 N 
HETATM   35  O2  UNL     1     -22.939 -27.593   0.809  1.00  0.00    -0.179 OA
ATOM     36  H3  UNL     1     -21.652 -27.426  -0.780  1.00  0.00     0.197 HD
HETATM   37  C6  UNL     1     -23.427 -26.663   1.608  1.00  0.00     0.388 A 
HETATM   38  O3  UNL     1     -24.221 -26.920   2.559  1.00  0.00    -0.236 OA
HETATM   39  N4  UNL     1     -22.957 -25.455   1.259  1.00  0.00    -0.282 N 
ATOM     40  H4  UNL     1     -23.170 -24.562   1.705  1.00  0.00     0.172 HD
ENDBRANCH   4  33
TORSDOF 6
ENDMDL
MODEL 5
REMARK VINA RESULT: -6.321097509      3.440      7.147
REMARK  6 active torsions:
REMARK  status: ('A' for Active; 'I' for Inactive)
REMARK       I    between atoms: N1_2  and  C2_4 
REMARK    1  A    between atoms: C2_4  and  C3_6 
REMARK    2  A    between atoms: C4_9  and  C5_10 
REMARK    3  A    between atoms: N6_21  and  O4_23 
REMARK    4  A    between atoms: C9_25  and  C10_26 
REMARK    5  A    between atoms: C10_26  and  C12_31 
REMARK    6  A    between atoms: N7_27  and  O5_29 
ROOT
HETATM    1  C3  UNL     1     -20.554 -22.703  -0.699  1.00  0.00     0.118 A 
HETATM    2  N2  UNL     1     -19.898 -21.696  -0.015  1.00  0.00    -0.334 N 
ATOM      3  H2  UNL     1     -19.760 -21.787   0.991  1.00  0.00     0.168 HD
HETATM    4  C4  UNL     1     -19.442 -20.611  -0.639  1.00  0.00     0.154 A 
HETATM    5  N5  UNL     1     -19.650 -20.552  -1.955  1.00  0.00    -0.323 N 
ATOM      6  H5  UNL     1     -19.303 -19.733  -2.454  1.00  0.00     0.169 HD
HETATM    7  C7  UNL     1     -20.281 -21.491  -2.664  1.00  0.00     0.142 A 
HETATM    8  N6  UNL     1     -20.448 -21.379  -3.938  1.00  0.00    -0.250 N 
ATOM      9  H6  UNL     1     -20.930 -22.099  -4.476  1.00  0.00     0.196 HD
HETATM   10  C9  UNL     1     -20.794 -22.672  -2.026  1.00  0.00     0.073 A 
ENDROOT
BRANCH  10  11
HETATM   11  C10 UNL     1     -21.709 -23.413  -2.817  1.00  0.00     0.106 C 
HETATM   12  N7  UNL     1     -22.826 -22.773  -3.152  1.00  0.00    -0.264 N 
ATOM     13  H7  UNL     1     -22.974 -21.813  -2.838  1.00  0.00     0.194 HD
BRANCH  12  14
HETATM   14  O5  UNL     1     -23.757 -23.378  -3.897  1.00  0.00    -0.285 OA
HETATM   15  C11 UNL     1     -24.793 -22.752  -4.618  1.00  0.00     0.237 C 
ENDBRANCH  12  14
BRANCH  11  16
HETATM   16  C12 UNL     1     -21.752 -24.807  -3.234  1.00  0.00     0.122 A 
HETATM   17  N8  UNL     1     -21.611 -25.330  -4.437  1.00  0.00    -0.290 N 
HETATM   18  N9  UNL     1     -21.814 -26.548  -4.674  1.00  0.00    -0.279 N 
ATOM     19  H8  UNL     1     -21.327 -24.723  -5.205  1.00  0.00     0.188 HD
HETATM   20  C13 UNL     1     -22.187 -27.345  -3.669  1.00  0.00     0.159 A 
ATOM     21  H9  UNL     1     -21.694 -26.921  -5.616  1.00  0.00     0.189 HD
HETATM   22  N10 UNL     1     -22.441 -28.623  -3.720  1.00  0.00    -0.379 N 
HETATM   23  S1  UNL     1     -22.225 -26.237  -2.379  1.00  0.00    -0.032 SA
ATOM     24 2H10 UNL     1     -22.419 -29.287  -4.494  1.00  0.00     0.158 HD
ATOM     25 1H10 UNL     1     -22.727 -29.232  -2.953  1.00  0.00     0.158 HD
ENDBRANCH  11  16
ENDBRANCH  10  11
BRANCH   1  26
HETATM   26  C2  UNL     1     -20.803 -23.923   0.054  1.00  0.00     0.268 C 
HETATM   27  N1  UNL     1     -22.067 -24.171   0.608  1.00  0.00    -0.360 N 
HETATM   28  C1  UNL     1     -22.369 -25.389   1.367  1.00  0.00     0.149 C 
ATOM     29  H1  UNL     1     -22.804 -23.479   0.478  1.00  0.00     0.162 HD
HETATM   30  O1  UNL     1     -19.886 -24.750   0.188  1.00  0.00    -0.266 OA
ENDBRANCH   1  26
BRANCH   8  31
HETATM   31  O4  UNL     1     -19.950 -20.252  -4.537  1.00  0.00    -0.284 OA
HETATM   32  C8  UNL     1     -20.132 -19.946  -5.902  1.00  0.00     0.237 C 
ENDBRANCH   8  31
BRANCH   4  33
HETATM   33  C5  UNL     1     -18.749 -19.549   0.096  1.00  0.00     0.175 A 
HETATM   34  N3  UNL     1     -19.311 -18.483   0.681  1.00  0.00    -0.236 N 
HETATM   35  O2  UNL     1     -18.417 -17.739   1.247  1.00  0.00    -0.179 OA
ATOM     36  H3  UNL     1     -20.312 -18.285   0.680  1.00  0.00     0.197 HD
HETATM   37  C6  UNL     1     -17.260 -18.332   1.024  1.00  0.00     0.388 A 
HETATM   38  O3  UNL     1     -16.158 -17.871   1.442  1.00  0.00    -0.236 OA
HETATM   39  N4  UNL     1     -17.441 -19.456   0.313  1.00  0.00    -0.282 N 
ATOM     40  H4  UNL     1     -16.720 -20.107   0.001  1.00  0.00     0.172 HD
ENDBRANCH   4  33
TORSDOF 6
ENDMDL
