MODEL 1
REMARK VINA RESULT: -4.758299422      0.000      0.000
REMARK  7 active torsions:
REMARK  status: ('A' for Active; 'I' for Inactive)
REMARK    1  A    between atoms: O1_1  and  C1_3 
REMARK    2  A    between atoms: C1_3  and  C2_4 
REMARK    3  A    between atoms: C3_5  and  C4_6 
REMARK    4  A    between atoms: C4_6  and  O2_7 
REMARK    5  A    between atoms: O2_7  and  C5_8 
REMARK    6  A    between atoms: C10_15  and  O4_16 
REMARK    7  A    between atoms: C11_18  and  O5_19 
ROOT
HETATM    1  C2  UNL     1     -11.722  28.591   8.761  1.00  0.00     0.072 C 
HETATM    2  C3  UNL     1     -12.851  27.812   8.246  1.00  0.00     0.154 C 
HETATM    3  O3  UNL     1     -13.570  27.091   9.173  1.00  0.00    -0.381 OA
HETATM    4  C9  UNL     1     -12.892  26.672  10.277  1.00  0.00     0.202 C 
HETATM    5  C10 UNL     1     -12.330  27.812  11.065  1.00  0.00     0.171 C 
HETATM    6  C11 UNL     1     -11.967  29.009  10.219  1.00  0.00     0.157 C 
ENDROOT
BRANCH   2   7
HETATM    7  C4  UNL     1     -12.526  26.892   7.099  1.00  0.00     0.208 C 
BRANCH   7   8
HETATM    8  O2  UNL     1     -13.026  27.385   5.879  1.00  0.00    -0.348 OA
BRANCH   8   9
HETATM    9  C5  UNL     1     -13.927  26.627   5.078  1.00  0.00     0.075 A 
HETATM   10  C6  UNL     1     -14.830  27.159   4.243  1.00  0.00     0.044 A 
HETATM   11  C7  UNL     1     -15.632  26.314   3.536  1.00  0.00     0.052 A 
HETATM   12  S1  UNL     1     -15.113  24.775   4.048  1.00  0.00    -0.111 SA
HETATM   13  C8  UNL     1     -13.894  25.249   5.145  1.00  0.00     0.086 A 
ENDBRANCH   8   9
ENDBRANCH   7   8
ENDBRANCH   2   7
BRANCH   1  14
HETATM   14  C1  UNL     1     -10.371  27.975   8.716  1.00  0.00     0.174 C 
BRANCH  14  15
HETATM   15  O1  UNL     1      -9.477  28.546   7.848  1.00  0.00    -0.400 OA
ATOM     16  H1  UNL     1      -9.348  28.094   7.023  1.00  0.00     0.209 HD
ENDBRANCH  14  15
ENDBRANCH   1  14
BRANCH   6  17
HETATM   17  O5  UNL     1     -12.897  30.032  10.298  1.00  0.00    -0.392 OA
ATOM     18  H5  UNL     1     -12.526  30.859  10.012  1.00  0.00     0.210 HD
ENDBRANCH   6  17
BRANCH   5  19
HETATM   19  O4  UNL     1     -13.289  28.244  11.983  1.00  0.00    -0.391 OA
ATOM     20  H4  UNL     1     -13.208  29.185  12.095  1.00  0.00     0.210 HD
ENDBRANCH   5  19
TORSDOF 7
ENDMDL
MODEL 2
REMARK VINA RESULT: -4.730845063      0.453      1.041
REMARK  7 active torsions:
REMARK  status: ('A' for Active; 'I' for Inactive)
REMARK    1  A    between atoms: O1_1  and  C1_3 
REMARK    2  A    between atoms: C1_3  and  C2_4 
REMARK    3  A    between atoms: C3_5  and  C4_6 
REMARK    4  A    between atoms: C4_6  and  O2_7 
REMARK    5  A    between atoms: O2_7  and  C5_8 
REMARK    6  A    between atoms: C10_15  and  O4_16 
REMARK    7  A    between atoms: C11_18  and  O5_19 
ROOT
HETATM    1  C2  UNL     1     -11.739  28.718   8.691  1.00  0.00     0.072 C 
HETATM    2  C3  UNL     1     -12.864  27.977   8.114  1.00  0.00     0.154 C 
HETATM    3  O3  UNL     1     -13.585  27.187   8.980  1.00  0.00    -0.381 OA
HETATM    4  C9  UNL     1     -12.911  26.688  10.053  1.00  0.00     0.202 C 
HETATM    5  C10 UNL     1     -12.357  27.768  10.928  1.00  0.00     0.171 C 
HETATM    6  C11 UNL     1     -11.993  29.025  10.175  1.00  0.00     0.157 C 
ENDROOT
BRANCH   2   7
HETATM    7  C4  UNL     1     -12.530  27.145   6.903  1.00  0.00     0.208 C 
BRANCH   7   8
HETATM    8  O2  UNL     1     -13.382  27.436   5.822  1.00  0.00    -0.348 OA
BRANCH   8   9
HETATM    9  C5  UNL     1     -14.088  26.411   5.128  1.00  0.00     0.075 A 
HETATM   10  C6  UNL     1     -13.969  25.101   5.385  1.00  0.00     0.044 A 
HETATM   11  C7  UNL     1     -14.706  24.228   4.641  1.00  0.00     0.052 A 
HETATM   12  S1  UNL     1     -15.562  25.253   3.585  1.00  0.00    -0.111 SA
HETATM   13  C8  UNL     1     -14.960  26.759   4.117  1.00  0.00     0.086 A 
ENDBRANCH   8   9
ENDBRANCH   7   8
ENDBRANCH   2   7
BRANCH   1  14
HETATM   14  C1  UNL     1     -10.386  28.110   8.607  1.00  0.00     0.174 C 
BRANCH  14  15
HETATM   15  O1  UNL     1      -9.472  28.778   7.835  1.00  0.00    -0.400 OA
ATOM     16  H1  UNL     1      -9.417  28.507   6.926  1.00  0.00     0.209 HD
ENDBRANCH  14  15
ENDBRANCH   1  14
BRANCH   6  17
HETATM   17  O5  UNL     1     -12.926  30.038  10.325  1.00  0.00    -0.392 OA
ATOM     18  H5  UNL     1     -12.515  30.894  10.287  1.00  0.00     0.210 HD
ENDBRANCH   6  17
BRANCH   5  19
HETATM   19  O4  UNL     1     -13.321  28.128  11.871  1.00  0.00    -0.391 OA
ATOM     20  H4  UNL     1     -13.111  28.989  12.214  1.00  0.00     0.210 HD
ENDBRANCH   5  19
TORSDOF 7
ENDMDL
MODEL 3
REMARK VINA RESULT: -4.658810402      1.420      2.383
REMARK  7 active torsions:
REMARK  status: ('A' for Active; 'I' for Inactive)
REMARK    1  A    between atoms: O1_1  and  C1_3 
REMARK    2  A    between atoms: C1_3  and  C2_4 
REMARK    3  A    between atoms: C3_5  and  C4_6 
REMARK    4  A    between atoms: C4_6  and  O2_7 
REMARK    5  A    between atoms: O2_7  and  C5_8 
REMARK    6  A    between atoms: C10_15  and  O4_16 
REMARK    7  A    between atoms: C11_18  and  O5_19 
ROOT
HETATM    1  C2  UNL     1     -13.623  28.535   8.927  1.00  0.00     0.072 C 
HETATM    2  C3  UNL     1     -12.595  27.623   8.419  1.00  0.00     0.154 C 
HETATM    3  O3  UNL     1     -11.298  27.893   8.795  1.00  0.00    -0.381 OA
HETATM    4  C9  UNL     1     -10.997  29.196   9.048  1.00  0.00     0.202 C 
HETATM    5  C10 UNL     1     -11.819  29.763  10.162  1.00  0.00     0.171 C 
HETATM    6  C11 UNL     1     -13.194  29.148  10.269  1.00  0.00     0.157 C 
ENDROOT
BRANCH   2   7
HETATM    7  C4  UNL     1     -12.606  27.409   6.928  1.00  0.00     0.208 C 
BRANCH   7   8
HETATM    8  O2  UNL     1     -13.183  26.173   6.585  1.00  0.00    -0.348 OA
BRANCH   8   9
HETATM    9  C5  UNL     1     -13.996  26.022   5.424  1.00  0.00     0.075 A 
HETATM   10  C6  UNL     1     -14.392  27.034   4.640  1.00  0.00     0.044 A 
HETATM   11  C7  UNL     1     -15.171  26.746   3.559  1.00  0.00     0.052 A 
HETATM   12  S1  UNL     1     -15.343  25.054   3.651  1.00  0.00    -0.111 SA
HETATM   13  C8  UNL     1     -14.422  24.762   5.058  1.00  0.00     0.086 A 
ENDBRANCH   8   9
ENDBRANCH   7   8
ENDBRANCH   2   7
BRANCH   1  14
HETATM   14  C1  UNL     1     -14.045  29.664   8.059  1.00  0.00     0.174 C 
BRANCH  14  15
HETATM   15  O1  UNL     1     -15.361  30.034   8.149  1.00  0.00    -0.400 OA
ATOM     16  H1  UNL     1     -15.998  29.369   7.917  1.00  0.00     0.209 HD
ENDBRANCH  14  15
ENDBRANCH   1  14
BRANCH   6  17
HETATM   17  O5  UNL     1     -13.297  28.225  11.298  1.00  0.00    -0.392 OA
ATOM     18  H5  UNL     1     -13.122  28.629  12.140  1.00  0.00     0.210 HD
ENDBRANCH   6  17
BRANCH   5  19
HETATM   19  O4  UNL     1     -11.172  29.518  11.374  1.00  0.00    -0.391 OA
ATOM     20  H4  UNL     1     -10.763  30.321  11.674  1.00  0.00     0.210 HD
ENDBRANCH   5  19
TORSDOF 7
ENDMDL
MODEL 4
REMARK VINA RESULT: -4.656070605     10.236     11.955
REMARK  7 active torsions:
REMARK  status: ('A' for Active; 'I' for Inactive)
REMARK    1  A    between atoms: O1_1  and  C1_3 
REMARK    2  A    between atoms: C1_3  and  C2_4 
REMARK    3  A    between atoms: C3_5  and  C4_6 
REMARK    4  A    between atoms: C4_6  and  O2_7 
REMARK    5  A    between atoms: O2_7  and  C5_8 
REMARK    6  A    between atoms: C10_15  and  O4_16 
REMARK    7  A    between atoms: C11_18  and  O5_19 
ROOT
HETATM    1  C2  UNL     1      -9.008  17.118   9.797  1.00  0.00     0.072 C 
HETATM    2  C3  UNL     1     -10.027  17.461  10.793  1.00  0.00     0.154 C 
HETATM    3  O3  UNL     1     -10.878  18.492  10.467  1.00  0.00    -0.381 OA
HETATM    4  C9  UNL     1     -10.386  19.447   9.630  1.00  0.00     0.202 C 
HETATM    5  C10 UNL     1      -9.978  18.885   8.305  1.00  0.00     0.171 C 
HETATM    6  C11 UNL     1      -9.497  17.455   8.380  1.00  0.00     0.157 C 
ENDROOT
BRANCH   2   7
HETATM    7  C4  UNL     1      -9.504  17.719  12.182  1.00  0.00     0.208 C 
BRANCH   7   8
HETATM    8  O2  UNL     1     -10.068  16.836  13.122  1.00  0.00    -0.348 OA
BRANCH   8   9
HETATM    9  C5  UNL     1     -11.109  17.247  14.004  1.00  0.00     0.075 A 
HETATM   10  C6  UNL     1     -12.369  16.792  13.953  1.00  0.00     0.044 A 
HETATM   11  C7  UNL     1     -13.265  17.272  14.861  1.00  0.00     0.052 A 
HETATM   12  S1  UNL     1     -12.333  18.360  15.781  1.00  0.00    -0.111 SA
HETATM   13  C8  UNL     1     -10.833  18.174  14.986  1.00  0.00     0.086 A 
ENDBRANCH   8   9
ENDBRANCH   7   8
ENDBRANCH   2   7
BRANCH   1  14
HETATM   14  C1  UNL     1      -7.660  17.726   9.939  1.00  0.00     0.174 C 
BRANCH  14  15
HETATM   15  O1  UNL     1      -6.699  17.265   9.077  1.00  0.00    -0.400 OA
ATOM     16  H1  UNL     1      -6.538  17.798   8.308  1.00  0.00     0.209 HD
ENDBRANCH  14  15
ENDBRANCH   1  14
BRANCH   6  17
HETATM   17  O5  UNL     1     -10.441  16.540   7.943  1.00  0.00    -0.392 OA
ATOM     18  H5  UNL     1     -10.619  16.645   7.015  1.00  0.00     0.210 HD
ENDBRANCH   6  17
BRANCH   5  19
HETATM   19  O4  UNL     1     -11.081  18.893   7.449  1.00  0.00    -0.391 OA
ATOM     20  H4  UNL     1     -10.987  18.190   6.817  1.00  0.00     0.210 HD
ENDBRANCH   5  19
TORSDOF 7
ENDMDL
MODEL 5
REMARK VINA RESULT: -4.642238104      1.476      1.830
REMARK  7 active torsions:
REMARK  status: ('A' for Active; 'I' for Inactive)
REMARK    1  A    between atoms: O1_1  and  C1_3 
REMARK    2  A    between atoms: C1_3  and  C2_4 
REMARK    3  A    between atoms: C3_5  and  C4_6 
REMARK    4  A    between atoms: C4_6  and  O2_7 
REMARK    5  A    between atoms: O2_7  and  C5_8 
REMARK    6  A    between atoms: C10_15  and  O4_16 
REMARK    7  A    between atoms: C11_18  and  O5_19 
ROOT
HETATM    1  C2  UNL     1     -13.352  28.062   9.025  1.00  0.00     0.072 C 
HETATM    2  C3  UNL     1     -12.852  26.856   8.361  1.00  0.00     0.154 C 
HETATM    3  O3  UNL     1     -12.109  25.995   9.136  1.00  0.00    -0.381 OA
HETATM    4  C9  UNL     1     -11.415  26.549  10.168  1.00  0.00     0.202 C 
HETATM    5  C10 UNL     1     -12.311  27.235  11.151  1.00  0.00     0.171 C 
HETATM    6  C11 UNL     1     -13.559  27.812  10.527  1.00  0.00     0.157 C 
ENDROOT
BRANCH   2   7
HETATM    7  C4  UNL     1     -12.092  27.096   7.083  1.00  0.00     0.208 C 
BRANCH   7   8
HETATM    8  O2  UNL     1     -12.928  27.598   6.068  1.00  0.00    -0.348 OA
BRANCH   8   9
HETATM    9  C5  UNL     1     -13.753  26.742   5.284  1.00  0.00     0.075 A 
HETATM   10  C6  UNL     1     -14.666  27.169   4.401  1.00  0.00     0.044 A 
HETATM   11  C7  UNL     1     -15.389  26.236   3.718  1.00  0.00     0.052 A 
HETATM   12  S1  UNL     1     -14.781  24.764   4.320  1.00  0.00    -0.111 SA
HETATM   13  C8  UNL     1     -13.628  25.375   5.422  1.00  0.00     0.086 A 
ENDBRANCH   8   9
ENDBRANCH   7   8
ENDBRANCH   2   7
BRANCH   1  14
HETATM   14  C1  UNL     1     -12.551  29.308   8.908  1.00  0.00     0.174 C 
BRANCH  14  15
HETATM   15  O1  UNL     1     -13.259  30.480   8.888  1.00  0.00    -0.400 OA
ATOM     16  H1  UNL     1     -12.786  31.250   8.595  1.00  0.00     0.209 HD
ENDBRANCH  14  15
ENDBRANCH   1  14
BRANCH   6  17
HETATM   17  O5  UNL     1     -14.687  27.041  10.757  1.00  0.00    -0.392 OA
ATOM     18  H5  UNL     1     -14.520  26.372  11.411  1.00  0.00     0.210 HD
ENDBRANCH   6  17
BRANCH   5  19
HETATM   19  O4  UNL     1     -12.730  26.308  12.107  1.00  0.00    -0.391 OA
ATOM     20  H4  UNL     1     -12.712  26.718  12.964  1.00  0.00     0.210 HD
ENDBRANCH   5  19
TORSDOF 7
ENDMDL
