MODEL 1
REMARK VINA RESULT: -6.779206173      0.000      0.000
REMARK  4 active torsions:
REMARK  status: ('A' for Active; 'I' for Inactive)
REMARK    1  A    between atoms: C3_3  and  C5_5 
REMARK       I    between atoms: C5_5  and  N1_7 
REMARK    2  A    between atoms: N1_7  and  N2_9 
REMARK    3  A    between atoms: C6_11  and  C7_12 
REMARK    4  A    between atoms: C10_16  and  O2_17 
ROOT
HETATM    1  N2  UNL     1     -15.468 -14.479   7.418  1.00  0.00    -0.308 N 
ATOM      2  H2  UNL     1     -15.327 -13.972   6.544  1.00  0.00     0.186 HD
HETATM    3  C6  UNL     1     -14.505 -15.187   7.873  1.00  0.00     0.118 C 
ENDROOT
BRANCH   3   4
HETATM    4  C7  UNL     1     -13.253 -15.234   7.124  1.00  0.00    -0.017 A 
HETATM    5  C8  UNL     1     -13.032 -14.412   6.047  1.00  0.00     0.034 A 
HETATM    6  C9  UNL     1     -11.856 -14.434   5.318  1.00  0.00     0.046 A 
HETATM    7 BR1  UNL     1     -11.591 -13.271   3.823  1.00  0.00    -0.048 Br
HETATM    8  C10 UNL     1     -10.879 -15.326   5.707  1.00  0.00     0.100 A 
HETATM    9  C11 UNL     1     -11.086 -16.167   6.799  1.00  0.00     0.046 A 
HETATM   10 BR2  UNL     1      -9.701 -17.394   7.307  1.00  0.00    -0.048 Br
HETATM   11  C12 UNL     1     -12.280 -16.125   7.516  1.00  0.00     0.034 A 
BRANCH   8  12
HETATM   12  O2  UNL     1      -9.674 -15.410   5.030  1.00  0.00    -0.358 OA
ATOM     13  H2  UNL     1      -9.415 -16.207   4.583  1.00  0.00     0.217 HD
ENDBRANCH   8  12
ENDBRANCH   3   4
BRANCH   1  14
HETATM   14  N1  UNL     1     -16.702 -14.369   8.059  1.00  0.00    -0.266 N 
HETATM   15  C5  UNL     1     -17.875 -14.555   7.336  1.00  0.00     0.265 C 
HETATM   16  O1  UNL     1     -17.829 -14.822   6.116  1.00  0.00    -0.266 OA
ATOM     17  H1  UNL     1     -16.743 -14.153   9.054  1.00  0.00     0.190 HD
BRANCH  15  18
HETATM   18  C3  UNL     1     -19.171 -14.446   7.976  1.00  0.00     0.003 C 
HETATM   19  C2  UNL     1     -19.322 -14.161   9.233  1.00  0.00    -0.019 C 
HETATM   20  C1  UNL     1     -20.694 -14.070   9.809  1.00  0.00     0.036 C 
HETATM   21  C4  UNL     1     -20.432 -14.670   7.164  1.00  0.00     0.054 C 
ENDBRANCH  15  18
ENDBRANCH   1  14
TORSDOF 4
ENDMDL
MODEL 2
REMARK VINA RESULT: -6.764644557      0.080      2.216
REMARK  4 active torsions:
REMARK  status: ('A' for Active; 'I' for Inactive)
REMARK    1  A    between atoms: C3_3  and  C5_5 
REMARK       I    between atoms: C5_5  and  N1_7 
REMARK    2  A    between atoms: N1_7  and  N2_9 
REMARK    3  A    between atoms: C6_11  and  C7_12 
REMARK    4  A    between atoms: C10_16  and  O2_17 
ROOT
HETATM    1  N2  UNL     1     -15.402 -14.506   7.450  1.00  0.00    -0.308 N 
ATOM      2  H2  UNL     1     -15.258 -13.983   6.585  1.00  0.00     0.186 HD
HETATM    3  C6  UNL     1     -14.443 -15.228   7.890  1.00  0.00     0.118 C 
ENDROOT
BRANCH   3   4
HETATM    4  C7  UNL     1     -13.193 -15.271   7.138  1.00  0.00    -0.017 A 
HETATM    5  C8  UNL     1     -12.184 -16.140   7.476  1.00  0.00     0.034 A 
HETATM    6  C9  UNL     1     -10.988 -16.203   6.782  1.00  0.00     0.046 A 
HETATM    7 BR1  UNL     1      -9.610 -17.428   7.287  1.00  0.00    -0.048 Br
HETATM    8  C10 UNL     1     -10.824 -15.351   5.710  1.00  0.00     0.100 A 
HETATM    9  C11 UNL     1     -11.839 -14.464   5.353  1.00  0.00     0.046 A 
HETATM   10 BR2  UNL     1     -11.570 -13.294   3.856  1.00  0.00    -0.048 Br
HETATM   11  C12 UNL     1     -13.033 -14.419   6.069  1.00  0.00     0.034 A 
BRANCH   8  12
HETATM   12  O2  UNL     1      -9.658 -15.353   4.964  1.00  0.00    -0.358 OA
ATOM     13  H2  UNL     1      -9.235 -14.541   4.708  1.00  0.00     0.217 HD
ENDBRANCH   8  12
ENDBRANCH   3   4
BRANCH   1  14
HETATM   14  N1  UNL     1     -16.634 -14.399   8.094  1.00  0.00    -0.266 N 
HETATM   15  C5  UNL     1     -17.810 -14.538   7.366  1.00  0.00     0.265 C 
HETATM   16  O1  UNL     1     -17.768 -14.759   6.137  1.00  0.00    -0.266 OA
ATOM     17  H1  UNL     1     -16.672 -14.220   9.098  1.00  0.00     0.190 HD
BRANCH  15  18
HETATM   18  C3  UNL     1     -19.104 -14.430   8.010  1.00  0.00     0.003 C 
HETATM   19  C2  UNL     1     -19.250 -14.183   9.276  1.00  0.00    -0.019 C 
HETATM   20  C1  UNL     1     -20.620 -14.090   9.855  1.00  0.00     0.036 C 
HETATM   21  C4  UNL     1     -20.368 -14.612   7.193  1.00  0.00     0.054 C 
ENDBRANCH  15  18
ENDBRANCH   1  14
TORSDOF 4
ENDMDL
MODEL 3
REMARK VINA RESULT: -6.599263028      3.693      7.656
REMARK  4 active torsions:
REMARK  status: ('A' for Active; 'I' for Inactive)
REMARK    1  A    between atoms: C3_3  and  C5_5 
REMARK       I    between atoms: C5_5  and  N1_7 
REMARK    2  A    between atoms: N1_7  and  N2_9 
REMARK    3  A    between atoms: C6_11  and  C7_12 
REMARK    4  A    between atoms: C10_16  and  O2_17 
ROOT
HETATM    1  N2  UNL     1     -13.006 -14.478   6.065  1.00  0.00    -0.308 N 
ATOM      2  H2  UNL     1     -13.866 -14.328   5.536  1.00  0.00     0.186 HD
HETATM    3  C6  UNL     1     -13.084 -14.583   7.337  1.00  0.00     0.118 C 
ENDROOT
BRANCH   3   4
HETATM    4  C7  UNL     1     -14.395 -14.484   7.971  1.00  0.00    -0.017 A 
HETATM    5  C8  UNL     1     -15.553 -14.627   7.246  1.00  0.00     0.034 A 
HETATM    6  C9  UNL     1     -16.809 -14.539   7.819  1.00  0.00     0.046 A 
HETATM    7 BR1  UNL     1     -18.396 -14.744   6.772  1.00  0.00    -0.048 Br
HETATM    8  C10 UNL     1     -16.879 -14.298   9.175  1.00  0.00     0.100 A 
HETATM    9  C11 UNL     1     -15.713 -14.151   9.926  1.00  0.00     0.046 A 
HETATM   10 BR2  UNL     1     -15.854 -13.815  11.809  1.00  0.00    -0.048 Br
HETATM   11  C12 UNL     1     -14.460 -14.243   9.324  1.00  0.00     0.034 A 
BRANCH   8  12
HETATM   12  O2  UNL     1     -18.098 -14.195   9.824  1.00  0.00    -0.358 OA
ATOM     13  H2  UNL     1     -18.492 -14.945  10.253  1.00  0.00     0.217 HD
ENDBRANCH   8  12
ENDBRANCH   3   4
BRANCH   1  14
HETATM   14  N1  UNL     1     -11.802 -14.558   5.366  1.00  0.00    -0.266 N 
HETATM   15  C5  UNL     1     -11.581 -13.730   4.271  1.00  0.00     0.265 C 
HETATM   16  O1  UNL     1     -12.456 -12.914   3.911  1.00  0.00    -0.266 OA
ATOM     17  H1  UNL     1     -11.085 -15.223   5.657  1.00  0.00     0.190 HD
BRANCH  15  18
HETATM   18  C3  UNL     1     -10.339 -13.793   3.526  1.00  0.00     0.003 C 
HETATM   19  C2  UNL     1      -9.532 -14.808   3.573  1.00  0.00    -0.019 C 
HETATM   20  C1  UNL     1      -8.274 -14.787   2.774  1.00  0.00     0.036 C 
HETATM   21  C4  UNL     1      -9.935 -12.631   2.639  1.00  0.00     0.054 C 
ENDBRANCH  15  18
ENDBRANCH   1  14
TORSDOF 4
ENDMDL
MODEL 4
REMARK VINA RESULT: -6.587256907      3.697      7.834
REMARK  4 active torsions:
REMARK  status: ('A' for Active; 'I' for Inactive)
REMARK    1  A    between atoms: C3_3  and  C5_5 
REMARK       I    between atoms: C5_5  and  N1_7 
REMARK    2  A    between atoms: N1_7  and  N2_9 
REMARK    3  A    between atoms: C6_11  and  C7_12 
REMARK    4  A    between atoms: C10_16  and  O2_17 
ROOT
HETATM    1  N2  UNL     1     -13.003 -14.463   6.089  1.00  0.00    -0.308 N 
ATOM      2  H2  UNL     1     -13.865 -14.325   5.561  1.00  0.00     0.186 HD
HETATM    3  C6  UNL     1     -13.077 -14.554   7.362  1.00  0.00     0.118 C 
ENDROOT
BRANCH   3   4
HETATM    4  C7  UNL     1     -14.387 -14.455   7.998  1.00  0.00    -0.017 A 
HETATM    5  C8  UNL     1     -14.513 -14.206   9.344  1.00  0.00     0.034 A 
HETATM    6  C9  UNL     1     -15.740 -14.107   9.974  1.00  0.00     0.046 A 
HETATM    7 BR1  UNL     1     -15.869 -13.759  11.850  1.00  0.00    -0.048 Br
HETATM    8  C10 UNL     1     -16.872 -14.267   9.202  1.00  0.00     0.100 A 
HETATM    9  C11 UNL     1     -16.762 -14.519   7.835  1.00  0.00     0.046 A 
HETATM   10 BR2  UNL     1     -18.361 -14.737   6.796  1.00  0.00    -0.048 Br
HETATM   11  C12 UNL     1     -15.514 -14.615   7.224  1.00  0.00     0.034 A 
BRANCH   8  12
HETATM   12  O2  UNL     1     -18.137 -14.182   9.757  1.00  0.00    -0.358 OA
ATOM     13  H2  UNL     1     -18.749 -14.906   9.701  1.00  0.00     0.217 HD
ENDBRANCH   8  12
ENDBRANCH   3   4
BRANCH   1  14
HETATM   14  N1  UNL     1     -11.800 -14.545   5.388  1.00  0.00    -0.266 N 
HETATM   15  C5  UNL     1     -11.583 -13.720   4.290  1.00  0.00     0.265 C 
HETATM   16  O1  UNL     1     -12.459 -12.906   3.929  1.00  0.00    -0.266 OA
ATOM     17  H1  UNL     1     -11.082 -15.207   5.680  1.00  0.00     0.190 HD
BRANCH  15  18
HETATM   18  C3  UNL     1     -10.343 -13.784   3.543  1.00  0.00     0.003 C 
HETATM   19  C2  UNL     1      -9.549 -14.811   3.567  1.00  0.00    -0.019 C 
HETATM   20  C1  UNL     1      -8.292 -14.790   2.767  1.00  0.00     0.036 C 
HETATM   21  C4  UNL     1      -9.923 -12.609   2.681  1.00  0.00     0.054 C 
ENDBRANCH  15  18
ENDBRANCH   1  14
TORSDOF 4
ENDMDL
MODEL 5
REMARK VINA RESULT: -6.509740024      3.766      7.738
REMARK  4 active torsions:
REMARK  status: ('A' for Active; 'I' for Inactive)
REMARK    1  A    between atoms: C3_3  and  C5_5 
REMARK       I    between atoms: C5_5  and  N1_7 
REMARK    2  A    between atoms: N1_7  and  N2_9 
REMARK    3  A    between atoms: C6_11  and  C7_12 
REMARK    4  A    between atoms: C10_16  and  O2_17 
ROOT
HETATM    1  N2  UNL     1     -13.417 -14.800   6.593  1.00  0.00    -0.308 N 
ATOM      2  H2  UNL     1     -14.192 -14.482   6.010  1.00  0.00     0.186 HD
HETATM    3  C6  UNL     1     -13.581 -14.824   7.861  1.00  0.00     0.118 C 
ENDROOT
BRANCH   3   4
HETATM    4  C7  UNL     1     -14.862 -14.397   8.413  1.00  0.00    -0.017 A 
HETATM    5  C8  UNL     1     -16.047 -14.696   7.785  1.00  0.00     0.034 A 
HETATM    6  C9  UNL     1     -17.277 -14.305   8.284  1.00  0.00     0.046 A 
HETATM    7 BR1  UNL     1     -18.902 -14.743   7.377  1.00  0.00    -0.048 Br
HETATM    8  C10 UNL     1     -17.292 -13.588   9.461  1.00  0.00     0.100 A 
HETATM    9  C11 UNL     1     -16.099 -13.276  10.112  1.00  0.00     0.046 A 
HETATM   10 BR2  UNL     1     -16.162 -12.275  11.747  1.00  0.00    -0.048 Br
HETATM   11  C12 UNL     1     -14.872 -13.681   9.588  1.00  0.00     0.034 A 
BRANCH   8  12
HETATM   12  O2  UNL     1     -18.481 -13.159  10.026  1.00  0.00    -0.358 OA
ATOM     13  H2  UNL     1     -18.505 -12.782  10.897  1.00  0.00     0.217 HD
ENDBRANCH   8  12
ENDBRANCH   3   4
BRANCH   1  14
HETATM   14  N1  UNL     1     -12.232 -15.187   5.970  1.00  0.00    -0.266 N 
HETATM   15  C5  UNL     1     -11.701 -14.408   4.947  1.00  0.00     0.265 C 
HETATM   16  O1  UNL     1     -12.281 -13.362   4.586  1.00  0.00    -0.266 OA
ATOM     17  H1  UNL     1     -11.755 -16.040   6.263  1.00  0.00     0.190 HD
BRANCH  15  18
HETATM   18  C3  UNL     1     -10.471 -14.787   4.282  1.00  0.00     0.003 C 
HETATM   19  C2  UNL     1      -9.819 -13.995   3.487  1.00  0.00    -0.019 C 
HETATM   20  C1  UNL     1      -8.560 -14.469   2.843  1.00  0.00     0.036 C 
HETATM   21  C4  UNL     1      -9.892 -16.170   4.503  1.00  0.00     0.054 C 
ENDBRANCH  15  18
ENDBRANCH   1  14
TORSDOF 4
ENDMDL
