MODEL 1
REMARK VINA RESULT: -8.892297557      0.000      0.000
REMARK  5 active torsions:
REMARK  status: ('A' for Active; 'I' for Inactive)
REMARK    1  A    between atoms: C2_2  and  N1_3 
REMARK    2  A    between atoms: C2_2  and  C17_28 
REMARK       I    between atoms: N1_3  and  C3_5 
REMARK    3  A    between atoms: C3_5  and  C4_7 
REMARK    4  A    between atoms: C4_7  and  N2_8 
REMARK    5  A    between atoms: C7_15  and  C8_16 
ROOT
HETATM    1  N2  UNL     1     -15.013 -15.676   8.819  1.00  0.00    -0.248 N 
HETATM    2  N3  UNL     1     -14.201 -16.711   9.010  1.00  0.00    -0.304 N 
ATOM      3  H3  UNL     1     -14.438 -17.376   9.746  1.00  0.00     0.186 HD
HETATM    4  C5  UNL     1     -13.089 -16.933   8.294  1.00  0.00     0.138 A 
HETATM    5  C6  UNL     1     -12.727 -16.057   7.284  1.00  0.00     0.065 A 
HETATM    6  N4  UNL     1     -11.696 -16.007   6.406  1.00  0.00    -0.354 N 
ATOM      7  H4  UNL     1     -10.939 -16.688   6.353  1.00  0.00     0.166 HD
HETATM    8  C7  UNL     1     -11.820 -14.921   5.612  1.00  0.00     0.044 A 
HETATM    9  C14 UNL     1     -12.967 -14.289   6.023  1.00  0.00     0.050 A 
HETATM   10  C15 UNL     1     -13.567 -14.972   7.073  1.00  0.00     0.064 A 
HETATM   11  C16 UNL     1     -14.689 -14.809   7.846  1.00  0.00     0.275 A 
HETATM   12  O2  UNL     1     -15.442 -13.799   7.624  1.00  0.00    -0.266 OA
ENDROOT
BRANCH   1  13
HETATM   13  C4  UNL     1     -16.186 -15.458   9.615  1.00  0.00     0.255 C 
BRANCH  13  14
HETATM   14  C3  UNL     1     -17.357 -16.120   9.045  1.00  0.00     0.237 C 
HETATM   15  N1  UNL     1     -18.233 -15.512   8.100  1.00  0.00    -0.355 N 
ATOM     16  H1  UNL     1     -18.007 -14.562   7.806  1.00  0.00     0.162 HD
HETATM   17  O1  UNL     1     -17.659 -17.309   9.383  1.00  0.00    -0.272 OA
BRANCH  15  18
HETATM   18  C2  UNL     1     -19.395 -16.107   7.527  1.00  0.00     0.087 C 
HETATM   19  C1  UNL     1     -19.337 -16.266   6.018  1.00  0.00     0.033 C 
BRANCH  18  20
HETATM   20  C17 UNL     1     -20.671 -15.394   7.953  1.00  0.00    -0.031 C 
HETATM   21  C18 UNL     1     -21.183 -15.837   9.291  1.00  0.00     0.016 C 
HETATM   22  C19 UNL     1     -20.364 -13.921   8.040  1.00  0.00     0.016 C 
HETATM   23  C20 UNL     1     -21.684 -15.601   6.851  1.00  0.00     0.016 C 
ENDBRANCH  18  20
ENDBRANCH  15  18
ENDBRANCH  13  14
ENDBRANCH   1  13
BRANCH   8  24
HETATM   24  C8  UNL     1     -10.917 -14.514   4.532  1.00  0.00    -0.004 A 
HETATM   25  C9  UNL     1      -9.811 -15.240   4.157  1.00  0.00     0.056 A 
HETATM   26  C10 UNL     1      -8.966 -14.849   3.148  1.00  0.00     0.120 A 
HETATM   27  F1  UNL     1      -7.876 -15.555   2.774  1.00  0.00    -0.206 F 
HETATM   28  C11 UNL     1      -9.223 -13.671   2.466  1.00  0.00     0.084 A 
HETATM   29  C12 UNL     1     -10.318 -12.938   2.827  1.00  0.00     0.120 A 
HETATM   30  F2  UNL     1     -10.543 -11.775   2.133  1.00  0.00    -0.206 F 
HETATM   31  C13 UNL     1     -11.160 -13.333   3.837  1.00  0.00     0.056 A 
ENDBRANCH   8  24
TORSDOF 5
ENDMDL
MODEL 2
REMARK VINA RESULT: -8.882534218      0.086      1.723
REMARK  5 active torsions:
REMARK  status: ('A' for Active; 'I' for Inactive)
REMARK    1  A    between atoms: C2_2  and  N1_3 
REMARK    2  A    between atoms: C2_2  and  C17_28 
REMARK       I    between atoms: N1_3  and  C3_5 
REMARK    3  A    between atoms: C3_5  and  C4_7 
REMARK    4  A    between atoms: C4_7  and  N2_8 
REMARK    5  A    between atoms: C7_15  and  C8_16 
ROOT
HETATM    1  N2  UNL     1     -14.981 -15.751   8.808  1.00  0.00    -0.248 N 
HETATM    2  N3  UNL     1     -14.179 -16.802   8.947  1.00  0.00    -0.304 N 
ATOM      3  H3  UNL     1     -14.416 -17.493   9.659  1.00  0.00     0.186 HD
HETATM    4  C5  UNL     1     -13.079 -17.009   8.208  1.00  0.00     0.138 A 
HETATM    5  C6  UNL     1     -12.720 -16.098   7.229  1.00  0.00     0.065 A 
HETATM    6  N4  UNL     1     -11.698 -16.025   6.341  1.00  0.00    -0.354 N 
ATOM      7  H4  UNL     1     -10.951 -16.712   6.250  1.00  0.00     0.166 HD
HETATM    8  C7  UNL     1     -11.819 -14.906   5.593  1.00  0.00     0.044 A 
HETATM    9  C14 UNL     1     -12.953 -14.278   6.043  1.00  0.00     0.050 A 
HETATM   10  C15 UNL     1     -13.549 -14.995   7.072  1.00  0.00     0.064 A 
HETATM   11  C16 UNL     1     -14.659 -14.849   7.866  1.00  0.00     0.275 A 
HETATM   12  O2  UNL     1     -15.402 -13.823   7.694  1.00  0.00    -0.266 OA
ENDROOT
BRANCH   1  13
HETATM   13  C4  UNL     1     -16.141 -15.551   9.627  1.00  0.00     0.255 C 
BRANCH  13  14
HETATM   14  C3  UNL     1     -17.327 -16.177   9.047  1.00  0.00     0.237 C 
HETATM   15  N1  UNL     1     -18.172 -15.545   8.089  1.00  0.00    -0.355 N 
ATOM     16  H1  UNL     1     -17.911 -14.605   7.793  1.00  0.00     0.162 HD
HETATM   17  O1  UNL     1     -17.672 -17.353   9.388  1.00  0.00    -0.272 OA
BRANCH  15  18
HETATM   18  C2  UNL     1     -19.346 -16.104   7.506  1.00  0.00     0.087 C 
HETATM   19  C1  UNL     1     -19.278 -16.270   5.999  1.00  0.00     0.033 C 
BRANCH  18  20
HETATM   20  C17 UNL     1     -20.603 -15.349   7.917  1.00  0.00    -0.031 C 
HETATM   21  C18 UNL     1     -20.375 -13.882   8.127  1.00  0.00     0.016 C 
HETATM   22  C19 UNL     1     -21.612 -15.507   6.810  1.00  0.00     0.016 C 
HETATM   23  C20 UNL     1     -21.146 -16.030   9.152  1.00  0.00     0.016 C 
ENDBRANCH  18  20
ENDBRANCH  15  18
ENDBRANCH  13  14
ENDBRANCH   1  13
BRANCH   8  24
HETATM   24  C8  UNL     1     -10.925 -14.467   4.518  1.00  0.00    -0.004 A 
HETATM   25  C9  UNL     1     -11.103 -13.299   3.815  1.00  0.00     0.056 A 
HETATM   26  C10 UNL     1     -10.265 -12.897   2.804  1.00  0.00     0.120 A 
HETATM   27  F1  UNL     1     -10.435 -11.753   2.107  1.00  0.00    -0.206 F 
HETATM   28  C11 UNL     1      -9.184 -13.693   2.465  1.00  0.00     0.084 A 
HETATM   29  C12 UNL     1      -8.991 -14.857   3.154  1.00  0.00     0.120 A 
HETATM   30  F2  UNL     1      -7.912 -15.623   2.790  1.00  0.00    -0.206 F 
HETATM   31  C13 UNL     1      -9.833 -15.254   4.163  1.00  0.00     0.056 A 
ENDBRANCH   8  24
TORSDOF 5
ENDMDL
MODEL 3
REMARK VINA RESULT: -8.660731895      4.602      5.752
REMARK  5 active torsions:
REMARK  status: ('A' for Active; 'I' for Inactive)
REMARK    1  A    between atoms: C2_2  and  N1_3 
REMARK    2  A    between atoms: C2_2  and  C17_28 
REMARK       I    between atoms: N1_3  and  C3_5 
REMARK    3  A    between atoms: C3_5  and  C4_7 
REMARK    4  A    between atoms: C4_7  and  N2_8 
REMARK    5  A    between atoms: C7_15  and  C8_16 
ROOT
HETATM    1  N2  UNL     1     -11.325 -18.585   9.935  1.00  0.00    -0.248 N 
HETATM    2  N3  UNL     1     -12.600 -18.333   9.658  1.00  0.00    -0.304 N 
ATOM      3  H3  UNL     1     -13.311 -18.730  10.273  1.00  0.00     0.186 HD
HETATM    4  C5  UNL     1     -13.009 -17.588   8.621  1.00  0.00     0.138 A 
HETATM    5  C6  UNL     1     -12.080 -17.028   7.760  1.00  0.00     0.065 A 
HETATM    6  N4  UNL     1     -12.171 -16.248   6.655  1.00  0.00    -0.354 N 
ATOM      7  H4  UNL     1     -13.043 -15.918   6.241  1.00  0.00     0.166 HD
HETATM    8  C7  UNL     1     -10.935 -15.971   6.185  1.00  0.00     0.044 A 
HETATM    9  C14 UNL     1     -10.064 -16.606   7.034  1.00  0.00     0.050 A 
HETATM   10  C15 UNL     1     -10.744 -17.282   8.038  1.00  0.00     0.064 A 
HETATM   11  C16 UNL     1     -10.400 -18.055   9.119  1.00  0.00     0.275 A 
HETATM   12  O2  UNL     1      -9.160 -18.268   9.347  1.00  0.00    -0.266 OA
ENDROOT
BRANCH   1  13
HETATM   13  C4  UNL     1     -10.922 -19.401  11.044  1.00  0.00     0.255 C 
BRANCH  13  14
HETATM   14  C3  UNL     1     -12.063 -19.802  11.862  1.00  0.00     0.237 C 
HETATM   15  N1  UNL     1     -12.703 -21.072  11.768  1.00  0.00    -0.355 N 
ATOM     16  H1  UNL     1     -12.320 -21.733  11.092  1.00  0.00     0.162 HD
HETATM   17  O1  UNL     1     -12.557 -19.005  12.723  1.00  0.00    -0.272 OA
BRANCH  15  18
HETATM   18  C2  UNL     1     -13.826 -21.506  12.530  1.00  0.00     0.087 C 
HETATM   19  C1  UNL     1     -13.724 -22.933  13.039  1.00  0.00     0.033 C 
BRANCH  18  20
HETATM   20  C17 UNL     1     -15.139 -21.282  11.792  1.00  0.00    -0.031 C 
HETATM   21  C18 UNL     1     -14.967 -21.094  10.314  1.00  0.00     0.016 C 
HETATM   22  C19 UNL     1     -15.997 -22.501  12.007  1.00  0.00     0.016 C 
HETATM   23  C20 UNL     1     -15.820 -20.103  12.447  1.00  0.00     0.016 C 
ENDBRANCH  18  20
ENDBRANCH  15  18
ENDBRANCH  13  14
ENDBRANCH   1  13
BRANCH   8  24
HETATM   24  C8  UNL     1     -10.603 -15.154   5.015  1.00  0.00    -0.004 A 
HETATM   25  C9  UNL     1      -9.474 -15.346   4.253  1.00  0.00     0.056 A 
HETATM   26  C10 UNL     1      -9.166 -14.572   3.162  1.00  0.00     0.120 A 
HETATM   27  F1  UNL     1      -8.057 -14.752   2.411  1.00  0.00    -0.206 F 
HETATM   28  C11 UNL     1     -10.020 -13.545   2.797  1.00  0.00     0.084 A 
HETATM   29  C12 UNL     1     -11.146 -13.341   3.542  1.00  0.00     0.120 A 
HETATM   30  F2  UNL     1     -11.970 -12.313   3.155  1.00  0.00    -0.206 F 
HETATM   31  C13 UNL     1     -11.450 -14.118   4.634  1.00  0.00     0.056 A 
ENDBRANCH   8  24
TORSDOF 5
ENDMDL
MODEL 4
REMARK VINA RESULT: -8.653813465      4.633      6.283
REMARK  5 active torsions:
REMARK  status: ('A' for Active; 'I' for Inactive)
REMARK    1  A    between atoms: C2_2  and  N1_3 
REMARK    2  A    between atoms: C2_2  and  C17_28 
REMARK       I    between atoms: N1_3  and  C3_5 
REMARK    3  A    between atoms: C3_5  and  C4_7 
REMARK    4  A    between atoms: C4_7  and  N2_8 
REMARK    5  A    between atoms: C7_15  and  C8_16 
ROOT
HETATM    1  N2  UNL     1     -11.872 -18.538   9.972  1.00  0.00    -0.248 N 
HETATM    2  N3  UNL     1     -13.027 -18.304   9.355  1.00  0.00    -0.304 N 
ATOM      3  H3  UNL     1     -13.866 -18.749   9.727  1.00  0.00     0.186 HD
HETATM    4  C5  UNL     1     -13.154 -17.521   8.274  1.00  0.00     0.138 A 
HETATM    5  C6  UNL     1     -12.041 -16.897   7.735  1.00  0.00     0.065 A 
HETATM    6  N4  UNL     1     -11.847 -16.067   6.681  1.00  0.00    -0.354 N 
ATOM      7  H4  UNL     1     -12.578 -15.740   6.050  1.00  0.00     0.166 HD
HETATM    8  C7  UNL     1     -10.539 -15.738   6.591  1.00  0.00     0.044 A 
HETATM    9  C14 UNL     1      -9.919 -16.391   7.627  1.00  0.00     0.050 A 
HETATM   10  C15 UNL     1     -10.829 -17.131   8.370  1.00  0.00     0.064 A 
HETATM   11  C16 UNL     1     -10.775 -17.946   9.473  1.00  0.00     0.275 A 
HETATM   12  O2  UNL     1      -9.643 -18.139  10.034  1.00  0.00    -0.266 OA
ENDROOT
BRANCH   1  13
HETATM   13  C4  UNL     1     -11.768 -19.396  11.117  1.00  0.00     0.255 C 
BRANCH  13  14
HETATM   14  C3  UNL     1     -12.753 -20.473  11.076  1.00  0.00     0.237 C 
HETATM   15  N1  UNL     1     -13.368 -21.033  12.233  1.00  0.00    -0.355 N 
ATOM     16  H1  UNL     1     -13.102 -20.638  13.134  1.00  0.00     0.162 HD
HETATM   17  O1  UNL     1     -13.116 -20.980   9.966  1.00  0.00    -0.272 OA
BRANCH  15  18
HETATM   18  C2  UNL     1     -14.320 -22.093  12.249  1.00  0.00     0.087 C 
HETATM   19  C1  UNL     1     -15.758 -21.646  12.054  1.00  0.00     0.033 C 
BRANCH  18  20
HETATM   20  C17 UNL     1     -14.183 -22.967  13.489  1.00  0.00    -0.031 C 
HETATM   21  C18 UNL     1     -12.971 -23.849  13.465  1.00  0.00     0.016 C 
HETATM   22  C19 UNL     1     -14.066 -22.051  14.680  1.00  0.00     0.016 C 
HETATM   23  C20 UNL     1     -15.466 -23.753  13.622  1.00  0.00     0.016 C 
ENDBRANCH  18  20
ENDBRANCH  15  18
ENDBRANCH  13  14
ENDBRANCH   1  13
BRANCH   8  24
HETATM   24  C8  UNL     1      -9.921 -14.857   5.596  1.00  0.00    -0.004 A 
HETATM   25  C9  UNL     1      -9.527 -15.283   4.350  1.00  0.00     0.056 A 
HETATM   26  C10 UNL     1      -8.942 -14.453   3.425  1.00  0.00     0.120 A 
HETATM   27  F1  UNL     1      -8.549 -14.864   2.199  1.00  0.00    -0.206 F 
HETATM   28  C11 UNL     1      -8.733 -13.122   3.745  1.00  0.00     0.084 A 
HETATM   29  C12 UNL     1      -9.120 -12.682   4.980  1.00  0.00     0.120 A 
HETATM   30  F2  UNL     1      -8.896 -11.359   5.266  1.00  0.00    -0.206 F 
HETATM   31  C13 UNL     1      -9.703 -13.517   5.901  1.00  0.00     0.056 A 
ENDBRANCH   8  24
TORSDOF 5
ENDMDL
MODEL 5
REMARK VINA RESULT: -8.602117080      4.597      5.932
REMARK  5 active torsions:
REMARK  status: ('A' for Active; 'I' for Inactive)
REMARK    1  A    between atoms: C2_2  and  N1_3 
REMARK    2  A    between atoms: C2_2  and  C17_28 
REMARK       I    between atoms: N1_3  and  C3_5 
REMARK    3  A    between atoms: C3_5  and  C4_7 
REMARK    4  A    between atoms: C4_7  and  N2_8 
REMARK    5  A    between atoms: C7_15  and  C8_16 
ROOT
HETATM    1  N2  UNL     1     -11.314 -18.575   9.909  1.00  0.00    -0.248 N 
HETATM    2  N3  UNL     1     -12.591 -18.319   9.640  1.00  0.00    -0.304 N 
ATOM      3  H3  UNL     1     -13.299 -18.721  10.255  1.00  0.00     0.186 HD
HETATM    4  C5  UNL     1     -13.004 -17.565   8.612  1.00  0.00     0.138 A 
HETATM    5  C6  UNL     1     -12.078 -16.997   7.751  1.00  0.00     0.065 A 
HETATM    6  N4  UNL     1     -12.173 -16.207   6.654  1.00  0.00    -0.354 N 
ATOM      7  H4  UNL     1     -13.046 -15.873   6.247  1.00  0.00     0.166 HD
HETATM    8  C7  UNL     1     -10.939 -15.928   6.180  1.00  0.00     0.044 A 
HETATM    9  C14 UNL     1     -10.064 -16.571   7.020  1.00  0.00     0.050 A 
HETATM   10  C15 UNL     1     -10.741 -17.255   8.021  1.00  0.00     0.064 A 
HETATM   11  C16 UNL     1     -10.392 -18.038   9.093  1.00  0.00     0.275 A 
HETATM   12  O2  UNL     1      -9.151 -18.255   9.313  1.00  0.00    -0.266 OA
ENDROOT
BRANCH   1  13
HETATM   13  C4  UNL     1     -10.907 -19.401  11.008  1.00  0.00     0.255 C 
BRANCH  13  14
HETATM   14  C3  UNL     1     -12.043 -19.796  11.837  1.00  0.00     0.237 C 
HETATM   15  N1  UNL     1     -12.681 -21.067  11.758  1.00  0.00    -0.355 N 
ATOM     16  H1  UNL     1     -12.302 -21.733  11.085  1.00  0.00     0.162 HD
HETATM   17  O1  UNL     1     -12.532 -18.992  12.694  1.00  0.00    -0.272 OA
BRANCH  15  18
HETATM   18  C2  UNL     1     -13.800 -21.495  12.530  1.00  0.00     0.087 C 
HETATM   19  C1  UNL     1     -13.692 -22.917  13.053  1.00  0.00     0.033 C 
BRANCH  18  20
HETATM   20  C17 UNL     1     -15.117 -21.281  11.797  1.00  0.00    -0.031 C 
HETATM   21  C18 UNL     1     -14.952 -21.091  10.319  1.00  0.00     0.016 C 
HETATM   22  C19 UNL     1     -15.965 -22.507  12.015  1.00  0.00     0.016 C 
HETATM   23  C20 UNL     1     -15.805 -20.108  12.456  1.00  0.00     0.016 C 
ENDBRANCH  18  20
ENDBRANCH  15  18
ENDBRANCH  13  14
ENDBRANCH   1  13
BRANCH   8  24
HETATM   24  C8  UNL     1     -10.611 -15.100   5.016  1.00  0.00    -0.004 A 
HETATM   25  C9  UNL     1     -11.399 -14.060   4.582  1.00  0.00     0.056 A 
HETATM   26  C10 UNL     1     -11.089 -13.293   3.486  1.00  0.00     0.120 A 
HETATM   27  F1  UNL     1     -11.858 -12.271   3.050  1.00  0.00    -0.206 F 
HETATM   28  C11 UNL     1      -9.933 -13.565   2.773  1.00  0.00     0.084 A 
HETATM   29  C12 UNL     1      -9.139 -14.595   3.192  1.00  0.00     0.120 A 
HETATM   30  F2  UNL     1      -8.002 -14.840   2.462  1.00  0.00    -0.206 F 
HETATM   31  C13 UNL     1      -9.454 -15.360   4.288  1.00  0.00     0.056 A 
ENDBRANCH   8  24
TORSDOF 5
ENDMDL
