MODEL 1
REMARK VINA RESULT: -7.901498552      0.000      0.000
REMARK  3 active torsions:
REMARK  status: ('A' for Active; 'I' for Inactive)
REMARK       I    between atoms: N1_2  and  C2_4 
REMARK    1  A    between atoms: C2_4  and  C3_6 
REMARK    2  A    between atoms: C5_8  and  C6_9 
REMARK    3  A    between atoms: C6_9  and  C7_10 
ROOT
HETATM    1  C6  UNL     1     -11.423 -14.102   8.476  1.00  0.00     0.099 C 
ENDROOT
BRANCH   1   2
HETATM    2  C5  UNL     1     -12.774 -13.748   8.996  1.00  0.00    -0.036 A 
HETATM    3  C4  UNL     1     -13.857 -14.286   8.343  1.00  0.00     0.028 A 
HETATM    4  C3  UNL     1     -15.170 -13.962   8.781  1.00  0.00     0.054 A 
HETATM    5  C15 UNL     1     -15.353 -13.123   9.839  1.00  0.00     0.021 A 
HETATM    6  N4  UNL     1     -14.249 -12.607  10.466  1.00  0.00    -0.368 N 
HETATM    7  C16 UNL     1     -16.693 -12.685  10.326  1.00  0.00     0.069 C 
HETATM    8  C14 UNL     1     -13.008 -12.912  10.056  1.00  0.00     0.095 A 
ATOM      9  H4  UNL     1     -14.373 -11.978  11.260  1.00  0.00     0.165 HD
BRANCH   4  10
HETATM   10  C2  UNL     1     -16.245 -14.607   8.100  1.00  0.00     0.253 C 
HETATM   11  N1  UNL     1     -16.926 -14.148   6.992  1.00  0.00    -0.361 N 
HETATM   12  C1  UNL     1     -18.024 -14.913   6.365  1.00  0.00     0.149 C 
ATOM     13  H1  UNL     1     -16.662 -13.248   6.591  1.00  0.00     0.162 HD
HETATM   14  O1  UNL     1     -16.623 -15.740   8.578  1.00  0.00    -0.268 OA
ENDBRANCH   4  10
ENDBRANCH   1   2
BRANCH   1  15
HETATM   15  C7  UNL     1     -11.127 -13.648   7.110  1.00  0.00     0.042 A 
HETATM   16  N2  UNL     1     -11.232 -12.357   6.701  1.00  0.00    -0.303 N 
HETATM   17  N3  UNL     1     -10.863 -12.211   5.452  1.00  0.00    -0.298 N 
ATOM     18  H2  UNL     1     -11.558 -11.594   7.293  1.00  0.00     0.186 HD
HETATM   19  C8  UNL     1     -10.502 -13.431   5.008  1.00  0.00     0.077 A 
ATOM     20  H3  UNL     1     -10.851 -11.341   4.918  1.00  0.00     0.187 HD
HETATM   21  C9  UNL     1     -10.051 -13.888   3.785  1.00  0.00     0.043 A 
HETATM   22  C13 UNL     1     -10.661 -14.351   6.030  1.00  0.00     0.021 A 
HETATM   23 BR1  UNL     1      -9.819 -12.625   2.353  1.00  0.00    -0.049 Br
HETATM   24  C10 UNL     1      -9.769 -15.216   3.590  1.00  0.00     0.063 A 
HETATM   25  C11 UNL     1      -9.936 -16.123   4.628  1.00  0.00     0.118 A 
HETATM   26  F1  UNL     1      -9.663 -17.446   4.448  1.00  0.00    -0.206 F 
HETATM   27  C12 UNL     1     -10.380 -15.693   5.842  1.00  0.00     0.058 A 
ENDBRANCH   1  15
TORSDOF 3
ENDMDL
MODEL 2
REMARK VINA RESULT: -7.843054262      1.561      1.745
REMARK  3 active torsions:
REMARK  status: ('A' for Active; 'I' for Inactive)
REMARK       I    between atoms: N1_2  and  C2_4 
REMARK    1  A    between atoms: C2_4  and  C3_6 
REMARK    2  A    between atoms: C5_8  and  C6_9 
REMARK    3  A    between atoms: C6_9  and  C7_10 
ROOT
HETATM    1  C6  UNL     1     -12.951 -15.833   7.663  1.00  0.00     0.099 C 
ENDROOT
BRANCH   1   2
HETATM    2  C5  UNL     1     -14.145 -15.182   8.271  1.00  0.00    -0.036 A 
HETATM    3  C4  UNL     1     -15.347 -15.353   7.627  1.00  0.00     0.028 A 
HETATM    4  C3  UNL     1     -16.514 -14.733   8.150  1.00  0.00     0.054 A 
HETATM    5  C15 UNL     1     -16.442 -13.976   9.281  1.00  0.00     0.021 A 
HETATM    6  N4  UNL     1     -15.227 -13.830   9.896  1.00  0.00    -0.368 N 
HETATM    7  C16 UNL     1     -17.605 -13.245   9.862  1.00  0.00     0.069 C 
HETATM    8  C14 UNL     1     -14.123 -14.414   9.405  1.00  0.00     0.095 A 
ATOM      9  H4  UNL     1     -15.160 -13.266  10.743  1.00  0.00     0.165 HD
BRANCH   4  10
HETATM   10  C2  UNL     1     -17.738 -15.005   7.469  1.00  0.00     0.253 C 
HETATM   11  N1  UNL     1     -18.603 -16.056   7.694  1.00  0.00    -0.361 N 
HETATM   12  C1  UNL     1     -19.854 -16.231   6.927  1.00  0.00     0.149 C 
ATOM     13  H1  UNL     1     -18.371 -16.738   8.417  1.00  0.00     0.162 HD
HETATM   14  O1  UNL     1     -18.068 -14.180   6.539  1.00  0.00    -0.268 OA
ENDBRANCH   4  10
ENDBRANCH   1   2
BRANCH   1  15
HETATM   15  C7  UNL     1     -12.352 -15.125   6.522  1.00  0.00     0.042 A 
HETATM   16  N2  UNL     1     -12.723 -13.881   6.122  1.00  0.00    -0.303 N 
HETATM   17  N3  UNL     1     -12.001 -13.459   5.113  1.00  0.00    -0.298 N 
ATOM     18  H2  UNL     1     -13.472 -13.341   6.555  1.00  0.00     0.186 HD
HETATM   19  C8  UNL     1     -11.125 -14.441   4.825  1.00  0.00     0.077 A 
ATOM     20  H3  UNL     1     -12.086 -12.560   4.637  1.00  0.00     0.187 HD
HETATM   21  C9  UNL     1     -10.141 -14.567   3.862  1.00  0.00     0.043 A 
HETATM   22  C13 UNL     1     -11.326 -15.499   5.694  1.00  0.00     0.021 A 
HETATM   23 BR1  UNL     1      -9.842 -13.107   2.647  1.00  0.00    -0.049 Br
HETATM   24  C10 UNL     1      -9.387 -15.710   3.771  1.00  0.00     0.063 A 
HETATM   25  C11 UNL     1      -9.606 -16.760   4.652  1.00  0.00     0.118 A 
HETATM   26  F1  UNL     1      -8.867 -17.902   4.573  1.00  0.00    -0.206 F 
HETATM   27  C12 UNL     1     -10.570 -16.656   5.609  1.00  0.00     0.058 A 
ENDBRANCH   1  15
TORSDOF 3
ENDMDL
MODEL 3
REMARK VINA RESULT: -7.839806541      4.446      6.717
REMARK  3 active torsions:
REMARK  status: ('A' for Active; 'I' for Inactive)
REMARK       I    between atoms: N1_2  and  C2_4 
REMARK    1  A    between atoms: C2_4  and  C3_6 
REMARK    2  A    between atoms: C5_8  and  C6_9 
REMARK    3  A    between atoms: C6_9  and  C7_10 
ROOT
HETATM    1  C6  UNL     1     -10.402 -14.067   8.630  1.00  0.00     0.099 C 
ENDROOT
BRANCH   1   2
HETATM    2  C5  UNL     1      -9.093 -14.483   9.207  1.00  0.00    -0.036 A 
HETATM    3  C4  UNL     1      -8.205 -13.485   9.529  1.00  0.00     0.028 A 
HETATM    4  C3  UNL     1      -6.931 -13.827  10.060  1.00  0.00     0.054 A 
HETATM    5  C15 UNL     1      -6.593 -15.133  10.246  1.00  0.00     0.021 A 
HETATM    6  N4  UNL     1      -7.505 -16.101   9.915  1.00  0.00    -0.368 N 
HETATM    7  C16 UNL     1      -5.260 -15.580  10.742  1.00  0.00     0.069 C 
HETATM    8  C14 UNL     1      -8.709 -15.782   9.414  1.00  0.00     0.095 A 
ATOM      9  H4  UNL     1      -7.264 -17.083  10.050  1.00  0.00     0.165 HD
BRANCH   4  10
HETATM   10  C2  UNL     1      -6.086 -12.740  10.433  1.00  0.00     0.253 C 
HETATM   11  N1  UNL     1      -6.020 -12.117  11.662  1.00  0.00    -0.361 N 
HETATM   12  C1  UNL     1      -5.092 -11.000  11.936  1.00  0.00     0.149 C 
ATOM     13  H1  UNL     1      -6.635 -12.440  12.410  1.00  0.00     0.162 HD
HETATM   14  O1  UNL     1      -5.301 -12.289   9.519  1.00  0.00    -0.268 OA
ENDBRANCH   4  10
ENDBRANCH   1   2
BRANCH   1  15
HETATM   15  C7  UNL     1     -10.367 -13.610   7.234  1.00  0.00     0.042 A 
HETATM   16  N2  UNL     1     -10.492 -12.310   6.858  1.00  0.00    -0.303 N 
HETATM   17  N3  UNL     1     -10.376 -12.164   5.561  1.00  0.00    -0.298 N 
ATOM     18  H2  UNL     1     -10.655 -11.541   7.507  1.00  0.00     0.186 HD
HETATM   19  C8  UNL     1     -10.170 -13.394   5.050  1.00  0.00     0.077 A 
ATOM     20  H3  UNL     1     -10.431 -11.290   5.039  1.00  0.00     0.187 HD
HETATM   21  C9  UNL     1      -9.997 -13.855   3.759  1.00  0.00     0.043 A 
HETATM   22  C13 UNL     1     -10.162 -14.319   6.079  1.00  0.00     0.021 A 
HETATM   23 BR1  UNL     1     -10.000 -12.587   2.314  1.00  0.00    -0.049 Br
HETATM   24  C10 UNL     1      -9.823 -15.193   3.507  1.00  0.00     0.063 A 
HETATM   25  C11 UNL     1      -9.820 -16.104   4.554  1.00  0.00     0.118 A 
HETATM   26  F1  UNL     1      -9.651 -17.435   4.318  1.00  0.00    -0.206 F 
HETATM   27  C12 UNL     1      -9.988 -15.670   5.834  1.00  0.00     0.058 A 
ENDBRANCH   1  15
TORSDOF 3
ENDMDL
MODEL 4
REMARK VINA RESULT: -7.785087930      5.015      5.644
REMARK  3 active torsions:
REMARK  status: ('A' for Active; 'I' for Inactive)
REMARK       I    between atoms: N1_2  and  C2_4 
REMARK    1  A    between atoms: C2_4  and  C3_6 
REMARK    2  A    between atoms: C5_8  and  C6_9 
REMARK    3  A    between atoms: C6_9  and  C7_10 
ROOT
HETATM    1  C6  UNL     1     -11.272 -17.254   9.356  1.00  0.00     0.099 C 
ENDROOT
BRANCH   1   2
HETATM    2  C5  UNL     1     -12.357 -18.243   9.613  1.00  0.00    -0.036 A 
HETATM    3  C4  UNL     1     -12.306 -18.934  10.799  1.00  0.00     0.028 A 
HETATM    4  C3  UNL     1     -13.302 -19.907  11.085  1.00  0.00     0.054 A 
HETATM    5  C15 UNL     1     -14.299 -20.153  10.189  1.00  0.00     0.021 A 
HETATM    6  N4  UNL     1     -14.318 -19.442   9.018  1.00  0.00    -0.368 N 
HETATM    7  C16 UNL     1     -15.347 -21.195  10.383  1.00  0.00     0.069 C 
HETATM    8  C14 UNL     1     -13.380 -18.522   8.745  1.00  0.00     0.095 A 
ATOM      9  H4  UNL     1     -15.060 -19.616   8.339  1.00  0.00     0.165 HD
BRANCH   4  10
HETATM   10  C2  UNL     1     -13.225 -20.541  12.361  1.00  0.00     0.253 C 
HETATM   11  N1  UNL     1     -12.754 -21.807  12.638  1.00  0.00    -0.361 N 
HETATM   12  C1  UNL     1     -12.715 -22.355  14.010  1.00  0.00     0.149 C 
ATOM     13  H1  UNL     1     -12.420 -22.386  11.867  1.00  0.00     0.162 HD
HETATM   14  O1  UNL     1     -13.648 -19.853  13.363  1.00  0.00    -0.268 OA
ENDBRANCH   4  10
ENDBRANCH   1   2
BRANCH   1  15
HETATM   15  C7  UNL     1     -11.518 -16.309   8.257  1.00  0.00     0.042 A 
HETATM   16  N2  UNL     1     -12.323 -15.220   8.361  1.00  0.00    -0.303 N 
HETATM   17  N3  UNL     1     -12.334 -14.515   7.256  1.00  0.00    -0.298 N 
ATOM     18  H2  UNL     1     -12.856 -14.980   9.197  1.00  0.00     0.186 HD
HETATM   19  C8  UNL     1     -11.517 -15.144   6.387  1.00  0.00     0.077 A 
ATOM     20  H3  UNL     1     -12.858 -13.657   7.086  1.00  0.00     0.187 HD
HETATM   21  C9  UNL     1     -11.157 -14.878   5.080  1.00  0.00     0.043 A 
HETATM   22  C13 UNL     1     -10.994 -16.274   6.991  1.00  0.00     0.021 A 
HETATM   23 BR1  UNL     1     -11.868 -13.310   4.224  1.00  0.00    -0.049 Br
HETATM   24  C10 UNL     1     -10.304 -15.712   4.402  1.00  0.00     0.063 A 
HETATM   25  C11 UNL     1      -9.792 -16.841   5.026  1.00  0.00     0.118 A 
HETATM   26  F1  UNL     1      -8.946 -17.680   4.364  1.00  0.00    -0.206 F 
HETATM   27  C12 UNL     1     -10.135 -17.122   6.314  1.00  0.00     0.058 A 
ENDBRANCH   1  15
TORSDOF 3
ENDMDL
MODEL 5
REMARK VINA RESULT: -7.720838186      5.916      6.542
REMARK  3 active torsions:
REMARK  status: ('A' for Active; 'I' for Inactive)
REMARK       I    between atoms: N1_2  and  C2_4 
REMARK    1  A    between atoms: C2_4  and  C3_6 
REMARK    2  A    between atoms: C5_8  and  C6_9 
REMARK    3  A    between atoms: C6_9  and  C7_10 
ROOT
HETATM    1  C6  UNL     1     -11.325 -17.858  10.193  1.00  0.00     0.099 C 
ENDROOT
BRANCH   1   2
HETATM    2  C5  UNL     1     -12.455 -18.830  10.209  1.00  0.00    -0.036 A 
HETATM    3  C4  UNL     1     -12.459 -19.768  11.213  1.00  0.00     0.028 A 
HETATM    4  C3  UNL     1     -13.500 -20.735  11.262  1.00  0.00     0.054 A 
HETATM    5  C15 UNL     1     -14.485 -20.731  10.320  1.00  0.00     0.021 A 
HETATM    6  N4  UNL     1     -14.448 -19.780   9.335  1.00  0.00    -0.368 N 
HETATM    7  C16 UNL     1     -15.579 -21.743  10.263  1.00  0.00     0.069 C 
HETATM    8  C14 UNL     1     -13.467 -18.865   9.287  1.00  0.00     0.095 A 
ATOM      9  H4  UNL     1     -15.179 -19.767   8.624  1.00  0.00     0.165 HD
BRANCH   4  10
HETATM   10  C2  UNL     1     -13.480 -21.637  12.367  1.00  0.00     0.253 C 
HETATM   11  N1  UNL     1     -12.909 -22.892  12.410  1.00  0.00    -0.361 N 
HETATM   12  C1  UNL     1     -12.943 -23.737  13.622  1.00  0.00     0.149 C 
ATOM     13  H1  UNL     1     -12.445 -23.250  11.574  1.00  0.00     0.162 HD
HETATM   14  O1  UNL     1     -14.063 -21.235  13.441  1.00  0.00    -0.268 OA
ENDBRANCH   4  10
ENDBRANCH   1   2
BRANCH   1  15
HETATM   15  C7  UNL     1     -10.851 -17.453   8.862  1.00  0.00     0.042 A 
HETATM   16  N2  UNL     1      -9.709 -17.916   8.291  1.00  0.00    -0.303 N 
HETATM   17  N3  UNL     1      -9.540 -17.439   7.082  1.00  0.00    -0.298 N 
ATOM     18  H2  UNL     1      -9.061 -18.558   8.747  1.00  0.00     0.186 HD
HETATM   19  C8  UNL     1     -10.593 -16.635   6.833  1.00  0.00     0.077 A 
ATOM     20  H3  UNL     1      -8.763 -17.637   6.452  1.00  0.00     0.187 HD
HETATM   21  C9  UNL     1     -10.941 -15.858   5.744  1.00  0.00     0.043 A 
HETATM   22  C13 UNL     1     -11.429 -16.626   7.935  1.00  0.00     0.021 A 
HETATM   23 BR1  UNL     1      -9.795 -15.860   4.200  1.00  0.00    -0.049 Br
HETATM   24  C10 UNL     1     -12.084 -15.099   5.759  1.00  0.00     0.063 A 
HETATM   25  C11 UNL     1     -12.908 -15.103   6.875  1.00  0.00     0.118 A 
HETATM   26  F1  UNL     1     -14.045 -14.352   6.905  1.00  0.00    -0.206 F 
HETATM   27  C12 UNL     1     -12.583 -15.862   7.958  1.00  0.00     0.058 A 
ENDBRANCH   1  15
TORSDOF 3
ENDMDL
