MODEL 1
REMARK VINA RESULT: -4.846757576      0.000      0.000
REMARK  3 active torsions:
REMARK  status: ('A' for Active; 'I' for Inactive)
REMARK    1  A    between atoms: C3_5  and  N2_6 
REMARK    2  A    between atoms: N2_6  and  N3_8 
REMARK    3  A    between atoms: C4_10  and  C5_11 
ROOT
HETATM    1  C1  UNL     1      -7.259  18.278  11.791  1.00  0.00     0.040 C 
HETATM    2  C2  UNL     1      -8.578  18.187  11.818  1.00  0.00     0.030 C 
HETATM    3  N1  UNL     1      -9.329  17.059  11.407  1.00  0.00    -0.368 N 
ATOM      4  H1  UNL     1      -8.922  16.168  11.124  1.00  0.00     0.161 HD
HETATM    5  C3  UNL     1     -10.741  17.335  11.442  1.00  0.00     0.230 C 
HETATM    6  C8  UNL     1     -10.842  18.557  12.332  1.00  0.00     0.267 C 
HETATM    7  N5  UNL     1     -10.910  18.092  13.694  1.00  0.00    -0.041 N 
ATOM      8  H51 UNL     1     -10.492  17.174  13.843  1.00  0.00     0.279 HD
ATOM      9  H52 UNL     1     -11.849  17.839  14.002  1.00  0.00     0.279 HD
HETATM   10  C9  UNL     1     -10.303  19.148  14.456  1.00  0.00     0.464 C 
HETATM   11  N6  UNL     1      -9.253  19.670  13.623  1.00  0.00    -0.040 N 
ATOM     12  H61 UNL     1      -8.324  19.419  13.959  1.00  0.00     0.280 HD
ATOM     13  H62 UNL     1      -9.160  20.683  13.700  1.00  0.00     0.280 HD
HETATM   14  C10 UNL     1      -9.488  19.240  12.279  1.00  0.00     0.270 C 
ENDROOT
BRANCH   5  15
HETATM   15  N2  UNL     1     -11.242  17.591  10.118  1.00  0.00    -0.311 N 
ATOM     16  H2  UNL     1     -12.028  18.226   9.978  1.00  0.00     0.182 HD
BRANCH  15  17
HETATM   17  N3  UNL     1     -10.648  16.965   9.035  1.00  0.00    -0.312 N 
HETATM   18  C4  UNL     1     -10.112  17.569   8.041  1.00  0.00     0.143 C 
ATOM     19  H3  UNL     1     -10.636  15.946   9.029  1.00  0.00     0.185 HD
BRANCH  18  20
HETATM   20  C5  UNL     1     -10.141  19.046   8.073  1.00  0.00     0.090 A 
HETATM   21  N4  UNL     1     -11.114  19.868   7.717  1.00  0.00    -0.359 N 
HETATM   22  C6  UNL     1     -10.953  21.144   7.818  1.00  0.00     0.096 A 
ATOM     23  H4  UNL     1     -11.993  19.492   7.361  1.00  0.00     0.166 HD
HETATM   24  C7  UNL     1      -9.756  21.608   8.298  1.00  0.00     0.069 A 
HETATM   25  S1  UNL     1      -8.918  20.138   8.582  1.00  0.00    -0.082 SA
ENDBRANCH  18  20
ENDBRANCH  15  17
ENDBRANCH   5  15
TORSDOF 3
ENDMDL
MODEL 2
REMARK VINA RESULT: -4.730220237      2.112      4.807
REMARK  3 active torsions:
REMARK  status: ('A' for Active; 'I' for Inactive)
REMARK    1  A    between atoms: C3_5  and  N2_6 
REMARK    2  A    between atoms: N2_6  and  N3_8 
REMARK    3  A    between atoms: C4_10  and  C5_11 
ROOT
HETATM    1  C1  UNL     1     -11.918  23.243  10.289  1.00  0.00     0.040 C 
HETATM    2  C2  UNL     1     -11.208  22.389   9.571  1.00  0.00     0.030 C 
HETATM    3  N1  UNL     1     -11.562  21.908   8.287  1.00  0.00    -0.368 N 
ATOM      4  H1  UNL     1     -12.363  22.236   7.749  1.00  0.00     0.161 HD
HETATM    5  C3  UNL     1     -10.641  20.895   7.841  1.00  0.00     0.230 C 
HETATM    6  C8  UNL     1      -9.433  21.097   8.732  1.00  0.00     0.267 C 
HETATM    7  N5  UNL     1      -8.607  22.103   8.116  1.00  0.00    -0.041 N 
ATOM      8  H51 UNL     1      -9.114  22.741   7.502  1.00  0.00     0.279 HD
ATOM      9  H52 UNL     1      -7.972  21.744   7.404  1.00  0.00     0.279 HD
HETATM   10  C9  UNL     1      -7.952  22.745   9.221  1.00  0.00     0.464 C 
HETATM   11  N6  UNL     1      -8.914  22.750  10.291  1.00  0.00    -0.040 N 
ATOM     12  H61 UNL     1      -9.290  23.680  10.476  1.00  0.00     0.280 HD
ATOM     13  H62 UNL     1      -8.487  22.589  11.203  1.00  0.00     0.280 HD
HETATM   14  C10 UNL     1      -9.933  21.794   9.984  1.00  0.00     0.270 C 
ENDROOT
BRANCH   5  15
HETATM   15  N2  UNL     1     -11.212  19.584   7.998  1.00  0.00    -0.311 N 
ATOM     16  H2  UNL     1     -12.056  19.452   8.554  1.00  0.00     0.182 HD
BRANCH  15  17
HETATM   17  N3  UNL     1     -10.603  18.502   7.385  1.00  0.00    -0.312 N 
HETATM   18  C4  UNL     1     -10.094  17.499   7.999  1.00  0.00     0.143 C 
ATOM     19  H3  UNL     1     -10.556  18.503   6.366  1.00  0.00     0.185 HD
BRANCH  18  20
HETATM   20  C5  UNL     1     -10.174  17.521   9.475  1.00  0.00     0.090 A 
HETATM   21  N4  UNL     1     -11.211  17.269  10.256  1.00  0.00    -0.359 N 
HETATM   22  C6  UNL     1     -11.088  17.338  11.539  1.00  0.00     0.096 A 
ATOM     23  H4  UNL     1     -12.110  17.019   9.844  1.00  0.00     0.166 HD
HETATM   24  C7  UNL     1      -9.863  17.678  12.052  1.00  0.00     0.069 A 
HETATM   25  S1  UNL     1      -8.944  17.881  10.617  1.00  0.00    -0.082 SA
ENDBRANCH  18  20
ENDBRANCH  15  17
ENDBRANCH   5  15
TORSDOF 3
ENDMDL
MODEL 3
REMARK VINA RESULT: -4.722583039      2.227      4.926
REMARK  3 active torsions:
REMARK  status: ('A' for Active; 'I' for Inactive)
REMARK    1  A    between atoms: C3_5  and  N2_6 
REMARK    2  A    between atoms: N2_6  and  N3_8 
REMARK    3  A    between atoms: C4_10  and  C5_11 
ROOT
HETATM    1  C1  UNL     1     -12.280  21.332  11.511  1.00  0.00     0.040 C 
HETATM    2  C2  UNL     1     -11.746  21.297  10.301  1.00  0.00     0.030 C 
HETATM    3  N1  UNL     1     -11.912  20.250   9.364  1.00  0.00    -0.368 N 
ATOM      4  H1  UNL     1     -12.530  19.450   9.496  1.00  0.00     0.161 HD
HETATM    5  C3  UNL     1     -11.094  20.462   8.199  1.00  0.00     0.230 C 
HETATM    6  C8  UNL     1     -10.749  21.935   8.270  1.00  0.00     0.267 C 
HETATM    7  N5  UNL     1     -11.822  22.659   7.636  1.00  0.00    -0.041 N 
ATOM      8  H51 UNL     1     -12.716  22.168   7.638  1.00  0.00     0.279 HD
ATOM      9  H52 UNL     1     -11.736  22.729   6.622  1.00  0.00     0.279 HD
HETATM   10  C9  UNL     1     -11.842  23.924   8.315  1.00  0.00     0.464 C 
HETATM   11  N6  UNL     1     -11.494  23.635   9.680  1.00  0.00    -0.040 N 
ATOM     12  H61 UNL     1     -12.288  23.720  10.314  1.00  0.00     0.280 HD
ATOM     13  H62 UNL     1     -10.905  24.357  10.096  1.00  0.00     0.280 HD
HETATM   14  C10 UNL     1     -10.889  22.339   9.727  1.00  0.00     0.270 C 
ENDROOT
BRANCH   5  15
HETATM   15  N2  UNL     1      -9.919  19.632   8.243  1.00  0.00    -0.311 N 
ATOM     16  H2  UNL     1      -9.090  19.941   8.750  1.00  0.00     0.182 HD
BRANCH  15  17
HETATM   17  N3  UNL     1      -9.927  18.411   7.592  1.00  0.00    -0.312 N 
HETATM   18  C4  UNL     1      -9.986  17.269   8.170  1.00  0.00     0.143 C 
ATOM     19  H3  UNL     1      -9.883  18.421   6.573  1.00  0.00     0.185 HD
BRANCH  18  20
HETATM   20  C5  UNL     1     -10.050  17.281   9.647  1.00  0.00     0.090 A 
HETATM   21  N4  UNL     1     -11.112  17.260  10.434  1.00  0.00    -0.359 N 
HETATM   22  C6  UNL     1     -10.968  17.275  11.717  1.00  0.00     0.096 A 
ATOM     23  H4  UNL     1     -12.047  17.232  10.028  1.00  0.00     0.166 HD
HETATM   24  C7  UNL     1      -9.694  17.315  12.222  1.00  0.00     0.069 A 
HETATM   25  S1  UNL     1      -8.763  17.327  10.782  1.00  0.00    -0.082 SA
ENDBRANCH  18  20
ENDBRANCH  15  17
ENDBRANCH   5  15
TORSDOF 3
ENDMDL
MODEL 4
REMARK VINA RESULT: -4.629247153      2.303      5.041
REMARK  3 active torsions:
REMARK  status: ('A' for Active; 'I' for Inactive)
REMARK    1  A    between atoms: C3_5  and  N2_6 
REMARK    2  A    between atoms: N2_6  and  N3_8 
REMARK    3  A    between atoms: C4_10  and  C5_11 
ROOT
HETATM    1  C1  UNL     1     -10.775  18.954   6.711  1.00  0.00     0.040 C 
HETATM    2  C2  UNL     1     -10.068  19.648   7.588  1.00  0.00     0.030 C 
HETATM    3  N1  UNL     1      -8.654  19.697   7.645  1.00  0.00    -0.368 N 
ATOM      4  H1  UNL     1      -8.035  19.264   6.962  1.00  0.00     0.161 HD
HETATM    5  C3  UNL     1      -8.207  20.438   8.796  1.00  0.00     0.230 C 
HETATM    6  C8  UNL     1      -9.430  21.232   9.204  1.00  0.00     0.267 C 
HETATM    7  N5  UNL     1      -9.430  22.449   8.434  1.00  0.00    -0.041 N 
ATOM      8  H51 UNL     1      -8.925  22.384   7.550  1.00  0.00     0.279 HD
ATOM      9  H52 UNL     1      -8.861  23.196   8.833  1.00  0.00     0.279 HD
HETATM   10  C9  UNL     1     -10.821  22.777   8.295  1.00  0.00     0.464 C 
HETATM   11  N6  UNL     1     -11.506  21.517   8.184  1.00  0.00    -0.040 N 
ATOM     12  H61 UNL     1     -11.852  21.340   7.241  1.00  0.00     0.280 HD
ATOM     13  H62 UNL     1     -12.405  21.516   8.665  1.00  0.00     0.280 HD
HETATM   14  C10 UNL     1     -10.631  20.486   8.652  1.00  0.00     0.270 C 
ENDROOT
BRANCH   5  15
HETATM   15  N2  UNL     1      -7.772  19.546   9.838  1.00  0.00    -0.311 N 
ATOM     16  H2  UNL     1      -7.852  19.819  10.817  1.00  0.00     0.182 HD
BRANCH  15  17
HETATM   17  N3  UNL     1      -7.243  18.313   9.497  1.00  0.00    -0.312 N 
HETATM   18  C4  UNL     1      -7.718  17.181   9.865  1.00  0.00     0.143 C 
ATOM     19  H3  UNL     1      -6.410  18.304   8.908  1.00  0.00     0.185 HD
BRANCH  18  20
HETATM   20  C5  UNL     1      -8.925  17.220  10.718  1.00  0.00     0.090 A 
HETATM   21  N4  UNL     1     -10.194  17.324  10.361  1.00  0.00    -0.359 N 
HETATM   22  C6  UNL     1     -11.120  17.340  11.260  1.00  0.00     0.096 A 
ATOM     23  H4  UNL     1     -10.441  17.390   9.374  1.00  0.00     0.166 HD
HETATM   24  C7  UNL     1     -10.745  17.250  12.575  1.00  0.00     0.069 A 
HETATM   25  S1  UNL     1      -9.039  17.143  12.430  1.00  0.00    -0.082 SA
ENDBRANCH  18  20
ENDBRANCH  15  17
ENDBRANCH   5  15
TORSDOF 3
ENDMDL
MODEL 5
REMARK VINA RESULT: -4.623741623      1.467      1.653
REMARK  3 active torsions:
REMARK  status: ('A' for Active; 'I' for Inactive)
REMARK    1  A    between atoms: C3_5  and  N2_6 
REMARK    2  A    between atoms: N2_6  and  N3_8 
REMARK    3  A    between atoms: C4_10  and  C5_11 
ROOT
HETATM    1  C1  UNL     1      -7.298  16.736  11.239  1.00  0.00     0.040 C 
HETATM    2  C2  UNL     1      -8.557  17.143  11.209  1.00  0.00     0.030 C 
HETATM    3  N1  UNL     1      -9.491  16.839  10.190  1.00  0.00    -0.368 N 
ATOM      4  H1  UNL     1      -9.310  16.204   9.413  1.00  0.00     0.161 HD
HETATM    5  C3  UNL     1     -10.729  17.543  10.395  1.00  0.00     0.230 C 
HETATM    6  C8  UNL     1     -10.668  17.955  11.851  1.00  0.00     0.267 C 
HETATM    7  N5  UNL     1     -11.176  16.855  12.630  1.00  0.00    -0.041 N 
ATOM      8  H51 UNL     1     -11.091  15.946  12.176  1.00  0.00     0.279 HD
ATOM      9  H52 UNL     1     -12.192  16.841  12.719  1.00  0.00     0.279 HD
HETATM   10  C9  UNL     1     -10.477  16.957  13.880  1.00  0.00     0.464 C 
HETATM   11  N6  UNL     1      -9.159  17.429  13.548  1.00  0.00    -0.040 N 
ATOM     12  H61 UNL     1      -8.446  16.708  13.651  1.00  0.00     0.280 HD
ATOM     13  H62 UNL     1      -8.793  18.087  14.237  1.00  0.00     0.280 HD
HETATM   14  C10 UNL     1      -9.197  17.980  12.228  1.00  0.00     0.270 C 
ENDROOT
BRANCH   5  15
HETATM   15  N2  UNL     1     -10.819  18.680   9.518  1.00  0.00    -0.311 N 
ATOM     16  H2  UNL     1     -10.960  19.615   9.899  1.00  0.00     0.182 HD
BRANCH  15  17
HETATM   17  N3  UNL     1     -10.713  18.492   8.150  1.00  0.00    -0.312 N 
HETATM   18  C4  UNL     1     -10.571  19.428   7.288  1.00  0.00     0.143 C 
ATOM     19  H3  UNL     1     -10.751  17.534   7.803  1.00  0.00     0.185 HD
BRANCH  18  20
HETATM   20  C5  UNL     1     -10.518  20.808   7.816  1.00  0.00     0.090 A 
HETATM   21  N4  UNL     1     -11.482  21.711   7.883  1.00  0.00    -0.359 N 
HETATM   22  C6  UNL     1     -11.243  22.876   8.384  1.00  0.00     0.096 A 
ATOM     23  H4  UNL     1     -12.415  21.486   7.539  1.00  0.00     0.166 HD
HETATM   24  C7  UNL     1      -9.975  23.138   8.834  1.00  0.00     0.069 A 
HETATM   25  S1  UNL     1      -9.187  21.651   8.499  1.00  0.00    -0.082 SA
ENDBRANCH  18  20
ENDBRANCH  15  17
ENDBRANCH   5  15
TORSDOF 3
ENDMDL
