MODEL 1
REMARK VINA RESULT: -4.906623960      0.000      0.000
REMARK  6 active torsions:
REMARK  status: ('A' for Active; 'I' for Inactive)
REMARK    1  A    between atoms: O1_1  and  C1_3 
REMARK    2  A    between atoms: C1_3  and  C2_4 
REMARK    3  A    between atoms: C3_6  and  C4_7 
REMARK    4  A    between atoms: C8_12  and  O3_13 
REMARK    5  A    between atoms: C9_15  and  O4_16 
REMARK    6  A    between atoms: C10_18  and  O5_19 
ROOT
HETATM    1  C2  UNL     1      -8.925  31.754   9.574  1.00  0.00     0.177 C 
HETATM    2  O2  UNL     1      -8.792  32.492   8.445  1.00  0.00    -0.368 OA
HETATM    3  C3  UNL     1      -8.749  31.828   7.259  1.00  0.00     0.193 C 
HETATM    4  C8  UNL     1      -8.021  30.531   7.261  1.00  0.00     0.183 C 
HETATM    5  C9  UNL     1      -8.205  29.705   8.489  1.00  0.00     0.181 C 
HETATM    6  C10 UNL     1      -9.311  30.315   9.340  1.00  0.00     0.180 C 
ENDROOT
BRANCH   3   7
HETATM    7  C4  UNL     1      -8.060  32.732   6.261  1.00  0.00     0.014 A 
HETATM    8  C5  UNL     1      -8.623  33.732   5.514  1.00  0.00     0.018 A 
HETATM    9  C6  UNL     1      -7.830  34.412   4.689  1.00  0.00     0.008 A 
HETATM   10  C7  UNL     1      -6.506  34.059   4.649  1.00  0.00     0.050 A 
HETATM   11  S1  UNL     1      -6.424  32.781   5.776  1.00  0.00    -0.104 SA
ENDBRANCH   3   7
BRANCH   4  12
HETATM   12  O3  UNL     1      -8.469  29.773   6.154  1.00  0.00    -0.390 OA
ATOM     13  H3  UNL     1      -8.941  29.018   6.485  1.00  0.00     0.210 HD
ENDBRANCH   4  12
BRANCH   1  14
HETATM   14  C1  UNL     1      -9.930  32.360  10.561  1.00  0.00     0.198 C 
BRANCH  14  15
HETATM   15  O1  UNL     1      -9.480  33.651  10.867  1.00  0.00    -0.398 OA
ATOM     16  H1  UNL     1      -9.129  33.623  11.749  1.00  0.00     0.209 HD
ENDBRANCH  14  15
ENDBRANCH   1  14
BRANCH   5  17
HETATM   17  O4  UNL     1      -7.039  29.777   9.249  1.00  0.00    -0.390 OA
ATOM     18  H4  UNL     1      -7.273  29.698  10.167  1.00  0.00     0.210 HD
ENDBRANCH   5  17
BRANCH   6  19
HETATM   19  O5  UNL     1     -10.554  30.176   8.772  1.00  0.00    -0.390 OA
ATOM     20  H5  UNL     1     -10.741  29.287   8.497  1.00  0.00     0.210 HD
ENDBRANCH   6  19
TORSDOF 6
ENDMDL
MODEL 2
REMARK VINA RESULT: -4.631170539      7.666      9.145
REMARK  6 active torsions:
REMARK  status: ('A' for Active; 'I' for Inactive)
REMARK    1  A    between atoms: O1_1  and  C1_3 
REMARK    2  A    between atoms: C1_3  and  C2_4 
REMARK    3  A    between atoms: C3_6  and  C4_7 
REMARK    4  A    between atoms: C8_12  and  O3_13 
REMARK    5  A    between atoms: C9_15  and  O4_16 
REMARK    6  A    between atoms: C10_18  and  O5_19 
ROOT
HETATM    1  C2  UNL     1     -11.664  23.411   8.153  1.00  0.00     0.177 C 
HETATM    2  O2  UNL     1     -12.252  23.678   6.961  1.00  0.00    -0.368 OA
HETATM    3  C3  UNL     1     -12.376  24.983   6.598  1.00  0.00     0.193 C 
HETATM    4  C8  UNL     1     -12.692  25.940   7.692  1.00  0.00     0.183 C 
HETATM    5  C9  UNL     1     -12.010  25.664   8.989  1.00  0.00     0.181 C 
HETATM    6  C10 UNL     1     -10.956  24.586   8.780  1.00  0.00     0.180 C 
ENDROOT
BRANCH   3   7
HETATM    7  C4  UNL     1     -13.498  25.064   5.587  1.00  0.00     0.014 A 
HETATM    8  C5  UNL     1     -13.871  26.151   4.842  1.00  0.00     0.018 A 
HETATM    9  C6  UNL     1     -14.897  26.006   4.005  1.00  0.00     0.008 A 
HETATM   10  C7  UNL     1     -15.503  24.777   3.951  1.00  0.00     0.050 A 
HETATM   11  S1  UNL     1     -14.606  23.868   5.083  1.00  0.00    -0.104 SA
ENDBRANCH   3   7
BRANCH   4  12
HETATM   12  O3  UNL     1     -12.313  27.235   7.266  1.00  0.00    -0.390 OA
ATOM     13  H3  UNL     1     -12.584  27.339   6.362  1.00  0.00     0.210 HD
ENDBRANCH   4  12
BRANCH   1  14
HETATM   14  C1  UNL     1     -10.672  22.245   8.075  1.00  0.00     0.198 C 
BRANCH  14  15
HETATM   15  O1  UNL     1     -11.410  21.095   7.767  1.00  0.00    -0.398 OA
ATOM     16  H1  UNL     1     -10.824  20.499   7.316  1.00  0.00     0.209 HD
ENDBRANCH  14  15
ENDBRANCH   1  14
BRANCH   5  17
HETATM   17  O4  UNL     1     -12.945  25.133   9.875  1.00  0.00    -0.390 OA
ATOM     18  H4  UNL     1     -12.602  25.212  10.758  1.00  0.00     0.210 HD
ENDBRANCH   5  17
BRANCH   6  19
HETATM   19  O5  UNL     1      -9.886  25.027   8.039  1.00  0.00    -0.390 OA
ATOM     20  H5  UNL     1      -9.580  25.886   8.302  1.00  0.00     0.210 HD
ENDBRANCH   6  19
TORSDOF 6
ENDMDL
MODEL 3
REMARK VINA RESULT: -4.451028064      5.894      7.486
REMARK  6 active torsions:
REMARK  status: ('A' for Active; 'I' for Inactive)
REMARK    1  A    between atoms: O1_1  and  C1_3 
REMARK    2  A    between atoms: C1_3  and  C2_4 
REMARK    3  A    between atoms: C3_6  and  C4_7 
REMARK    4  A    between atoms: C8_12  and  O3_13 
REMARK    5  A    between atoms: C9_15  and  O4_16 
REMARK    6  A    between atoms: C10_18  and  O5_19 
ROOT
HETATM    1  C2  UNL     1     -13.304  27.356  10.149  1.00  0.00     0.177 C 
HETATM    2  O2  UNL     1     -13.498  26.538   9.085  1.00  0.00    -0.368 OA
HETATM    3  C3  UNL     1     -12.404  26.161   8.371  1.00  0.00     0.193 C 
HETATM    4  C8  UNL     1     -11.350  27.196   8.194  1.00  0.00     0.183 C 
HETATM    5  C9  UNL     1     -11.113  28.065   9.382  1.00  0.00     0.181 C 
HETATM    6  C10 UNL     1     -11.864  27.495  10.576  1.00  0.00     0.180 C 
ENDROOT
BRANCH   3   7
HETATM    7  C4  UNL     1     -12.881  25.761   6.993  1.00  0.00     0.014 A 
HETATM    8  C5  UNL     1     -13.221  26.589   5.956  1.00  0.00     0.018 A 
HETATM    9  C6  UNL     1     -13.621  26.024   4.818  1.00  0.00     0.008 A 
HETATM   10  C7  UNL     1     -13.661  24.655   4.769  1.00  0.00     0.050 A 
HETATM   11  S1  UNL     1     -13.135  24.209   6.330  1.00  0.00    -0.104 SA
ENDBRANCH   3   7
BRANCH   4  12
HETATM   12  O3  UNL     1     -10.136  26.539   7.884  1.00  0.00    -0.390 OA
ATOM     13  H3  UNL     1      -9.488  26.798   8.528  1.00  0.00     0.210 HD
ENDBRANCH   4  12
BRANCH   1  14
HETATM   14  C1  UNL     1     -14.125  26.937  11.374  1.00  0.00     0.198 C 
BRANCH  14  15
HETATM   15  O1  UNL     1     -14.263  25.544  11.322  1.00  0.00    -0.398 OA
ATOM     16  H1  UNL     1     -13.562  25.174  11.844  1.00  0.00     0.209 HD
ENDBRANCH  14  15
ENDBRANCH   1  14
BRANCH   5  17
HETATM   17  O4  UNL     1     -11.667  29.319   9.130  1.00  0.00    -0.390 OA
ATOM     18  H4  UNL     1     -12.410  29.442   9.710  1.00  0.00     0.210 HD
ENDBRANCH   5  17
BRANCH   6  19
HETATM   19  O5  UNL     1     -11.322  26.318  11.032  1.00  0.00    -0.390 OA
ATOM     20  H5  UNL     1     -10.517  26.444  11.520  1.00  0.00     0.210 HD
ENDBRANCH   6  19
TORSDOF 6
ENDMDL
MODEL 4
REMARK VINA RESULT: -4.431738731      5.004      6.904
REMARK  6 active torsions:
REMARK  status: ('A' for Active; 'I' for Inactive)
REMARK    1  A    between atoms: O1_1  and  C1_3 
REMARK    2  A    between atoms: C1_3  and  C2_4 
REMARK    3  A    between atoms: C3_6  and  C4_7 
REMARK    4  A    between atoms: C8_12  and  O3_13 
REMARK    5  A    between atoms: C9_15  and  O4_16 
REMARK    6  A    between atoms: C10_18  and  O5_19 
ROOT
HETATM    1  C2  UNL     1     -11.012  29.132   9.722  1.00  0.00     0.177 C 
HETATM    2  O2  UNL     1     -11.338  28.253   8.742  1.00  0.00    -0.368 OA
HETATM    3  C3  UNL     1     -12.600  27.748   8.742  1.00  0.00     0.193 C 
HETATM    4  C8  UNL     1     -13.189  27.458  10.078  1.00  0.00     0.183 C 
HETATM    5  C9  UNL     1     -12.860  28.451  11.141  1.00  0.00     0.181 C 
HETATM    6  C10 UNL     1     -12.187  29.659  10.506  1.00  0.00     0.180 C 
ENDROOT
BRANCH   3   7
HETATM    7  C4  UNL     1     -12.564  26.447   7.972  1.00  0.00     0.014 A 
HETATM    8  C5  UNL     1     -12.810  26.261   6.638  1.00  0.00     0.018 A 
HETATM    9  C6  UNL     1     -12.725  25.022   6.158  1.00  0.00     0.008 A 
HETATM   10  C7  UNL     1     -12.397  24.023   7.038  1.00  0.00     0.050 A 
HETATM   11  S1  UNL     1     -12.219  24.864   8.512  1.00  0.00    -0.104 SA
ENDBRANCH   3   7
BRANCH   4  12
HETATM   12  O3  UNL     1     -14.596  27.417   9.938  1.00  0.00    -0.390 OA
ATOM     13  H3  UNL     1     -14.980  27.462  10.806  1.00  0.00     0.210 HD
ENDBRANCH   4  12
BRANCH   1  14
HETATM   14  C1  UNL     1     -10.213  30.330   9.200  1.00  0.00     0.198 C 
BRANCH  14  15
HETATM   15  O1  UNL     1     -10.427  31.390  10.090  1.00  0.00    -0.398 OA
ATOM     16  H1  UNL     1     -10.692  31.009  10.920  1.00  0.00     0.209 HD
ENDBRANCH  14  15
ENDBRANCH   1  14
BRANCH   5  17
HETATM   17  O4  UNL     1     -11.920  27.883  12.000  1.00  0.00    -0.390 OA
ATOM     18  H4  UNL     1     -12.054  28.239  12.870  1.00  0.00     0.210 HD
ENDBRANCH   5  17
BRANCH   6  19
HETATM   19  O5  UNL     1     -13.051  30.407   9.743  1.00  0.00    -0.390 OA
ATOM     20  H5  UNL     1     -12.820  31.328   9.713  1.00  0.00     0.210 HD
ENDBRANCH   6  19
TORSDOF 6
ENDMDL
MODEL 5
REMARK VINA RESULT: -4.392285946      7.586      8.491
REMARK  6 active torsions:
REMARK  status: ('A' for Active; 'I' for Inactive)
REMARK    1  A    between atoms: O1_1  and  C1_3 
REMARK    2  A    between atoms: C1_3  and  C2_4 
REMARK    3  A    between atoms: C3_6  and  C4_7 
REMARK    4  A    between atoms: C8_12  and  O3_13 
REMARK    5  A    between atoms: C9_15  and  O4_16 
REMARK    6  A    between atoms: C10_18  and  O5_19 
ROOT
HETATM    1  C2  UNL     1     -12.369  24.776   9.946  1.00  0.00     0.177 C 
HETATM    2  O2  UNL     1     -13.053  24.958   8.790  1.00  0.00    -0.368 OA
HETATM    3  C3  UNL     1     -12.518  24.438   7.653  1.00  0.00     0.193 C 
HETATM    4  C8  UNL     1     -11.037  24.508   7.534  1.00  0.00     0.183 C 
HETATM    5  C9  UNL     1     -10.290  24.266   8.802  1.00  0.00     0.181 C 
HETATM    6  C10 UNL     1     -11.257  23.761   9.863  1.00  0.00     0.180 C 
ENDROOT
BRANCH   3   7
HETATM    7  C4  UNL     1     -13.102  25.206   6.488  1.00  0.00     0.014 A 
HETATM    8  C5  UNL     1     -13.016  26.553   6.251  1.00  0.00     0.018 A 
HETATM    9  C6  UNL     1     -13.608  27.028   5.157  1.00  0.00     0.008 A 
HETATM   10  C7  UNL     1     -14.260  26.133   4.349  1.00  0.00     0.050 A 
HETATM   11  S1  UNL     1     -14.017  24.651   5.158  1.00  0.00    -0.104 SA
ENDBRANCH   3   7
BRANCH   4  12
HETATM   12  O3  UNL     1     -10.625  23.537   6.592  1.00  0.00    -0.390 OA
ATOM     13  H3  UNL     1     -10.468  22.724   7.057  1.00  0.00     0.210 HD
ENDBRANCH   4  12
BRANCH   1  14
HETATM   14  C1  UNL     1     -13.280  24.388  11.116  1.00  0.00     0.198 C 
BRANCH  14  15
HETATM   15  O1  UNL     1     -14.096  23.339  10.673  1.00  0.00    -0.398 OA
ATOM     16  H1  UNL     1     -13.641  22.528  10.870  1.00  0.00     0.209 HD
ENDBRANCH  14  15
ENDBRANCH   1  14
BRANCH   5  17
HETATM   17  O4  UNL     1      -9.800  25.486   9.266  1.00  0.00    -0.390 OA
ATOM     18  H4  UNL     1      -9.299  25.893   8.569  1.00  0.00     0.210 HD
ENDBRANCH   5  17
BRANCH   6  19
HETATM   19  O5  UNL     1     -11.707  22.488   9.607  1.00  0.00    -0.390 OA
ATOM     20  H5  UNL     1     -12.386  22.206  10.208  1.00  0.00     0.210 HD
ENDBRANCH   6  19
TORSDOF 6
ENDMDL
