MODEL 1
REMARK VINA RESULT: -5.257761037      0.000      0.000
REMARK  6 active torsions:
REMARK  status: ('A' for Active; 'I' for Inactive)
REMARK    1  A    between atoms: O1_1  and  C1_3 
REMARK    2  A    between atoms: C1_3  and  C2_4 
REMARK    3  A    between atoms: C3_6  and  C4_7 
REMARK    4  A    between atoms: C7_13  and  O3_14 
REMARK    5  A    between atoms: C8_16  and  O4_17 
REMARK    6  A    between atoms: C9_19  and  O5_20 
ROOT
HETATM    1  C2  UNL     1     -14.734  26.229   4.708  1.00  0.00     0.177 C 
HETATM    2  O2  UNL     1     -13.466  26.402   5.227  1.00  0.00    -0.366 OA
HETATM    3  C3  UNL     1     -13.375  25.576   6.357  1.00  0.00     0.210 C 
HETATM    4  C7  UNL     1     -13.173  24.190   5.854  1.00  0.00     0.184 C 
HETATM    5  C8  UNL     1     -14.419  23.766   5.144  1.00  0.00     0.181 C 
HETATM    6  C9  UNL     1     -15.094  24.835   4.366  1.00  0.00     0.180 C 
ENDROOT
BRANCH   3   7
HETATM    7  C4  UNL     1     -12.288  26.033   7.275  1.00  0.00     0.082 A 
HETATM    8  N1  UNL     1     -11.054  25.617   7.427  1.00  0.00    -0.361 N 
HETATM    9  C5  UNL     1     -10.271  26.171   8.301  1.00  0.00     0.096 A 
ATOM     10  H1  UNL     1     -10.706  24.850   6.853  1.00  0.00     0.165 HD
HETATM   11  C6  UNL     1     -10.791  27.201   9.049  1.00  0.00     0.068 A 
HETATM   12  S1  UNL     1     -12.385  27.300   8.435  1.00  0.00    -0.085 SA
ENDBRANCH   3   7
BRANCH   4  13
HETATM   13  O3  UNL     1     -12.891  23.278   6.885  1.00  0.00    -0.390 OA
ATOM     14  H3  UNL     1     -12.520  22.465   6.561  1.00  0.00     0.210 HD
ENDBRANCH   4  13
BRANCH   1  15
HETATM   15  C1  UNL     1     -14.855  27.151   3.498  1.00  0.00     0.198 C 
BRANCH  15  16
HETATM   16  O1  UNL     1     -13.862  28.098   3.451  1.00  0.00    -0.398 OA
ATOM     17  H1  UNL     1     -14.193  28.968   3.263  1.00  0.00     0.209 HD
ENDBRANCH  15  16
ENDBRANCH   1  15
BRANCH   5  18
HETATM   18  O4  UNL     1     -15.276  23.202   6.113  1.00  0.00    -0.390 OA
ATOM     19  H4  UNL     1     -14.856  22.411   6.430  1.00  0.00     0.210 HD
ENDBRANCH   5  18
BRANCH   6  20
HETATM   20  O5  UNL     1     -14.919  24.556   2.991  1.00  0.00    -0.390 OA
ATOM     21  H5  UNL     1     -14.462  23.736   2.844  1.00  0.00     0.210 HD
ENDBRANCH   6  20
TORSDOF 6
ENDMDL
MODEL 2
REMARK VINA RESULT: -4.594935383      6.886      8.970
REMARK  6 active torsions:
REMARK  status: ('A' for Active; 'I' for Inactive)
REMARK    1  A    between atoms: O1_1  and  C1_3 
REMARK    2  A    between atoms: C1_3  and  C2_4 
REMARK    3  A    between atoms: C3_6  and  C4_7 
REMARK    4  A    between atoms: C7_13  and  O3_14 
REMARK    5  A    between atoms: C8_16  and  O4_17 
REMARK    6  A    between atoms: C9_19  and  O5_20 
ROOT
HETATM    1  C2  UNL     1      -8.107  18.255   9.095  1.00  0.00     0.177 C 
HETATM    2  O2  UNL     1      -8.454  19.589   9.165  1.00  0.00    -0.366 OA
HETATM    3  C3  UNL     1      -9.812  19.673   8.823  1.00  0.00     0.210 C 
HETATM    4  C7  UNL     1     -10.578  19.227  10.018  1.00  0.00     0.184 C 
HETATM    5  C8  UNL     1     -10.305  17.773  10.231  1.00  0.00     0.181 C 
HETATM    6  C9  UNL     1      -8.914  17.344   9.937  1.00  0.00     0.180 C 
ENDROOT
BRANCH   3   7
HETATM    7  C4  UNL     1     -10.172  21.052   8.373  1.00  0.00     0.082 A 
HETATM    8  N1  UNL     1     -11.295  21.542   7.908  1.00  0.00    -0.361 N 
HETATM    9  C5  UNL     1     -11.383  22.793   7.574  1.00  0.00     0.096 A 
ATOM     10  H1  UNL     1     -12.108  20.934   7.808  1.00  0.00     0.165 HD
HETATM   11  C6  UNL     1     -10.258  23.568   7.729  1.00  0.00     0.068 A 
HETATM   12  S1  UNL     1      -9.143  22.429   8.351  1.00  0.00    -0.085 SA
ENDBRANCH   3   7
BRANCH   4  13
HETATM   13  O3  UNL     1     -11.962  19.425   9.877  1.00  0.00    -0.390 OA
ATOM     14  H3  UNL     1     -12.171  20.247   9.449  1.00  0.00     0.210 HD
ENDBRANCH   4  13
BRANCH   1  15
HETATM   15  C1  UNL     1      -6.621  18.158   9.431  1.00  0.00     0.198 C 
BRANCH  15  16
HETATM   16  O1  UNL     1      -6.069  16.959   9.052  1.00  0.00    -0.398 OA
ATOM     17  H1  UNL     1      -5.162  16.872   9.319  1.00  0.00     0.209 HD
ENDBRANCH  15  16
ENDBRANCH   1  15
BRANCH   5  18
HETATM   18  O4  UNL     1     -11.248  17.057   9.462  1.00  0.00    -0.390 OA
ATOM     19  H4  UNL     1     -11.459  17.595   8.709  1.00  0.00     0.210 HD
ENDBRANCH   5  18
BRANCH   6  20
HETATM   20  O5  UNL     1      -8.279  17.041  11.164  1.00  0.00    -0.390 OA
ATOM     21  H5  UNL     1      -8.867  16.624  11.782  1.00  0.00     0.210 HD
ENDBRANCH   6  20
TORSDOF 6
ENDMDL
MODEL 3
REMARK VINA RESULT: -4.539461280      2.920      5.303
REMARK  6 active torsions:
REMARK  status: ('A' for Active; 'I' for Inactive)
REMARK    1  A    between atoms: O1_1  and  C1_3 
REMARK    2  A    between atoms: C1_3  and  C2_4 
REMARK    3  A    between atoms: C3_6  and  C4_7 
REMARK    4  A    between atoms: C7_13  and  O3_14 
REMARK    5  A    between atoms: C8_16  and  O4_17 
REMARK    6  A    between atoms: C9_19  and  O5_20 
ROOT
HETATM    1  C2  UNL     1     -12.550  27.186   8.841  1.00  0.00     0.177 C 
HETATM    2  O2  UNL     1     -13.343  26.247   8.213  1.00  0.00    -0.366 OA
HETATM    3  C3  UNL     1     -12.554  25.649   7.219  1.00  0.00     0.210 C 
HETATM    4  C7  UNL     1     -11.655  24.687   7.913  1.00  0.00     0.184 C 
HETATM    5  C8  UNL     1     -10.707  25.466   8.766  1.00  0.00     0.181 C 
HETATM    6  C9  UNL     1     -11.289  26.668   9.417  1.00  0.00     0.180 C 
ENDROOT
BRANCH   3   7
HETATM    7  C4  UNL     1     -13.402  25.010   6.167  1.00  0.00     0.082 A 
HETATM    8  N1  UNL     1     -13.885  23.796   6.068  1.00  0.00    -0.361 N 
HETATM    9  C5  UNL     1     -14.611  23.453   5.048  1.00  0.00     0.096 A 
ATOM     10  H1  UNL     1     -13.689  23.114   6.800  1.00  0.00     0.165 HD
HETATM   11  C6  UNL     1     -14.844  24.412   4.090  1.00  0.00     0.068 A 
HETATM   12  S1  UNL     1     -13.995  25.751   4.733  1.00  0.00    -0.085 SA
ENDBRANCH   3   7
BRANCH   4  13
HETATM   13  O3  UNL     1     -10.926  23.887   7.016  1.00  0.00    -0.390 OA
ATOM     14  H3  UNL     1     -10.192  24.350   6.629  1.00  0.00     0.210 HD
ENDBRANCH   4  13
BRANCH   1  15
HETATM   15  C1  UNL     1     -13.411  27.867   9.901  1.00  0.00     0.198 C 
BRANCH  15  16
HETATM   16  O1  UNL     1     -14.440  27.071  10.340  1.00  0.00    -0.398 OA
ATOM     17  H1  UNL     1     -15.021  27.521  10.941  1.00  0.00     0.209 HD
ENDBRANCH  15  16
ENDBRANCH   1  15
BRANCH   5  18
HETATM   18  O4  UNL     1      -9.597  25.794   7.958  1.00  0.00    -0.390 OA
ATOM     19  H4  UNL     1      -9.821  25.557   7.067  1.00  0.00     0.210 HD
ENDBRANCH   5  18
BRANCH   6  20
HETATM   20  O5  UNL     1     -11.397  26.407  10.803  1.00  0.00    -0.390 OA
ATOM     21  H5  UNL     1     -10.654  25.920  11.139  1.00  0.00     0.210 HD
ENDBRANCH   6  20
TORSDOF 6
ENDMDL
MODEL 4
REMARK VINA RESULT: -4.520372131      3.144      4.314
REMARK  6 active torsions:
REMARK  status: ('A' for Active; 'I' for Inactive)
REMARK    1  A    between atoms: O1_1  and  C1_3 
REMARK    2  A    between atoms: C1_3  and  C2_4 
REMARK    3  A    between atoms: C3_6  and  C4_7 
REMARK    4  A    between atoms: C7_13  and  O3_14 
REMARK    5  A    between atoms: C8_16  and  O4_17 
REMARK    6  A    between atoms: C9_19  and  O5_20 
ROOT
HETATM    1  C2  UNL     1     -12.973  24.783   6.300  1.00  0.00     0.177 C 
HETATM    2  O2  UNL     1     -13.308  24.237   7.522  1.00  0.00    -0.366 OA
HETATM    3  C3  UNL     1     -12.319  24.639   8.432  1.00  0.00     0.210 C 
HETATM    4  C7  UNL     1     -12.616  26.054   8.783  1.00  0.00     0.184 C 
HETATM    5  C8  UNL     1     -12.406  26.891   7.562  1.00  0.00     0.181 C 
HETATM    6  C9  UNL     1     -12.817  26.255   6.285  1.00  0.00     0.180 C 
ENDROOT
BRANCH   3   7
HETATM    7  C4  UNL     1     -12.277  23.733   9.620  1.00  0.00     0.082 A 
HETATM    8  N1  UNL     1     -13.081  23.621  10.648  1.00  0.00    -0.361 N 
HETATM    9  C5  UNL     1     -12.847  22.749  11.581  1.00  0.00     0.096 A 
ATOM     10  H1  UNL     1     -13.900  24.226  10.717  1.00  0.00     0.165 HD
HETATM   11  C6  UNL     1     -11.730  21.960  11.439  1.00  0.00     0.068 A 
HETATM   12  S1  UNL     1     -11.091  22.536   9.960  1.00  0.00    -0.085 SA
ENDBRANCH   3   7
BRANCH   4  13
HETATM   13  O3  UNL     1     -11.802  26.534   9.823  1.00  0.00    -0.390 OA
ATOM     14  H3  UNL     1     -12.263  26.585  10.652  1.00  0.00     0.210 HD
ENDBRANCH   4  13
BRANCH   1  15
HETATM   15  C1  UNL     1     -14.025  24.322   5.295  1.00  0.00     0.198 C 
BRANCH  15  16
HETATM   16  O1  UNL     1     -14.940  23.459   5.844  1.00  0.00    -0.398 OA
ATOM     17  H1  UNL     1     -15.695  23.907   6.205  1.00  0.00     0.209 HD
ENDBRANCH  15  16
ENDBRANCH   1  15
BRANCH   5  18
HETATM   18  O4  UNL     1     -11.046  27.267   7.547  1.00  0.00    -0.390 OA
ATOM     19  H4  UNL     1     -11.019  28.211   7.448  1.00  0.00     0.210 HD
ENDBRANCH   5  18
BRANCH   6  20
HETATM   20  O5  UNL     1     -13.978  26.914   5.819  1.00  0.00    -0.390 OA
ATOM     21  H5  UNL     1     -13.910  27.859   5.889  1.00  0.00     0.210 HD
ENDBRANCH   6  20
TORSDOF 6
ENDMDL
MODEL 5
REMARK VINA RESULT: -4.462662146      4.603      5.864
REMARK  6 active torsions:
REMARK  status: ('A' for Active; 'I' for Inactive)
REMARK    1  A    between atoms: O1_1  and  C1_3 
REMARK    2  A    between atoms: C1_3  and  C2_4 
REMARK    3  A    between atoms: C3_6  and  C4_7 
REMARK    4  A    between atoms: C7_13  and  O3_14 
REMARK    5  A    between atoms: C8_16  and  O4_17 
REMARK    6  A    between atoms: C9_19  and  O5_20 
ROOT
HETATM    1  C2  UNL     1     -12.397  26.520   8.859  1.00  0.00     0.177 C 
HETATM    2  O2  UNL     1     -13.096  25.467   9.412  1.00  0.00    -0.366 OA
HETATM    3  C3  UNL     1     -13.183  25.716  10.789  1.00  0.00     0.210 C 
HETATM    4  C7  UNL     1     -14.242  26.745  10.969  1.00  0.00     0.184 C 
HETATM    5  C8  UNL     1     -13.760  28.021  10.357  1.00  0.00     0.181 C 
HETATM    6  C9  UNL     1     -12.967  27.862   9.112  1.00  0.00     0.180 C 
ENDROOT
BRANCH   3   7
HETATM    7  C4  UNL     1     -13.449  24.458  11.551  1.00  0.00     0.082 A 
HETATM    8  N1  UNL     1     -14.462  24.101  12.302  1.00  0.00    -0.361 N 
HETATM    9  C5  UNL     1     -14.483  22.938  12.877  1.00  0.00     0.096 A 
ATOM     10  H1  UNL     1     -15.241  24.745  12.436  1.00  0.00     0.165 HD
HETATM   11  C6  UNL     1     -13.407  22.110  12.664  1.00  0.00     0.068 A 
HETATM   12  S1  UNL     1     -12.432  23.073  11.640  1.00  0.00    -0.085 SA
ENDBRANCH   3   7
BRANCH   4  13
HETATM   13  O3  UNL     1     -14.557  26.966  12.320  1.00  0.00    -0.390 OA
ATOM     14  H3  UNL     1     -15.367  27.449  12.432  1.00  0.00     0.210 HD
ENDBRANCH   4  13
BRANCH   1  15
HETATM   15  C1  UNL     1     -12.267  26.240   7.364  1.00  0.00     0.198 C 
BRANCH  15  16
HETATM   16  O1  UNL     1     -13.337  25.543   6.860  1.00  0.00    -0.398 OA
ATOM     17  H1  UNL     1     -13.352  25.529   5.911  1.00  0.00     0.209 HD
ENDBRANCH  15  16
ENDBRANCH   1  15
BRANCH   5  18
HETATM   18  O4  UNL     1     -13.037  28.711  11.354  1.00  0.00    -0.390 OA
ATOM     19  H4  UNL     1     -12.945  29.610  11.060  1.00  0.00     0.210 HD
ENDBRANCH   5  18
BRANCH   6  20
HETATM   20  O5  UNL     1     -13.751  28.327   8.030  1.00  0.00    -0.390 OA
ATOM     21  H5  UNL     1     -14.664  28.074   8.109  1.00  0.00     0.210 HD
ENDBRANCH   6  20
TORSDOF 6
ENDMDL
