MODEL 1
REMARK VINA RESULT: -6.175800144      0.000      0.000
REMARK  5 active torsions:
REMARK  status: ('A' for Active; 'I' for Inactive)
REMARK    1  A    between atoms: O1_1  and  N1_3 
REMARK    2  A    between atoms: C3_8  and  O3_9 
REMARK    3  A    between atoms: O3_9  and  C4_10 
REMARK    4  A    between atoms: C10_16  and  O4_17 
REMARK    5  A    between atoms: C11_19  and  O5_20 
ROOT
HETATM    1  N1  UNL     1     -15.332  25.134   3.593  1.00  0.00    -0.273 N 
ATOM      2  H1  UNL     1     -15.389  25.963   3.001  1.00  0.00     0.193 HD
HETATM    3  C1  UNL     1     -14.489  25.099   4.592  1.00  0.00     0.064 C 
HETATM    4  C2  UNL     1     -14.405  23.910   5.443  1.00  0.00     0.228 C 
HETATM    5  O2  UNL     1     -14.048  24.298   6.722  1.00  0.00    -0.352 OA
HETATM    6  C3  UNL     1     -12.843  24.986   6.763  1.00  0.00     0.298 C 
HETATM    7  C10 UNL     1     -12.909  26.321   6.073  1.00  0.00     0.208 C 
HETATM    8  C11 UNL     1     -13.658  26.306   4.786  1.00  0.00     0.201 C 
ENDROOT
BRANCH   6   9
HETATM    9  O3  UNL     1     -11.772  24.244   6.260  1.00  0.00    -0.318 OA
BRANCH   9  10
HETATM   10  C4  UNL     1     -10.820  23.576   6.954  1.00  0.00     0.072 A 
HETATM   11  C5  UNL     1     -11.170  22.330   7.501  1.00  0.00     0.037 A 
HETATM   12  C6  UNL     1     -10.253  21.595   8.217  1.00  0.00     0.003 A 
HETATM   13  C7  UNL     1      -8.966  22.046   8.426  1.00  0.00     0.000 A 
HETATM   14  C8  UNL     1      -8.598  23.258   7.904  1.00  0.00     0.003 A 
HETATM   15  C9  UNL     1      -9.545  23.982   7.183  1.00  0.00     0.037 A 
ENDBRANCH   9  10
ENDBRANCH   6   9
BRANCH   7  16
HETATM   16  O4  UNL     1     -13.488  27.261   6.932  1.00  0.00    -0.388 OA
ATOM     17  H4  UNL     1     -14.269  27.618   6.528  1.00  0.00     0.210 HD
ENDBRANCH   7  16
BRANCH   8  18
HETATM   18  O5  UNL     1     -14.501  27.413   4.696  1.00  0.00    -0.387 OA
ATOM     19  H5  UNL     1     -14.219  27.925   3.947  1.00  0.00     0.210 HD
ENDBRANCH   8  18
BRANCH   1  20
HETATM   20  O1  UNL     1     -16.144  24.047   3.343  1.00  0.00    -0.290 OA
ATOM     21  H1  UNL     1     -17.043  24.050   3.649  1.00  0.00     0.244 HD
ENDBRANCH   1  20
TORSDOF 5
ENDMDL
MODEL 2
REMARK VINA RESULT: -6.145854470      0.085      1.143
REMARK  5 active torsions:
REMARK  status: ('A' for Active; 'I' for Inactive)
REMARK    1  A    between atoms: O1_1  and  N1_3 
REMARK    2  A    between atoms: C3_8  and  O3_9 
REMARK    3  A    between atoms: O3_9  and  C4_10 
REMARK    4  A    between atoms: C10_16  and  O4_17 
REMARK    5  A    between atoms: C11_19  and  O5_20 
ROOT
HETATM    1  N1  UNL     1     -15.277  25.144   3.607  1.00  0.00    -0.273 N 
ATOM      2  H1  UNL     1     -15.319  25.972   3.013  1.00  0.00     0.193 HD
HETATM    3  C1  UNL     1     -14.451  25.103   4.619  1.00  0.00     0.064 C 
HETATM    4  C2  UNL     1     -14.389  23.915   5.473  1.00  0.00     0.228 C 
HETATM    5  O2  UNL     1     -14.051  24.301   6.757  1.00  0.00    -0.352 OA
HETATM    6  C3  UNL     1     -12.842  24.982   6.818  1.00  0.00     0.298 C 
HETATM    7  C10 UNL     1     -12.887  26.316   6.126  1.00  0.00     0.208 C 
HETATM    8  C11 UNL     1     -13.615  26.305   4.827  1.00  0.00     0.201 C 
ENDROOT
BRANCH   6   9
HETATM    9  O3  UNL     1     -11.767  24.232   6.333  1.00  0.00    -0.318 OA
BRANCH   9  10
HETATM   10  C4  UNL     1     -10.874  23.499   7.039  1.00  0.00     0.072 A 
HETATM   11  C5  UNL     1      -9.586  24.033   7.209  1.00  0.00     0.037 A 
HETATM   12  C6  UNL     1      -8.627  23.344   7.916  1.00  0.00     0.003 A 
HETATM   13  C7  UNL     1      -8.888  22.114   8.482  1.00  0.00     0.000 A 
HETATM   14  C8  UNL     1     -10.136  21.569   8.332  1.00  0.00     0.003 A 
HETATM   15  C9  UNL     1     -11.089  22.287   7.612  1.00  0.00     0.037 A 
ENDBRANCH   9  10
ENDBRANCH   6   9
BRANCH   7  16
HETATM   16  O4  UNL     1     -13.474  27.261   6.974  1.00  0.00    -0.388 OA
ATOM     17  H4  UNL     1     -13.335  28.131   6.621  1.00  0.00     0.210 HD
ENDBRANCH   7  16
BRANCH   8  18
HETATM   18  O5  UNL     1     -14.449  27.417   4.722  1.00  0.00    -0.387 OA
ATOM     19  H5  UNL     1     -14.032  28.031   4.129  1.00  0.00     0.210 HD
ENDBRANCH   8  18
BRANCH   1  20
HETATM   20  O1  UNL     1     -16.092  24.062   3.345  1.00  0.00    -0.290 OA
ATOM     21  H1  UNL     1     -15.786  23.368   2.772  1.00  0.00     0.244 HD
ENDBRANCH   1  20
TORSDOF 5
ENDMDL
MODEL 3
REMARK VINA RESULT: -5.466418931      1.215      1.602
REMARK  5 active torsions:
REMARK  status: ('A' for Active; 'I' for Inactive)
REMARK    1  A    between atoms: O1_1  and  N1_3 
REMARK    2  A    between atoms: C3_8  and  O3_9 
REMARK    3  A    between atoms: O3_9  and  C4_10 
REMARK    4  A    between atoms: C10_16  and  O4_17 
REMARK    5  A    between atoms: C11_19  and  O5_20 
ROOT
HETATM    1  N1  UNL     1     -14.009  27.074   4.649  1.00  0.00    -0.273 N 
ATOM      2  H1  UNL     1     -13.888  28.073   4.811  1.00  0.00     0.193 HD
HETATM    3  C1  UNL     1     -13.519  26.208   5.498  1.00  0.00     0.064 C 
HETATM    4  C2  UNL     1     -13.692  24.772   5.268  1.00  0.00     0.228 C 
HETATM    5  O2  UNL     1     -13.757  24.126   6.490  1.00  0.00    -0.352 OA
HETATM    6  C3  UNL     1     -12.633  24.340   7.276  1.00  0.00     0.298 C 
HETATM    7  C10 UNL     1     -12.494  25.769   7.721  1.00  0.00     0.208 C 
HETATM    8  C11 UNL     1     -12.804  26.771   6.663  1.00  0.00     0.201 C 
ENDROOT
BRANCH   6   9
HETATM    9  O3  UNL     1     -11.450  23.917   6.665  1.00  0.00    -0.318 OA
BRANCH   9  10
HETATM   10  C4  UNL     1     -10.373  23.334   7.244  1.00  0.00     0.072 A 
HETATM   11  C5  UNL     1     -10.545  22.054   7.794  1.00  0.00     0.037 A 
HETATM   12  C6  UNL     1      -9.493  21.401   8.398  1.00  0.00     0.003 A 
HETATM   13  C7  UNL     1      -8.241  21.972   8.487  1.00  0.00     0.000 A 
HETATM   14  C8  UNL     1      -8.045  23.221   7.958  1.00  0.00     0.003 A 
HETATM   15  C9  UNL     1      -9.125  23.859   7.352  1.00  0.00     0.037 A 
ENDBRANCH   9  10
ENDBRANCH   6   9
BRANCH   7  16
HETATM   16  O4  UNL     1     -13.322  25.995   8.825  1.00  0.00    -0.388 OA
ATOM     17  H4  UNL     1     -13.211  26.889   9.126  1.00  0.00     0.210 HD
ENDBRANCH   7  16
BRANCH   8  18
HETATM   18  O5  UNL     1     -13.589  27.802   7.178  1.00  0.00    -0.387 OA
ATOM     19  H5  UNL     1     -14.498  27.541   7.084  1.00  0.00     0.210 HD
ENDBRANCH   8  18
BRANCH   1  20
HETATM   20  O1  UNL     1     -14.690  26.630   3.535  1.00  0.00    -0.290 OA
ATOM     21  H1  UNL     1     -15.188  25.822   3.576  1.00  0.00     0.244 HD
ENDBRANCH   1  20
TORSDOF 5
ENDMDL
MODEL 4
REMARK VINA RESULT: -5.431861375      1.243      1.993
REMARK  5 active torsions:
REMARK  status: ('A' for Active; 'I' for Inactive)
REMARK    1  A    between atoms: O1_1  and  N1_3 
REMARK    2  A    between atoms: C3_8  and  O3_9 
REMARK    3  A    between atoms: O3_9  and  C4_10 
REMARK    4  A    between atoms: C10_16  and  O4_17 
REMARK    5  A    between atoms: C11_19  and  O5_20 
ROOT
HETATM    1  N1  UNL     1     -13.910  27.041   4.671  1.00  0.00    -0.273 N 
ATOM      2  H1  UNL     1     -13.768  28.039   4.822  1.00  0.00     0.193 HD
HETATM    3  C1  UNL     1     -13.464  26.175   5.543  1.00  0.00     0.064 C 
HETATM    4  C2  UNL     1     -13.666  24.741   5.327  1.00  0.00     0.228 C 
HETATM    5  O2  UNL     1     -13.778  24.113   6.555  1.00  0.00    -0.352 OA
HETATM    6  C3  UNL     1     -12.670  24.309   7.367  1.00  0.00     0.298 C 
HETATM    7  C10 UNL     1     -12.507  25.741   7.797  1.00  0.00     0.208 C 
HETATM    8  C11 UNL     1     -12.765  26.735   6.719  1.00  0.00     0.201 C 
ENDROOT
BRANCH   6   9
HETATM    9  O3  UNL     1     -11.482  23.849   6.792  1.00  0.00    -0.318 OA
BRANCH   9  10
HETATM   10  C4  UNL     1     -10.535  23.060   7.352  1.00  0.00     0.072 A 
HETATM   11  C5  UNL     1      -9.261  23.616   7.552  1.00  0.00     0.037 A 
HETATM   12  C6  UNL     1      -8.250  22.872   8.117  1.00  0.00     0.003 A 
HETATM   13  C7  UNL     1      -8.444  21.563   8.505  1.00  0.00     0.000 A 
HETATM   14  C8  UNL     1      -9.677  20.994   8.322  1.00  0.00     0.003 A 
HETATM   15  C9  UNL     1     -10.683  21.769   7.749  1.00  0.00     0.037 A 
ENDBRANCH   9  10
ENDBRANCH   6   9
BRANCH   7  16
HETATM   16  O4  UNL     1     -13.357  26.002   8.876  1.00  0.00    -0.388 OA
ATOM     17  H4  UNL     1     -13.013  26.729   9.381  1.00  0.00     0.210 HD
ENDBRANCH   7  16
BRANCH   8  18
HETATM   18  O5  UNL     1     -13.537  27.792   7.200  1.00  0.00    -0.387 OA
ATOM     19  H5  UNL     1     -13.265  28.577   6.737  1.00  0.00     0.210 HD
ENDBRANCH   8  18
BRANCH   1  20
HETATM   20  O1  UNL     1     -14.573  26.599   3.545  1.00  0.00    -0.290 OA
ATOM     21  H1  UNL     1     -15.288  27.112   3.186  1.00  0.00     0.244 HD
ENDBRANCH   1  20
TORSDOF 5
ENDMDL
MODEL 5
REMARK VINA RESULT: -5.382949732      1.919      3.357
REMARK  5 active torsions:
REMARK  status: ('A' for Active; 'I' for Inactive)
REMARK    1  A    between atoms: O1_1  and  N1_3 
REMARK    2  A    between atoms: C3_8  and  O3_9 
REMARK    3  A    between atoms: O3_9  and  C4_10 
REMARK    4  A    between atoms: C10_16  and  O4_17 
REMARK    5  A    between atoms: C11_19  and  O5_20 
ROOT
HETATM    1  N1  UNL     1     -15.720  26.746   3.278  1.00  0.00    -0.273 N 
ATOM      2  H1  UNL     1     -16.676  26.513   3.008  1.00  0.00     0.193 HD
HETATM    3  C1  UNL     1     -15.034  25.928   4.032  1.00  0.00     0.064 C 
HETATM    4  C2  UNL     1     -13.662  26.261   4.423  1.00  0.00     0.228 C 
HETATM    5  O2  UNL     1     -12.940  25.091   4.569  1.00  0.00    -0.352 OA
HETATM    6  C3  UNL     1     -13.493  24.226   5.504  1.00  0.00     0.298 C 
HETATM    7  C10 UNL     1     -14.828  23.681   5.077  1.00  0.00     0.208 C 
HETATM    8  C11 UNL     1     -15.724  24.688   4.445  1.00  0.00     0.201 C 
ENDROOT
BRANCH   6   9
HETATM    9  O3  UNL     1     -13.597  24.791   6.778  1.00  0.00    -0.318 OA
BRANCH   9  10
HETATM   10  C4  UNL     1     -12.613  25.334   7.532  1.00  0.00     0.072 A 
HETATM   11  C5  UNL     1     -11.461  24.562   7.753  1.00  0.00     0.037 A 
HETATM   12  C6  UNL     1     -10.420  25.051   8.509  1.00  0.00     0.003 A 
HETATM   13  C7  UNL     1     -10.465  26.307   9.076  1.00  0.00     0.000 A 
HETATM   14  C8  UNL     1     -11.576  27.083   8.878  1.00  0.00     0.003 A 
HETATM   15  C9  UNL     1     -12.615  26.565   8.108  1.00  0.00     0.037 A 
ENDBRANCH   9  10
ENDBRANCH   6   9
BRANCH   7  16
HETATM   16  O4  UNL     1     -14.635  22.616   4.191  1.00  0.00    -0.388 OA
ATOM     17  H4  UNL     1     -14.580  22.949   3.304  1.00  0.00     0.210 HD
ENDBRANCH   7  16
BRANCH   8  18
HETATM   18  O5  UNL     1     -16.339  24.155   3.312  1.00  0.00    -0.387 OA
ATOM     19  H5  UNL     1     -16.532  23.243   3.496  1.00  0.00     0.210 HD
ENDBRANCH   8  18
BRANCH   1  20
HETATM   20  O1  UNL     1     -15.148  27.927   2.851  1.00  0.00    -0.290 OA
ATOM     21  H1  UNL     1     -14.246  27.933   2.552  1.00  0.00     0.244 HD
ENDBRANCH   1  20
TORSDOF 5
ENDMDL
