MODEL 1
REMARK VINA RESULT: -8.674202921      0.000      0.000
REMARK  6 active torsions:
REMARK  status: ('A' for Active; 'I' for Inactive)
REMARK    1  A    between atoms: O1_2  and  C2_3 
REMARK    2  A    between atoms: C2_3  and  C3_5 
REMARK    3  A    between atoms: C10_13  and  C11_14 
REMARK    4  A    between atoms: C11_14  and  O3_15 
REMARK    5  A    between atoms: O3_15  and  C12_16 
REMARK    6  A    between atoms: C12_16  and  C13_18 
ROOT
HETATM    1  C3  UNL     1     -26.698  25.078  -5.166  1.00  0.00     0.146 C 
HETATM    2  C4  UNL     1     -25.434  25.327  -4.526  1.00  0.00     0.080 C 
HETATM    3  N1  UNL     1     -24.414  25.543  -4.025  1.00  0.00    -0.196 NA
HETATM    4  C5  UNL     1     -27.540  24.216  -4.277  1.00  0.00     0.019 C 
HETATM    5  C6  UNL     1     -26.644  23.188  -3.631  1.00  0.00     0.007 C 
HETATM    6  C7  UNL     1     -26.128  22.441  -4.871  1.00  0.00     0.005 C 
HETATM    7  C8  UNL     1     -26.923  22.928  -6.038  1.00  0.00    -0.006 C 
HETATM    8  C9  UNL     1     -28.234  23.305  -5.309  1.00  0.00     0.012 C 
HETATM    9  C10 UNL     1     -26.512  24.291  -6.471  1.00  0.00     0.047 C 
ENDROOT
BRANCH   1  10
HETATM   10  C2  UNL     1     -27.461  26.348  -5.412  1.00  0.00     0.282 C 
HETATM   11  O2  UNL     1     -28.242  26.427  -6.411  1.00  0.00    -0.263 OA
BRANCH  10  12
HETATM   12  O1  UNL     1     -27.314  27.421  -4.563  1.00  0.00    -0.325 OA
HETATM   13  C1  UNL     1     -28.436  28.235  -4.291  1.00  0.00     0.213 C 
ENDBRANCH  10  12
ENDBRANCH   1  10
BRANCH   9  14
HETATM   14  C11 UNL     1     -25.161  24.433  -7.042  1.00  0.00     0.186 C 
BRANCH  14  15
HETATM   15  O3  UNL     1     -25.194  24.766  -8.405  1.00  0.00    -0.320 OA
BRANCH  15  16
HETATM   16  C12 UNL     1     -25.624  23.962  -9.416  1.00  0.00     0.269 C 
HETATM   17  O4  UNL     1     -26.703  24.251  -9.996  1.00  0.00    -0.264 OA
BRANCH  16  18
HETATM   18  C13 UNL     1     -24.894  22.756  -9.885  1.00  0.00     0.071 C 
HETATM   19  C14 UNL     1     -25.187  21.614  -8.983  1.00  0.00     0.028 C 
HETATM   20  C15 UNL     1     -25.282  22.527 -11.322  1.00  0.00     0.022 C 
HETATM   21  C16 UNL     1     -25.222  21.099 -11.709  1.00  0.00     0.012 C 
HETATM   22  C17 UNL     1     -23.891  20.473 -11.738  1.00  0.00    -0.011 A 
HETATM   23  C18 UNL     1     -23.893  18.966 -11.441  1.00  0.00     0.017 C 
HETATM   24  C19 UNL     1     -22.905  20.825 -12.841  1.00  0.00     0.048 A 
HETATM   25  C20 UNL     1     -22.728  21.207 -11.355  1.00  0.00     0.231 A 
HETATM   26  N2  UNL     1     -22.788  22.593 -11.114  1.00  0.00     0.090 N 
HETATM   27  C21 UNL     1     -21.437  23.136 -11.151  1.00  0.00     0.310 C 
HETATM   28  C22 UNL     1     -23.385  22.985  -9.870  1.00  0.00     0.291 C 
ENDBRANCH  16  18
ENDBRANCH  15  16
ENDBRANCH  14  15
ENDBRANCH   9  14
TORSDOF 6
ENDMDL
MODEL 2
REMARK VINA RESULT: -8.296794028      1.736      2.424
REMARK  6 active torsions:
REMARK  status: ('A' for Active; 'I' for Inactive)
REMARK    1  A    between atoms: O1_2  and  C2_3 
REMARK    2  A    between atoms: C2_3  and  C3_5 
REMARK    3  A    between atoms: C10_13  and  C11_14 
REMARK    4  A    between atoms: C11_14  and  O3_15 
REMARK    5  A    between atoms: O3_15  and  C12_16 
REMARK    6  A    between atoms: C12_16  and  C13_18 
ROOT
HETATM    1  C3  UNL     1     -27.458  25.107  -5.579  1.00  0.00     0.146 C 
HETATM    2  C4  UNL     1     -27.420  26.060  -4.502  1.00  0.00     0.080 C 
HETATM    3  N1  UNL     1     -27.385  26.841  -3.650  1.00  0.00    -0.196 NA
HETATM    4  C5  UNL     1     -28.112  23.848  -5.102  1.00  0.00     0.019 C 
HETATM    5  C6  UNL     1     -27.655  23.585  -3.687  1.00  0.00     0.007 C 
HETATM    6  C7  UNL     1     -26.142  23.426  -3.904  1.00  0.00     0.005 C 
HETATM    7  C8  UNL     1     -25.913  23.372  -5.379  1.00  0.00    -0.006 C 
HETATM    8  C9  UNL     1     -27.270  22.777  -5.822  1.00  0.00     0.012 C 
HETATM    9  C10 UNL     1     -26.041  24.710  -6.018  1.00  0.00     0.047 C 
ENDROOT
BRANCH   1  10
HETATM   10  C2  UNL     1     -28.256  25.613  -6.746  1.00  0.00     0.282 C 
HETATM   11  O2  UNL     1     -28.072  25.110  -7.898  1.00  0.00    -0.263 OA
BRANCH  10  12
HETATM   12  O1  UNL     1     -29.181  26.616  -6.571  1.00  0.00    -0.325 OA
HETATM   13  C1  UNL     1     -29.867  27.118  -7.699  1.00  0.00     0.213 C 
ENDBRANCH  10  12
ENDBRANCH   1  10
BRANCH   9  14
HETATM   14  C11 UNL     1     -25.025  25.720  -5.667  1.00  0.00     0.186 C 
BRANCH  14  15
HETATM   15  O3  UNL     1     -23.788  25.460  -6.275  1.00  0.00    -0.320 OA
BRANCH  15  16
HETATM   16  C12 UNL     1     -23.498  25.608  -7.598  1.00  0.00     0.269 C 
HETATM   17  O4  UNL     1     -23.199  26.754  -8.022  1.00  0.00    -0.264 OA
BRANCH  16  18
HETATM   18  C13 UNL     1     -23.508  24.493  -8.579  1.00  0.00     0.071 C 
HETATM   19  C14 UNL     1     -23.150  23.225  -7.896  1.00  0.00     0.028 C 
HETATM   20  C15 UNL     1     -24.864  24.484  -9.234  1.00  0.00     0.022 C 
HETATM   21  C16 UNL     1     -25.275  23.133  -9.678  1.00  0.00     0.012 C 
HETATM   22  C17 UNL     1     -24.500  22.528 -10.772  1.00  0.00    -0.011 A 
HETATM   23  C18 UNL     1     -24.446  20.993 -10.737  1.00  0.00     0.017 C 
HETATM   24  C19 UNL     1     -24.644  23.052 -12.192  1.00  0.00     0.048 A 
HETATM   25  C20 UNL     1     -23.372  23.202 -11.330  1.00  0.00     0.231 A 
HETATM   26  N2  UNL     1     -23.076  24.536 -10.984  1.00  0.00     0.090 N 
HETATM   27  C21 UNL     1     -22.162  25.087 -11.976  1.00  0.00     0.310 C 
HETATM   28  C22 UNL     1     -22.488  24.728  -9.690  1.00  0.00     0.291 C 
ENDBRANCH  16  18
ENDBRANCH  15  16
ENDBRANCH  14  15
ENDBRANCH   9  14
TORSDOF 6
ENDMDL
MODEL 3
REMARK VINA RESULT: -8.198854333      0.858      2.058
REMARK  6 active torsions:
REMARK  status: ('A' for Active; 'I' for Inactive)
REMARK    1  A    between atoms: O1_2  and  C2_3 
REMARK    2  A    between atoms: C2_3  and  C3_5 
REMARK    3  A    between atoms: C10_13  and  C11_14 
REMARK    4  A    between atoms: C11_14  and  O3_15 
REMARK    5  A    between atoms: O3_15  and  C12_16 
REMARK    6  A    between atoms: C12_16  and  C13_18 
ROOT
HETATM    1  C3  UNL     1     -26.796  25.046  -5.200  1.00  0.00     0.146 C 
HETATM    2  C4  UNL     1     -25.449  25.300  -4.763  1.00  0.00     0.080 C 
HETATM    3  N1  UNL     1     -24.365  25.520  -4.425  1.00  0.00    -0.196 NA
HETATM    4  C5  UNL     1     -27.470  24.136  -4.221  1.00  0.00     0.019 C 
HETATM    5  C6  UNL     1     -26.464  23.104  -3.767  1.00  0.00     0.007 C 
HETATM    6  C7  UNL     1     -26.146  22.414  -5.102  1.00  0.00     0.005 C 
HETATM    7  C8  UNL     1     -27.127  22.924  -6.106  1.00  0.00    -0.006 C 
HETATM    8  C9  UNL     1     -28.307  23.247  -5.160  1.00  0.00     0.012 C 
HETATM    9  C10 UNL     1     -26.813  24.310  -6.547  1.00  0.00     0.047 C 
ENDROOT
BRANCH   1  10
HETATM   10  C2  UNL     1     -27.609  26.308  -5.271  1.00  0.00     0.282 C 
HETATM   11  O2  UNL     1     -28.426  26.474  -6.228  1.00  0.00    -0.263 OA
BRANCH  10  12
HETATM   12  O1  UNL     1     -27.467  27.278  -4.306  1.00  0.00    -0.325 OA
HETATM   13  C1  UNL     1     -28.315  28.407  -4.344  1.00  0.00     0.213 C 
ENDBRANCH  10  12
ENDBRANCH   1  10
BRANCH   9  14
HETATM   14  C11 UNL     1     -25.574  24.502  -7.323  1.00  0.00     0.186 C 
BRANCH  14  15
HETATM   15  O3  UNL     1     -25.398  23.504  -8.294  1.00  0.00    -0.320 OA
BRANCH  15  16
HETATM   16  C12 UNL     1     -25.452  23.680  -9.643  1.00  0.00     0.269 C 
HETATM   17  O4  UNL     1     -26.510  24.136 -10.148  1.00  0.00    -0.264 OA
BRANCH  16  18
HETATM   18  C13 UNL     1     -24.330  23.367 -10.566  1.00  0.00     0.071 C 
HETATM   19  C14 UNL     1     -24.180  24.462 -11.556  1.00  0.00     0.028 C 
HETATM   20  C15 UNL     1     -23.108  23.122  -9.721  1.00  0.00     0.022 C 
HETATM   21  C16 UNL     1     -21.850  23.470 -10.421  1.00  0.00     0.012 C 
HETATM   22  C17 UNL     1     -21.484  22.643 -11.580  1.00  0.00    -0.011 A 
HETATM   23  C18 UNL     1     -20.663  23.379 -12.650  1.00  0.00     0.017 C 
HETATM   24  C19 UNL     1     -20.992  21.218 -11.378  1.00  0.00     0.048 A 
HETATM   25  C20 UNL     1     -22.341  21.593 -12.030  1.00  0.00     0.231 A 
HETATM   26  N2  UNL     1     -23.464  21.196 -11.278  1.00  0.00     0.090 N 
HETATM   27  C21 UNL     1     -23.897  19.883 -11.737  1.00  0.00     0.310 C 
HETATM   28  C22 UNL     1     -24.595  22.076 -11.336  1.00  0.00     0.291 C 
ENDBRANCH  16  18
ENDBRANCH  15  16
ENDBRANCH  14  15
ENDBRANCH   9  14
TORSDOF 6
ENDMDL
MODEL 4
REMARK VINA RESULT: -8.137724030      1.324      1.876
REMARK  6 active torsions:
REMARK  status: ('A' for Active; 'I' for Inactive)
REMARK    1  A    between atoms: O1_2  and  C2_3 
REMARK    2  A    between atoms: C2_3  and  C3_5 
REMARK    3  A    between atoms: C10_13  and  C11_14 
REMARK    4  A    between atoms: C11_14  and  O3_15 
REMARK    5  A    between atoms: O3_15  and  C12_16 
REMARK    6  A    between atoms: C12_16  and  C13_18 
ROOT
HETATM    1  C3  UNL     1     -26.766  25.114  -4.622  1.00  0.00     0.146 C 
HETATM    2  C4  UNL     1     -25.683  25.301  -3.691  1.00  0.00     0.080 C 
HETATM    3  N1  UNL     1     -24.809  25.469  -2.954  1.00  0.00    -0.196 NA
HETATM    4  C5  UNL     1     -27.680  24.045  -4.107  1.00  0.00     0.019 C 
HETATM    5  C6  UNL     1     -26.834  22.960  -3.485  1.00  0.00     0.007 C 
HETATM    6  C7  UNL     1     -26.013  22.508  -4.703  1.00  0.00     0.005 C 
HETATM    7  C8  UNL     1     -26.604  23.173  -5.902  1.00  0.00    -0.006 C 
HETATM    8  C9  UNL     1     -28.064  23.322  -5.413  1.00  0.00     0.012 C 
HETATM    9  C10 UNL     1     -26.250  24.616  -5.979  1.00  0.00     0.047 C 
ENDROOT
BRANCH   1  10
HETATM   10  C2  UNL     1     -27.584  26.363  -4.787  1.00  0.00     0.282 C 
HETATM   11  O2  UNL     1     -28.307  26.507  -5.820  1.00  0.00    -0.263 OA
BRANCH  10  12
HETATM   12  O1  UNL     1     -27.550  27.346  -3.825  1.00  0.00    -0.325 OA
HETATM   13  C1  UNL     1     -28.257  28.547  -4.051  1.00  0.00     0.213 C 
ENDBRANCH  10  12
ENDBRANCH   1  10
BRANCH   9  14
HETATM   14  C11 UNL     1     -24.832  24.946  -6.212  1.00  0.00     0.186 C 
BRANCH  14  15
HETATM   15  O3  UNL     1     -24.647  25.684  -7.391  1.00  0.00    -0.320 OA
BRANCH  15  16
HETATM   16  C12 UNL     1     -23.703  25.449  -8.344  1.00  0.00     0.269 C 
HETATM   17  O4  UNL     1     -22.760  26.273  -8.472  1.00  0.00    -0.264 OA
BRANCH  16  18
HETATM   18  C13 UNL     1     -23.714  24.272  -9.250  1.00  0.00     0.071 C 
HETATM   19  C14 UNL     1     -22.841  23.207  -8.694  1.00  0.00     0.028 C 
HETATM   20  C15 UNL     1     -25.150  23.862  -9.437  1.00  0.00     0.022 C 
HETATM   21  C16 UNL     1     -25.302  22.413  -9.702  1.00  0.00     0.012 C 
HETATM   22  C17 UNL     1     -24.762  21.909 -10.974  1.00  0.00    -0.011 A 
HETATM   23  C18 UNL     1     -24.295  20.447 -10.930  1.00  0.00     0.017 C 
HETATM   24  C19 UNL     1     -25.465  22.234 -12.283  1.00  0.00     0.048 A 
HETATM   25  C20 UNL     1     -24.080  22.780 -11.875  1.00  0.00     0.231 A 
HETATM   26  N2  UNL     1     -24.058  24.174 -11.668  1.00  0.00     0.090 N 
HETATM   27  C21 UNL     1     -23.670  24.829 -12.909  1.00  0.00     0.310 C 
HETATM   28  C22 UNL     1     -23.179  24.636 -10.633  1.00  0.00     0.291 C 
ENDBRANCH  16  18
ENDBRANCH  15  16
ENDBRANCH  14  15
ENDBRANCH   9  14
TORSDOF 6
ENDMDL
MODEL 5
REMARK VINA RESULT: -8.100607055      3.706      4.845
REMARK  6 active torsions:
REMARK  status: ('A' for Active; 'I' for Inactive)
REMARK    1  A    between atoms: O1_2  and  C2_3 
REMARK    2  A    between atoms: C2_3  and  C3_5 
REMARK    3  A    between atoms: C10_13  and  C11_14 
REMARK    4  A    between atoms: C11_14  and  O3_15 
REMARK    5  A    between atoms: O3_15  and  C12_16 
REMARK    6  A    between atoms: C12_16  and  C13_18 
ROOT
HETATM    1  C3  UNL     1     -27.013  24.879  -4.042  1.00  0.00     0.146 C 
HETATM    2  C4  UNL     1     -27.348  23.974  -2.975  1.00  0.00     0.080 C 
HETATM    3  N1  UNL     1     -27.607  23.258  -2.105  1.00  0.00    -0.196 NA
HETATM    4  C5  UNL     1     -27.918  24.627  -5.207  1.00  0.00     0.019 C 
HETATM    5  C6  UNL     1     -28.127  23.136  -5.328  1.00  0.00     0.007 C 
HETATM    6  C7  UNL     1     -26.685  22.668  -5.580  1.00  0.00     0.005 C 
HETATM    7  C8  UNL     1     -25.860  23.891  -5.811  1.00  0.00    -0.006 C 
HETATM    8  C9  UNL     1     -26.950  24.823  -6.391  1.00  0.00     0.012 C 
HETATM    9  C10 UNL     1     -25.585  24.632  -4.550  1.00  0.00     0.047 C 
ENDROOT
BRANCH   1  10
HETATM   10  C2  UNL     1     -27.194  26.314  -3.636  1.00  0.00     0.282 C 
HETATM   11  O2  UNL     1     -27.109  26.635  -2.410  1.00  0.00    -0.263 OA
BRANCH  10  12
HETATM   12  O1  UNL     1     -27.451  27.276  -4.585  1.00  0.00    -0.325 OA
HETATM   13  C1  UNL     1     -28.276  28.370  -4.243  1.00  0.00     0.213 C 
ENDBRANCH  10  12
ENDBRANCH   1  10
BRANCH   9  14
HETATM   14  C11 UNL     1     -24.727  23.964  -3.554  1.00  0.00     0.186 C 
BRANCH  14  15
HETATM   15  O3  UNL     1     -23.450  23.681  -4.061  1.00  0.00    -0.320 OA
BRANCH  15  16
HETATM   16  C12 UNL     1     -22.508  24.596  -4.421  1.00  0.00     0.269 C 
HETATM   17  O4  UNL     1     -21.878  25.198  -3.513  1.00  0.00    -0.264 OA
BRANCH  16  18
HETATM   18  C13 UNL     1     -22.173  24.932  -5.828  1.00  0.00     0.071 C 
HETATM   19  C14 UNL     1     -22.326  23.725  -6.678  1.00  0.00     0.028 C 
HETATM   20  C15 UNL     1     -23.046  26.091  -6.233  1.00  0.00     0.022 C 
HETATM   21  C16 UNL     1     -23.341  26.104  -7.684  1.00  0.00     0.012 C 
HETATM   22  C17 UNL     1     -22.211  26.352  -8.591  1.00  0.00    -0.011 A 
HETATM   23  C18 UNL     1     -22.350  25.695  -9.973  1.00  0.00     0.017 C 
HETATM   24  C19 UNL     1     -21.603  27.743  -8.691  1.00  0.00     0.048 A 
HETATM   25  C20 UNL     1     -20.887  26.517  -8.083  1.00  0.00     0.231 A 
HETATM   26  N2  UNL     1     -20.646  26.630  -6.700  1.00  0.00     0.090 N 
HETATM   27  C21 UNL     1     -19.316  27.189  -6.497  1.00  0.00     0.310 C 
HETATM   28  C22 UNL     1     -20.728  25.409  -5.951  1.00  0.00     0.291 C 
ENDBRANCH  16  18
ENDBRANCH  15  16
ENDBRANCH  14  15
ENDBRANCH   9  14
TORSDOF 6
ENDMDL
