MODEL 1
REMARK VINA RESULT: -7.087127607      0.000      0.000
REMARK  6 active torsions:
REMARK  status: ('A' for Active; 'I' for Inactive)
REMARK    1  A    between atoms: C2_2  and  C3_3 
REMARK    2  A    between atoms: C3_3  and  C4_4 
REMARK    3  A    between atoms: C4_4  and  C5_5 
REMARK       I    between atoms: C5_5  and  N1_7 
REMARK    4  A    between atoms: C6_8  and  C7_9 
REMARK    5  A    between atoms: C7_9  and  O3_11 
REMARK    6  A    between atoms: O3_11  and  C8_12 
ROOT
HETATM    1  C5  UNL     1     -24.189  24.587  -3.887  1.00  0.00     0.221 C 
HETATM    2  O1  UNL     1     -23.519  25.413  -3.249  1.00  0.00    -0.273 OA
HETATM    3  N1  UNL     1     -23.565  23.370  -4.314  1.00  0.00    -0.331 N 
HETATM    4  C6  UNL     1     -24.316  22.398  -5.061  1.00  0.00     0.188 C 
HETATM    5  C12 UNL     1     -23.493  21.128  -4.911  1.00  0.00     0.044 C 
HETATM    6  C13 UNL     1     -22.065  21.699  -4.978  1.00  0.00     0.038 C 
HETATM    7  C14 UNL     1     -21.159  20.714  -4.284  1.00  0.00     0.197 C 
HETATM    8  O4  UNL     1     -19.854  21.190  -4.200  1.00  0.00    -0.275 OA
HETATM    9  S1  UNL     1     -19.711  22.750  -4.758  1.00  0.00     0.275 S 
HETATM   10  O5  UNL     1     -19.538  22.778  -6.237  1.00  0.00    -0.198 OA
HETATM   11  O6  UNL     1     -18.428  23.315  -4.165  1.00  0.00    -0.198 OA
HETATM   12  C15 UNL     1     -21.092  23.785  -4.225  1.00  0.00     0.103 C 
HETATM   13  C16 UNL     1     -20.671  24.278  -2.828  1.00  0.00     0.036 C 
HETATM   14  C17 UNL     1     -21.185  24.922  -5.172  1.00  0.00     0.036 C 
HETATM   15  C18 UNL     1     -22.258  22.894  -4.084  1.00  0.00     0.119 C 
ENDROOT
BRANCH   4  16
HETATM   16  C7  UNL     1     -24.603  22.705  -6.451  1.00  0.00     0.282 C 
HETATM   17  O2  UNL     1     -25.556  22.030  -6.980  1.00  0.00    -0.263 OA
BRANCH  16  18
HETATM   18  O3  UNL     1     -24.008  23.610  -7.290  1.00  0.00    -0.310 OA
BRANCH  18  19
HETATM   19  C8  UNL     1     -24.632  24.689  -7.919  1.00  0.00     0.060 C 
HETATM   20  C9  UNL     1     -23.962  25.960  -7.399  1.00  0.00     0.045 C 
HETATM   21  C10 UNL     1     -26.128  24.740  -7.678  1.00  0.00     0.045 C 
HETATM   22  C11 UNL     1     -24.393  24.655  -9.409  1.00  0.00     0.045 C 
ENDBRANCH  18  19
ENDBRANCH  16  18
ENDBRANCH   4  16
BRANCH   1  23
HETATM   23  C4  UNL     1     -25.596  24.892  -4.177  1.00  0.00     0.103 C 
BRANCH  23  24
HETATM   24  C3  UNL     1     -26.441  24.868  -2.891  1.00  0.00     0.009 C 
BRANCH  24  25
HETATM   25  C2  UNL     1     -27.399  23.698  -3.048  1.00  0.00    -0.004 C 
HETATM   26  C1  UNL     1     -27.796  23.604  -4.507  1.00  0.00     0.005 C 
ENDBRANCH  24  25
ENDBRANCH  23  24
ENDBRANCH   1  23
TORSDOF 6
ENDMDL
MODEL 2
REMARK VINA RESULT: -7.056421574      1.962      4.097
REMARK  6 active torsions:
REMARK  status: ('A' for Active; 'I' for Inactive)
REMARK    1  A    between atoms: C2_2  and  C3_3 
REMARK    2  A    between atoms: C3_3  and  C4_4 
REMARK    3  A    between atoms: C4_4  and  C5_5 
REMARK       I    between atoms: C5_5  and  N1_7 
REMARK    4  A    between atoms: C6_8  and  C7_9 
REMARK    5  A    between atoms: C7_9  and  O3_11 
REMARK    6  A    between atoms: O3_11  and  C8_12 
ROOT
HETATM    1  C5  UNL     1     -22.222  26.300  -6.587  1.00  0.00     0.221 C 
HETATM    2  O1  UNL     1     -20.994  26.470  -6.532  1.00  0.00    -0.273 OA
HETATM    3  N1  UNL     1     -22.870  25.586  -5.527  1.00  0.00    -0.331 N 
HETATM    4  C6  UNL     1     -24.291  25.368  -5.569  1.00  0.00     0.188 C 
HETATM    5  C12 UNL     1     -24.635  25.025  -4.127  1.00  0.00     0.044 C 
HETATM    6  C13 UNL     1     -23.408  24.185  -3.729  1.00  0.00     0.038 C 
HETATM    7  C14 UNL     1     -23.292  24.252  -2.228  1.00  0.00     0.197 C 
HETATM    8  O4  UNL     1     -22.145  23.605  -1.773  1.00  0.00    -0.275 OA
HETATM    9  S1  UNL     1     -21.179  23.078  -3.020  1.00  0.00     0.275 S 
HETATM   10  O5  UNL     1     -21.629  21.751  -3.524  1.00  0.00    -0.198 OA
HETATM   11  O6  UNL     1     -19.787  22.869  -2.441  1.00  0.00    -0.198 OA
HETATM   12  C15 UNL     1     -21.069  24.297  -4.349  1.00  0.00     0.103 C 
HETATM   13  C16 UNL     1     -19.930  25.234  -3.902  1.00  0.00     0.036 C 
HETATM   14  C17 UNL     1     -20.692  23.572  -5.585  1.00  0.00     0.036 C 
HETATM   15  C18 UNL     1     -22.336  25.050  -4.337  1.00  0.00     0.119 C 
ENDROOT
BRANCH   4  16
HETATM   16  C7  UNL     1     -24.784  24.373  -6.503  1.00  0.00     0.282 C 
HETATM   17  O2  UNL     1     -25.651  24.791  -7.350  1.00  0.00    -0.263 OA
BRANCH  16  18
HETATM   18  O3  UNL     1     -24.464  23.045  -6.619  1.00  0.00    -0.310 OA
BRANCH  18  19
HETATM   19  C8  UNL     1     -25.250  21.966  -6.211  1.00  0.00     0.060 C 
HETATM   20  C9  UNL     1     -25.493  21.097  -7.443  1.00  0.00     0.045 C 
HETATM   21  C10 UNL     1     -26.567  22.386  -5.588  1.00  0.00     0.045 C 
HETATM   22  C11 UNL     1     -24.509  21.107  -5.215  1.00  0.00     0.045 C 
ENDBRANCH  18  19
ENDBRANCH  16  18
ENDBRANCH   4  16
BRANCH   1  23
HETATM   23  C4  UNL     1     -22.959  26.840  -7.737  1.00  0.00     0.103 C 
BRANCH  23  24
HETATM   24  C3  UNL     1     -22.274  26.455  -9.059  1.00  0.00     0.009 C 
BRANCH  24  25
HETATM   25  C2  UNL     1     -22.988  25.204  -9.546  1.00  0.00    -0.004 C 
HETATM   26  C1  UNL     1     -22.066  24.020  -9.333  1.00  0.00     0.005 C 
ENDBRANCH  24  25
ENDBRANCH  23  24
ENDBRANCH   1  23
TORSDOF 6
ENDMDL
MODEL 3
REMARK VINA RESULT: -6.955892754      1.061      1.271
REMARK  6 active torsions:
REMARK  status: ('A' for Active; 'I' for Inactive)
REMARK    1  A    between atoms: C2_2  and  C3_3 
REMARK    2  A    between atoms: C3_3  and  C4_4 
REMARK    3  A    between atoms: C4_4  and  C5_5 
REMARK       I    between atoms: C5_5  and  N1_7 
REMARK    4  A    between atoms: C6_8  and  C7_9 
REMARK    5  A    between atoms: C7_9  and  O3_11 
REMARK    6  A    between atoms: O3_11  and  C8_12 
ROOT
HETATM    1  C5  UNL     1     -24.747  24.748  -4.058  1.00  0.00     0.221 C 
HETATM    2  O1  UNL     1     -24.246  25.371  -3.110  1.00  0.00    -0.273 OA
HETATM    3  N1  UNL     1     -24.081  23.578  -4.548  1.00  0.00    -0.331 N 
HETATM    4  C6  UNL     1     -24.636  22.842  -5.651  1.00  0.00     0.188 C 
HETATM    5  C12 UNL     1     -23.941  21.492  -5.557  1.00  0.00     0.044 C 
HETATM    6  C13 UNL     1     -22.527  21.924  -5.127  1.00  0.00     0.038 C 
HETATM    7  C14 UNL     1     -21.891  20.744  -4.439  1.00  0.00     0.197 C 
HETATM    8  O4  UNL     1     -20.641  21.067  -3.919  1.00  0.00    -0.275 OA
HETATM    9  S1  UNL     1     -20.284  22.683  -4.084  1.00  0.00     0.275 S 
HETATM   10  O5  UNL     1     -19.708  22.971  -5.427  1.00  0.00    -0.198 OA
HETATM   11  O6  UNL     1     -19.193  22.999  -3.071  1.00  0.00    -0.198 OA
HETATM   12  C15 UNL     1     -21.714  23.728  -3.730  1.00  0.00     0.103 C 
HETATM   13  C16 UNL     1     -21.676  23.907  -2.200  1.00  0.00     0.036 C 
HETATM   14  C17 UNL     1     -21.494  25.026  -4.411  1.00  0.00     0.036 C 
HETATM   15  C18 UNL     1     -22.909  22.943  -4.087  1.00  0.00     0.119 C 
ENDROOT
BRANCH   4  16
HETATM   16  C7  UNL     1     -24.515  23.431  -6.973  1.00  0.00     0.282 C 
HETATM   17  O2  UNL     1     -24.685  22.624  -7.955  1.00  0.00    -0.263 OA
BRANCH  16  18
HETATM   18  O3  UNL     1     -24.243  24.724  -7.334  1.00  0.00    -0.310 OA
BRANCH  18  19
HETATM   19  C8  UNL     1     -23.164  25.158  -8.106  1.00  0.00     0.060 C 
HETATM   20  C9  UNL     1     -22.860  26.594  -7.684  1.00  0.00     0.045 C 
HETATM   21  C10 UNL     1     -23.427  25.086  -9.598  1.00  0.00     0.045 C 
HETATM   22  C11 UNL     1     -21.927  24.347  -7.804  1.00  0.00     0.045 C 
ENDBRANCH  18  19
ENDBRANCH  16  18
ENDBRANCH   4  16
BRANCH   1  23
HETATM   23  C4  UNL     1     -26.005  25.237  -4.637  1.00  0.00     0.103 C 
BRANCH  23  24
HETATM   24  C3  UNL     1     -27.161  25.110  -3.630  1.00  0.00     0.009 C 
BRANCH  24  25
HETATM   25  C2  UNL     1     -27.709  23.703  -3.804  1.00  0.00    -0.004 C 
HETATM   26  C1  UNL     1     -28.173  23.550  -5.238  1.00  0.00     0.005 C 
ENDBRANCH  24  25
ENDBRANCH  23  24
ENDBRANCH   1  23
TORSDOF 6
ENDMDL
MODEL 4
REMARK VINA RESULT: -6.947630936      0.606      1.060
REMARK  6 active torsions:
REMARK  status: ('A' for Active; 'I' for Inactive)
REMARK    1  A    between atoms: C2_2  and  C3_3 
REMARK    2  A    between atoms: C3_3  and  C4_4 
REMARK    3  A    between atoms: C4_4  and  C5_5 
REMARK       I    between atoms: C5_5  and  N1_7 
REMARK    4  A    between atoms: C6_8  and  C7_9 
REMARK    5  A    between atoms: C7_9  and  O3_11 
REMARK    6  A    between atoms: O3_11  and  C8_12 
ROOT
HETATM    1  C5  UNL     1     -24.313  24.613  -3.754  1.00  0.00     0.221 C 
HETATM    2  O1  UNL     1     -23.644  25.386  -3.051  1.00  0.00    -0.273 OA
HETATM    3  N1  UNL     1     -23.691  23.428  -4.264  1.00  0.00    -0.331 N 
HETATM    4  C6  UNL     1     -24.440  22.518  -5.088  1.00  0.00     0.188 C 
HETATM    5  C12 UNL     1     -23.625  21.236  -5.026  1.00  0.00     0.044 C 
HETATM    6  C13 UNL     1     -22.193  21.803  -5.041  1.00  0.00     0.038 C 
HETATM    7  C14 UNL     1     -21.297  20.765  -4.415  1.00  0.00     0.197 C 
HETATM    8  O4  UNL     1     -19.990  21.227  -4.286  1.00  0.00    -0.275 OA
HETATM    9  S1  UNL     1     -19.836  22.823  -4.725  1.00  0.00     0.275 S 
HETATM   10  O5  UNL     1     -19.651  22.960  -6.197  1.00  0.00    -0.198 OA
HETATM   11  O6  UNL     1     -18.555  23.336  -4.082  1.00  0.00    -0.198 OA
HETATM   12  C15 UNL     1     -21.216  23.823  -4.127  1.00  0.00     0.103 C 
HETATM   13  C16 UNL     1     -20.804  24.208  -2.694  1.00  0.00     0.036 C 
HETATM   14  C17 UNL     1     -21.297  25.027  -4.987  1.00  0.00     0.036 C 
HETATM   15  C18 UNL     1     -22.387  22.930  -4.061  1.00  0.00     0.119 C 
ENDROOT
BRANCH   4  16
HETATM   16  C7  UNL     1     -24.715  22.929  -6.453  1.00  0.00     0.282 C 
HETATM   17  O2  UNL     1     -25.154  22.008  -7.230  1.00  0.00    -0.263 OA
BRANCH  16  18
HETATM   18  O3  UNL     1     -24.576  24.158  -7.044  1.00  0.00    -0.310 OA
BRANCH  18  19
HETATM   19  C8  UNL     1     -23.722  24.475  -8.101  1.00  0.00     0.060 C 
HETATM   20  C9  UNL     1     -24.530  24.329  -9.389  1.00  0.00     0.045 C 
HETATM   21  C10 UNL     1     -22.480  23.606  -8.150  1.00  0.00     0.045 C 
HETATM   22  C11 UNL     1     -23.286  25.919  -8.026  1.00  0.00     0.045 C 
ENDBRANCH  18  19
ENDBRANCH  16  18
ENDBRANCH   4  16
BRANCH   1  23
HETATM   23  C4  UNL     1     -25.716  24.946  -4.030  1.00  0.00     0.103 C 
BRANCH  23  24
HETATM   24  C3  UNL     1     -26.603  24.649  -2.809  1.00  0.00     0.009 C 
BRANCH  24  25
HETATM   25  C2  UNL     1     -27.576  23.571  -3.256  1.00  0.00    -0.004 C 
HETATM   26  C1  UNL     1     -27.898  23.801  -4.719  1.00  0.00     0.005 C 
ENDBRANCH  24  25
ENDBRANCH  23  24
ENDBRANCH   1  23
TORSDOF 6
ENDMDL
MODEL 5
REMARK VINA RESULT: -6.875376554      2.061      3.916
REMARK  6 active torsions:
REMARK  status: ('A' for Active; 'I' for Inactive)
REMARK    1  A    between atoms: C2_2  and  C3_3 
REMARK    2  A    between atoms: C3_3  and  C4_4 
REMARK    3  A    between atoms: C4_4  and  C5_5 
REMARK       I    between atoms: C5_5  and  N1_7 
REMARK    4  A    between atoms: C6_8  and  C7_9 
REMARK    5  A    between atoms: C7_9  and  O3_11 
REMARK    6  A    between atoms: O3_11  and  C8_12 
ROOT
HETATM    1  C5  UNL     1     -23.529  22.453  -5.396  1.00  0.00     0.221 C 
HETATM    2  O1  UNL     1     -22.728  21.573  -5.045  1.00  0.00    -0.273 OA
HETATM    3  N1  UNL     1     -23.026  23.749  -5.745  1.00  0.00    -0.331 N 
HETATM    4  C6  UNL     1     -23.934  24.789  -6.147  1.00  0.00     0.188 C 
HETATM    5  C12 UNL     1     -23.030  25.789  -6.852  1.00  0.00     0.044 C 
HETATM    6  C13 UNL     1     -21.771  25.713  -5.968  1.00  0.00     0.038 C 
HETATM    7  C14 UNL     1     -20.608  26.168  -6.811  1.00  0.00     0.197 C 
HETATM    8  O4  UNL     1     -19.400  26.037  -6.131  1.00  0.00    -0.275 OA
HETATM    9  S1  UNL     1     -19.581  25.291  -4.656  1.00  0.00     0.275 S 
HETATM   10  O5  UNL     1     -19.972  26.270  -3.604  1.00  0.00    -0.198 OA
HETATM   11  O6  UNL     1     -18.211  24.759  -4.260  1.00  0.00    -0.198 OA
HETATM   12  C15 UNL     1     -20.732  23.902  -4.740  1.00  0.00     0.103 C 
HETATM   13  C16 UNL     1     -19.856  22.719  -5.197  1.00  0.00     0.036 C 
HETATM   14  C17 UNL     1     -21.247  23.669  -3.371  1.00  0.00     0.036 C 
HETATM   15  C18 UNL     1     -21.698  24.218  -5.808  1.00  0.00     0.119 C 
ENDROOT
BRANCH   4  16
HETATM   16  C7  UNL     1     -24.737  25.410  -5.110  1.00  0.00     0.282 C 
HETATM   17  O2  UNL     1     -24.316  25.243  -3.911  1.00  0.00    -0.263 OA
BRANCH  16  18
HETATM   18  O3  UNL     1     -25.884  26.151  -5.215  1.00  0.00    -0.310 OA
BRANCH  18  19
HETATM   19  C8  UNL     1     -27.163  25.662  -5.490  1.00  0.00     0.060 C 
HETATM   20  C9  UNL     1     -28.121  26.850  -5.428  1.00  0.00     0.045 C 
HETATM   21  C10 UNL     1     -27.605  24.571  -4.536  1.00  0.00     0.045 C 
HETATM   22  C11 UNL     1     -27.240  25.119  -6.897  1.00  0.00     0.045 C 
ENDBRANCH  18  19
ENDBRANCH  16  18
ENDBRANCH   4  16
BRANCH   1  23
HETATM   23  C4  UNL     1     -24.960  22.127  -5.441  1.00  0.00     0.103 C 
BRANCH  23  24
HETATM   24  C3  UNL     1     -25.229  20.965  -6.413  1.00  0.00     0.009 C 
BRANCH  24  25
HETATM   25  C2  UNL     1     -25.267  21.587  -7.800  1.00  0.00    -0.004 C 
HETATM   26  C1  UNL     1     -25.637  20.505  -8.794  1.00  0.00     0.005 C 
ENDBRANCH  24  25
ENDBRANCH  23  24
ENDBRANCH   1  23
TORSDOF 6
ENDMDL
