MODEL 1
REMARK VINA RESULT: -7.371013782      0.000      0.000
REMARK  5 active torsions:
REMARK  status: ('A' for Active; 'I' for Inactive)
REMARK    1  A    between atoms: O1_2  and  C2_3 
REMARK    2  A    between atoms: C2_3  and  C3_5 
REMARK    3  A    between atoms: C5_8  and  S2_9 
REMARK    4  A    between atoms: S2_9  and  N1_12 
REMARK    5  A    between atoms: N2_15  and  C8_16 
ROOT
HETATM    1  S2  UNL     1     -24.630  25.357  -6.989  1.00  0.00     0.244 S 
HETATM    2  O3  UNL     1     -24.215  26.761  -7.322  1.00  0.00    -0.206 OA
HETATM    3  O4  UNL     1     -26.115  25.313  -7.367  1.00  0.00    -0.206 OA
ENDROOT
BRANCH   1   4
HETATM    4  C5  UNL     1     -24.507  25.049  -5.237  1.00  0.00     0.088 A 
HETATM    5  C4  UNL     1     -25.692  24.732  -4.567  1.00  0.00     0.075 A 
HETATM    6  S1  UNL     1     -25.197  24.496  -2.964  1.00  0.00    -0.094 SA
HETATM    7  C3  UNL     1     -23.528  24.792  -3.138  1.00  0.00     0.087 A 
HETATM    8  C16 UNL     1     -23.402  25.076  -4.478  1.00  0.00    -0.015 A 
HETATM    9  C17 UNL     1     -22.018  25.413  -5.028  1.00  0.00     0.051 C 
BRANCH   7  10
HETATM   10  C2  UNL     1     -22.520  24.697  -2.080  1.00  0.00     0.300 C 
HETATM   11  O2  UNL     1     -22.233  25.782  -1.452  1.00  0.00    -0.259 OA
BRANCH  10  12
HETATM   12  O1  UNL     1     -21.864  23.587  -1.684  1.00  0.00    -0.322 OA
HETATM   13  C1  UNL     1     -21.143  22.800  -2.596  1.00  0.00     0.213 C 
ENDBRANCH  10  12
ENDBRANCH   7  10
ENDBRANCH   1   4
BRANCH   1  14
HETATM   14  N1  UNL     1     -23.822  24.270  -7.990  1.00  0.00    -0.203 NA
HETATM   15  C6  UNL     1     -23.752  22.907  -7.585  1.00  0.00     0.138 C 
HETATM   16  C7  UNL     1     -24.941  22.056  -7.976  1.00  0.00     0.288 C 
HETATM   17  N2  UNL     1     -25.286  22.212  -9.366  1.00  0.00     0.095 N 
HETATM   18  C14 UNL     1     -24.349  23.081 -10.059  1.00  0.00     0.288 C 
HETATM   19  C15 UNL     1     -24.304  24.397  -9.367  1.00  0.00     0.138 C 
BRANCH  17  20
HETATM   20  C8  UNL     1     -25.455  20.954 -10.067  1.00  0.00     0.223 C 
HETATM   21  C9  UNL     1     -25.631  19.768  -9.179  1.00  0.00     0.036 C 
HETATM   22  C10 UNL     1     -25.931  18.568 -10.067  1.00  0.00     0.002 C 
HETATM   23  C11 UNL     1     -24.876  18.329 -11.100  1.00  0.00     0.000 C 
HETATM   24  C12 UNL     1     -24.458  19.560 -11.833  1.00  0.00     0.002 C 
HETATM   25  C13 UNL     1     -24.233  20.751 -10.929  1.00  0.00     0.036 C 
ENDBRANCH  17  20
ENDBRANCH   1  14
TORSDOF 5
ENDMDL
MODEL 2
REMARK VINA RESULT: -7.337036003      4.075      7.466
REMARK  5 active torsions:
REMARK  status: ('A' for Active; 'I' for Inactive)
REMARK    1  A    between atoms: O1_2  and  C2_3 
REMARK    2  A    between atoms: C2_3  and  C3_5 
REMARK    3  A    between atoms: C5_8  and  S2_9 
REMARK    4  A    between atoms: S2_9  and  N1_12 
REMARK    5  A    between atoms: N2_15  and  C8_16 
ROOT
HETATM    1  S2  UNL     1     -23.377  24.062 -10.779  1.00  0.00     0.244 S 
HETATM    2  O3  UNL     1     -24.562  24.732 -11.413  1.00  0.00    -0.206 OA
HETATM    3  O4  UNL     1     -22.173  24.773 -11.407  1.00  0.00    -0.206 OA
ENDROOT
BRANCH   1   4
HETATM    4  C5  UNL     1     -23.290  22.342 -11.240  1.00  0.00     0.088 A 
HETATM    5  C4  UNL     1     -22.058  21.873 -11.705  1.00  0.00     0.075 A 
HETATM    6  S1  UNL     1     -22.344  20.234 -12.024  1.00  0.00    -0.094 SA
HETATM    7  C3  UNL     1     -23.987  20.144 -11.578  1.00  0.00     0.087 A 
HETATM    8  C16 UNL     1     -24.272  21.430 -11.185  1.00  0.00    -0.015 A 
HETATM    9  C17 UNL     1     -25.689  21.754 -10.716  1.00  0.00     0.051 C 
BRANCH   7  10
HETATM   10  C2  UNL     1     -24.818  18.937 -11.589  1.00  0.00     0.300 C 
HETATM   11  O2  UNL     1     -25.537  18.737 -12.635  1.00  0.00    -0.259 OA
BRANCH  10  12
HETATM   12  O1  UNL     1     -24.902  18.004 -10.619  1.00  0.00    -0.322 OA
HETATM   13  C1  UNL     1     -26.027  17.919  -9.783  1.00  0.00     0.213 C 
ENDBRANCH  10  12
ENDBRANCH   7  10
ENDBRANCH   1   4
BRANCH   1  14
HETATM   14  N1  UNL     1     -23.351  24.387  -9.128  1.00  0.00    -0.203 NA
HETATM   15  C6  UNL     1     -24.419  25.150  -8.575  1.00  0.00     0.138 C 
HETATM   16  C7  UNL     1     -25.644  24.355  -8.183  1.00  0.00     0.288 C 
HETATM   17  N2  UNL     1     -25.310  23.199  -7.390  1.00  0.00     0.095 N 
HETATM   18  C14 UNL     1     -23.888  23.141  -7.095  1.00  0.00     0.288 C 
HETATM   19  C15 UNL     1     -23.127  23.152  -8.373  1.00  0.00     0.138 C 
BRANCH  17  20
HETATM   20  C8  UNL     1     -26.105  23.075  -6.183  1.00  0.00     0.223 C 
HETATM   21  C9  UNL     1     -27.179  24.100  -6.038  1.00  0.00     0.036 C 
HETATM   22  C10 UNL     1     -27.994  23.742  -4.803  1.00  0.00     0.002 C 
HETATM   23  C11 UNL     1     -27.161  23.641  -3.564  1.00  0.00     0.000 C 
HETATM   24  C12 UNL     1     -25.910  22.845  -3.741  1.00  0.00     0.002 C 
HETATM   25  C13 UNL     1     -25.159  23.177  -5.010  1.00  0.00     0.036 C 
ENDBRANCH  17  20
ENDBRANCH   1  14
TORSDOF 5
ENDMDL
MODEL 3
REMARK VINA RESULT: -7.066495639      1.962      2.654
REMARK  5 active torsions:
REMARK  status: ('A' for Active; 'I' for Inactive)
REMARK    1  A    between atoms: O1_2  and  C2_3 
REMARK    2  A    between atoms: C2_3  and  C3_5 
REMARK    3  A    between atoms: C5_8  and  S2_9 
REMARK    4  A    between atoms: S2_9  and  N1_12 
REMARK    5  A    between atoms: N2_15  and  C8_16 
ROOT
HETATM    1  S2  UNL     1     -24.762  25.318  -6.721  1.00  0.00     0.244 S 
HETATM    2  O3  UNL     1     -24.285  26.706  -7.039  1.00  0.00    -0.206 OA
HETATM    3  O4  UNL     1     -26.206  25.299  -7.236  1.00  0.00    -0.206 OA
ENDROOT
BRANCH   1   4
HETATM    4  C5  UNL     1     -24.812  25.044  -4.960  1.00  0.00     0.088 A 
HETATM    5  C4  UNL     1     -23.585  24.996  -4.292  1.00  0.00     0.075 A 
HETATM    6  S1  UNL     1     -24.016  24.743  -2.674  1.00  0.00    -0.094 SA
HETATM    7  C3  UNL     1     -25.712  24.700  -2.838  1.00  0.00     0.087 A 
HETATM    8  C16 UNL     1     -25.898  24.887  -4.188  1.00  0.00    -0.015 A 
HETATM    9  C17 UNL     1     -27.322  24.898  -4.736  1.00  0.00     0.051 C 
BRANCH   7  10
HETATM   10  C2  UNL     1     -26.680  24.548  -1.750  1.00  0.00     0.300 C 
HETATM   11  O2  UNL     1     -27.296  23.423  -1.672  1.00  0.00    -0.259 OA
BRANCH  10  12
HETATM   12  O1  UNL     1     -26.990  25.464  -0.808  1.00  0.00    -0.322 OA
HETATM   13  C1  UNL     1     -27.020  25.128   0.555  1.00  0.00     0.213 C 
ENDBRANCH  10  12
ENDBRANCH   7  10
ENDBRANCH   1   4
BRANCH   1  14
HETATM   14  N1  UNL     1     -23.890  24.193  -7.620  1.00  0.00    -0.203 NA
HETATM   15  C6  UNL     1     -23.970  22.823  -7.244  1.00  0.00     0.138 C 
HETATM   16  C7  UNL     1     -25.141  22.062  -7.825  1.00  0.00     0.288 C 
HETATM   17  N2  UNL     1     -25.268  22.262  -9.246  1.00  0.00     0.095 N 
HETATM   18  C14 UNL     1     -24.184  23.075  -9.773  1.00  0.00     0.288 C 
HETATM   19  C15 UNL     1     -24.155  24.374  -9.050  1.00  0.00     0.138 C 
BRANCH  17  20
HETATM   20  C8  UNL     1     -25.415  21.030  -9.995  1.00  0.00     0.223 C 
HETATM   21  C9  UNL     1     -25.590  19.809  -9.154  1.00  0.00     0.036 C 
HETATM   22  C10 UNL     1     -25.866  18.640 -10.090  1.00  0.00     0.002 C 
HETATM   23  C11 UNL     1     -24.795  18.450 -11.117  1.00  0.00     0.000 C 
HETATM   24  C12 UNL     1     -24.380  19.712 -11.798  1.00  0.00     0.002 C 
HETATM   25  C13 UNL     1     -24.179  20.871 -10.848  1.00  0.00     0.036 C 
ENDBRANCH  17  20
ENDBRANCH   1  14
TORSDOF 5
ENDMDL
MODEL 4
REMARK VINA RESULT: -7.064659842      3.600      7.761
REMARK  5 active torsions:
REMARK  status: ('A' for Active; 'I' for Inactive)
REMARK    1  A    between atoms: O1_2  and  C2_3 
REMARK    2  A    between atoms: C2_3  and  C3_5 
REMARK    3  A    between atoms: C5_8  and  S2_9 
REMARK    4  A    between atoms: S2_9  and  N1_12 
REMARK    5  A    between atoms: N2_15  and  C8_16 
ROOT
HETATM    1  S2  UNL     1     -24.149  23.936  -9.973  1.00  0.00     0.244 S 
HETATM    2  O3  UNL     1     -25.603  24.301 -10.060  1.00  0.00    -0.206 OA
HETATM    3  O4  UNL     1     -23.451  25.006 -10.821  1.00  0.00    -0.206 OA
ENDROOT
BRANCH   1   4
HETATM    4  C5  UNL     1     -23.839  22.354 -10.735  1.00  0.00     0.088 A 
HETATM    5  C4  UNL     1     -22.623  22.204 -11.409  1.00  0.00     0.075 A 
HETATM    6  S1  UNL     1     -22.670  20.609 -11.975  1.00  0.00    -0.094 SA
HETATM    7  C3  UNL     1     -24.194  20.141 -11.372  1.00  0.00     0.087 A 
HETATM    8  C16 UNL     1     -24.634  21.274 -10.730  1.00  0.00    -0.015 A 
HETATM    9  C17 UNL     1     -26.004  21.248 -10.057  1.00  0.00     0.051 C 
BRANCH   7  10
HETATM   10  C2  UNL     1     -24.802  18.814 -11.500  1.00  0.00     0.300 C 
HETATM   11  O2  UNL     1     -25.320  18.520 -12.639  1.00  0.00    -0.259 OA
BRANCH  10  12
HETATM   12  O1  UNL     1     -24.868  17.859 -10.550  1.00  0.00    -0.322 OA
HETATM   13  C1  UNL     1     -26.060  17.601  -9.855  1.00  0.00     0.213 C 
ENDBRANCH  10  12
ENDBRANCH   7  10
ENDBRANCH   1   4
BRANCH   1  14
HETATM   14  N1  UNL     1     -23.608  24.114  -8.389  1.00  0.00    -0.203 NA
HETATM   15  C6  UNL     1     -23.934  25.315  -7.697  1.00  0.00     0.138 C 
HETATM   16  C7  UNL     1     -25.282  25.318  -7.012  1.00  0.00     0.288 C 
HETATM   17  N2  UNL     1     -25.489  24.137  -6.214  1.00  0.00     0.095 N 
HETATM   18  C14 UNL     1     -24.312  23.283  -6.202  1.00  0.00     0.288 C 
HETATM   19  C15 UNL     1     -23.954  22.929  -7.601  1.00  0.00     0.138 C 
BRANCH  17  20
HETATM   20  C8  UNL     1     -25.950  24.419  -4.869  1.00  0.00     0.223 C 
HETATM   21  C9  UNL     1     -24.871  24.467  -3.839  1.00  0.00     0.036 C 
HETATM   22  C10 UNL     1     -25.506  24.906  -2.526  1.00  0.00     0.002 C 
HETATM   23  C11 UNL     1     -26.633  24.019  -2.099  1.00  0.00     0.000 C 
HETATM   24  C12 UNL     1     -27.603  23.708  -3.189  1.00  0.00     0.002 C 
HETATM   25  C13 UNL     1     -26.941  23.341  -4.498  1.00  0.00     0.036 C 
ENDBRANCH  17  20
ENDBRANCH   1  14
TORSDOF 5
ENDMDL
MODEL 5
REMARK VINA RESULT: -7.031571108      6.138      9.422
REMARK  5 active torsions:
REMARK  status: ('A' for Active; 'I' for Inactive)
REMARK    1  A    between atoms: O1_2  and  C2_3 
REMARK    2  A    between atoms: C2_3  and  C3_5 
REMARK    3  A    between atoms: C5_8  and  S2_9 
REMARK    4  A    between atoms: S2_9  and  N1_12 
REMARK    5  A    between atoms: N2_15  and  C8_16 
ROOT
HETATM    1  S2  UNL     1     -22.402  25.475 -13.470  1.00  0.00     0.244 S 
HETATM    2  O3  UNL     1     -22.316  26.119 -12.116  1.00  0.00    -0.206 OA
HETATM    3  O4  UNL     1     -21.073  24.723 -13.605  1.00  0.00    -0.206 OA
ENDROOT
BRANCH   1   4
HETATM    4  C5  UNL     1     -22.462  26.704 -14.761  1.00  0.00     0.088 A 
HETATM    5  C4  UNL     1     -21.276  26.944 -15.461  1.00  0.00     0.075 A 
HETATM    6  S1  UNL     1     -21.707  28.129 -16.592  1.00  0.00    -0.094 SA
HETATM    7  C3  UNL     1     -23.353  28.316 -16.189  1.00  0.00     0.087 A 
HETATM    8  C16 UNL     1     -23.522  27.425 -15.155  1.00  0.00    -0.015 A 
HETATM    9  C17 UNL     1     -24.898  27.311 -14.505  1.00  0.00     0.051 C 
BRANCH   7  10
HETATM   10  C2  UNL     1     -24.311  29.196 -16.862  1.00  0.00     0.300 C 
HETATM   11  O2  UNL     1     -24.361  30.416 -16.461  1.00  0.00    -0.259 OA
BRANCH  10  12
HETATM   12  O1  UNL     1     -25.145  28.865 -17.869  1.00  0.00    -0.322 OA
HETATM   13  C1  UNL     1     -25.064  27.615 -18.504  1.00  0.00     0.213 C 
ENDBRANCH  10  12
ENDBRANCH   7  10
ENDBRANCH   1   4
BRANCH   1  14
HETATM   14  N1  UNL     1     -23.635  24.329 -13.481  1.00  0.00    -0.203 NA
HETATM   15  C6  UNL     1     -23.296  22.979 -13.779  1.00  0.00     0.138 C 
HETATM   16  C7  UNL     1     -22.831  22.156 -12.597  1.00  0.00     0.288 C 
HETATM   17  N2  UNL     1     -23.718  22.277 -11.469  1.00  0.00     0.095 N 
HETATM   18  C14 UNL     1     -24.881  23.090 -11.783  1.00  0.00     0.288 C 
HETATM   19  C15 UNL     1     -24.427  24.426 -12.253  1.00  0.00     0.138 C 
BRANCH  17  20
HETATM   20  C8  UNL     1     -24.105  21.002 -10.896  1.00  0.00     0.223 C 
HETATM   21  C9  UNL     1     -24.179  19.878 -11.875  1.00  0.00     0.036 C 
HETATM   22  C10 UNL     1     -24.459  18.603 -11.091  1.00  0.00     0.002 C 
HETATM   23  C11 UNL     1     -25.700  18.690 -10.260  1.00  0.00     0.000 C 
HETATM   24  C12 UNL     1     -25.807  19.949  -9.465  1.00  0.00     0.002 C 
HETATM   25  C13 UNL     1     -25.458  21.190 -10.253  1.00  0.00     0.036 C 
ENDBRANCH  17  20
ENDBRANCH   1  14
TORSDOF 5
ENDMDL
