MODEL 1
REMARK VINA RESULT: -5.455568701      0.000      0.000
REMARK  15 active torsions:
REMARK  status: ('A' for Active; 'I' for Inactive)
REMARK    1  A    between atoms: N1_7  and  C6_8 
REMARK    2  A    between atoms: C6_8  and  O2_9 
REMARK    3  A    between atoms: C6_8  and  C7_11 
REMARK    4  A    between atoms: N3_14  and  N4_15 
REMARK    5  A    between atoms: C8_18  and  N5_19 
REMARK    6  A    between atoms: C9_22  and  N6_23 
REMARK    7  A    between atoms: C10_27  and  C11_28 
REMARK    8  A    between atoms: C11_28  and  O3_29 
REMARK    9  A    between atoms: C11_28  and  N7_31 
REMARK   10  A    between atoms: N7_31  and  C12_34 
REMARK   11  A    between atoms: C12_34  and  C13_35 
REMARK   12  A    between atoms: C12_34  and  C14_38 
REMARK   13  A    between atoms: C13_35  and  O4_36 
REMARK   14  A    between atoms: C14_38  and  O5_39 
REMARK   15  A    between atoms: C14_38  and  O6_41 
ROOT
HETATM    1  C1  UNL     1     -19.038 -10.394 -33.211  1.00  0.00     0.078 C 
HETATM    2  C2  UNL     1     -18.077 -10.482 -34.380  1.00  0.00     0.158 C 
HETATM    3  C3  UNL     1     -16.684 -10.181 -33.870  1.00  0.00     0.078 C 
HETATM    4  O1  UNL     1     -18.405  -9.502 -35.285  1.00  0.00    -0.346 OA
HETATM    5  C4  UNL     1     -19.071 -10.146 -36.314  1.00  0.00     0.185 C 
HETATM    6  C5  UNL     1     -18.094 -10.410 -37.414  1.00  0.00     0.311 C 
HETATM    7  N1  UNL     1     -18.740 -11.517 -38.138  1.00  0.00     0.138 N 
HETATM    8  C10 UNL     1     -19.215 -12.368 -37.057  1.00  0.00     0.314 C 
HETATM    9  C15 UNL     1     -19.284 -11.578 -35.802  1.00  0.00     0.194 C 
HETATM   10  O7  UNL     1     -18.144 -11.719 -35.002  1.00  0.00    -0.346 OA
ENDROOT
BRANCH   7  11
HETATM   11  C6  UNL     1     -19.875 -10.952 -38.792  1.00  0.00     0.417 C 
BRANCH  11  12
HETATM   12  O2  UNL     1     -19.407 -10.021 -39.764  1.00  0.00    -0.363 OA
ATOM     13  H2  UNL     1     -19.332 -10.474 -40.595  1.00  0.00     0.212 HD
ENDBRANCH  11  12
BRANCH  11  14
HETATM   14  C7  UNL     1     -20.564 -12.007 -39.634  1.00  0.00     0.129 A 
HETATM   15  N2  UNL     1     -19.949 -12.674 -40.600  1.00  0.00    -0.271 N 
HETATM   16  N3  UNL     1     -20.423 -13.604 -41.369  1.00  0.00    -0.183 N 
ATOM     17  H2  UNL     1     -18.973 -12.422 -40.760  1.00  0.00     0.189 HD
HETATM   18  C8  UNL     1     -21.660 -14.121 -41.379  1.00  0.00     0.172 A 
HETATM   19  C9  UNL     1     -22.673 -13.694 -40.497  1.00  0.00     0.117 A 
HETATM   20  S1  UNL     1     -22.181 -12.477 -39.431  1.00  0.00    -0.050 SA
BRANCH  16  21
HETATM   21  N4  UNL     1     -19.521 -14.139 -42.333  1.00  0.00    -0.322 N 
ATOM     22  H42 UNL     1     -18.529 -14.031 -42.121  1.00  0.00     0.179 HD
ATOM     23  H41 UNL     1     -19.946 -14.588 -43.145  1.00  0.00     0.179 HD
ENDBRANCH  16  21
BRANCH  18  24
HETATM   24  N5  UNL     1     -21.952 -15.057 -42.225  1.00  0.00    -0.380 N 
ATOM     25  H52 UNL     1     -22.106 -14.788 -43.196  1.00  0.00     0.158 HD
ATOM     26  H51 UNL     1     -22.022 -16.021 -41.900  1.00  0.00     0.158 HD
ENDBRANCH  18  24
BRANCH  19  27
HETATM   27  N6  UNL     1     -23.837 -14.241 -40.571  1.00  0.00    -0.390 N 
ATOM     28  H62 UNL     1     -24.630 -13.930 -41.131  1.00  0.00     0.157 HD
ATOM     29  H61 UNL     1     -24.025 -15.080 -40.022  1.00  0.00     0.157 HD
ENDBRANCH  19  27
ENDBRANCH  11  14
ENDBRANCH   7  11
BRANCH   8  30
HETATM   30  C11 UNL     1     -18.323 -13.565 -36.988  1.00  0.00     0.355 C 
BRANCH  30  31
HETATM   31  O3  UNL     1     -18.767 -14.508 -36.055  1.00  0.00    -0.368 OA
ATOM     32  H3  UNL     1     -19.495 -15.025 -36.380  1.00  0.00     0.212 HD
ENDBRANCH  30  31
BRANCH  30  33
HETATM   33  N7  UNL     1     -18.167 -14.198 -38.308  1.00  0.00    -0.036 N 
ATOM     34  H72 UNL     1     -18.780 -13.790 -39.014  1.00  0.00     0.281 HD
ATOM     35  H71 UNL     1     -17.277 -13.970 -38.750  1.00  0.00     0.281 HD
BRANCH  33  36
HETATM   36  C12 UNL     1     -18.365 -15.633 -38.153  1.00  0.00     0.266 C 
BRANCH  36  37
HETATM   37  C13 UNL     1     -19.319 -16.124 -39.208  1.00  0.00     0.202 C 
BRANCH  37  38
HETATM   38  O4  UNL     1     -18.657 -16.201 -40.438  1.00  0.00    -0.399 OA
ATOM     39  H4  UNL     1     -19.037 -16.897 -40.960  1.00  0.00     0.209 HD
ENDBRANCH  37  38
ENDBRANCH  36  37
BRANCH  36  40
HETATM   40  C14 UNL     1     -17.058 -16.382 -38.323  1.00  0.00     0.286 C 
BRANCH  40  41
HETATM   41  O5  UNL     1     -16.423 -16.395 -37.084  1.00  0.00    -0.369 OA
ATOM     42  H5  UNL     1     -17.075 -16.625 -36.433  1.00  0.00     0.212 HD
ENDBRANCH  40  41
BRANCH  40  43
HETATM   43  O6  UNL     1     -17.313 -17.715 -38.660  1.00  0.00    -0.369 OA
ATOM     44  H6  UNL     1     -16.936 -17.912 -39.509  1.00  0.00     0.212 HD
ENDBRANCH  40  43
ENDBRANCH  36  40
ENDBRANCH  33  36
ENDBRANCH  30  33
ENDBRANCH   8  30
TORSDOF 15
ENDMDL
MODEL 2
REMARK VINA RESULT: -5.360842685      0.968      1.516
REMARK  15 active torsions:
REMARK  status: ('A' for Active; 'I' for Inactive)
REMARK    1  A    between atoms: N1_7  and  C6_8 
REMARK    2  A    between atoms: C6_8  and  O2_9 
REMARK    3  A    between atoms: C6_8  and  C7_11 
REMARK    4  A    between atoms: N3_14  and  N4_15 
REMARK    5  A    between atoms: C8_18  and  N5_19 
REMARK    6  A    between atoms: C9_22  and  N6_23 
REMARK    7  A    between atoms: C10_27  and  C11_28 
REMARK    8  A    between atoms: C11_28  and  O3_29 
REMARK    9  A    between atoms: C11_28  and  N7_31 
REMARK   10  A    between atoms: N7_31  and  C12_34 
REMARK   11  A    between atoms: C12_34  and  C13_35 
REMARK   12  A    between atoms: C12_34  and  C14_38 
REMARK   13  A    between atoms: C13_35  and  O4_36 
REMARK   14  A    between atoms: C14_38  and  O5_39 
REMARK   15  A    between atoms: C14_38  and  O6_41 
ROOT
HETATM    1  C1  UNL     1     -18.751 -10.343 -33.326  1.00  0.00     0.078 C 
HETATM    2  C2  UNL     1     -17.972 -10.397 -34.626  1.00  0.00     0.158 C 
HETATM    3  C3  UNL     1     -16.562  -9.919 -34.351  1.00  0.00     0.078 C 
HETATM    4  O1  UNL     1     -18.542  -9.512 -35.509  1.00  0.00    -0.346 OA
HETATM    5  C4  UNL     1     -19.276 -10.283 -36.394  1.00  0.00     0.185 C 
HETATM    6  C5  UNL     1     -18.451 -10.506 -37.621  1.00  0.00     0.311 C 
HETATM    7  N1  UNL     1     -19.068 -11.717 -38.187  1.00  0.00     0.138 N 
HETATM    8  C10 UNL     1     -19.275 -12.548 -37.011  1.00  0.00     0.314 C 
HETATM    9  C15 UNL     1     -19.245 -11.698 -35.795  1.00  0.00     0.194 C 
HETATM   10  O7  UNL     1     -17.989 -11.668 -35.177  1.00  0.00    -0.346 OA
ENDROOT
BRANCH   7  11
HETATM   11  C6  UNL     1     -20.344 -11.316 -38.681  1.00  0.00     0.417 C 
BRANCH  11  12
HETATM   12  O2  UNL     1     -20.145 -10.266 -39.623  1.00  0.00    -0.363 OA
ATOM     13  H2  UNL     1     -20.782 -10.369 -40.320  1.00  0.00     0.212 HD
ENDBRANCH  11  12
BRANCH  11  14
HETATM   14  C7  UNL     1     -20.943 -12.423 -39.525  1.00  0.00     0.129 A 
HETATM   15  N2  UNL     1     -21.883 -13.243 -39.077  1.00  0.00    -0.271 N 
HETATM   16  N3  UNL     1     -22.480 -14.207 -39.705  1.00  0.00    -0.183 N 
ATOM     17  H2  UNL     1     -22.175 -13.096 -38.111  1.00  0.00     0.189 HD
HETATM   18  C8  UNL     1     -22.292 -14.617 -40.968  1.00  0.00     0.172 A 
HETATM   19  C9  UNL     1     -21.359 -14.013 -41.835  1.00  0.00     0.117 A 
HETATM   20  S1  UNL     1     -20.508 -12.730 -41.135  1.00  0.00    -0.050 SA
BRANCH  16  21
HETATM   21  N4  UNL     1     -23.455 -14.931 -38.959  1.00  0.00    -0.322 N 
ATOM     22  H42 UNL     1     -23.238 -15.080 -37.973  1.00  0.00     0.179 HD
ATOM     23  H41 UNL     1     -24.282 -15.231 -39.474  1.00  0.00     0.179 HD
ENDBRANCH  16  21
BRANCH  18  24
HETATM   24  N5  UNL     1     -22.992 -15.604 -41.428  1.00  0.00    -0.380 N 
ATOM     25  H52 UNL     1     -23.879 -15.386 -41.882  1.00  0.00     0.158 HD
ATOM     26  H51 UNL     1     -22.644 -16.557 -41.322  1.00  0.00     0.158 HD
ENDBRANCH  18  24
BRANCH  19  27
HETATM   27  N6  UNL     1     -21.237 -14.466 -43.035  1.00  0.00    -0.390 N 
ATOM     28  H62 UNL     1     -20.877 -15.378 -43.316  1.00  0.00     0.157 HD
ATOM     29  H61 UNL     1     -21.520 -13.877 -43.818  1.00  0.00     0.157 HD
ENDBRANCH  19  27
ENDBRANCH  11  14
ENDBRANCH   7  11
BRANCH   8  30
HETATM   30  C11 UNL     1     -18.252 -13.637 -37.032  1.00  0.00     0.355 C 
BRANCH  30  31
HETATM   31  O3  UNL     1     -18.515 -14.634 -36.086  1.00  0.00    -0.368 OA
ATOM     32  H3  UNL     1     -17.824 -14.711 -35.439  1.00  0.00     0.212 HD
ENDBRANCH  30  31
BRANCH  30  33
HETATM   33  N7  UNL     1     -18.126 -14.234 -38.371  1.00  0.00    -0.036 N 
ATOM     34  H72 UNL     1     -18.730 -13.785 -39.060  1.00  0.00     0.281 HD
ATOM     35  H71 UNL     1     -17.231 -14.023 -38.813  1.00  0.00     0.281 HD
BRANCH  33  36
HETATM   36  C12 UNL     1     -18.371 -15.666 -38.258  1.00  0.00     0.266 C 
BRANCH  36  37
HETATM   37  C13 UNL     1     -19.344 -16.093 -39.324  1.00  0.00     0.202 C 
BRANCH  37  38
HETATM   38  O4  UNL     1     -18.689 -16.151 -40.558  1.00  0.00    -0.399 OA
ATOM     39  H4  UNL     1     -19.327 -16.096 -41.259  1.00  0.00     0.209 HD
ENDBRANCH  37  38
ENDBRANCH  36  37
BRANCH  36  40
HETATM   40  C14 UNL     1     -17.090 -16.453 -38.455  1.00  0.00     0.286 C 
BRANCH  40  41
HETATM   41  O5  UNL     1     -16.430 -16.485 -37.230  1.00  0.00    -0.369 OA
ATOM     42  H5  UNL     1     -16.381 -17.394 -36.958  1.00  0.00     0.212 HD
ENDBRANCH  40  41
BRANCH  40  43
HETATM   43  O6  UNL     1     -17.391 -17.777 -38.788  1.00  0.00    -0.369 OA
ATOM     44  H6  UNL     1     -16.589 -18.259 -38.953  1.00  0.00     0.212 HD
ENDBRANCH  40  43
ENDBRANCH  36  40
ENDBRANCH  33  36
ENDBRANCH  30  33
ENDBRANCH   8  30
TORSDOF 15
ENDMDL
MODEL 3
REMARK VINA RESULT: -5.205397334      2.418      6.499
REMARK  15 active torsions:
REMARK  status: ('A' for Active; 'I' for Inactive)
REMARK    1  A    between atoms: N1_7  and  C6_8 
REMARK    2  A    between atoms: C6_8  and  O2_9 
REMARK    3  A    between atoms: C6_8  and  C7_11 
REMARK    4  A    between atoms: N3_14  and  N4_15 
REMARK    5  A    between atoms: C8_18  and  N5_19 
REMARK    6  A    between atoms: C9_22  and  N6_23 
REMARK    7  A    between atoms: C10_27  and  C11_28 
REMARK    8  A    between atoms: C11_28  and  O3_29 
REMARK    9  A    between atoms: C11_28  and  N7_31 
REMARK   10  A    between atoms: N7_31  and  C12_34 
REMARK   11  A    between atoms: C12_34  and  C13_35 
REMARK   12  A    between atoms: C12_34  and  C14_38 
REMARK   13  A    between atoms: C13_35  and  O4_36 
REMARK   14  A    between atoms: C14_38  and  O5_39 
REMARK   15  A    between atoms: C14_38  and  O6_41 
ROOT
HETATM    1  C1  UNL     1     -22.527 -15.499 -43.800  1.00  0.00     0.078 C 
HETATM    2  C2  UNL     1     -22.637 -15.938 -42.353  1.00  0.00     0.158 C 
HETATM    3  C3  UNL     1     -23.274 -17.311 -42.323  1.00  0.00     0.078 C 
HETATM    4  O1  UNL     1     -23.485 -15.076 -41.702  1.00  0.00    -0.346 OA
HETATM    5  C4  UNL     1     -22.673 -14.238 -40.957  1.00  0.00     0.185 C 
HETATM    6  C5  UNL     1     -22.618 -14.758 -39.557  1.00  0.00     0.311 C 
HETATM    7  N1  UNL     1     -21.369 -14.160 -39.057  1.00  0.00     0.138 N 
HETATM    8  C10 UNL     1     -20.460 -14.339 -40.180  1.00  0.00     0.314 C 
HETATM    9  C15 UNL     1     -21.246 -14.570 -41.418  1.00  0.00     0.194 C 
HETATM   10  O7  UNL     1     -21.402 -15.928 -41.722  1.00  0.00    -0.346 OA
ENDROOT
BRANCH   7  11
HETATM   11  C6  UNL     1     -21.630 -12.765 -38.913  1.00  0.00     0.417 C 
BRANCH  11  12
HETATM   12  O2  UNL     1     -22.927 -12.614 -38.342  1.00  0.00    -0.363 OA
ATOM     13  H2  UNL     1     -23.503 -12.256 -39.007  1.00  0.00     0.212 HD
ENDBRANCH  11  12
BRANCH  11  14
HETATM   14  C7  UNL     1     -20.720 -12.177 -37.854  1.00  0.00     0.129 A 
HETATM   15  N2  UNL     1     -20.733 -12.574 -36.590  1.00  0.00    -0.271 N 
HETATM   16  N3  UNL     1     -19.996 -12.163 -35.605  1.00  0.00    -0.183 N 
ATOM     17  H2  UNL     1     -21.413 -13.299 -36.361  1.00  0.00     0.189 HD
HETATM   18  C8  UNL     1     -19.035 -11.227 -35.623  1.00  0.00     0.172 A 
HETATM   19  C9  UNL     1     -18.678 -10.522 -36.789  1.00  0.00     0.117 A 
HETATM   20  S1  UNL     1     -19.568 -10.968 -38.156  1.00  0.00    -0.050 SA
BRANCH  16  21
HETATM   21  N4  UNL     1     -20.241 -12.774 -34.342  1.00  0.00    -0.322 N 
ATOM     22  H42 UNL     1     -19.533 -13.436 -34.024  1.00  0.00     0.179 HD
ATOM     23  H41 UNL     1     -21.098 -12.492 -33.866  1.00  0.00     0.179 HD
ENDBRANCH  16  21
BRANCH  18  24
HETATM   24  N5  UNL     1     -18.396 -10.951 -34.531  1.00  0.00    -0.380 N 
ATOM     25  H52 UNL     1     -17.379 -11.026 -34.544  1.00  0.00     0.158 HD
ATOM     26  H51 UNL     1     -18.920 -10.675 -33.701  1.00  0.00     0.158 HD
ENDBRANCH  18  24
BRANCH  19  27
HETATM   27  N6  UNL     1     -17.744  -9.637 -36.723  1.00  0.00    -0.390 N 
ATOM     28  H62 UNL     1     -17.178  -9.278 -37.491  1.00  0.00     0.157 HD
ATOM     29  H61 UNL     1     -17.515  -9.227 -35.817  1.00  0.00     0.157 HD
ENDBRANCH  19  27
ENDBRANCH  11  14
ENDBRANCH   7  11
BRANCH   8  30
HETATM   30  C11 UNL     1     -19.512 -15.440 -39.832  1.00  0.00     0.355 C 
BRANCH  30  31
HETATM   31  O3  UNL     1     -18.921 -16.011 -40.964  1.00  0.00    -0.368 OA
ATOM     32  H3  UNL     1     -18.711 -16.930 -40.839  1.00  0.00     0.212 HD
ENDBRANCH  30  31
BRANCH  30  33
HETATM   33  N7  UNL     1     -18.471 -14.981 -38.898  1.00  0.00    -0.036 N 
ATOM     34  H72 UNL     1     -17.609 -14.709 -39.373  1.00  0.00     0.281 HD
ATOM     35  H71 UNL     1     -18.689 -14.077 -38.480  1.00  0.00     0.281 HD
BRANCH  33  36
HETATM   36  C12 UNL     1     -18.259 -16.023 -37.902  1.00  0.00     0.266 C 
BRANCH  36  37
HETATM   37  C13 UNL     1     -16.913 -16.660 -38.122  1.00  0.00     0.202 C 
BRANCH  37  38
HETATM   38  O4  UNL     1     -17.067 -17.825 -38.881  1.00  0.00    -0.399 OA
ATOM     39  H4  UNL     1     -16.479 -18.496 -38.555  1.00  0.00     0.209 HD
ENDBRANCH  37  38
ENDBRANCH  36  37
BRANCH  36  40
HETATM   40  C14 UNL     1     -18.276 -15.445 -36.501  1.00  0.00     0.286 C 
BRANCH  40  41
HETATM   41  O5  UNL     1     -17.807 -14.137 -36.585  1.00  0.00    -0.369 OA
ATOM     42  H5  UNL     1     -16.889 -14.148 -36.339  1.00  0.00     0.212 HD
ENDBRANCH  40  41
BRANCH  40  43
HETATM   43  O6  UNL     1     -19.590 -15.374 -36.030  1.00  0.00    -0.369 OA
ATOM     44  H6  UNL     1     -19.894 -16.240 -35.785  1.00  0.00     0.212 HD
ENDBRANCH  40  43
ENDBRANCH  36  40
ENDBRANCH  33  36
ENDBRANCH  30  33
ENDBRANCH   8  30
TORSDOF 15
ENDMDL
MODEL 4
REMARK VINA RESULT: -5.154857442      2.338      6.359
REMARK  15 active torsions:
REMARK  status: ('A' for Active; 'I' for Inactive)
REMARK    1  A    between atoms: N1_7  and  C6_8 
REMARK    2  A    between atoms: C6_8  and  O2_9 
REMARK    3  A    between atoms: C6_8  and  C7_11 
REMARK    4  A    between atoms: N3_14  and  N4_15 
REMARK    5  A    between atoms: C8_18  and  N5_19 
REMARK    6  A    between atoms: C9_22  and  N6_23 
REMARK    7  A    between atoms: C10_27  and  C11_28 
REMARK    8  A    between atoms: C11_28  and  O3_29 
REMARK    9  A    between atoms: C11_28  and  N7_31 
REMARK   10  A    between atoms: N7_31  and  C12_34 
REMARK   11  A    between atoms: C12_34  and  C13_35 
REMARK   12  A    between atoms: C12_34  and  C14_38 
REMARK   13  A    between atoms: C13_35  and  O4_36 
REMARK   14  A    between atoms: C14_38  and  O5_39 
REMARK   15  A    between atoms: C14_38  and  O6_41 
ROOT
HETATM    1  C1  UNL     1     -22.558 -15.690 -43.954  1.00  0.00     0.078 C 
HETATM    2  C2  UNL     1     -22.675 -16.036 -42.483  1.00  0.00     0.158 C 
HETATM    3  C3  UNL     1     -23.303 -17.409 -42.368  1.00  0.00     0.078 C 
HETATM    4  O1  UNL     1     -23.535 -15.140 -41.894  1.00  0.00    -0.346 OA
HETATM    5  C4  UNL     1     -22.734 -14.249 -41.201  1.00  0.00     0.185 C 
HETATM    6  C5  UNL     1     -22.685 -14.676 -39.769  1.00  0.00     0.311 C 
HETATM    7  N1  UNL     1     -21.444 -14.036 -39.302  1.00  0.00     0.138 N 
HETATM    8  C10 UNL     1     -20.527 -14.281 -40.404  1.00  0.00     0.314 C 
HETATM    9  C15 UNL     1     -21.301 -14.599 -41.630  1.00  0.00     0.194 C 
HETATM   10  O7  UNL     1     -21.446 -15.974 -41.846  1.00  0.00    -0.346 OA
ENDROOT
BRANCH   7  11
HETATM   11  C6  UNL     1     -21.717 -12.637 -39.250  1.00  0.00     0.417 C 
BRANCH  11  12
HETATM   12  O2  UNL     1     -22.915 -12.447 -38.502  1.00  0.00    -0.363 OA
ATOM     13  H2  UNL     1     -23.315 -11.633 -38.786  1.00  0.00     0.212 HD
ENDBRANCH  11  12
BRANCH  11  14
HETATM   14  C7  UNL     1     -20.672 -11.938 -38.404  1.00  0.00     0.129 A 
HETATM   15  N2  UNL     1     -20.003 -10.872 -38.819  1.00  0.00    -0.271 N 
HETATM   16  N3  UNL     1     -19.107 -10.182 -38.185  1.00  0.00    -0.183 N 
ATOM     17  H2  UNL     1     -20.223 -10.552 -39.762  1.00  0.00     0.189 HD
HETATM   18  C8  UNL     1     -18.631 -10.381 -36.947  1.00  0.00     0.172 A 
HETATM   19  C9  UNL     1     -19.071 -11.433 -36.119  1.00  0.00     0.117 A 
HETATM   20  S1  UNL     1     -20.250 -12.414 -36.831  1.00  0.00    -0.050 SA
BRANCH  16  21
HETATM   21  N4  UNL     1     -18.549  -9.079 -38.893  1.00  0.00    -0.322 N 
ATOM     22  H42 UNL     1     -17.643  -9.246 -39.331  1.00  0.00     0.179 HD
ATOM     23  H41 UNL     1     -19.106  -8.225 -38.904  1.00  0.00     0.179 HD
ENDBRANCH  16  21
BRANCH  18  24
HETATM   24  N5  UNL     1     -17.732  -9.578 -36.475  1.00  0.00    -0.380 N 
ATOM     25  H52 UNL     1     -17.929  -8.578 -36.497  1.00  0.00     0.158 HD
ATOM     26  H51 UNL     1     -16.863  -9.962 -36.103  1.00  0.00     0.158 HD
ENDBRANCH  18  24
BRANCH  19  27
HETATM   27  N6  UNL     1     -18.562 -11.557 -34.942  1.00  0.00    -0.390 N 
ATOM     28  H62 UNL     1     -18.059 -10.847 -34.410  1.00  0.00     0.157 HD
ATOM     29  H61 UNL     1     -18.652 -12.448 -34.455  1.00  0.00     0.157 HD
ENDBRANCH  19  27
ENDBRANCH  11  14
ENDBRANCH   7  11
BRANCH   8  30
HETATM   30  C11 UNL     1     -19.572 -15.349 -39.979  1.00  0.00     0.355 C 
BRANCH  30  31
HETATM   31  O3  UNL     1     -18.980 -15.999 -41.068  1.00  0.00    -0.368 OA
ATOM     32  H3  UNL     1     -18.508 -16.782 -40.810  1.00  0.00     0.212 HD
ENDBRANCH  30  31
BRANCH  30  33
HETATM   33  N7  UNL     1     -18.532 -14.818 -39.083  1.00  0.00    -0.036 N 
ATOM     34  H72 UNL     1     -17.696 -14.519 -39.586  1.00  0.00     0.281 HD
ATOM     35  H71 UNL     1     -18.783 -13.915 -38.681  1.00  0.00     0.281 HD
BRANCH  33  36
HETATM   36  C12 UNL     1     -18.246 -15.824 -38.068  1.00  0.00     0.266 C 
BRANCH  36  37
HETATM   37  C13 UNL     1     -16.936 -16.495 -38.381  1.00  0.00     0.202 C 
BRANCH  37  38
HETATM   38  O4  UNL     1     -17.157 -17.850 -38.646  1.00  0.00    -0.399 OA
ATOM     39  H4  UNL     1     -16.648 -18.112 -39.404  1.00  0.00     0.209 HD
ENDBRANCH  37  38
ENDBRANCH  36  37
BRANCH  36  40
HETATM   40  C14 UNL     1     -18.128 -15.191 -36.696  1.00  0.00     0.286 C 
BRANCH  40  41
HETATM   41  O5  UNL     1     -18.392 -16.184 -35.756  1.00  0.00    -0.369 OA
ATOM     42  H5  UNL     1     -18.459 -15.762 -34.908  1.00  0.00     0.212 HD
ENDBRANCH  40  41
BRANCH  40  43
HETATM   43  O6  UNL     1     -16.814 -14.767 -36.478  1.00  0.00    -0.369 OA
ATOM     44  H6  UNL     1     -16.521 -15.049 -35.619  1.00  0.00     0.212 HD
ENDBRANCH  40  43
ENDBRANCH  36  40
ENDBRANCH  33  36
ENDBRANCH  30  33
ENDBRANCH   8  30
TORSDOF 15
ENDMDL
MODEL 5
REMARK VINA RESULT: -5.034798413      3.622      7.351
REMARK  15 active torsions:
REMARK  status: ('A' for Active; 'I' for Inactive)
REMARK    1  A    between atoms: N1_7  and  C6_8 
REMARK    2  A    between atoms: C6_8  and  O2_9 
REMARK    3  A    between atoms: C6_8  and  C7_11 
REMARK    4  A    between atoms: N3_14  and  N4_15 
REMARK    5  A    between atoms: C8_18  and  N5_19 
REMARK    6  A    between atoms: C9_22  and  N6_23 
REMARK    7  A    between atoms: C10_27  and  C11_28 
REMARK    8  A    between atoms: C11_28  and  O3_29 
REMARK    9  A    between atoms: C11_28  and  N7_31 
REMARK   10  A    between atoms: N7_31  and  C12_34 
REMARK   11  A    between atoms: C12_34  and  C13_35 
REMARK   12  A    between atoms: C12_34  and  C14_38 
REMARK   13  A    between atoms: C13_35  and  O4_36 
REMARK   14  A    between atoms: C14_38  and  O5_39 
REMARK   15  A    between atoms: C14_38  and  O6_41 
ROOT
HETATM    1  C1  UNL     1     -19.558 -14.341 -40.428  1.00  0.00     0.078 C 
HETATM    2  C2  UNL     1     -19.084 -14.789 -39.059  1.00  0.00     0.158 C 
HETATM    3  C3  UNL     1     -18.189 -15.996 -39.241  1.00  0.00     0.078 C 
HETATM    4  O1  UNL     1     -20.178 -15.193 -38.333  1.00  0.00    -0.346 OA
HETATM    5  C4  UNL     1     -20.447 -14.161 -37.450  1.00  0.00     0.185 C 
HETATM    6  C5  UNL     1     -19.828 -14.497 -36.131  1.00  0.00     0.311 C 
HETATM    7  N1  UNL     1     -19.703 -13.170 -35.506  1.00  0.00     0.138 N 
HETATM    8  C10 UNL     1     -19.223 -12.345 -36.604  1.00  0.00     0.314 C 
HETATM    9  C15 UNL     1     -19.520 -13.019 -37.893  1.00  0.00     0.194 C 
HETATM   10  O7  UNL     1     -18.440 -13.764 -38.383  1.00  0.00    -0.346 OA
ENDROOT
BRANCH   7  11
HETATM   11  C6  UNL     1     -21.030 -12.758 -35.185  1.00  0.00     0.417 C 
BRANCH  11  12
HETATM   12  O2  UNL     1     -21.722 -13.879 -34.642  1.00  0.00    -0.363 OA
ATOM     13  H2  UNL     1     -22.635 -13.817 -34.900  1.00  0.00     0.212 HD
ENDBRANCH  11  12
BRANCH  11  14
HETATM   14  C7  UNL     1     -21.002 -11.780 -34.028  1.00  0.00     0.129 A 
HETATM   15  N2  UNL     1     -20.059 -11.790 -33.098  1.00  0.00    -0.271 N 
HETATM   16  N3  UNL     1     -19.919 -11.000 -32.080  1.00  0.00    -0.183 N 
ATOM     17  H2  UNL     1     -19.349 -12.517 -33.195  1.00  0.00     0.189 HD
HETATM   18  C8  UNL     1     -20.701  -9.973 -31.713  1.00  0.00     0.172 A 
HETATM   19  C9  UNL     1     -21.851  -9.594 -32.434  1.00  0.00     0.117 A 
HETATM   20  S1  UNL     1     -22.147 -10.550 -33.797  1.00  0.00    -0.050 SA
BRANCH  16  21
HETATM   21  N4  UNL     1     -18.800 -11.258 -31.236  1.00  0.00    -0.322 N 
ATOM     22  H42 UNL     1     -18.884 -12.069 -30.624  1.00  0.00     0.179 HD
ATOM     23  H41 UNL     1     -18.015 -10.613 -31.323  1.00  0.00     0.179 HD
ENDBRANCH  16  21
BRANCH  18  24
HETATM   24  N5  UNL     1     -20.397  -9.288 -30.658  1.00  0.00    -0.380 N 
ATOM     25  H52 UNL     1     -19.412  -9.081 -30.493  1.00  0.00     0.158 HD
ATOM     26  H51 UNL     1     -21.139  -8.981 -30.029  1.00  0.00     0.158 HD
ENDBRANCH  18  24
BRANCH  19  27
HETATM   27  N6  UNL     1     -22.549  -8.596 -32.015  1.00  0.00    -0.390 N 
ATOM     28  H62 UNL     1     -22.937  -8.463 -31.082  1.00  0.00     0.157 HD
ATOM     29  H61 UNL     1     -22.760  -7.834 -32.661  1.00  0.00     0.157 HD
ENDBRANCH  19  27
ENDBRANCH  11  14
ENDBRANCH   7  11
BRANCH   8  30
HETATM   30  C11 UNL     1     -17.774 -12.065 -36.370  1.00  0.00     0.355 C 
BRANCH  30  31
HETATM   31  O3  UNL     1     -17.276 -11.081 -37.229  1.00  0.00    -0.368 OA
ATOM     32  H3  UNL     1     -16.955 -10.319 -36.761  1.00  0.00     0.212 HD
ENDBRANCH  30  31
BRANCH  30  33
HETATM   33  N7  UNL     1     -17.517 -11.689 -34.970  1.00  0.00    -0.036 N 
ATOM     34  H72 UNL     1     -18.311 -11.880 -34.360  1.00  0.00     0.281 HD
ATOM     35  H71 UNL     1     -16.842 -12.304 -34.516  1.00  0.00     0.281 HD
BRANCH  33  36
HETATM   36  C12 UNL     1     -17.109 -10.290 -34.941  1.00  0.00     0.266 C 
BRANCH  36  37
HETATM   37  C13 UNL     1     -18.331  -9.412 -34.950  1.00  0.00     0.202 C 
BRANCH  37  38
HETATM   38  O4  UNL     1     -17.953  -8.090 -35.207  1.00  0.00    -0.399 OA
ATOM     39  H4  UNL     1     -17.934  -7.601 -34.393  1.00  0.00     0.209 HD
ENDBRANCH  37  38
ENDBRANCH  36  37
BRANCH  36  40
HETATM   40  C14 UNL     1     -16.324  -9.981 -33.681  1.00  0.00     0.286 C 
BRANCH  40  41
HETATM   41  O5  UNL     1     -17.136  -9.197 -32.867  1.00  0.00    -0.369 OA
ATOM     42  H5  UNL     1     -17.972  -9.642 -32.787  1.00  0.00     0.212 HD
ENDBRANCH  40  41
BRANCH  40  43
HETATM   43  O6  UNL     1     -16.066 -11.162 -32.978  1.00  0.00    -0.369 OA
ATOM     44  H6  UNL     1     -15.236 -11.091 -32.521  1.00  0.00     0.212 HD
ENDBRANCH  40  43
ENDBRANCH  36  40
ENDBRANCH  33  36
ENDBRANCH  30  33
ENDBRANCH   8  30
TORSDOF 15
ENDMDL
