MODEL 1
REMARK VINA RESULT: -5.830480600      0.000      0.000
REMARK  13 active torsions:
REMARK  status: ('A' for Active; 'I' for Inactive)
REMARK    1  A    between atoms: N1_1  and  C1_5 
REMARK    2  A    between atoms: C3_8  and  O2_9 
REMARK    3  A    between atoms: O2_9  and  C4_10 
REMARK    4  A    between atoms: C5_11  and  N2_12 
REMARK    5  A    between atoms: C7_17  and  N3_18 
REMARK    6  A    between atoms: C8_22  and  O3_23 
REMARK    7  A    between atoms: O3_23  and  C9_24 
REMARK    8  A    between atoms: C12_30  and  O5_31 
REMARK    9  A    between atoms: O5_31  and  C13_32 
REMARK   10  A    between atoms: C15_37  and  N6_38 
REMARK   11  A    between atoms: N6_38  and  O6_39 
REMARK   12  A    between atoms: C16_41  and  O7_42 
REMARK   13  A    between atoms: C17_44  and  N7_45 
ROOT
HETATM    1  C4  UNL     1     -20.910 -14.858 -33.950  1.00  0.00     0.186 C 
HETATM    2  C5  UNL     1     -22.395 -14.885 -34.056  1.00  0.00     0.217 C 
HETATM    3  C6  UNL     1     -22.927 -14.411 -35.378  1.00  0.00     0.071 C 
HETATM    4  C7  UNL     1     -22.319 -13.136 -35.859  1.00  0.00     0.217 C 
HETATM    5  C8  UNL     1     -20.985 -12.817 -35.272  1.00  0.00     0.186 C 
HETATM    6  C12 UNL     1     -20.246 -14.153 -35.118  1.00  0.00     0.184 C 
ENDROOT
BRANCH   1   7
HETATM    7  O2  UNL     1     -20.382 -16.139 -33.882  1.00  0.00    -0.349 OA
BRANCH   7   8
HETATM    8  C3  UNL     1     -20.593 -16.789 -32.711  1.00  0.00     0.290 C 
HETATM    9  O1  UNL     1     -20.914 -18.136 -32.837  1.00  0.00    -0.357 OA
HETATM   10  C2  UNL     1     -21.528 -18.536 -31.673  1.00  0.00     0.203 C 
HETATM   11  C1  UNL     1     -20.735 -18.329 -30.435  1.00  0.00     0.209 C 
HETATM   12  C18 UNL     1     -19.982 -17.039 -30.375  1.00  0.00     0.072 C 
HETATM   13  C17 UNL     1     -19.418 -16.716 -31.744  1.00  0.00     0.240 C 
BRANCH  11  14
HETATM   14  N1  UNL     1     -21.680 -18.322 -29.307  1.00  0.00    -0.073 N 
ATOM     15  H13 UNL     1     -21.352 -17.771 -28.514  1.00  0.00     0.274 HD
ATOM     16  H12 UNL     1     -22.526 -17.786 -29.498  1.00  0.00     0.274 HD
ATOM     17  H11 UNL     1     -21.870 -19.295 -29.065  1.00  0.00     0.274 HD
ENDBRANCH  11  14
BRANCH  13  18
HETATM   18  N7  UNL     1     -18.436 -17.749 -32.046  1.00  0.00    -0.070 N 
ATOM     19  H73 UNL     1     -18.524 -18.084 -33.005  1.00  0.00     0.274 HD
ATOM     20  H72 UNL     1     -17.491 -17.367 -32.104  1.00  0.00     0.274 HD
ATOM     21  H71 UNL     1     -18.494 -18.511 -31.372  1.00  0.00     0.274 HD
ENDBRANCH  13  18
ENDBRANCH   7   8
ENDBRANCH   1   7
BRANCH   2  22
HETATM   22  N2  UNL     1     -23.052 -14.160 -32.964  1.00  0.00    -0.072 N 
ATOM     23  H23 UNL     1     -23.961 -14.570 -32.747  1.00  0.00     0.274 HD
ATOM     24  H22 UNL     1     -22.579 -14.328 -32.076  1.00  0.00     0.274 HD
ATOM     25  H21 UNL     1     -23.137 -13.160 -33.150  1.00  0.00     0.274 HD
ENDBRANCH   2  22
BRANCH   6  26
HETATM   26  O5  UNL     1     -20.386 -14.821 -36.309  1.00  0.00    -0.371 OA
BRANCH  26  27
HETATM   27  C13 UNL     1     -19.410 -14.559 -37.231  1.00  0.00     0.180 C 
HETATM   28  C14 UNL     1     -18.108 -14.302 -36.487  1.00  0.00     0.268 C 
HETATM   29  N5  UNL     1     -17.149 -14.375 -37.584  1.00  0.00    -0.050 N 
HETATM   30  C15 UNL     1     -17.546 -15.576 -38.276  1.00  0.00     0.335 C 
ATOM     31  H52 UNL     1     -17.105 -13.541 -38.168  1.00  0.00     0.279 HD
ATOM     32  H51 UNL     1     -16.171 -14.352 -37.297  1.00  0.00     0.279 HD
HETATM   33  C16 UNL     1     -19.033 -15.745 -38.085  1.00  0.00     0.197 C 
BRANCH  30  34
HETATM   34  N6  UNL     1     -16.816 -16.748 -37.833  1.00  0.00    -0.067 NA
BRANCH  34  35
HETATM   35  O6  UNL     1     -17.032 -17.743 -38.720  1.00  0.00    -0.294 OA
ATOM     36  H6  UNL     1     -17.970 -17.866 -38.808  1.00  0.00     0.238 HD
ENDBRANCH  34  35
ENDBRANCH  30  34
BRANCH  33  37
HETATM   37  O7  UNL     1     -19.636 -15.736 -39.330  1.00  0.00    -0.389 OA
ATOM     38  H7  UNL     1     -20.580 -15.645 -39.289  1.00  0.00     0.210 HD
ENDBRANCH  33  37
ENDBRANCH  26  27
ENDBRANCH   6  26
BRANCH   5  39
HETATM   39  O3  UNL     1     -21.049 -12.181 -34.048  1.00  0.00    -0.349 OA
BRANCH  39  40
HETATM   40  C9  UNL     1     -20.263 -11.062 -33.943  1.00  0.00     0.285 C 
HETATM   41  C10 UNL     1     -19.875 -10.778 -32.479  1.00  0.00     0.181 C 
HETATM   42  N4  UNL     1     -18.619 -10.061 -32.710  1.00  0.00    -0.376 N 
HETATM   43  C11 UNL     1     -18.127 -10.330 -33.857  1.00  0.00     0.225 C 
ATOM     44  H4  UNL     1     -18.190  -9.427 -32.036  1.00  0.00     0.160 HD
HETATM   45  O4  UNL     1     -18.971 -11.220 -34.489  1.00  0.00    -0.315 OA
ENDBRANCH  39  40
ENDBRANCH   5  39
BRANCH   4  46
HETATM   46  N3  UNL     1     -23.256 -12.013 -35.735  1.00  0.00    -0.072 N 
ATOM     47  H33 UNL     1     -24.224 -12.334 -35.719  1.00  0.00     0.274 HD
ATOM     48  H32 UNL     1     -23.214 -11.592 -34.808  1.00  0.00     0.274 HD
ATOM     49  H31 UNL     1     -23.106 -11.319 -36.467  1.00  0.00     0.274 HD
ENDBRANCH   4  46
TORSDOF 13
ENDMDL
MODEL 2
REMARK VINA RESULT: -5.752474740      4.041      7.728
REMARK  13 active torsions:
REMARK  status: ('A' for Active; 'I' for Inactive)
REMARK    1  A    between atoms: N1_1  and  C1_5 
REMARK    2  A    between atoms: C3_8  and  O2_9 
REMARK    3  A    between atoms: O2_9  and  C4_10 
REMARK    4  A    between atoms: C5_11  and  N2_12 
REMARK    5  A    between atoms: C7_17  and  N3_18 
REMARK    6  A    between atoms: C8_22  and  O3_23 
REMARK    7  A    between atoms: O3_23  and  C9_24 
REMARK    8  A    between atoms: C12_30  and  O5_31 
REMARK    9  A    between atoms: O5_31  and  C13_32 
REMARK   10  A    between atoms: C15_37  and  N6_38 
REMARK   11  A    between atoms: N6_38  and  O6_39 
REMARK   12  A    between atoms: C16_41  and  O7_42 
REMARK   13  A    between atoms: C17_44  and  N7_45 
ROOT
HETATM    1  C4  UNL     1     -19.574 -10.205 -37.265  1.00  0.00     0.186 C 
HETATM    2  C5  UNL     1     -18.311  -9.508 -36.891  1.00  0.00     0.217 C 
HETATM    3  C6  UNL     1     -17.261 -10.409 -36.307  1.00  0.00     0.071 C 
HETATM    4  C7  UNL     1     -17.767 -11.332 -35.249  1.00  0.00     0.217 C 
HETATM    5  C8  UNL     1     -19.235 -11.591 -35.295  1.00  0.00     0.186 C 
HETATM    6  C12 UNL     1     -19.624 -11.641 -36.779  1.00  0.00     0.184 C 
ENDROOT
BRANCH   1   7
HETATM    7  O2  UNL     1     -19.757 -10.224 -38.639  1.00  0.00    -0.349 OA
BRANCH   7   8
HETATM    8  C3  UNL     1     -19.557  -9.037 -39.265  1.00  0.00     0.290 C 
HETATM    9  O1  UNL     1     -19.025  -9.131 -40.546  1.00  0.00    -0.357 OA
HETATM   10  C2  UNL     1     -18.466  -7.917 -40.865  1.00  0.00     0.203 C 
HETATM   11  C1  UNL     1     -19.390  -6.756 -40.794  1.00  0.00     0.209 C 
HETATM   12  C18 UNL     1     -20.331  -6.766 -39.634  1.00  0.00     0.072 C 
HETATM   13  C17 UNL     1     -20.811  -8.181 -39.382  1.00  0.00     0.240 C 
BRANCH  11  14
HETATM   14  N1  UNL     1     -18.562  -5.546 -40.659  1.00  0.00    -0.073 N 
ATOM     15  H13 UNL     1     -17.563  -5.736 -40.733  1.00  0.00     0.274 HD
ATOM     16  H12 UNL     1     -18.637  -4.920 -41.461  1.00  0.00     0.274 HD
ATOM     17  H11 UNL     1     -18.820  -5.100 -39.779  1.00  0.00     0.274 HD
ENDBRANCH  11  14
BRANCH  13  18
HETATM   18  N7  UNL     1     -21.595  -8.571 -40.547  1.00  0.00    -0.070 N 
ATOM     19  H73 UNL     1     -21.280  -8.094 -41.391  1.00  0.00     0.274 HD
ATOM     20  H72 UNL     1     -21.399  -9.531 -40.831  1.00  0.00     0.274 HD
ATOM     21  H71 UNL     1     -22.590  -8.423 -40.378  1.00  0.00     0.274 HD
ENDBRANCH  13  18
ENDBRANCH   7   8
ENDBRANCH   1   7
BRANCH   2  22
HETATM   22  N2  UNL     1     -18.539  -8.364 -36.003  1.00  0.00    -0.072 N 
ATOM     23  H23 UNL     1     -19.162  -7.682 -36.437  1.00  0.00     0.274 HD
ATOM     24  H22 UNL     1     -19.114  -8.630 -35.204  1.00  0.00     0.274 HD
ATOM     25  H21 UNL     1     -17.670  -7.924 -35.698  1.00  0.00     0.274 HD
ENDBRANCH   2  22
BRANCH   6  26
HETATM   26  O5  UNL     1     -18.711 -12.458 -37.398  1.00  0.00    -0.371 OA
BRANCH  26  27
HETATM   27  C13 UNL     1     -19.124 -13.751 -37.570  1.00  0.00     0.180 C 
HETATM   28  C14 UNL     1     -18.803 -14.168 -38.998  1.00  0.00     0.268 C 
HETATM   29  N5  UNL     1     -18.988 -15.612 -38.908  1.00  0.00    -0.050 N 
HETATM   30  C15 UNL     1     -18.267 -15.952 -37.707  1.00  0.00     0.335 C 
ATOM     31  H52 UNL     1     -19.961 -15.919 -38.923  1.00  0.00     0.279 HD
ATOM     32  H51 UNL     1     -18.704 -16.131 -39.738  1.00  0.00     0.279 HD
HETATM   33  C16 UNL     1     -18.330 -14.763 -36.782  1.00  0.00     0.197 C 
BRANCH  30  34
HETATM   34  N6  UNL     1     -16.898 -16.354 -37.967  1.00  0.00    -0.067 NA
BRANCH  34  35
HETATM   35  O6  UNL     1     -16.916 -17.567 -38.559  1.00  0.00    -0.294 OA
ATOM     36  H6  UNL     1     -16.019 -17.858 -38.672  1.00  0.00     0.238 HD
ENDBRANCH  34  35
ENDBRANCH  30  34
BRANCH  33  37
HETATM   37  O7  UNL     1     -18.953 -15.155 -35.610  1.00  0.00    -0.389 OA
ATOM     38  H7  UNL     1     -19.299 -16.038 -35.646  1.00  0.00     0.210 HD
ENDBRANCH  33  37
ENDBRANCH  26  27
ENDBRANCH   6  26
BRANCH   5  39
HETATM   39  O3  UNL     1     -19.994 -10.635 -34.651  1.00  0.00    -0.349 OA
BRANCH  39  40
HETATM   40  C9  UNL     1     -20.621 -11.073 -33.512  1.00  0.00     0.285 C 
HETATM   41  C10 UNL     1     -20.836 -12.598 -33.534  1.00  0.00     0.181 C 
HETATM   42  N4  UNL     1     -20.856 -12.848 -32.092  1.00  0.00    -0.376 N 
HETATM   43  C11 UNL     1     -20.276 -11.913 -31.443  1.00  0.00     0.225 C 
ATOM     44  H4  UNL     1     -21.281 -13.668 -31.658  1.00  0.00     0.160 HD
HETATM   45  O4  UNL     1     -19.824 -10.977 -32.351  1.00  0.00    -0.315 OA
ENDBRANCH  39  40
ENDBRANCH   5  39
BRANCH   4  46
HETATM   46  N3  UNL     1     -17.325 -10.913 -33.914  1.00  0.00    -0.072 N 
ATOM     47  H33 UNL     1     -16.839 -10.017 -33.946  1.00  0.00     0.274 HD
ATOM     48  H32 UNL     1     -18.114 -10.644 -33.326  1.00  0.00     0.274 HD
ATOM     49  H31 UNL     1     -16.754 -11.630 -33.467  1.00  0.00     0.274 HD
ENDBRANCH   4  46
TORSDOF 13
ENDMDL
MODEL 3
REMARK VINA RESULT: -5.736674429      3.196      5.309
REMARK  13 active torsions:
REMARK  status: ('A' for Active; 'I' for Inactive)
REMARK    1  A    between atoms: N1_1  and  C1_5 
REMARK    2  A    between atoms: C3_8  and  O2_9 
REMARK    3  A    between atoms: O2_9  and  C4_10 
REMARK    4  A    between atoms: C5_11  and  N2_12 
REMARK    5  A    between atoms: C7_17  and  N3_18 
REMARK    6  A    between atoms: C8_22  and  O3_23 
REMARK    7  A    between atoms: O3_23  and  C9_24 
REMARK    8  A    between atoms: C12_30  and  O5_31 
REMARK    9  A    between atoms: O5_31  and  C13_32 
REMARK   10  A    between atoms: C15_37  and  N6_38 
REMARK   11  A    between atoms: N6_38  and  O6_39 
REMARK   12  A    between atoms: C16_41  and  O7_42 
REMARK   13  A    between atoms: C17_44  and  N7_45 
ROOT
HETATM    1  C4  UNL     1     -20.368 -13.280 -36.016  1.00  0.00     0.186 C 
HETATM    2  C5  UNL     1     -21.329 -13.623 -34.931  1.00  0.00     0.217 C 
HETATM    3  C6  UNL     1     -22.279 -12.514 -34.577  1.00  0.00     0.071 C 
HETATM    4  C7  UNL     1     -21.625 -11.185 -34.394  1.00  0.00     0.217 C 
HETATM    5  C8  UNL     1     -20.301 -11.041 -35.067  1.00  0.00     0.186 C 
HETATM    6  C12 UNL     1     -20.398 -11.811 -36.391  1.00  0.00     0.184 C 
ENDROOT
BRANCH   1   7
HETATM    7  O2  UNL     1     -20.620 -14.009 -37.168  1.00  0.00    -0.349 OA
BRANCH   7   8
HETATM    8  C3  UNL     1     -19.597 -14.794 -37.590  1.00  0.00     0.290 C 
HETATM    9  O1  UNL     1     -19.320 -14.715 -38.951  1.00  0.00    -0.357 OA
HETATM   10  C2  UNL     1     -18.617 -15.842 -39.306  1.00  0.00     0.203 C 
HETATM   11  C1  UNL     1     -17.356 -16.066 -38.555  1.00  0.00     0.209 C 
HETATM   12  C18 UNL     1     -17.430 -15.768 -37.092  1.00  0.00     0.072 C 
HETATM   13  C17 UNL     1     -18.281 -14.534 -36.868  1.00  0.00     0.240 C 
BRANCH  11  14
HETATM   14  N1  UNL     1     -17.020 -17.493 -38.681  1.00  0.00    -0.073 N 
ATOM     15  H13 UNL     1     -17.752 -18.109 -38.328  1.00  0.00     0.274 HD
ATOM     16  H12 UNL     1     -17.026 -17.821 -39.646  1.00  0.00     0.274 HD
ATOM     17  H11 UNL     1     -16.122 -17.635 -38.217  1.00  0.00     0.274 HD
ENDBRANCH  11  14
BRANCH  13  18
HETATM   18  N7  UNL     1     -17.569 -13.418 -37.477  1.00  0.00    -0.070 N 
ATOM     19  H73 UNL     1     -17.535 -13.501 -38.493  1.00  0.00     0.274 HD
ATOM     20  H72 UNL     1     -18.101 -12.550 -37.412  1.00  0.00     0.274 HD
ATOM     21  H71 UNL     1     -16.637 -13.321 -37.074  1.00  0.00     0.274 HD
ENDBRANCH  13  18
ENDBRANCH   7   8
ENDBRANCH   1   7
BRANCH   2  22
HETATM   22  N2  UNL     1     -20.664 -14.117 -33.722  1.00  0.00    -0.072 N 
ATOM     23  H23 UNL     1     -21.325 -14.200 -32.948  1.00  0.00     0.274 HD
ATOM     24  H22 UNL     1     -20.403 -15.098 -33.822  1.00  0.00     0.274 HD
ATOM     25  H21 UNL     1     -19.859 -13.550 -33.456  1.00  0.00     0.274 HD
ENDBRANCH   2  22
BRANCH   6  26
HETATM   26  O5  UNL     1     -21.573 -11.424 -36.986  1.00  0.00    -0.371 OA
BRANCH  26  27
HETATM   27  C13 UNL     1     -21.440 -10.954 -38.265  1.00  0.00     0.180 C 
HETATM   28  C14 UNL     1     -21.684  -9.453 -38.249  1.00  0.00     0.268 C 
HETATM   29  N5  UNL     1     -21.188  -9.083 -39.569  1.00  0.00    -0.050 N 
HETATM   30  C15 UNL     1     -19.923  -9.769 -39.640  1.00  0.00     0.335 C 
ATOM     31  H52 UNL     1     -21.827  -9.287 -40.337  1.00  0.00     0.279 HD
ATOM     32  H51 UNL     1     -21.140  -8.079 -39.740  1.00  0.00     0.279 HD
HETATM   33  C16 UNL     1     -20.031 -11.018 -38.802  1.00  0.00     0.197 C 
BRANCH  30  34
HETATM   34  N6  UNL     1     -18.809  -8.940 -39.218  1.00  0.00    -0.067 NA
BRANCH  34  35
HETATM   35  O6  UNL     1     -18.073  -9.639 -38.327  1.00  0.00    -0.294 OA
ATOM     36  H6  UNL     1     -17.298  -9.133 -38.117  1.00  0.00     0.238 HD
ENDBRANCH  34  35
ENDBRANCH  30  34
BRANCH  33  37
HETATM   37  O7  UNL     1     -19.808 -12.112 -39.620  1.00  0.00    -0.389 OA
ATOM     38  H7  UNL     1     -19.909 -12.943 -39.172  1.00  0.00     0.210 HD
ENDBRANCH  33  37
ENDBRANCH  26  27
ENDBRANCH   6  26
BRANCH   5  39
HETATM   39  O3  UNL     1     -19.241 -11.526 -34.328  1.00  0.00    -0.349 OA
BRANCH  39  40
HETATM   40  C9  UNL     1     -18.239 -10.618 -34.098  1.00  0.00     0.285 C 
HETATM   41  C10 UNL     1     -18.278 -10.087 -32.652  1.00  0.00     0.181 C 
HETATM   42  N4  UNL     1     -16.863  -9.743 -32.496  1.00  0.00    -0.376 N 
HETATM   43  C11 UNL     1     -16.130 -10.379 -33.326  1.00  0.00     0.225 C 
ATOM     44  H4  UNL     1     -16.507  -9.078 -31.810  1.00  0.00     0.160 HD
HETATM   45  O4  UNL     1     -16.947 -11.184 -34.093  1.00  0.00    -0.315 OA
ENDBRANCH  39  40
ENDBRANCH   5  39
BRANCH   4  46
HETATM   46  N3  UNL     1     -21.566 -10.805 -32.978  1.00  0.00    -0.072 N 
ATOM     47  H33 UNL     1     -20.771 -10.195 -32.788  1.00  0.00     0.274 HD
ATOM     48  H32 UNL     1     -22.319 -10.164 -32.731  1.00  0.00     0.274 HD
ATOM     49  H31 UNL     1     -21.560 -11.625 -32.371  1.00  0.00     0.274 HD
ENDBRANCH   4  46
TORSDOF 13
ENDMDL
MODEL 4
REMARK VINA RESULT: -5.722710237      4.164      7.843
REMARK  13 active torsions:
REMARK  status: ('A' for Active; 'I' for Inactive)
REMARK    1  A    between atoms: N1_1  and  C1_5 
REMARK    2  A    between atoms: C3_8  and  O2_9 
REMARK    3  A    between atoms: O2_9  and  C4_10 
REMARK    4  A    between atoms: C5_11  and  N2_12 
REMARK    5  A    between atoms: C7_17  and  N3_18 
REMARK    6  A    between atoms: C8_22  and  O3_23 
REMARK    7  A    between atoms: O3_23  and  C9_24 
REMARK    8  A    between atoms: C12_30  and  O5_31 
REMARK    9  A    between atoms: O5_31  and  C13_32 
REMARK   10  A    between atoms: C15_37  and  N6_38 
REMARK   11  A    between atoms: N6_38  and  O6_39 
REMARK   12  A    between atoms: C16_41  and  O7_42 
REMARK   13  A    between atoms: C17_44  and  N7_45 
ROOT
HETATM    1  C4  UNL     1     -19.365 -10.262 -37.792  1.00  0.00     0.186 C 
HETATM    2  C5  UNL     1     -18.243  -9.595 -37.075  1.00  0.00     0.217 C 
HETATM    3  C6  UNL     1     -17.494 -10.492 -36.131  1.00  0.00     0.071 C 
HETATM    4  C7  UNL     1     -18.371 -11.305 -35.238  1.00  0.00     0.217 C 
HETATM    5  C8  UNL     1     -19.763 -11.503 -35.738  1.00  0.00     0.186 C 
HETATM    6  C12 UNL     1     -19.663 -11.652 -37.262  1.00  0.00     0.184 C 
ENDROOT
BRANCH   1   7
HETATM    7  O2  UNL     1     -19.103 -10.381 -39.148  1.00  0.00    -0.349 OA
BRANCH   7   8
HETATM    8  C3  UNL     1     -19.464  -9.312 -39.902  1.00  0.00     0.290 C 
HETATM    9  O1  UNL     1     -18.405  -8.560 -40.398  1.00  0.00    -0.357 OA
HETATM   10  C2  UNL     1     -18.887  -7.316 -40.729  1.00  0.00     0.203 C 
HETATM   11  C1  UNL     1     -20.002  -7.309 -41.709  1.00  0.00     0.209 C 
HETATM   12  C18 UNL     1     -21.024  -8.382 -41.512  1.00  0.00     0.072 C 
HETATM   13  C17 UNL     1     -20.336  -9.667 -41.099  1.00  0.00     0.240 C 
BRANCH  11  14
HETATM   14  N1  UNL     1     -20.704  -6.023 -41.563  1.00  0.00    -0.073 N 
ATOM     15  H13 UNL     1     -20.790  -5.723 -40.592  1.00  0.00     0.274 HD
ATOM     16  H12 UNL     1     -20.157  -5.230 -41.898  1.00  0.00     0.274 HD
ATOM     17  H11 UNL     1     -21.604  -6.114 -42.033  1.00  0.00     0.274 HD
ENDBRANCH  11  14
BRANCH  13  18
HETATM   18  N7  UNL     1     -19.517 -10.086 -42.229  1.00  0.00    -0.070 N 
ATOM     19  H73 UNL     1     -19.605  -9.444 -43.017  1.00  0.00     0.274 HD
ATOM     20  H72 UNL     1     -18.522  -9.962 -42.041  1.00  0.00     0.274 HD
ATOM     21  H71 UNL     1     -19.735 -11.046 -42.497  1.00  0.00     0.274 HD
ENDBRANCH  13  18
ENDBRANCH   7   8
ENDBRANCH   1   7
BRANCH   2  22
HETATM   22  N2  UNL     1     -18.663  -8.375 -36.378  1.00  0.00    -0.072 N 
ATOM     23  H23 UNL     1     -18.739  -7.591 -37.027  1.00  0.00     0.274 HD
ATOM     24  H22 UNL     1     -19.636  -8.440 -36.082  1.00  0.00     0.274 HD
ATOM     25  H21 UNL     1     -18.055  -8.142 -35.592  1.00  0.00     0.274 HD
ENDBRANCH   2  22
BRANCH   6  26
HETATM   26  O5  UNL     1     -18.658 -12.555 -37.504  1.00  0.00    -0.371 OA
BRANCH  26  27
HETATM   27  C13 UNL     1     -19.071 -13.854 -37.622  1.00  0.00     0.180 C 
HETATM   28  C14 UNL     1     -18.734 -14.336 -39.024  1.00  0.00     0.268 C 
HETATM   29  N5  UNL     1     -18.923 -15.774 -38.870  1.00  0.00    -0.050 N 
HETATM   30  C15 UNL     1     -18.216 -16.060 -37.647  1.00  0.00     0.335 C 
ATOM     31  H52 UNL     1     -19.895 -16.080 -38.882  1.00  0.00     0.279 HD
ATOM     32  H51 UNL     1     -18.630 -16.331 -39.673  1.00  0.00     0.279 HD
HETATM   33  C16 UNL     1     -18.287 -14.829 -36.778  1.00  0.00     0.197 C 
BRANCH  30  34
HETATM   34  N6  UNL     1     -16.844 -16.474 -37.873  1.00  0.00    -0.067 NA
BRANCH  34  35
HETATM   35  O6  UNL     1     -16.859 -17.618 -38.591  1.00  0.00    -0.294 OA
ATOM     36  H6  UNL     1     -17.444 -17.499 -39.330  1.00  0.00     0.238 HD
ENDBRANCH  34  35
ENDBRANCH  30  34
BRANCH  33  37
HETATM   37  O7  UNL     1     -18.924 -15.166 -35.597  1.00  0.00    -0.389 OA
ATOM     38  H7  UNL     1     -19.051 -16.101 -35.492  1.00  0.00     0.210 HD
ENDBRANCH  33  37
ENDBRANCH  26  27
ENDBRANCH   6  26
BRANCH   5  39
HETATM   39  O3  UNL     1     -20.621 -10.466 -35.431  1.00  0.00    -0.349 OA
BRANCH  39  40
HETATM   40  C9  UNL     1     -21.639 -10.800 -34.574  1.00  0.00     0.285 C 
HETATM   41  C10 UNL     1     -21.884 -12.321 -34.551  1.00  0.00     0.181 C 
HETATM   42  N4  UNL     1     -22.445 -12.442 -33.204  1.00  0.00    -0.376 N 
HETATM   43  C11 UNL     1     -22.113 -11.455 -32.465  1.00  0.00     0.225 C 
ATOM     44  H4  UNL     1     -23.029 -13.219 -32.894  1.00  0.00     0.160 HD
HETATM   45  O4  UNL     1     -21.325 -10.604 -33.213  1.00  0.00    -0.315 OA
ENDBRANCH  39  40
ENDBRANCH   5  39
BRANCH   4  46
HETATM   46  N3  UNL     1     -18.348 -10.802 -33.860  1.00  0.00    -0.072 N 
ATOM     47  H33 UNL     1     -17.539 -10.205 -33.694  1.00  0.00     0.274 HD
ATOM     48  H32 UNL     1     -19.086 -10.117 -33.700  1.00  0.00     0.274 HD
ATOM     49  H31 UNL     1     -18.393 -11.564 -33.183  1.00  0.00     0.274 HD
ENDBRANCH   4  46
TORSDOF 13
ENDMDL
MODEL 5
REMARK VINA RESULT: -5.711289479      3.506      6.977
REMARK  13 active torsions:
REMARK  status: ('A' for Active; 'I' for Inactive)
REMARK    1  A    between atoms: N1_1  and  C1_5 
REMARK    2  A    between atoms: C3_8  and  O2_9 
REMARK    3  A    between atoms: O2_9  and  C4_10 
REMARK    4  A    between atoms: C5_11  and  N2_12 
REMARK    5  A    between atoms: C7_17  and  N3_18 
REMARK    6  A    between atoms: C8_22  and  O3_23 
REMARK    7  A    between atoms: O3_23  and  C9_24 
REMARK    8  A    between atoms: C12_30  and  O5_31 
REMARK    9  A    between atoms: O5_31  and  C13_32 
REMARK   10  A    between atoms: C15_37  and  N6_38 
REMARK   11  A    between atoms: N6_38  and  O6_39 
REMARK   12  A    between atoms: C16_41  and  O7_42 
REMARK   13  A    between atoms: C17_44  and  N7_45 
ROOT
HETATM    1  C4  UNL     1     -19.352 -10.309 -37.714  1.00  0.00     0.186 C 
HETATM    2  C5  UNL     1     -18.218  -9.615 -37.043  1.00  0.00     0.217 C 
HETATM    3  C6  UNL     1     -17.445 -10.481 -36.088  1.00  0.00     0.071 C 
HETATM    4  C7  UNL     1     -18.298 -11.270 -35.152  1.00  0.00     0.217 C 
HETATM    5  C8  UNL     1     -19.699 -11.489 -35.616  1.00  0.00     0.186 C 
HETATM    6  C12 UNL     1     -19.631 -11.684 -37.136  1.00  0.00     0.184 C 
ENDROOT
BRANCH   1   7
HETATM    7  O2  UNL     1     -19.118 -10.468 -39.072  1.00  0.00    -0.349 OA
BRANCH   7   8
HETATM    8  C3  UNL     1     -20.191 -10.870 -39.799  1.00  0.00     0.290 C 
HETATM    9  O1  UNL     1     -21.125  -9.876 -40.066  1.00  0.00    -0.357 OA
HETATM   10  C2  UNL     1     -22.315 -10.486 -40.385  1.00  0.00     0.203 C 
HETATM   11  C1  UNL     1     -22.256 -11.431 -41.528  1.00  0.00     0.209 C 
HETATM   12  C18 UNL     1     -21.038 -12.297 -41.571  1.00  0.00     0.072 C 
HETATM   13  C17 UNL     1     -19.828 -11.491 -41.142  1.00  0.00     0.240 C 
BRANCH  11  14
HETATM   14  N1  UNL     1     -23.413 -12.333 -41.409  1.00  0.00    -0.073 N 
ATOM     15  H13 UNL     1     -24.185 -11.925 -40.882  1.00  0.00     0.274 HD
ATOM     16  H12 UNL     1     -23.910 -12.463 -42.290  1.00  0.00     0.274 HD
ATOM     17  H11 UNL     1     -23.075 -13.208 -41.009  1.00  0.00     0.274 HD
ENDBRANCH  11  14
BRANCH  13  18
HETATM   18  N7  UNL     1     -19.632 -10.460 -42.152  1.00  0.00    -0.070 N 
ATOM     19  H73 UNL     1     -18.645 -10.326 -42.368  1.00  0.00     0.274 HD
ATOM     20  H72 UNL     1     -19.950 -10.765 -43.072  1.00  0.00     0.274 HD
ATOM     21  H71 UNL     1     -20.079  -9.587 -41.868  1.00  0.00     0.274 HD
ENDBRANCH  13  18
ENDBRANCH   7   8
ENDBRANCH   1   7
BRANCH   2  22
HETATM   22  N2  UNL     1     -18.630  -8.377 -36.374  1.00  0.00    -0.072 N 
ATOM     23  H23 UNL     1     -18.754  -7.621 -37.048  1.00  0.00     0.274 HD
ATOM     24  H22 UNL     1     -19.586  -8.449 -36.027  1.00  0.00     0.274 HD
ATOM     25  H21 UNL     1     -17.990  -8.101 -35.629  1.00  0.00     0.274 HD
ENDBRANCH   2  22
BRANCH   6  26
HETATM   26  O5  UNL     1     -18.627 -12.589 -37.373  1.00  0.00    -0.371 OA
BRANCH  26  27
HETATM   27  C13 UNL     1     -19.047 -13.881 -37.535  1.00  0.00     0.180 C 
HETATM   28  C14 UNL     1     -18.705 -14.319 -38.952  1.00  0.00     0.268 C 
HETATM   29  N5  UNL     1     -18.903 -15.760 -38.846  1.00  0.00    -0.050 N 
HETATM   30  C15 UNL     1     -18.205 -16.090 -37.629  1.00  0.00     0.335 C 
ATOM     31  H52 UNL     1     -19.877 -16.060 -38.874  1.00  0.00     0.279 HD
ATOM     32  H51 UNL     1     -18.608 -16.292 -39.665  1.00  0.00     0.279 HD
HETATM   33  C16 UNL     1     -18.273 -14.889 -36.721  1.00  0.00     0.197 C 
BRANCH  30  34
HETATM   34  N6  UNL     1     -16.834 -16.505 -37.861  1.00  0.00    -0.067 NA
BRANCH  34  35
HETATM   35  O6  UNL     1     -16.852 -17.639 -38.595  1.00  0.00    -0.294 OA
ATOM     36  H6  UNL     1     -16.478 -18.338 -38.072  1.00  0.00     0.238 HD
ENDBRANCH  34  35
ENDBRANCH  30  34
BRANCH  33  37
HETATM   37  O7  UNL     1     -18.919 -15.260 -35.555  1.00  0.00    -0.389 OA
ATOM     38  H7  UNL     1     -19.778 -14.866 -35.460  1.00  0.00     0.210 HD
ENDBRANCH  33  37
ENDBRANCH  26  27
ENDBRANCH   6  26
BRANCH   5  39
HETATM   39  O3  UNL     1     -20.556 -10.447 -35.322  1.00  0.00    -0.349 OA
BRANCH  39  40
HETATM   40  C9  UNL     1     -21.551 -10.758 -34.430  1.00  0.00     0.285 C 
HETATM   41  C10 UNL     1     -21.780 -12.279 -34.343  1.00  0.00     0.181 C 
HETATM   42  N4  UNL     1     -22.308 -12.355 -32.980  1.00  0.00    -0.376 N 
HETATM   43  C11 UNL     1     -21.969 -11.337 -32.286  1.00  0.00     0.225 C 
ATOM     44  H4  UNL     1     -22.876 -13.125 -32.627  1.00  0.00     0.160 HD
HETATM   45  O4  UNL     1     -21.207 -10.507 -33.084  1.00  0.00    -0.315 OA
ENDBRANCH  39  40
ENDBRANCH   5  39
BRANCH   4  46
HETATM   46  N3  UNL     1     -18.248 -10.725 -33.790  1.00  0.00    -0.072 N 
ATOM     47  H33 UNL     1     -17.316 -10.814 -33.387  1.00  0.00     0.274 HD
ATOM     48  H32 UNL     1     -18.324  -9.708 -33.792  1.00  0.00     0.274 HD
ATOM     49  H31 UNL     1     -18.956 -11.151 -33.192  1.00  0.00     0.274 HD
ENDBRANCH   4  46
TORSDOF 13
ENDMDL
