MODEL 1
REMARK VINA RESULT: -7.753078418      0.000      0.000
REMARK  10 active torsions:
REMARK  status: ('A' for Active; 'I' for Inactive)
REMARK    1  A    between atoms: C2_2  and  N1_3 
REMARK    2  A    between atoms: C2_2  and  C8_23 
REMARK    3  A    between atoms: N1_3  and  C3_5 
REMARK    4  A    between atoms: C4_11  and  N5_12 
REMARK    5  A    between atoms: C8_23  and  C9_25 
REMARK    6  A    between atoms: C9_25  and  O5_26 
REMARK    7  A    between atoms: C9_25  and  C10_28 
REMARK    8  A    between atoms: C10_28  and  O6_29 
REMARK    9  A    between atoms: C10_28  and  N7_31 
REMARK   10  A    between atoms: C12_36  and  N9_37 
ROOT
HETATM    1  N7  UNL     1     -18.124 -11.203 -31.711  1.00  0.00    -0.343 N 
ATOM      2  H7  UNL     1     -18.209 -12.052 -32.269  1.00  0.00     0.164 HD
HETATM    3  C11 UNL     1     -18.743 -11.453 -30.703  1.00  0.00     0.143 A 
HETATM    4  N8  UNL     1     -19.332 -12.692 -30.598  1.00  0.00    -0.175 N 
ATOM      5  H8  UNL     1     -19.178 -13.380 -31.335  1.00  0.00     0.186 HD
HETATM    6  C12 UNL     1     -20.096 -13.019 -29.562  1.00  0.00     0.678 A 
HETATM    7  N10 UNL     1     -20.312 -12.154 -28.581  1.00  0.00    -0.177 N 
ATOM      8  H10 UNL     1     -20.900 -12.423 -27.793  1.00  0.00     0.185 HD
HETATM    9  C13 UNL     1     -19.768 -10.934 -28.610  1.00  0.00     0.156 A 
HETATM   10  N11 UNL     1     -19.984  -9.979 -27.560  1.00  0.00    -0.080 NA
HETATM   11  C14 UNL     1     -18.954 -10.536 -29.694  1.00  0.00     0.130 A 
HETATM   12  C15 UNL     1     -18.323  -9.227 -29.674  1.00  0.00     0.107 C 
HETATM   13  N12 UNL     1     -17.802  -8.202 -29.619  1.00  0.00    -0.191 NA
ENDROOT
BRANCH   1  14
HETATM   14  C10 UNL     1     -17.366 -10.369 -32.494  1.00  0.00     0.281 C 
BRANCH  14  15
HETATM   15  C9  UNL     1     -18.075  -9.742 -33.666  1.00  0.00     0.140 C 
BRANCH  15  16
HETATM   16  C8  UNL     1     -18.917 -10.583 -34.513  1.00  0.00     0.204 C 
HETATM   17  O4  UNL     1     -19.985 -10.951 -34.030  1.00  0.00    -0.288 OA
BRANCH  16  18
HETATM   18  C2  UNL     1     -18.595 -11.056 -35.861  1.00  0.00     0.156 C 
HETATM   19  C1  UNL     1     -17.315 -10.744 -36.506  1.00  0.00     0.041 C 
BRANCH  18  20
HETATM   20  N1  UNL     1     -18.954 -12.467 -35.996  1.00  0.00    -0.362 N 
ATOM     21  H1  UNL     1     -19.107 -13.039 -35.166  1.00  0.00     0.162 HD
BRANCH  20  22
HETATM   22  C3  UNL     1     -19.085 -13.019 -37.258  1.00  0.00     0.154 A 
HETATM   23  N2  UNL     1     -19.439 -12.387 -38.441  1.00  0.00    -0.268 N 
HETATM   24  N3  UNL     1     -19.450 -13.267 -39.429  1.00  0.00    -0.219 N 
ATOM     25  H2  UNL     1     -19.658 -11.395 -38.535  1.00  0.00     0.190 HD
HETATM   26  N4  UNL     1     -19.123 -14.450 -38.985  1.00  0.00    -0.062 N 
ATOM     27  H3  UNL     1     -19.682 -13.052 -40.399  1.00  0.00     0.209 HD
HETATM   28  C4  UNL     1     -19.014 -15.603 -39.710  1.00  0.00     0.703 C 
HETATM   29  C7  UNL     1     -18.893 -14.345 -37.670  1.00  0.00     0.196 A 
HETATM   30  N6  UNL     1     -18.087 -16.583 -39.508  1.00  0.00    -0.133 N 
HETATM   31  C5  UNL     1     -17.364 -16.781 -38.382  1.00  0.00     0.387 C 
ATOM     32  H6  UNL     1     -17.925 -17.229 -40.280  1.00  0.00     0.189 HD
HETATM   33  O1  UNL     1     -16.278 -17.392 -38.491  1.00  0.00    -0.237 OA
HETATM   34  O2  UNL     1     -17.728 -16.370 -37.180  1.00  0.00    -0.221 OA
HETATM   35  C6  UNL     1     -18.459 -15.326 -36.781  1.00  0.00     0.325 C 
HETATM   36  O3  UNL     1     -18.783 -15.176 -35.606  1.00  0.00    -0.257 OA
BRANCH  28  37
HETATM   37  N5  UNL     1     -19.846 -15.755 -40.656  1.00  0.00    -0.233 N 
ATOM     38  H52 UNL     1     -20.687 -16.301 -40.471  1.00  0.00     0.174 HD
ATOM     39  H51 UNL     1     -19.602 -15.320 -41.547  1.00  0.00     0.174 HD
ENDBRANCH  28  37
ENDBRANCH  20  22
ENDBRANCH  18  20
ENDBRANCH  16  18
ENDBRANCH  15  16
BRANCH  15  40
HETATM   40  O5  UNL     1     -18.582  -8.504 -33.415  1.00  0.00    -0.357 OA
ATOM     41  H5  UNL     1     -17.962  -7.793 -33.527  1.00  0.00     0.217 HD
ENDBRANCH  15  40
ENDBRANCH  14  15
BRANCH  14  42
HETATM   42  O6  UNL     1     -16.237 -11.106 -33.082  1.00  0.00    -0.370 OA
ATOM     43  H6  UNL     1     -15.706 -11.374 -32.341  1.00  0.00     0.212 HD
ENDBRANCH  14  42
ENDBRANCH   1  14
BRANCH   6  44
HETATM   44  N9  UNL     1     -20.647 -14.219 -29.548  1.00  0.00    -0.234 N 
ATOM     45  H92 UNL     1     -20.192 -15.014 -29.996  1.00  0.00     0.174 HD
ATOM     46  H91 UNL     1     -21.537 -14.334 -29.063  1.00  0.00     0.174 HD
ENDBRANCH   6  44
TORSDOF 10
ENDMDL
MODEL 2
REMARK VINA RESULT: -7.605878777      3.833      7.951
REMARK  10 active torsions:
REMARK  status: ('A' for Active; 'I' for Inactive)
REMARK    1  A    between atoms: C2_2  and  N1_3 
REMARK    2  A    between atoms: C2_2  and  C8_23 
REMARK    3  A    between atoms: N1_3  and  C3_5 
REMARK    4  A    between atoms: C4_11  and  N5_12 
REMARK    5  A    between atoms: C8_23  and  C9_25 
REMARK    6  A    between atoms: C9_25  and  O5_26 
REMARK    7  A    between atoms: C9_25  and  C10_28 
REMARK    8  A    between atoms: C10_28  and  O6_29 
REMARK    9  A    between atoms: C10_28  and  N7_31 
REMARK   10  A    between atoms: C12_36  and  N9_37 
ROOT
HETATM    1  N7  UNL     1     -19.352 -12.940 -38.430  1.00  0.00    -0.343 N 
ATOM      2  H7  UNL     1     -20.119 -12.604 -39.013  1.00  0.00     0.164 HD
HETATM    3  C11 UNL     1     -19.098 -14.031 -38.883  1.00  0.00     0.143 A 
HETATM    4  N8  UNL     1     -19.840 -14.474 -39.955  1.00  0.00    -0.175 N 
ATOM      5  H8  UNL     1     -20.530 -13.850 -40.372  1.00  0.00     0.186 HD
HETATM    6  C12 UNL     1     -19.680 -15.691 -40.462  1.00  0.00     0.678 A 
HETATM    7  N10 UNL     1     -18.785 -16.525 -39.952  1.00  0.00    -0.177 N 
ATOM      8  H10 UNL     1     -18.676 -17.454 -40.355  1.00  0.00     0.185 HD
HETATM    9  C13 UNL     1     -18.024 -16.163 -38.915  1.00  0.00     0.156 A 
HETATM   10  N11 UNL     1     -17.047 -17.046 -38.344  1.00  0.00    -0.080 NA
HETATM   11  C14 UNL     1     -18.162 -14.882 -38.335  1.00  0.00     0.130 A 
HETATM   12  C15 UNL     1     -17.279 -14.489 -37.249  1.00  0.00     0.107 C 
HETATM   13  N12 UNL     1     -16.545 -14.185 -36.417  1.00  0.00    -0.191 NA
ENDROOT
BRANCH   1  14
HETATM   14  C10 UNL     1     -19.144 -11.918 -37.537  1.00  0.00     0.281 C 
BRANCH  14  15
HETATM   15  C9  UNL     1     -19.772 -12.094 -36.179  1.00  0.00     0.140 C 
BRANCH  15  16
HETATM   16  C8  UNL     1     -21.154 -12.558 -36.094  1.00  0.00     0.204 C 
HETATM   17  O4  UNL     1     -21.799 -12.552 -37.140  1.00  0.00    -0.288 OA
BRANCH  16  18
HETATM   18  C2  UNL     1     -21.851 -12.992 -34.881  1.00  0.00     0.156 C 
HETATM   19  C1  UNL     1     -23.081 -12.340 -34.420  1.00  0.00     0.041 C 
BRANCH  18  20
HETATM   20  N1  UNL     1     -21.953 -14.450 -34.857  1.00  0.00    -0.362 N 
ATOM     21  H1  UNL     1     -22.782 -14.913 -35.229  1.00  0.00     0.162 HD
BRANCH  20  22
HETATM   22  C3  UNL     1     -20.916 -15.197 -34.326  1.00  0.00     0.154 A 
HETATM   23  N2  UNL     1     -19.787 -15.682 -34.971  1.00  0.00    -0.268 N 
HETATM   24  N3  UNL     1     -19.036 -16.349 -34.110  1.00  0.00    -0.219 N 
ATOM     25  H2  UNL     1     -19.570 -15.546 -35.958  1.00  0.00     0.190 HD
HETATM   26  N4  UNL     1     -19.587 -16.340 -32.927  1.00  0.00    -0.062 N 
ATOM     27  H3  UNL     1     -18.152 -16.805 -34.338  1.00  0.00     0.209 HD
HETATM   28  C4  UNL     1     -19.100 -16.911 -31.785  1.00  0.00     0.703 C 
HETATM   29  C7  UNL     1     -20.732 -15.651 -33.013  1.00  0.00     0.196 A 
HETATM   30  N6  UNL     1     -19.211 -16.393 -30.528  1.00  0.00    -0.133 N 
HETATM   31  C5  UNL     1     -20.095 -15.451 -30.126  1.00  0.00     0.387 C 
ATOM     32  H6  UNL     1     -18.566 -16.751 -29.824  1.00  0.00     0.189 HD
HETATM   33  O1  UNL     1     -19.796 -14.767 -29.122  1.00  0.00    -0.237 OA
HETATM   34  O2  UNL     1     -21.247 -15.205 -30.725  1.00  0.00    -0.221 OA
HETATM   35  C6  UNL     1     -21.630 -15.324 -31.999  1.00  0.00     0.325 C 
HETATM   36  O3  UNL     1     -22.795 -15.148 -32.342  1.00  0.00    -0.257 OA
BRANCH  28  37
HETATM   37  N5  UNL     1     -18.485 -18.012 -31.924  1.00  0.00    -0.233 N 
ATOM     38  H52 UNL     1     -18.654 -18.551 -32.773  1.00  0.00     0.174 HD
ATOM     39  H51 UNL     1     -17.865 -18.284 -31.160  1.00  0.00     0.174 HD
ENDBRANCH  28  37
ENDBRANCH  20  22
ENDBRANCH  18  20
ENDBRANCH  16  18
ENDBRANCH  15  16
BRANCH  15  40
HETATM   40  O5  UNL     1     -18.937 -12.626 -35.243  1.00  0.00    -0.357 OA
ATOM     41  H5  UNL     1     -18.596 -11.999 -34.616  1.00  0.00     0.217 HD
ENDBRANCH  15  40
ENDBRANCH  14  15
BRANCH  14  42
HETATM   42  O6  UNL     1     -19.707 -10.663 -38.057  1.00  0.00    -0.370 OA
ATOM     43  H6  UNL     1     -19.186 -10.459 -38.825  1.00  0.00     0.212 HD
ENDBRANCH  14  42
ENDBRANCH   1  14
BRANCH   6  44
HETATM   44  N9  UNL     1     -20.449 -16.049 -41.474  1.00  0.00    -0.234 N 
ATOM     45  H92 UNL     1     -21.021 -15.366 -41.970  1.00  0.00     0.174 HD
ATOM     46  H91 UNL     1     -20.445 -17.029 -41.758  1.00  0.00     0.174 HD
ENDBRANCH   6  44
TORSDOF 10
ENDMDL
MODEL 3
REMARK VINA RESULT: -7.548121146      6.260      9.457
REMARK  10 active torsions:
REMARK  status: ('A' for Active; 'I' for Inactive)
REMARK    1  A    between atoms: C2_2  and  N1_3 
REMARK    2  A    between atoms: C2_2  and  C8_23 
REMARK    3  A    between atoms: N1_3  and  C3_5 
REMARK    4  A    between atoms: C4_11  and  N5_12 
REMARK    5  A    between atoms: C8_23  and  C9_25 
REMARK    6  A    between atoms: C9_25  and  O5_26 
REMARK    7  A    between atoms: C9_25  and  C10_28 
REMARK    8  A    between atoms: C10_28  and  O6_29 
REMARK    9  A    between atoms: C10_28  and  N7_31 
REMARK   10  A    between atoms: C12_36  and  N9_37 
ROOT
HETATM    1  N7  UNL     1     -17.338  -8.045 -43.311  1.00  0.00    -0.343 N 
ATOM      2  H7  UNL     1     -16.753  -8.871 -43.436  1.00  0.00     0.164 HD
HETATM    3  C11 UNL     1     -16.632  -7.279 -42.698  1.00  0.00     0.143 A 
HETATM    4  N8  UNL     1     -15.360  -7.692 -42.373  1.00  0.00    -0.175 N 
ATOM      5  H8  UNL     1     -15.031  -8.597 -42.709  1.00  0.00     0.186 HD
HETATM    6  C12 UNL     1     -14.549  -6.945 -41.632  1.00  0.00     0.678 A 
HETATM    7  N10 UNL     1     -14.940  -5.760 -41.186  1.00  0.00    -0.177 N 
ATOM      8  H10 UNL     1     -14.303  -5.200 -40.620  1.00  0.00     0.185 HD
HETATM    9  C13 UNL     1     -16.159  -5.289 -41.466  1.00  0.00     0.156 A 
HETATM   10  N11 UNL     1     -16.607  -4.009 -40.996  1.00  0.00    -0.080 NA
HETATM   11  C14 UNL     1     -17.061  -6.049 -42.243  1.00  0.00     0.130 A 
HETATM   12  C15 UNL     1     -18.357  -5.489 -42.588  1.00  0.00     0.107 C 
HETATM   13  N12 UNL     1     -19.362  -5.012 -42.882  1.00  0.00    -0.191 NA
ENDROOT
BRANCH   1  14
HETATM   14  C10 UNL     1     -18.519  -8.380 -43.926  1.00  0.00     0.281 C 
BRANCH  14  15
HETATM   15  C9  UNL     1     -19.417  -9.315 -43.159  1.00  0.00     0.140 C 
BRANCH  15  16
HETATM   16  C8  UNL     1     -19.927  -8.895 -41.857  1.00  0.00     0.204 C 
HETATM   17  O4  UNL     1     -20.683  -7.925 -41.852  1.00  0.00    -0.288 OA
BRANCH  16  18
HETATM   18  C2  UNL     1     -19.597  -9.492 -40.560  1.00  0.00     0.156 C 
HETATM   19  C1  UNL     1     -19.333  -8.671 -39.374  1.00  0.00     0.041 C 
BRANCH  18  20
HETATM   20  N1  UNL     1     -20.504 -10.602 -40.275  1.00  0.00    -0.362 N 
ATOM     21  H1  UNL     1     -21.423 -10.424 -39.869  1.00  0.00     0.162 HD
BRANCH  20  22
HETATM   22  C3  UNL     1     -20.106 -11.897 -40.560  1.00  0.00     0.154 A 
HETATM   23  N2  UNL     1     -20.008 -12.514 -41.799  1.00  0.00    -0.268 N 
HETATM   24  N3  UNL     1     -19.588 -13.759 -41.643  1.00  0.00    -0.219 N 
ATOM     25  H2  UNL     1     -20.225 -12.075 -42.693  1.00  0.00     0.190 HD
HETATM   26  N4  UNL     1     -19.396 -14.017 -40.378  1.00  0.00    -0.062 N 
ATOM     27  H3  UNL     1     -19.437 -14.423 -42.402  1.00  0.00     0.209 HD
HETATM   28  C4  UNL     1     -18.954 -15.188 -39.832  1.00  0.00     0.703 C 
HETATM   29  C7  UNL     1     -19.700 -12.912 -39.683  1.00  0.00     0.196 A 
HETATM   30  N6  UNL     1     -18.128 -15.299 -38.752  1.00  0.00    -0.133 N 
HETATM   31  C5  UNL     1     -17.888 -14.343 -37.826  1.00  0.00     0.387 C 
ATOM     32  H6  UNL     1     -17.644 -16.190 -38.632  1.00  0.00     0.189 HD
HETATM   33  O1  UNL     1     -16.813 -14.410 -37.189  1.00  0.00    -0.237 OA
HETATM   34  O2  UNL     1     -18.711 -13.345 -37.555  1.00  0.00    -0.221 OA
HETATM   35  C6  UNL     1     -19.593 -12.689 -38.313  1.00  0.00     0.325 C 
HETATM   36  O3  UNL     1     -20.354 -11.851 -37.838  1.00  0.00    -0.257 OA
BRANCH  28  37
HETATM   37  N5  UNL     1     -19.345 -16.256 -40.395  1.00  0.00    -0.233 N 
ATOM     38  H52 UNL     1     -18.688 -16.744 -41.004  1.00  0.00     0.174 HD
ATOM     39  H51 UNL     1     -20.304 -16.545 -40.202  1.00  0.00     0.174 HD
ENDBRANCH  28  37
ENDBRANCH  20  22
ENDBRANCH  18  20
ENDBRANCH  16  18
ENDBRANCH  15  16
BRANCH  15  40
HETATM   40  O5  UNL     1     -20.318  -9.983 -43.931  1.00  0.00    -0.357 OA
ATOM     41  H5  UNL     1     -20.641  -9.491 -44.677  1.00  0.00     0.217 HD
ENDBRANCH  15  40
ENDBRANCH  14  15
BRANCH  14  42
HETATM   42  O6  UNL     1     -18.255  -9.065 -45.200  1.00  0.00    -0.370 OA
ATOM     43  H6  UNL     1     -17.309  -9.126 -45.255  1.00  0.00     0.212 HD
ENDBRANCH  14  42
ENDBRANCH   1  14
BRANCH   6  44
HETATM   44  N9  UNL     1     -13.354  -7.424 -41.342  1.00  0.00    -0.234 N 
ATOM     45  H92 UNL     1     -12.681  -7.646 -42.076  1.00  0.00     0.174 HD
ATOM     46  H91 UNL     1     -13.113  -7.555 -40.359  1.00  0.00     0.174 HD
ENDBRANCH   6  44
TORSDOF 10
ENDMDL
MODEL 4
REMARK VINA RESULT: -7.536324297      3.481      4.911
REMARK  10 active torsions:
REMARK  status: ('A' for Active; 'I' for Inactive)
REMARK    1  A    between atoms: C2_2  and  N1_3 
REMARK    2  A    between atoms: C2_2  and  C8_23 
REMARK    3  A    between atoms: N1_3  and  C3_5 
REMARK    4  A    between atoms: C4_11  and  N5_12 
REMARK    5  A    between atoms: C8_23  and  C9_25 
REMARK    6  A    between atoms: C9_25  and  O5_26 
REMARK    7  A    between atoms: C9_25  and  C10_28 
REMARK    8  A    between atoms: C10_28  and  O6_29 
REMARK    9  A    between atoms: C10_28  and  N7_31 
REMARK   10  A    between atoms: C12_36  and  N9_37 
ROOT
HETATM    1  N7  UNL     1     -21.491 -14.745 -33.931  1.00  0.00    -0.343 N 
ATOM      2  H7  UNL     1     -20.563 -14.355 -34.096  1.00  0.00     0.164 HD
HETATM    3  C11 UNL     1     -21.273 -15.773 -33.333  1.00  0.00     0.143 A 
HETATM    4  N8  UNL     1     -19.963 -16.099 -33.066  1.00  0.00    -0.175 N 
ATOM      5  H8  UNL     1     -19.226 -15.442 -33.320  1.00  0.00     0.186 HD
HETATM    6  C12 UNL     1     -19.632 -17.247 -32.487  1.00  0.00     0.678 A 
HETATM    7  N10 UNL     1     -20.564 -18.121 -32.135  1.00  0.00    -0.177 N 
ATOM      8  H10 UNL     1     -20.290 -18.996 -31.689  1.00  0.00     0.185 HD
HETATM    9  C13 UNL     1     -21.857 -17.871 -32.356  1.00  0.00     0.156 A 
HETATM   10  N11 UNL     1     -22.886 -18.800 -31.983  1.00  0.00    -0.080 NA
HETATM   11  C14 UNL     1     -22.260 -16.667 -32.977  1.00  0.00     0.130 A 
HETATM   12  C15 UNL     1     -23.676 -16.390 -33.149  1.00  0.00     0.107 C 
HETATM   13  N12 UNL     1     -24.803 -16.172 -33.240  1.00  0.00    -0.191 NA
ENDROOT
BRANCH   1  14
HETATM   14  C10 UNL     1     -22.340 -13.830 -34.503  1.00  0.00     0.281 C 
BRANCH  14  15
HETATM   15  C9  UNL     1     -21.681 -12.657 -35.181  1.00  0.00     0.140 C 
BRANCH  15  16
HETATM   16  C8  UNL     1     -20.443 -12.121 -34.621  1.00  0.00     0.204 C 
HETATM   17  O4  UNL     1     -20.297 -12.235 -33.406  1.00  0.00    -0.288 OA
BRANCH  16  18
HETATM   18  C2  UNL     1     -19.382 -11.432 -35.359  1.00  0.00     0.156 C 
HETATM   19  C1  UNL     1     -18.683 -10.269 -34.805  1.00  0.00     0.041 C 
BRANCH  18  20
HETATM   20  N1  UNL     1     -18.462 -12.408 -35.941  1.00  0.00    -0.362 N 
ATOM     21  H1  UNL     1     -17.641 -12.715 -35.418  1.00  0.00     0.162 HD
BRANCH  20  22
HETATM   22  C3  UNL     1     -18.713 -12.912 -37.205  1.00  0.00     0.154 A 
HETATM   23  N2  UNL     1     -19.043 -12.216 -38.358  1.00  0.00    -0.268 N 
HETATM   24  N3  UNL     1     -19.202 -13.066 -39.360  1.00  0.00    -0.219 N 
ATOM     25  H2  UNL     1     -19.148 -11.204 -38.425  1.00  0.00     0.190 HD
HETATM   26  N4  UNL     1     -18.997 -14.289 -38.953  1.00  0.00    -0.062 N 
ATOM     27  H3  UNL     1     -19.450 -12.803 -40.314  1.00  0.00     0.209 HD
HETATM   28  C4  UNL     1     -19.056 -15.429 -39.702  1.00  0.00     0.703 C 
HETATM   29  C7  UNL     1     -18.697 -14.242 -37.648  1.00  0.00     0.196 A 
HETATM   30  N6  UNL     1     -18.244 -16.516 -39.561  1.00  0.00    -0.133 N 
HETATM   31  C5  UNL     1     -17.499 -16.822 -38.475  1.00  0.00     0.387 C 
ATOM     32  H6  UNL     1     -18.193 -17.159 -40.352  1.00  0.00     0.189 HD
HETATM   33  O1  UNL     1     -16.498 -17.553 -38.645  1.00  0.00    -0.237 OA
HETATM   34  O2  UNL     1     -17.759 -16.400 -37.249  1.00  0.00    -0.221 OA
HETATM   35  C6  UNL     1     -18.342 -15.286 -36.798  1.00  0.00     0.325 C 
HETATM   36  O3  UNL     1     -18.594 -15.127 -35.607  1.00  0.00    -0.257 OA
BRANCH  28  37
HETATM   37  N5  UNL     1     -19.942 -15.461 -40.611  1.00  0.00    -0.233 N 
ATOM     38  H52 UNL     1     -19.960 -14.699 -41.288  1.00  0.00     0.174 HD
ATOM     39  H51 UNL     1     -20.584 -16.254 -40.589  1.00  0.00     0.174 HD
ENDBRANCH  28  37
ENDBRANCH  20  22
ENDBRANCH  18  20
ENDBRANCH  16  18
ENDBRANCH  15  16
BRANCH  15  40
HETATM   40  O5  UNL     1     -21.711 -12.709 -36.541  1.00  0.00    -0.357 OA
ATOM     41  H5  UNL     1     -21.185 -13.402 -36.922  1.00  0.00     0.217 HD
ENDBRANCH  15  40
ENDBRANCH  14  15
BRANCH  14  42
HETATM   42  O6  UNL     1     -23.216 -13.237 -33.482  1.00  0.00    -0.370 OA
ATOM     43  H6  UNL     1     -22.785 -12.429 -33.227  1.00  0.00     0.212 HD
ENDBRANCH  14  42
ENDBRANCH   1  14
BRANCH   6  44
HETATM   44  N9  UNL     1     -18.350 -17.498 -32.289  1.00  0.00    -0.234 N 
ATOM     45  H92 UNL     1     -17.688 -16.745 -32.103  1.00  0.00     0.174 HD
ATOM     46  H91 UNL     1     -18.041 -18.469 -32.314  1.00  0.00     0.174 HD
ENDBRANCH   6  44
TORSDOF 10
ENDMDL
MODEL 5
REMARK VINA RESULT: -7.512883456      2.209      3.030
REMARK  10 active torsions:
REMARK  status: ('A' for Active; 'I' for Inactive)
REMARK    1  A    between atoms: C2_2  and  N1_3 
REMARK    2  A    between atoms: C2_2  and  C8_23 
REMARK    3  A    between atoms: N1_3  and  C3_5 
REMARK    4  A    between atoms: C4_11  and  N5_12 
REMARK    5  A    between atoms: C8_23  and  C9_25 
REMARK    6  A    between atoms: C9_25  and  O5_26 
REMARK    7  A    between atoms: C9_25  and  C10_28 
REMARK    8  A    between atoms: C10_28  and  O6_29 
REMARK    9  A    between atoms: C10_28  and  N7_31 
REMARK   10  A    between atoms: C12_36  and  N9_37 
ROOT
HETATM    1  N7  UNL     1     -18.905  -8.796 -31.799  1.00  0.00    -0.343 N 
ATOM      2  H7  UNL     1     -18.296  -9.599 -31.640  1.00  0.00     0.164 HD
HETATM    3  C11 UNL     1     -18.729  -8.100 -30.827  1.00  0.00     0.143 A 
HETATM    4  N8  UNL     1     -17.842  -8.539 -29.870  1.00  0.00    -0.175 N 
ATOM      5  H8  UNL     1     -17.317  -9.397 -30.037  1.00  0.00     0.186 HD
HETATM    6  C12 UNL     1     -17.650  -7.876 -28.736  1.00  0.00     0.678 A 
HETATM    7  N10 UNL     1     -18.308  -6.752 -28.489  1.00  0.00    -0.177 N 
ATOM      8  H10 UNL     1     -18.147  -6.256 -27.614  1.00  0.00     0.185 HD
HETATM    9  C13 UNL     1     -19.181  -6.261 -29.373  1.00  0.00     0.156 A 
HETATM   10  N11 UNL     1     -19.906  -5.045 -29.132  1.00  0.00    -0.080 NA
HETATM   11  C14 UNL     1     -19.426  -6.933 -30.591  1.00  0.00     0.130 A 
HETATM   12  C15 UNL     1     -20.332  -6.346 -31.565  1.00  0.00     0.107 C 
HETATM   13  N12 UNL     1     -21.022  -5.845 -32.337  1.00  0.00    -0.191 NA
ENDROOT
BRANCH   1  14
HETATM   14  C10 UNL     1     -19.500  -9.068 -33.006  1.00  0.00     0.281 C 
BRANCH  14  15
HETATM   15  C9  UNL     1     -19.374 -10.486 -33.497  1.00  0.00     0.140 C 
BRANCH  15  16
HETATM   16  C8  UNL     1     -18.267 -10.830 -34.386  1.00  0.00     0.204 C 
HETATM   17  O4  UNL     1     -17.139 -10.779 -33.900  1.00  0.00    -0.288 OA
BRANCH  16  18
HETATM   18  C2  UNL     1     -18.370 -11.191 -35.802  1.00  0.00     0.156 C 
HETATM   19  C1  UNL     1     -17.246 -11.020 -36.728  1.00  0.00     0.041 C 
BRANCH  18  20
HETATM   20  N1  UNL     1     -19.009 -12.498 -35.940  1.00  0.00    -0.362 N 
ATOM     21  H1  UNL     1     -19.345 -12.995 -35.115  1.00  0.00     0.162 HD
BRANCH  20  22
HETATM   22  C3  UNL     1     -19.154 -13.055 -37.198  1.00  0.00     0.154 A 
HETATM   23  N2  UNL     1     -19.553 -12.434 -38.373  1.00  0.00    -0.268 N 
HETATM   24  N3  UNL     1     -19.564 -13.316 -39.360  1.00  0.00    -0.219 N 
ATOM     25  H2  UNL     1     -19.801 -11.449 -38.463  1.00  0.00     0.190 HD
HETATM   26  N4  UNL     1     -19.194 -14.489 -38.923  1.00  0.00    -0.062 N 
ATOM     27  H3  UNL     1     -19.823 -13.109 -40.324  1.00  0.00     0.209 HD
HETATM   28  C4  UNL     1     -19.072 -15.640 -39.648  1.00  0.00     0.703 C 
HETATM   29  C7  UNL     1     -18.937 -14.376 -37.613  1.00  0.00     0.196 A 
HETATM   30  N6  UNL     1     -18.115 -16.595 -39.467  1.00  0.00    -0.133 N 
HETATM   31  C5  UNL     1     -17.360 -16.772 -38.359  1.00  0.00     0.387 C 
ATOM     32  H6  UNL     1     -17.953 -17.238 -40.243  1.00  0.00     0.189 HD
HETATM   33  O1  UNL     1     -16.261 -17.353 -38.492  1.00  0.00    -0.237 OA
HETATM   34  O2  UNL     1     -17.708 -16.369 -37.149  1.00  0.00    -0.221 OA
HETATM   35  C6  UNL     1     -18.456 -15.343 -36.734  1.00  0.00     0.325 C 
HETATM   36  O3  UNL     1     -18.757 -15.201 -35.552  1.00  0.00    -0.257 OA
BRANCH  28  37
HETATM   37  N5  UNL     1     -19.921 -15.815 -40.575  1.00  0.00    -0.233 N 
ATOM     38  H52 UNL     1     -20.157 -15.018 -41.165  1.00  0.00     0.174 HD
ATOM     39  H51 UNL     1     -20.317 -16.752 -40.655  1.00  0.00     0.174 HD
ENDBRANCH  28  37
ENDBRANCH  20  22
ENDBRANCH  18  20
ENDBRANCH  16  18
ENDBRANCH  15  16
BRANCH  15  40
HETATM   40  O5  UNL     1     -19.660 -11.430 -32.557  1.00  0.00    -0.357 OA
ATOM     41  H5  UNL     1     -20.582 -11.510 -32.346  1.00  0.00     0.217 HD
ENDBRANCH  15  40
ENDBRANCH  14  15
BRANCH  14  42
HETATM   42  O6  UNL     1     -18.903  -8.243 -34.067  1.00  0.00    -0.370 OA
ATOM     43  H6  UNL     1     -18.971  -7.349 -33.751  1.00  0.00     0.212 HD
ENDBRANCH  14  42
ENDBRANCH   1  14
BRANCH   6  44
HETATM   44  N9  UNL     1     -16.801  -8.377 -27.857  1.00  0.00    -0.234 N 
ATOM     45  H92 UNL     1     -16.394  -9.303 -27.986  1.00  0.00     0.174 HD
ATOM     46  H91 UNL     1     -16.552  -7.806 -27.049  1.00  0.00     0.174 HD
ENDBRANCH   6  44
TORSDOF 10
ENDMDL
