MODEL 1
REMARK VINA RESULT: -5.778612649      0.000      0.000
REMARK  3 active torsions:
REMARK  status: ('A' for Active; 'I' for Inactive)
REMARK    1  A    between atoms: S1_2  and  C2_3 
REMARK    2  A    between atoms: C5_8  and  C6_9 
REMARK    3  A    between atoms: C7_10  and  C8_11 
ROOT
HETATM    1  C2  UNL     1      15.464  10.498   2.074  1.00  0.00     0.222 C 
HETATM    2  C3  UNL     1      16.913  10.239   2.163  1.00  0.00     0.102 C 
HETATM    3  N1  UNL     1      17.672  10.230   0.982  1.00  0.00    -0.376 N 
ATOM      4  H1  UNL     1      18.676  10.052   1.019  1.00  0.00     0.164 HD
HETATM    5  C4  UNL     1      17.041  10.468  -0.252  1.00  0.00     0.096 C 
HETATM    6  C5  UNL     1      15.570  10.139  -0.165  1.00  0.00     0.184 C 
HETATM    7  O1  UNL     1      15.063  11.008   0.817  1.00  0.00    -0.356 OA
ENDROOT
BRANCH   6   8
HETATM    8  C6  UNL     1      14.850  10.320  -1.443  1.00  0.00     0.006 C 
HETATM    9  C7  UNL     1      15.308   9.926  -2.610  1.00  0.00    -0.023 C 
BRANCH   9  10
HETATM   10  C8  UNL     1      14.555  10.126  -3.870  1.00  0.00     0.008 A 
HETATM   11  C9  UNL     1      15.066   9.555  -5.148  1.00  0.00     0.009 A 
HETATM   12  C10 UNL     1      13.930   8.858  -4.405  1.00  0.00     0.009 A 
ENDBRANCH   9  10
ENDBRANCH   6   8
BRANCH   1  13
HETATM   13  S1  UNL     1      14.433   9.043   2.360  1.00  0.00    -0.137 SA
HETATM   14  C1  UNL     1      12.703   9.296   2.055  1.00  0.00     0.093 C 
ENDBRANCH   1  13
TORSDOF 3
ENDMDL
MODEL 2
REMARK VINA RESULT: -5.623582057      1.011      1.053
REMARK  3 active torsions:
REMARK  status: ('A' for Active; 'I' for Inactive)
REMARK    1  A    between atoms: S1_2  and  C2_3 
REMARK    2  A    between atoms: C5_8  and  C6_9 
REMARK    3  A    between atoms: C7_10  and  C8_11 
ROOT
HETATM    1  C2  UNL     1      14.325  10.212   1.947  1.00  0.00     0.222 C 
HETATM    2  C3  UNL     1      15.693   9.846   2.357  1.00  0.00     0.102 C 
HETATM    3  N1  UNL     1      16.726   9.920   1.409  1.00  0.00    -0.376 N 
ATOM      4  H1  UNL     1      17.680   9.670   1.670  1.00  0.00     0.164 HD
HETATM    5  C4  UNL     1      16.438  10.341   0.098  1.00  0.00     0.096 C 
HETATM    6  C5  UNL     1      14.981  10.106  -0.224  1.00  0.00     0.184 C 
HETATM    7  O1  UNL     1      14.276  10.890   0.706  1.00  0.00    -0.356 OA
ENDROOT
BRANCH   6   8
HETATM    8  C6  UNL     1      14.617  10.482  -1.606  1.00  0.00     0.006 C 
HETATM    9  C7  UNL     1      15.061   9.868  -2.680  1.00  0.00    -0.023 C 
BRANCH   9  10
HETATM   10  C8  UNL     1      14.672  10.275  -4.049  1.00  0.00     0.008 A 
HETATM   11  C9  UNL     1      15.190   9.529  -5.230  1.00  0.00     0.009 A 
HETATM   12  C10 UNL     1      13.767   9.280  -4.738  1.00  0.00     0.009 A 
ENDBRANCH   9  10
ENDBRANCH   6   8
BRANCH   1  13
HETATM   13  S1  UNL     1      13.200   8.809   1.780  1.00  0.00    -0.137 SA
HETATM   14  C1  UNL     1      14.004   7.250   1.509  1.00  0.00     0.093 C 
ENDBRANCH   1  13
TORSDOF 3
ENDMDL
MODEL 3
REMARK VINA RESULT: -5.504394974      2.048      2.859
REMARK  3 active torsions:
REMARK  status: ('A' for Active; 'I' for Inactive)
REMARK    1  A    between atoms: S1_2  and  C2_3 
REMARK    2  A    between atoms: C5_8  and  C6_9 
REMARK    3  A    between atoms: C7_10  and  C8_11 
ROOT
HETATM    1  C2  UNL     1      15.884  10.110   1.436  1.00  0.00     0.222 C 
HETATM    2  C3  UNL     1      15.206  10.685   2.612  1.00  0.00     0.102 C 
HETATM    3  N1  UNL     1      13.810  10.829   2.585  1.00  0.00    -0.376 N 
ATOM      4  H1  UNL     1      13.319  11.225   3.387  1.00  0.00     0.164 HD
HETATM    5  C4  UNL     1      13.091  10.424   1.446  1.00  0.00     0.096 C 
HETATM    6  C5  UNL     1      13.986  10.423   0.230  1.00  0.00     0.184 C 
HETATM    7  O1  UNL     1      14.995   9.490   0.526  1.00  0.00    -0.356 OA
ENDROOT
BRANCH   6   8
HETATM    8  C6  UNL     1      13.283  10.052  -1.017  1.00  0.00     0.006 C 
HETATM    9  C7  UNL     1      13.836  10.071  -2.209  1.00  0.00    -0.023 C 
BRANCH   9  10
HETATM   10  C8  UNL     1      13.098   9.692  -3.436  1.00  0.00     0.008 A 
HETATM   11  C9  UNL     1      13.784   9.700  -4.757  1.00  0.00     0.009 A 
HETATM   12  C10 UNL     1      13.552   8.378  -4.030  1.00  0.00     0.009 A 
ENDBRANCH   9  10
ENDBRANCH   6   8
BRANCH   1  13
HETATM   13  S1  UNL     1      16.820  11.309   0.461  1.00  0.00    -0.137 SA
HETATM   14  C1  UNL     1      17.830  12.409   1.420  1.00  0.00     0.093 C 
ENDBRANCH   1  13
TORSDOF 3
ENDMDL
MODEL 4
REMARK VINA RESULT: -5.478946600      0.919      1.200
REMARK  3 active torsions:
REMARK  status: ('A' for Active; 'I' for Inactive)
REMARK    1  A    between atoms: S1_2  and  C2_3 
REMARK    2  A    between atoms: C5_8  and  C6_9 
REMARK    3  A    between atoms: C7_10  and  C8_11 
ROOT
HETATM    1  C2  UNL     1      14.736  10.372   1.247  1.00  0.00     0.222 C 
HETATM    2  C3  UNL     1      16.124  10.410   1.745  1.00  0.00     0.102 C 
HETATM    3  N1  UNL     1      17.177  10.369   0.817  1.00  0.00    -0.376 N 
ATOM      4  H1  UNL     1      18.145  10.393   1.138  1.00  0.00     0.164 HD
HETATM    5  C4  UNL     1      16.890  10.296  -0.558  1.00  0.00     0.096 C 
HETATM    6  C5  UNL     1      15.516   9.710  -0.781  1.00  0.00     0.184 C 
HETATM    7  O1  UNL     1      14.636  10.604  -0.146  1.00  0.00    -0.356 OA
ENDROOT
BRANCH   6   8
HETATM    8  C6  UNL     1      15.166   9.558  -2.209  1.00  0.00     0.006 C 
HETATM    9  C7  UNL     1      14.162   8.834  -2.649  1.00  0.00    -0.023 C 
BRANCH   9  10
HETATM   10  C8  UNL     1      13.842   8.707  -4.090  1.00  0.00     0.008 A 
HETATM   11  C9  UNL     1      12.828   9.601  -4.715  1.00  0.00     0.009 A 
HETATM   12  C10 UNL     1      14.315   9.881  -4.916  1.00  0.00     0.009 A 
ENDBRANCH   9  10
ENDBRANCH   6   8
BRANCH   1  13
HETATM   13  S1  UNL     1      13.885   8.806   1.542  1.00  0.00    -0.137 SA
HETATM   14  C1  UNL     1      12.330   8.962   2.383  1.00  0.00     0.093 C 
ENDBRANCH   1  13
TORSDOF 3
ENDMDL
MODEL 5
REMARK VINA RESULT: -5.477797734      3.035      5.612
REMARK  3 active torsions:
REMARK  status: ('A' for Active; 'I' for Inactive)
REMARK    1  A    between atoms: S1_2  and  C2_3 
REMARK    2  A    between atoms: C5_8  and  C6_9 
REMARK    3  A    between atoms: C7_10  and  C8_11 
ROOT
HETATM    1  C2  UNL     1      13.730   8.747  -3.952  1.00  0.00     0.222 C 
HETATM    2  C3  UNL     1      14.705   9.622  -4.629  1.00  0.00     0.102 C 
HETATM    3  N1  UNL     1      15.736  10.200  -3.872  1.00  0.00    -0.376 N 
ATOM      4  H1  UNL     1      16.421  10.809  -4.319  1.00  0.00     0.164 HD
HETATM    5  C4  UNL     1      15.819   9.934  -2.493  1.00  0.00     0.096 C 
HETATM    6  C5  UNL     1      14.470   9.527  -1.951  1.00  0.00     0.184 C 
HETATM    7  O1  UNL     1      14.138   8.355  -2.654  1.00  0.00    -0.356 OA
ENDROOT
BRANCH   6   8
HETATM    8  C6  UNL     1      14.471   9.278  -0.494  1.00  0.00     0.006 C 
HETATM    9  C7  UNL     1      13.500   9.633   0.316  1.00  0.00    -0.023 C 
BRANCH   9  10
HETATM   10  C8  UNL     1      13.539   9.365   1.772  1.00  0.00     0.008 A 
HETATM   11  C9  UNL     1      12.288   9.027   2.507  1.00  0.00     0.009 A 
HETATM   12  C10 UNL     1      13.268   7.921   2.126  1.00  0.00     0.009 A 
ENDBRANCH   9  10
ENDBRANCH   6   8
BRANCH   1  13
HETATM   13  S1  UNL     1      12.093   9.483  -3.746  1.00  0.00    -0.137 SA
HETATM   14  C1  UNL     1      11.158   9.627  -5.248  1.00  0.00     0.093 C 
ENDBRANCH   1  13
TORSDOF 3
ENDMDL
