MODEL 1
REMARK VINA RESULT: -5.972591267      0.000      0.000
REMARK  4 active torsions:
REMARK  status: ('A' for Active; 'I' for Inactive)
REMARK    1  A    between atoms: C2_2  and  C3_3 
REMARK    2  A    between atoms: C3_3  and  C4_4 
REMARK    3  A    between atoms: C4_4  and  N1_5 
REMARK    4  A    between atoms: N1_5  and  C6_7 
ROOT
HETATM    1  C6  UNL     1      14.181   9.712   0.318  1.00  0.00     0.084 C 
HETATM    2  N2  UNL     1      14.515   8.496   0.568  1.00  0.00    -0.369 N 
ATOM      3  H2  UNL     1      15.087   7.906  -0.037  1.00  0.00     0.161 HD
HETATM    4  C7  UNL     1      13.957   8.095   1.832  1.00  0.00     0.044 C 
HETATM    5  C8  UNL     1      13.617   6.630   1.878  1.00  0.00     0.040 C 
HETATM    6  C9  UNL     1      14.955   8.499   2.881  1.00  0.00     0.149 C 
HETATM    7  N3  UNL     1      15.047   9.886   3.128  1.00  0.00    -0.399 N 
ATOM      8  H3  UNL     1      15.789  10.251   3.726  1.00  0.00     0.158 HD
HETATM    9  C10 UNL     1      14.119  10.758   2.552  1.00  0.00     0.068 C 
HETATM   10  C11 UNL     1      13.323  10.247   1.409  1.00  0.00     0.093 C 
HETATM   11  C12 UNL     1      12.694   8.924   1.890  1.00  0.00     0.050 C 
ENDROOT
BRANCH   1  12
HETATM   12  N1  UNL     1      14.601  10.363  -0.874  1.00  0.00    -0.375 N 
HETATM   13  C5  UNL     1      15.990  10.357  -1.244  1.00  0.00     0.150 C 
BRANCH  12  14
HETATM   14  C4  UNL     1      13.613  11.029  -1.713  1.00  0.00     0.123 C 
BRANCH  14  15
HETATM   15  C3  UNL     1      12.571  10.021  -2.171  1.00  0.00     0.019 C 
BRANCH  15  16
HETATM   16  C2  UNL     1      12.844   9.636  -3.596  1.00  0.00    -0.003 C 
HETATM   17  C1  UNL     1      11.615   9.265  -4.374  1.00  0.00     0.005 C 
ENDBRANCH  15  16
ENDBRANCH  14  15
ENDBRANCH  12  14
ENDBRANCH   1  12
TORSDOF 4
ENDMDL
MODEL 2
REMARK VINA RESULT: -5.922704118      1.660      2.553
REMARK  4 active torsions:
REMARK  status: ('A' for Active; 'I' for Inactive)
REMARK    1  A    between atoms: C2_2  and  C3_3 
REMARK    2  A    between atoms: C3_3  and  C4_4 
REMARK    3  A    between atoms: C4_4  and  N1_5 
REMARK    4  A    between atoms: N1_5  and  C6_7 
ROOT
HETATM    1  C6  UNL     1      14.073   9.636   0.569  1.00  0.00     0.084 C 
HETATM    2  N2  UNL     1      14.971  10.402   1.079  1.00  0.00    -0.369 N 
ATOM      3  H2  UNL     1      15.514  11.096   0.565  1.00  0.00     0.161 HD
HETATM    4  C7  UNL     1      15.091  10.129   2.487  1.00  0.00     0.044 C 
HETATM    5  C8  UNL     1      16.489  10.341   3.001  1.00  0.00     0.040 C 
HETATM    6  C9  UNL     1      14.076  10.997   3.174  1.00  0.00     0.149 C 
HETATM    7  N3  UNL     1      12.729  10.606   3.003  1.00  0.00    -0.399 N 
ATOM      8  H3  UNL     1      11.975  11.214   3.325  1.00  0.00     0.158 HD
HETATM    9  C10 UNL     1      12.432   9.384   2.393  1.00  0.00     0.068 C 
HETATM   10  C11 UNL     1      13.511   8.735   1.610  1.00  0.00     0.093 C 
HETATM   11  C12 UNL     1      14.731   8.662   2.549  1.00  0.00     0.050 C 
ENDROOT
BRANCH   1  12
HETATM   12  N1  UNL     1      13.750   9.697  -0.814  1.00  0.00    -0.375 N 
HETATM   13  C5  UNL     1      12.737  10.608  -1.275  1.00  0.00     0.150 C 
BRANCH  12  14
HETATM   14  C4  UNL     1      14.455   8.834  -1.753  1.00  0.00     0.123 C 
BRANCH  14  15
HETATM   15  C3  UNL     1      14.020   9.163  -3.173  1.00  0.00     0.019 C 
BRANCH  15  16
HETATM   16  C2  UNL     1      15.121   9.909  -3.871  1.00  0.00    -0.003 C 
HETATM   17  C1  UNL     1      15.064   9.819  -5.368  1.00  0.00     0.005 C 
ENDBRANCH  15  16
ENDBRANCH  14  15
ENDBRANCH  12  14
ENDBRANCH   1  12
TORSDOF 4
ENDMDL
MODEL 3
REMARK VINA RESULT: -5.895030295      1.260      2.081
REMARK  4 active torsions:
REMARK  status: ('A' for Active; 'I' for Inactive)
REMARK    1  A    between atoms: C2_2  and  C3_3 
REMARK    2  A    between atoms: C3_3  and  C4_4 
REMARK    3  A    between atoms: C4_4  and  N1_5 
REMARK    4  A    between atoms: N1_5  and  C6_7 
ROOT
HETATM    1  C6  UNL     1      14.790  10.228   0.784  1.00  0.00     0.084 C 
HETATM    2  N2  UNL     1      15.669  10.742   1.570  1.00  0.00    -0.369 N 
ATOM      3  H2  UNL     1      16.416  11.374   1.284  1.00  0.00     0.161 HD
HETATM    4  C7  UNL     1      15.434  10.286   2.915  1.00  0.00     0.044 C 
HETATM    5  C8  UNL     1      16.702  10.163   3.715  1.00  0.00     0.040 C 
HETATM    6  C9  UNL     1      14.449  11.246   3.520  1.00  0.00     0.149 C 
HETATM    7  N3  UNL     1      13.127  11.143   3.036  1.00  0.00    -0.399 N 
ATOM      8  H3  UNL     1      12.431  11.842   3.297  1.00  0.00     0.158 HD
HETATM    9  C10 UNL     1      12.773  10.082   2.198  1.00  0.00     0.068 C 
HETATM   10  C11 UNL     1      13.876   9.335   1.545  1.00  0.00     0.093 C 
HETATM   11  C12 UNL     1      14.834   8.919   2.678  1.00  0.00     0.050 C 
ENDROOT
BRANCH   1  12
HETATM   12  N1  UNL     1      14.790  10.513  -0.609  1.00  0.00    -0.375 N 
HETATM   13  C5  UNL     1      15.944  10.197  -1.406  1.00  0.00     0.150 C 
BRANCH  12  14
HETATM   14  C4  UNL     1      13.612  11.121  -1.215  1.00  0.00     0.123 C 
BRANCH  14  15
HETATM   15  C3  UNL     1      12.710  10.035  -1.778  1.00  0.00     0.019 C 
BRANCH  15  16
HETATM   16  C2  UNL     1      12.996   9.859  -3.241  1.00  0.00    -0.003 C 
HETATM   17  C1  UNL     1      11.819   9.379  -4.039  1.00  0.00     0.005 C 
ENDBRANCH  15  16
ENDBRANCH  14  15
ENDBRANCH  12  14
ENDBRANCH   1  12
TORSDOF 4
ENDMDL
MODEL 4
REMARK VINA RESULT: -5.814293251      2.845      3.967
REMARK  4 active torsions:
REMARK  status: ('A' for Active; 'I' for Inactive)
REMARK    1  A    between atoms: C2_2  and  C3_3 
REMARK    2  A    between atoms: C3_3  and  C4_4 
REMARK    3  A    between atoms: C4_4  and  N1_5 
REMARK    4  A    between atoms: N1_5  and  C6_7 
ROOT
HETATM    1  C6  UNL     1      16.128  10.703   2.329  1.00  0.00     0.084 C 
HETATM    2  N2  UNL     1      16.986   9.747   2.259  1.00  0.00    -0.369 N 
ATOM      3  H2  UNL     1      16.841   8.860   1.778  1.00  0.00     0.161 HD
HETATM    4  C7  UNL     1      18.183  10.125   2.964  1.00  0.00     0.044 C 
HETATM    5  C8  UNL     1      18.882   8.949   3.590  1.00  0.00     0.040 C 
HETATM    6  C9  UNL     1      19.042  10.860   1.975  1.00  0.00     0.149 C 
HETATM    7  N3  UNL     1      18.593  12.153   1.626  1.00  0.00    -0.399 N 
ATOM      8  H3  UNL     1      19.044  12.663   0.865  1.00  0.00     0.158 HD
HETATM    9  C10 UNL     1      17.531  12.733   2.325  1.00  0.00     0.068 C 
HETATM   10  C11 UNL     1      16.675  11.830   3.132  1.00  0.00     0.093 C 
HETATM   11  C12 UNL     1      17.635  11.035   4.039  1.00  0.00     0.050 C 
ENDROOT
BRANCH   1  12
HETATM   12  N1  UNL     1      14.851  10.594   1.715  1.00  0.00    -0.375 N 
HETATM   13  C5  UNL     1      13.661  10.669   2.517  1.00  0.00     0.150 C 
BRANCH  12  14
HETATM   14  C4  UNL     1      14.764  10.411   0.272  1.00  0.00     0.123 C 
BRANCH  14  15
HETATM   15  C3  UNL     1      13.342  10.029  -0.109  1.00  0.00     0.019 C 
BRANCH  15  16
HETATM   16  C2  UNL     1      12.925  10.807  -1.324  1.00  0.00    -0.003 C 
HETATM   17  C1  UNL     1      12.706   9.960  -2.544  1.00  0.00     0.005 C 
ENDBRANCH  15  16
ENDBRANCH  14  15
ENDBRANCH  12  14
ENDBRANCH   1  12
TORSDOF 4
ENDMDL
MODEL 5
REMARK VINA RESULT: -5.719214876      1.379      1.997
REMARK  4 active torsions:
REMARK  status: ('A' for Active; 'I' for Inactive)
REMARK    1  A    between atoms: C2_2  and  C3_3 
REMARK    2  A    between atoms: C3_3  and  C4_4 
REMARK    3  A    between atoms: C4_4  and  N1_5 
REMARK    4  A    between atoms: N1_5  and  C6_7 
ROOT
HETATM    1  C6  UNL     1      14.860   9.769   0.829  1.00  0.00     0.084 C 
HETATM    2  N2  UNL     1      15.800   9.824   1.704  1.00  0.00    -0.369 N 
ATOM      3  H2  UNL     1      16.764  10.100   1.517  1.00  0.00     0.161 HD
HETATM    4  C7  UNL     1      15.282   9.434   2.989  1.00  0.00     0.044 C 
HETATM    5  C8  UNL     1      16.311   8.747   3.846  1.00  0.00     0.040 C 
HETATM    6  C9  UNL     1      14.733  10.683   3.619  1.00  0.00     0.149 C 
HETATM    7  N3  UNL     1      13.534  11.171   3.054  1.00  0.00    -0.399 N 
ATOM      8  H3  UNL     1      13.170  12.081   3.336  1.00  0.00     0.158 HD
HETATM    9  C10 UNL     1      12.848  10.403   2.109  1.00  0.00     0.068 C 
HETATM   10  C11 UNL     1      13.596   9.300   1.457  1.00  0.00     0.093 C 
HETATM   11  C12 UNL     1      14.194   8.459   2.602  1.00  0.00     0.050 C 
ENDROOT
BRANCH   1  12
HETATM   12  N1  UNL     1      15.098  10.105  -0.532  1.00  0.00    -0.375 N 
HETATM   13  C5  UNL     1      16.434  10.395  -0.975  1.00  0.00     0.150 C 
BRANCH  12  14
HETATM   14  C4  UNL     1      13.980  10.147  -1.465  1.00  0.00     0.123 C 
BRANCH  14  15
HETATM   15  C3  UNL     1      14.255   9.214  -2.633  1.00  0.00     0.019 C 
BRANCH  15  16
HETATM   16  C2  UNL     1      13.993   9.938  -3.922  1.00  0.00    -0.003 C 
HETATM   17  C1  UNL     1      14.973   9.616  -5.013  1.00  0.00     0.005 C 
ENDBRANCH  15  16
ENDBRANCH  14  15
ENDBRANCH  12  14
ENDBRANCH   1  12
TORSDOF 4
ENDMDL
