MODEL 1
REMARK VINA RESULT: -6.396259464      0.000      0.000
REMARK  3 active torsions:
REMARK  status: ('A' for Active; 'I' for Inactive)
REMARK    1  A    between atoms: C2_2  and  C3_3 
REMARK    2  A    between atoms: C3_3  and  C4_4 
REMARK    3  A    between atoms: C4_4  and  C5_5 
ROOT
HETATM    1  C4  UNL     1      14.443   9.695  -0.108  1.00  0.00     0.025 C 
HETATM    2  C6  UNL     1      15.211   9.459  -1.396  1.00  0.00     0.022 C 
HETATM    3  C7  UNL     1      14.655  10.468  -2.358  1.00  0.00    -0.013 C 
HETATM    4  C8  UNL     1      13.419   9.809  -2.988  1.00  0.00     0.005 C 
HETATM    5  C9  UNL     1      12.525   9.697  -1.733  1.00  0.00     0.006 C 
HETATM    6  C10 UNL     1      13.247  10.387  -0.613  1.00  0.00     0.002 C 
HETATM    7  C11 UNL     1      13.878  11.490  -1.507  1.00  0.00     0.010 C 
ENDROOT
BRANCH   1   8
HETATM    8  C3  UNL     1      15.316  10.546   0.773  1.00  0.00     0.017 C 
BRANCH   8   9
HETATM    9  C2  UNL     1      16.806  10.382   0.494  1.00  0.00    -0.003 C 
HETATM   10  C1  UNL     1      17.502  11.722   0.583  1.00  0.00     0.005 C 
ENDBRANCH   8   9
ENDBRANCH   1   8
BRANCH   1  11
HETATM   11  C5  UNL     1      14.165   8.373   0.565  1.00  0.00     0.119 A 
HETATM   12  N1  UNL     1      13.361   8.173   1.673  1.00  0.00    -0.270 N 
HETATM   13  N2  UNL     1      13.367   6.871   1.942  1.00  0.00    -0.005 NA
ATOM     14  H1  UNL     1      12.857   8.893   2.190  1.00  0.00     0.185 HD
HETATM   15  N3  UNL     1      14.145   6.215   1.048  1.00  0.00    -0.225 N 
HETATM   16  N4  UNL     1      14.569   7.183   0.273  1.00  0.00    -0.274 N 
ATOM     17  H3  UNL     1      14.351   5.217   0.993  1.00  0.00     0.205 HD
ATOM     18  H4  UNL     1      15.186   7.005  -0.520  1.00  0.00     0.189 HD
ENDBRANCH   1  11
TORSDOF 3
ENDMDL
MODEL 2
REMARK VINA RESULT: -6.186906545      0.913      1.256
REMARK  3 active torsions:
REMARK  status: ('A' for Active; 'I' for Inactive)
REMARK    1  A    between atoms: C2_2  and  C3_3 
REMARK    2  A    between atoms: C3_3  and  C4_4 
REMARK    3  A    between atoms: C4_4  and  C5_5 
ROOT
HETATM    1  C4  UNL     1      14.769   9.271  -1.363  1.00  0.00     0.025 C 
HETATM    2  C6  UNL     1      14.579   8.500  -2.657  1.00  0.00     0.022 C 
HETATM    3  C7  UNL     1      14.076   9.521  -3.636  1.00  0.00    -0.013 C 
HETATM    4  C8  UNL     1      12.551   9.563  -3.449  1.00  0.00     0.005 C 
HETATM    5  C9  UNL     1      12.487  10.108  -2.005  1.00  0.00     0.006 C 
HETATM    6  C10 UNL     1      13.893  10.432  -1.592  1.00  0.00     0.002 C 
HETATM    7  C11 UNL     1      14.354  10.898  -3.001  1.00  0.00     0.010 C 
ENDROOT
BRANCH   1   8
HETATM    8  C3  UNL     1      16.231   9.617  -1.270  1.00  0.00     0.017 C 
BRANCH   8   9
HETATM    9  C2  UNL     1      16.552  10.603  -0.153  1.00  0.00    -0.003 C 
HETATM   10  C1  UNL     1      17.978  11.091  -0.285  1.00  0.00     0.005 C 
ENDBRANCH   8   9
ENDBRANCH   1   8
BRANCH   1  11
HETATM   11  C5  UNL     1      14.369   8.405  -0.194  1.00  0.00     0.119 A 
HETATM   12  N1  UNL     1      13.594   8.794   0.884  1.00  0.00    -0.270 N 
HETATM   13  N2  UNL     1      13.461   7.740   1.683  1.00  0.00    -0.005 NA
ATOM     14  H1  UNL     1      13.198   9.721   1.038  1.00  0.00     0.185 HD
HETATM   15  N3  UNL     1      14.121   6.677   1.164  1.00  0.00    -0.225 N 
HETATM   16  N4  UNL     1      14.621   7.165   0.054  1.00  0.00    -0.274 N 
ATOM     17  H3  UNL     1      14.208   5.733   1.542  1.00  0.00     0.205 HD
ATOM     18  H4  UNL     1      15.180   6.593  -0.579  1.00  0.00     0.189 HD
ENDBRANCH   1  11
TORSDOF 3
ENDMDL
MODEL 3
REMARK VINA RESULT: -6.136658138      1.940      4.075
REMARK  3 active torsions:
REMARK  status: ('A' for Active; 'I' for Inactive)
REMARK    1  A    between atoms: C2_2  and  C3_3 
REMARK    2  A    between atoms: C3_3  and  C4_4 
REMARK    3  A    between atoms: C4_4  and  C5_5 
ROOT
HETATM    1  C4  UNL     1      14.792   9.937   1.783  1.00  0.00     0.025 C 
HETATM    2  C6  UNL     1      13.903  10.654   2.783  1.00  0.00     0.022 C 
HETATM    3  C7  UNL     1      14.836  11.551   3.544  1.00  0.00    -0.013 C 
HETATM    4  C8  UNL     1      15.404  10.691   4.684  1.00  0.00     0.005 C 
HETATM    5  C9  UNL     1      16.194   9.657   3.851  1.00  0.00     0.006 C 
HETATM    6  C10 UNL     1      16.112  10.090   2.416  1.00  0.00     0.002 C 
HETATM    7  C11 UNL     1      16.138  11.613   2.723  1.00  0.00     0.010 C 
ENDROOT
BRANCH   1   8
HETATM    8  C3  UNL     1      14.653  10.665   0.473  1.00  0.00     0.017 C 
BRANCH   8   9
HETATM    9  C2  UNL     1      13.228  10.679  -0.067  1.00  0.00    -0.003 C 
HETATM   10  C1  UNL     1      13.246  10.709  -1.579  1.00  0.00     0.005 C 
ENDBRANCH   8   9
ENDBRANCH   1   8
BRANCH   1  11
HETATM   11  C5  UNL     1      14.331   8.508   1.631  1.00  0.00     0.119 A 
HETATM   12  N1  UNL     1      13.318   7.895   2.346  1.00  0.00    -0.270 N 
HETATM   13  N2  UNL     1      13.216   6.645   1.904  1.00  0.00    -0.005 NA
ATOM     14  H1  UNL     1      12.753   8.324   3.078  1.00  0.00     0.185 HD
HETATM   15  N3  UNL     1      14.126   6.421   0.927  1.00  0.00    -0.225 N 
HETATM   16  N4  UNL     1      14.735   7.579   0.832  1.00  0.00    -0.274 N 
ATOM     17  H3  UNL     1      14.297   5.566   0.398  1.00  0.00     0.205 HD
ATOM     18  H4  UNL     1      15.488   7.736   0.162  1.00  0.00     0.189 HD
ENDBRANCH   1  11
TORSDOF 3
ENDMDL
MODEL 4
REMARK VINA RESULT: -6.004157351      3.231      4.351
REMARK  3 active torsions:
REMARK  status: ('A' for Active; 'I' for Inactive)
REMARK    1  A    between atoms: C2_2  and  C3_3 
REMARK    2  A    between atoms: C3_3  and  C4_4 
REMARK    3  A    between atoms: C4_4  and  C5_5 
ROOT
HETATM    1  C4  UNL     1      14.800   9.992   1.759  1.00  0.00     0.025 C 
HETATM    2  C6  UNL     1      13.394  10.445   1.406  1.00  0.00     0.022 C 
HETATM    3  C7  UNL     1      13.147   9.879   0.037  1.00  0.00    -0.013 C 
HETATM    4  C8  UNL     1      13.715  10.910  -0.950  1.00  0.00     0.005 C 
HETATM    5  C9  UNL     1      15.212  10.817  -0.580  1.00  0.00     0.006 C 
HETATM    6  C10 UNL     1      15.351   9.710   0.424  1.00  0.00     0.002 C 
HETATM    7  C11 UNL     1      14.239   8.817  -0.192  1.00  0.00     0.010 C 
ENDROOT
BRANCH   1   8
HETATM    8  C3  UNL     1      14.662   8.775   2.633  1.00  0.00     0.017 C 
BRANCH   8   9
HETATM    9  C2  UNL     1      13.371   8.752   3.443  1.00  0.00    -0.003 C 
HETATM   10  C1  UNL     1      13.678   8.913   4.916  1.00  0.00     0.005 C 
ENDBRANCH   8   9
ENDBRANCH   1   8
BRANCH   1  11
HETATM   11  C5  UNL     1      15.511  11.090   2.512  1.00  0.00     0.119 A 
HETATM   12  N1  UNL     1      14.936  11.966   3.414  1.00  0.00    -0.270 N 
HETATM   13  N2  UNL     1      15.899  12.766   3.864  1.00  0.00    -0.005 NA
ATOM     14  H1  UNL     1      13.953  11.994   3.685  1.00  0.00     0.185 HD
HETATM   15  N3  UNL     1      17.080  12.442   3.286  1.00  0.00    -0.225 N 
HETATM   16  N4  UNL     1      16.752  11.439   2.508  1.00  0.00    -0.274 N 
ATOM     17  H3  UNL     1      17.995  12.871   3.422  1.00  0.00     0.205 HD
ATOM     18  H4  UNL     1      17.444  10.961   1.929  1.00  0.00     0.189 HD
ENDBRANCH   1  11
TORSDOF 3
ENDMDL
MODEL 5
REMARK VINA RESULT: -5.940744977      3.152      4.191
REMARK  3 active torsions:
REMARK  status: ('A' for Active; 'I' for Inactive)
REMARK    1  A    between atoms: C2_2  and  C3_3 
REMARK    2  A    between atoms: C3_3  and  C4_4 
REMARK    3  A    between atoms: C4_4  and  C5_5 
ROOT
HETATM    1  C4  UNL     1      15.419  10.078  -0.193  1.00  0.00     0.025 C 
HETATM    2  C6  UNL     1      14.256  10.896  -0.725  1.00  0.00     0.022 C 
HETATM    3  C7  UNL     1      13.640  10.034  -1.788  1.00  0.00    -0.013 C 
HETATM    4  C8  UNL     1      14.424  10.334  -3.075  1.00  0.00     0.005 C 
HETATM    5  C9  UNL     1      15.809   9.789  -2.660  1.00  0.00     0.006 C 
HETATM    6  C10 UNL     1      15.647   9.150  -1.313  1.00  0.00     0.002 C 
HETATM    7  C11 UNL     1      14.212   8.618  -1.577  1.00  0.00     0.010 C 
ENDROOT
BRANCH   1   8
HETATM    8  C3  UNL     1      14.945   9.410   1.069  1.00  0.00     0.017 C 
BRANCH   8   9
HETATM    9  C2  UNL     1      13.739  10.094   1.703  1.00  0.00    -0.003 C 
HETATM   10  C1  UNL     1      12.689   9.067   2.064  1.00  0.00     0.005 C 
ENDBRANCH   8   9
ENDBRANCH   1   8
BRANCH   1  11
HETATM   11  C5  UNL     1      16.582  10.991   0.111  1.00  0.00     0.119 A 
HETATM   12  N1  UNL     1      17.710  11.165  -0.669  1.00  0.00    -0.270 N 
HETATM   13  N2  UNL     1      18.484  12.059  -0.061  1.00  0.00    -0.005 NA
ATOM     14  H1  UNL     1      17.912  10.693  -1.551  1.00  0.00     0.185 HD
HETATM   15  N3  UNL     1      17.900  12.473   1.088  1.00  0.00    -0.225 N 
HETATM   16  N4  UNL     1      16.780  11.792   1.103  1.00  0.00    -0.274 N 
ATOM     17  H3  UNL     1      18.245  13.147   1.772  1.00  0.00     0.205 HD
ATOM     18  H4  UNL     1      16.101  11.890   1.858  1.00  0.00     0.189 HD
ENDBRANCH   1  11
TORSDOF 3
ENDMDL
