MODEL 1
REMARK VINA RESULT: -6.009288663      0.000      0.000
REMARK  1 active torsions:
REMARK  status: ('A' for Active; 'I' for Inactive)
REMARK    1  A    between atoms: N3_8  and  C5_9 
ROOT
HETATM    1  N1  UNL     1     -16.976  -0.780   1.692  1.00  0.00    -0.064 NA
HETATM    2  C1  UNL     1     -15.658  -0.793   2.243  1.00  0.00     0.186 C 
HETATM    3  N2  UNL     1     -15.465  -0.715   3.512  1.00  0.00    -0.364 N 
ATOM      4  H2  UNL     1     -16.276  -0.642   4.127  1.00  0.00     0.162 HD
HETATM    5  C2  UNL     1     -14.165  -0.727   4.091  1.00  0.00     0.124 C 
HETATM    6  C3  UNL     1     -13.019  -0.922   3.164  1.00  0.00     0.039 C 
HETATM    7  C4  UNL     1     -13.301  -0.259   1.833  1.00  0.00     0.127 C 
HETATM    8  N3  UNL     1     -14.557  -0.897   1.374  1.00  0.00    -0.351 N 
ENDROOT
BRANCH   8   9
HETATM    9  C5  UNL     1     -14.637  -1.565   0.120  1.00  0.00     0.087 C 
HETATM   10  C6  UNL     1     -14.530  -3.042   0.120  1.00  0.00     0.025 C 
HETATM   11  C7  UNL     1     -13.989  -3.365  -1.259  1.00  0.00     0.002 C 
HETATM   12  C8  UNL     1     -13.019  -2.238  -1.536  1.00  0.00     0.002 C 
HETATM   13  C9  UNL     1     -13.634  -1.033  -0.888  1.00  0.00     0.025 C 
ENDBRANCH   8   9
TORSDOF 1
ENDMDL
MODEL 2
REMARK VINA RESULT: -5.648876124      1.364      4.124
REMARK  1 active torsions:
REMARK  status: ('A' for Active; 'I' for Inactive)
REMARK    1  A    between atoms: N3_8  and  C5_9 
ROOT
HETATM    1  N1  UNL     1     -16.222   0.555   0.571  1.00  0.00    -0.064 NA
HETATM    2  C1  UNL     1     -15.481  -0.543   0.036  1.00  0.00     0.186 C 
HETATM    3  N2  UNL     1     -15.527  -0.832  -1.215  1.00  0.00    -0.364 N 
ATOM      4  H2  UNL     1     -16.108  -0.261  -1.829  1.00  0.00     0.162 HD
HETATM    5  C2  UNL     1     -14.799  -1.918  -1.778  1.00  0.00     0.124 C 
HETATM    6  C3  UNL     1     -13.899  -2.668  -0.862  1.00  0.00     0.039 C 
HETATM    7  C4  UNL     1     -14.497  -2.734   0.526  1.00  0.00     0.127 C 
HETATM    8  N3  UNL     1     -14.685  -1.313   0.903  1.00  0.00    -0.351 N 
ENDROOT
BRANCH   8   9
HETATM    9  C5  UNL     1     -14.097  -0.773   2.081  1.00  0.00     0.087 C 
HETATM   10  C6  UNL     1     -12.730  -1.219   2.435  1.00  0.00     0.025 C 
HETATM   11  C7  UNL     1     -12.671  -1.044   3.939  1.00  0.00     0.002 C 
HETATM   12  C8  UNL     1     -14.058  -1.433   4.400  1.00  0.00     0.002 C 
HETATM   13  C9  UNL     1     -14.972  -0.961   3.308  1.00  0.00     0.025 C 
ENDBRANCH   8   9
TORSDOF 1
ENDMDL
MODEL 3
REMARK VINA RESULT: -5.490549893      3.276      4.975
REMARK  1 active torsions:
REMARK  status: ('A' for Active; 'I' for Inactive)
REMARK    1  A    between atoms: N3_8  and  C5_9 
ROOT
HETATM    1  N1  UNL     1     -20.081  -2.020   0.887  1.00  0.00    -0.064 NA
HETATM    2  C1  UNL     1     -19.536  -0.938   0.131  1.00  0.00     0.186 C 
HETATM    3  N2  UNL     1     -20.296  -0.065  -0.428  1.00  0.00    -0.364 N 
ATOM      4  H2  UNL     1     -21.307  -0.159  -0.325  1.00  0.00     0.162 HD
HETATM    5  C2  UNL     1     -19.783   1.025  -1.185  1.00  0.00     0.124 C 
HETATM    6  C3  UNL     1     -18.304   1.171  -1.236  1.00  0.00     0.039 C 
HETATM    7  C4  UNL     1     -17.642  -0.191  -1.235  1.00  0.00     0.127 C 
HETATM    8  N3  UNL     1     -18.139  -0.830   0.007  1.00  0.00    -0.351 N 
ENDROOT
BRANCH   8   9
HETATM    9  C5  UNL     1     -17.245  -1.312   1.004  1.00  0.00     0.087 C 
HETATM   10  C6  UNL     1     -17.001  -0.451   2.183  1.00  0.00     0.025 C 
HETATM   11  C7  UNL     1     -15.621  -0.863   2.654  1.00  0.00     0.002 C 
HETATM   12  C8  UNL     1     -14.868  -1.126   1.368  1.00  0.00     0.002 C 
HETATM   13  C9  UNL     1     -15.892  -1.701   0.434  1.00  0.00     0.025 C 
ENDBRANCH   8   9
TORSDOF 1
ENDMDL
MODEL 4
REMARK VINA RESULT: -5.424352127      1.087      1.200
REMARK  1 active torsions:
REMARK  status: ('A' for Active; 'I' for Inactive)
REMARK    1  A    between atoms: N3_8  and  C5_9 
ROOT
HETATM    1  N1  UNL     1     -16.681  -0.159   0.030  1.00  0.00    -0.064 NA
HETATM    2  C1  UNL     1     -15.642  -0.509   0.945  1.00  0.00     0.186 C 
HETATM    3  N2  UNL     1     -15.854  -0.547   2.212  1.00  0.00    -0.364 N 
ATOM      4  H2  UNL     1     -16.786  -0.319   2.560  1.00  0.00     0.162 HD
HETATM    5  C2  UNL     1     -14.840  -0.894   3.149  1.00  0.00     0.124 C 
HETATM    6  C3  UNL     1     -13.523  -1.302   2.592  1.00  0.00     0.039 C 
HETATM    7  C4  UNL     1     -13.221  -0.521   1.331  1.00  0.00     0.127 C 
HETATM    8  N3  UNL     1     -14.367  -0.822   0.440  1.00  0.00    -0.351 N 
ENDROOT
BRANCH   8   9
HETATM    9  C5  UNL     1     -14.175  -1.384  -0.853  1.00  0.00     0.087 C 
HETATM   10  C6  UNL     1     -13.878  -2.833  -0.935  1.00  0.00     0.025 C 
HETATM   11  C7  UNL     1     -13.105  -2.970  -2.232  1.00  0.00     0.002 C 
HETATM   12  C8  UNL     1     -12.260  -1.717  -2.279  1.00  0.00     0.002 C 
HETATM   13  C9  UNL     1     -13.114  -0.652  -1.655  1.00  0.00     0.025 C 
ENDBRANCH   8   9
TORSDOF 1
ENDMDL
MODEL 5
REMARK VINA RESULT: -5.404377878      3.514      4.902
REMARK  1 active torsions:
REMARK  status: ('A' for Active; 'I' for Inactive)
REMARK    1  A    between atoms: N3_8  and  C5_9 
ROOT
HETATM    1  N1  UNL     1     -17.587   2.147  -1.753  1.00  0.00    -0.064 NA
HETATM    2  C1  UNL     1     -18.364   1.088  -1.193  1.00  0.00     0.186 C 
HETATM    3  N2  UNL     1     -19.593   0.915  -1.525  1.00  0.00    -0.364 N 
ATOM      4  H2  UNL     1     -20.012   1.553  -2.201  1.00  0.00     0.162 HD
HETATM    5  C2  UNL     1     -20.392  -0.132  -0.985  1.00  0.00     0.124 C 
HETATM    6  C3  UNL     1     -19.716  -1.090  -0.071  1.00  0.00     0.039 C 
HETATM    7  C4  UNL     1     -18.661  -0.377   0.750  1.00  0.00     0.127 C 
HETATM    8  N3  UNL     1     -17.761   0.220  -0.265  1.00  0.00    -0.351 N 
ENDROOT
BRANCH   8   9
HETATM    9  C5  UNL     1     -16.367  -0.068  -0.283  1.00  0.00     0.087 C 
HETATM   10  C6  UNL     1     -15.849  -0.888  -1.402  1.00  0.00     0.025 C 
HETATM   11  C7  UNL     1     -14.613  -1.548  -0.824  1.00  0.00     0.002 C 
HETATM   12  C8  UNL     1     -15.002  -1.846   0.607  1.00  0.00     0.002 C 
HETATM   13  C9  UNL     1     -15.887  -0.703   1.011  1.00  0.00     0.025 C 
ENDBRANCH   8   9
TORSDOF 1
ENDMDL
