MODEL 1
REMARK VINA RESULT: -5.696727452      0.000      0.000
REMARK  2 active torsions:
REMARK  status: ('A' for Active; 'I' for Inactive)
REMARK    1  A    between atoms: C3_5  and  N2_6 
REMARK    2  A    between atoms: N2_6  and  C5_8 
ROOT
HETATM    1  C1  UNL     1     -11.628  -1.537   4.880  1.00  0.00     0.091 C 
HETATM    2  C2  UNL     1     -12.999  -1.241   4.370  1.00  0.00     0.108 A 
HETATM    3  N1  UNL     1     -13.364  -1.364   3.082  1.00  0.00    -0.178 N 
ATOM      4  H1  UNL     1     -12.753  -1.668   2.325  1.00  0.00     0.185 HD
HETATM    5  C3  UNL     1     -14.657  -1.025   2.946  1.00  0.00     0.696 A 
HETATM    6  N3  UNL     1     -15.055  -0.697   4.183  1.00  0.00    -0.131 N 
ATOM      7  H3  UNL     1     -15.996  -0.390   4.425  1.00  0.00     0.205 HD
HETATM    8  N4  UNL     1     -14.074  -0.823   5.036  1.00  0.00    -0.275 N 
ATOM      9  H4  UNL     1     -14.123  -0.634   6.038  1.00  0.00     0.189 HD
ENDROOT
BRANCH   5  10
HETATM   10  N2  UNL     1     -15.405  -1.027   1.730  1.00  0.00    -0.212 N 
HETATM   11  C4  UNL     1     -16.824  -0.701   1.789  1.00  0.00     0.169 C 
BRANCH  10  12
HETATM   12  C5  UNL     1     -14.869  -1.326   0.445  1.00  0.00     0.038 C 
HETATM   13  C6  UNL     1     -14.719  -2.840   0.337  1.00  0.00     0.038 C 
HETATM   14  C7  UNL     1     -13.577  -0.685   0.098  1.00  0.00     0.038 C 
HETATM   15  C8  UNL     1     -15.898  -0.878  -0.600  1.00  0.00     0.038 C 
ENDBRANCH  10  12
ENDBRANCH   5  10
TORSDOF 2
ENDMDL
MODEL 2
REMARK VINA RESULT: -5.639302658      1.670      2.215
REMARK  2 active torsions:
REMARK  status: ('A' for Active; 'I' for Inactive)
REMARK    1  A    between atoms: C3_5  and  N2_6 
REMARK    2  A    between atoms: N2_6  and  C5_8 
ROOT
HETATM    1  C1  UNL     1     -14.345  -0.936   4.799  1.00  0.00     0.091 C 
HETATM    2  C2  UNL     1     -13.961  -0.838   3.361  1.00  0.00     0.108 A 
HETATM    3  N1  UNL     1     -14.783  -1.142   2.342  1.00  0.00    -0.178 N 
ATOM      4  H1  UNL     1     -15.744  -1.467   2.439  1.00  0.00     0.185 HD
HETATM    5  C3  UNL     1     -14.144  -0.951   1.175  1.00  0.00     0.696 A 
HETATM    6  N3  UNL     1     -12.921  -0.526   1.523  1.00  0.00    -0.131 N 
ATOM      7  H3  UNL     1     -12.182  -0.289   0.862  1.00  0.00     0.205 HD
HETATM    8  N4  UNL     1     -12.805  -0.456   2.821  1.00  0.00    -0.275 N 
ATOM      9  H4  UNL     1     -11.973  -0.160   3.333  1.00  0.00     0.189 HD
ENDROOT
BRANCH   5  10
HETATM   10  N2  UNL     1     -14.686  -1.167  -0.128  1.00  0.00    -0.212 N 
HETATM   11  C4  UNL     1     -15.874  -0.417  -0.517  1.00  0.00     0.169 C 
BRANCH  10  12
HETATM   12  C5  UNL     1     -14.154  -2.069  -1.092  1.00  0.00     0.038 C 
HETATM   13  C6  UNL     1     -14.277  -3.483  -0.535  1.00  0.00     0.038 C 
HETATM   14  C7  UNL     1     -12.752  -1.835  -1.517  1.00  0.00     0.038 C 
HETATM   15  C8  UNL     1     -15.034  -1.977  -2.345  1.00  0.00     0.038 C 
ENDBRANCH  10  12
ENDBRANCH   5  10
TORSDOF 2
ENDMDL
MODEL 3
REMARK VINA RESULT: -5.597043377      0.091      1.221
REMARK  2 active torsions:
REMARK  status: ('A' for Active; 'I' for Inactive)
REMARK    1  A    between atoms: C3_5  and  N2_6 
REMARK    2  A    between atoms: N2_6  and  C5_8 
ROOT
HETATM    1  C1  UNL     1     -11.665  -1.517   4.919  1.00  0.00     0.091 C 
HETATM    2  C2  UNL     1     -13.038  -1.234   4.408  1.00  0.00     0.108 A 
HETATM    3  N1  UNL     1     -13.403  -1.372   3.122  1.00  0.00    -0.178 N 
ATOM      4  H1  UNL     1     -12.791  -1.681   2.367  1.00  0.00     0.185 HD
HETATM    5  C3  UNL     1     -14.698  -1.041   2.983  1.00  0.00     0.696 A 
HETATM    6  N3  UNL     1     -15.097  -0.702   4.217  1.00  0.00    -0.131 N 
ATOM      7  H3  UNL     1     -16.040  -0.398   4.457  1.00  0.00     0.205 HD
HETATM    8  N4  UNL     1     -14.115  -0.814   5.070  1.00  0.00    -0.275 N 
ATOM      9  H4  UNL     1     -14.164  -0.615   6.070  1.00  0.00     0.189 HD
ENDROOT
BRANCH   5  10
HETATM   10  N2  UNL     1     -15.447  -1.060   1.768  1.00  0.00    -0.212 N 
HETATM   11  C4  UNL     1     -16.859  -0.700   1.818  1.00  0.00     0.169 C 
BRANCH  10  12
HETATM   12  C5  UNL     1     -14.921  -1.407   0.492  1.00  0.00     0.038 C 
HETATM   13  C6  UNL     1     -15.898  -0.919  -0.572  1.00  0.00     0.038 C 
HETATM   14  C7  UNL     1     -14.632  -2.844   0.261  1.00  0.00     0.038 C 
HETATM   15  C8  UNL     1     -13.604  -0.642   0.311  1.00  0.00     0.038 C 
ENDBRANCH  10  12
ENDBRANCH   5  10
TORSDOF 2
ENDMDL
MODEL 4
REMARK VINA RESULT: -5.548214227      1.025      1.130
REMARK  2 active torsions:
REMARK  status: ('A' for Active; 'I' for Inactive)
REMARK    1  A    between atoms: C3_5  and  N2_6 
REMARK    2  A    between atoms: N2_6  and  C5_8 
ROOT
HETATM    1  C1  UNL     1     -12.759  -1.229   4.791  1.00  0.00     0.091 C 
HETATM    2  C2  UNL     1     -13.934  -1.015   3.897  1.00  0.00     0.108 A 
HETATM    3  N1  UNL     1     -13.865  -1.004   2.555  1.00  0.00    -0.178 N 
ATOM      4  H1  UNL     1     -13.014  -1.139   2.009  1.00  0.00     0.185 HD
HETATM    5  C3  UNL     1     -15.088  -0.787   2.042  1.00  0.00     0.696 A 
HETATM    6  N3  UNL     1     -15.889  -0.670   3.110  1.00  0.00    -0.131 N 
ATOM      7  H3  UNL     1     -16.893  -0.498   3.064  1.00  0.00     0.205 HD
HETATM    8  N4  UNL     1     -15.210  -0.804   4.218  1.00  0.00    -0.275 N 
ATOM      9  H4  UNL     1     -15.590  -0.755   5.163  1.00  0.00     0.189 HD
ENDROOT
BRANCH   5  10
HETATM   10  N2  UNL     1     -15.418  -0.707   0.656  1.00  0.00    -0.212 N 
HETATM   11  C4  UNL     1     -16.564   0.103   0.262  1.00  0.00     0.169 C 
BRANCH  10  12
HETATM   12  C5  UNL     1     -14.709  -1.365  -0.390  1.00  0.00     0.038 C 
HETATM   13  C6  UNL     1     -14.652  -2.852  -0.059  1.00  0.00     0.038 C 
HETATM   14  C7  UNL     1     -13.337  -0.877  -0.671  1.00  0.00     0.038 C 
HETATM   15  C8  UNL     1     -15.526  -1.199  -1.677  1.00  0.00     0.038 C 
ENDBRANCH  10  12
ENDBRANCH   5  10
TORSDOF 2
ENDMDL
MODEL 5
REMARK VINA RESULT: -5.522064725      2.719      4.058
REMARK  2 active torsions:
REMARK  status: ('A' for Active; 'I' for Inactive)
REMARK    1  A    between atoms: C3_5  and  N2_6 
REMARK    2  A    between atoms: N2_6  and  C5_8 
ROOT
HETATM    1  C1  UNL     1     -14.037  -1.813   1.449  1.00  0.00     0.091 C 
HETATM    2  C2  UNL     1     -15.443  -1.321   1.532  1.00  0.00     0.108 A 
HETATM    3  N1  UNL     1     -16.326  -1.395   0.522  1.00  0.00    -0.178 N 
ATOM      4  H1  UNL     1     -16.133  -1.790  -0.399  1.00  0.00     0.185 HD
HETATM    5  C3  UNL     1     -17.500  -0.870   0.909  1.00  0.00     0.696 A 
HETATM    6  N3  UNL     1     -17.297  -0.481   2.176  1.00  0.00    -0.131 N 
ATOM      7  H3  UNL     1     -18.002  -0.037   2.764  1.00  0.00     0.205 HD
HETATM    8  N4  UNL     1     -16.076  -0.746   2.554  1.00  0.00    -0.275 N 
ATOM      9  H4  UNL     1     -15.676  -0.547   3.471  1.00  0.00     0.189 HD
ENDROOT
BRANCH   5  10
HETATM   10  N2  UNL     1     -18.681  -0.768   0.114  1.00  0.00    -0.212 N 
HETATM   11  C4  UNL     1     -19.796  -1.659   0.411  1.00  0.00     0.169 C 
BRANCH  10  12
HETATM   12  C5  UNL     1     -18.862   0.146  -0.963  1.00  0.00     0.038 C 
HETATM   13  C6  UNL     1     -18.669  -0.618  -2.268  1.00  0.00     0.038 C 
HETATM   14  C7  UNL     1     -17.988   1.345  -0.970  1.00  0.00     0.038 C 
HETATM   15  C8  UNL     1     -20.313   0.637  -0.914  1.00  0.00     0.038 C 
ENDBRANCH  10  12
ENDBRANCH   5  10
TORSDOF 2
ENDMDL
