MODEL 1
REMARK VINA RESULT: -4.823966985      0.000      0.000
REMARK  1 active torsions:
REMARK  status: ('A' for Active; 'I' for Inactive)
REMARK    1  A    between atoms: C2_2  and  N1_4 
ROOT
HETATM    1  N1  UNL     1     -15.821   0.174   0.797  1.00  0.00    -0.367 N 
ATOM      2  H1  UNL     1     -15.988   1.178   0.866  1.00  0.00     0.162 HD
HETATM    3  C4  UNL     1     -14.712  -0.315   1.207  1.00  0.00     0.140 C 
HETATM    4  N2  UNL     1     -13.531   0.204   1.789  1.00  0.00    -0.353 N 
ATOM      5  H2  UNL     1     -12.954   1.032   1.641  1.00  0.00     0.163 HD
HETATM    6  C5  UNL     1     -13.485  -0.911   2.669  1.00  0.00     0.081 C 
HETATM    7  C6  UNL     1     -12.179  -1.246   3.307  1.00  0.00     0.051 C 
HETATM    8  C7  UNL     1     -14.595  -0.911   3.725  1.00  0.00     0.051 C 
HETATM    9  S1  UNL     1     -13.987  -1.967   1.289  1.00  0.00    -0.064 SA
ENDROOT
BRANCH   1  10
HETATM   10  C2  UNL     1     -16.836  -0.686   0.239  1.00  0.00     0.075 C 
HETATM   11  C1  UNL     1     -17.509  -0.032  -0.958  1.00  0.00     0.032 C 
HETATM   12  C3  UNL     1     -17.915  -0.936   1.273  1.00  0.00     0.032 C 
ENDBRANCH   1  10
TORSDOF 1
ENDMDL
MODEL 2
REMARK VINA RESULT: -4.779095024      1.883      4.488
REMARK  1 active torsions:
REMARK  status: ('A' for Active; 'I' for Inactive)
REMARK    1  A    between atoms: C2_2  and  N1_4 
ROOT
HETATM    1  N1  UNL     1     -13.571  -2.036   3.187  1.00  0.00    -0.367 N 
ATOM      2  H1  UNL     1     -13.678  -3.010   3.469  1.00  0.00     0.162 HD
HETATM    3  C4  UNL     1     -13.827  -1.691   1.981  1.00  0.00     0.140 C 
HETATM    4  N2  UNL     1     -14.265  -2.355   0.810  1.00  0.00    -0.353 N 
ATOM      5  H2  UNL     1     -14.060  -3.250   0.366  1.00  0.00     0.163 HD
HETATM    6  C5  UNL     1     -15.111  -1.253   0.512  1.00  0.00     0.081 C 
HETATM    7  C6  UNL     1     -15.572  -1.086  -0.897  1.00  0.00     0.051 C 
HETATM    8  C7  UNL     1     -16.299  -1.110   1.469  1.00  0.00     0.051 C 
HETATM    9  S1  UNL     1     -13.787  -0.144   1.049  1.00  0.00    -0.064 SA
ENDROOT
BRANCH   1  10
HETATM   10  C2  UNL     1     -13.130  -1.054   4.149  1.00  0.00     0.075 C 
HETATM   11  C1  UNL     1     -11.867  -1.515   4.859  1.00  0.00     0.032 C 
HETATM   12  C3  UNL     1     -14.195  -0.869   5.210  1.00  0.00     0.032 C 
ENDBRANCH   1  10
TORSDOF 1
ENDMDL
MODEL 3
REMARK VINA RESULT: -4.769884222      1.638      4.714
REMARK  1 active torsions:
REMARK  status: ('A' for Active; 'I' for Inactive)
REMARK    1  A    between atoms: C2_2  and  N1_4 
ROOT
HETATM    1  N1  UNL     1     -12.273  -0.914   2.908  1.00  0.00    -0.367 N 
ATOM      2  H1  UNL     1     -11.372  -0.767   2.452  1.00  0.00     0.162 HD
HETATM    3  C4  UNL     1     -13.355  -0.637   2.282  1.00  0.00     0.140 C 
HETATM    4  N2  UNL     1     -13.681  -0.131   1.000  1.00  0.00    -0.353 N 
ATOM      5  H2  UNL     1     -13.303   0.594   0.391  1.00  0.00     0.163 HD
HETATM    6  C5  UNL     1     -14.756  -1.057   0.918  1.00  0.00     0.081 C 
HETATM    7  C6  UNL     1     -15.856  -0.768  -0.046  1.00  0.00     0.051 C 
HETATM    8  C7  UNL     1     -14.305  -2.515   0.772  1.00  0.00     0.051 C 
HETATM    9  S1  UNL     1     -15.119  -0.727   2.659  1.00  0.00    -0.064 SA
ENDROOT
BRANCH   1  10
HETATM   10  C2  UNL     1     -12.321  -1.433   4.253  1.00  0.00     0.075 C 
HETATM   11  C1  UNL     1     -10.932  -1.488   4.867  1.00  0.00     0.032 C 
HETATM   12  C3  UNL     1     -12.854  -2.850   4.232  1.00  0.00     0.032 C 
ENDBRANCH   1  10
TORSDOF 1
ENDMDL
MODEL 4
REMARK VINA RESULT: -4.764016520      1.880      2.273
REMARK  1 active torsions:
REMARK  status: ('A' for Active; 'I' for Inactive)
REMARK    1  A    between atoms: C2_2  and  N1_4 
ROOT
HETATM    1  N1  UNL     1     -15.809  -0.741   3.079  1.00  0.00    -0.367 N 
ATOM      2  H1  UNL     1     -16.551  -0.823   3.773  1.00  0.00     0.162 HD
HETATM    3  C4  UNL     1     -14.590  -0.649   3.458  1.00  0.00     0.140 C 
HETATM    4  N2  UNL     1     -13.917  -0.627   4.704  1.00  0.00    -0.353 N 
ATOM      5  H2  UNL     1     -14.091  -0.197   5.612  1.00  0.00     0.163 HD
HETATM    6  C5  UNL     1     -12.899  -1.454   4.158  1.00  0.00     0.081 C 
HETATM    7  C6  UNL     1     -11.572  -1.473   4.840  1.00  0.00     0.051 C 
HETATM    8  C7  UNL     1     -13.357  -2.888   3.872  1.00  0.00     0.051 C 
HETATM    9  S1  UNL     1     -12.993  -0.492   2.630  1.00  0.00    -0.064 SA
ENDROOT
BRANCH   1  10
HETATM   10  C2  UNL     1     -16.139  -0.730   1.674  1.00  0.00     0.075 C 
HETATM   11  C1  UNL     1     -17.642  -0.635   1.466  1.00  0.00     0.032 C 
HETATM   12  C3  UNL     1     -15.684  -2.026   1.035  1.00  0.00     0.032 C 
ENDBRANCH   1  10
TORSDOF 1
ENDMDL
MODEL 5
REMARK VINA RESULT: -4.700755145      2.015      4.314
REMARK  1 active torsions:
REMARK  status: ('A' for Active; 'I' for Inactive)
REMARK    1  A    between atoms: C2_2  and  N1_4 
ROOT
HETATM    1  N1  UNL     1     -14.960  -0.842   1.898  1.00  0.00    -0.367 N 
ATOM      2  H1  UNL     1     -15.453   0.037   2.052  1.00  0.00     0.162 HD
HETATM    3  C4  UNL     1     -15.105  -1.468   0.791  1.00  0.00     0.140 C 
HETATM    4  N2  UNL     1     -15.836  -1.255  -0.403  1.00  0.00    -0.353 N 
ATOM      5  H2  UNL     1     -16.771  -0.916  -0.628  1.00  0.00     0.163 HD
HETATM    6  C5  UNL     1     -14.720  -1.711  -1.156  1.00  0.00     0.081 C 
HETATM    7  C6  UNL     1     -14.963  -2.184  -2.550  1.00  0.00     0.051 C 
HETATM    8  C7  UNL     1     -13.526  -0.751  -1.133  1.00  0.00     0.051 C 
HETATM    9  S1  UNL     1     -14.461  -3.000   0.085  1.00  0.00    -0.064 SA
ENDROOT
BRANCH   1  10
HETATM   10  C2  UNL     1     -14.103  -1.374   2.930  1.00  0.00     0.075 C 
HETATM   11  C1  UNL     1     -14.517  -0.866   4.301  1.00  0.00     0.032 C 
HETATM   12  C3  UNL     1     -12.679  -0.911   2.696  1.00  0.00     0.032 C 
ENDBRANCH   1  10
TORSDOF 1
ENDMDL
