MODEL 1
REMARK VINA RESULT: -5.033458590      0.000      0.000
REMARK  2 active torsions:
REMARK  status: ('A' for Active; 'I' for Inactive)
REMARK    1  A    between atoms: C2_2  and  C3_3 
REMARK    2  A    between atoms: C7_9  and  N2_10 
ROOT
HETATM    1  C3  UNL     1     -14.401  -1.057   0.516  1.00  0.00     0.066 A 
HETATM    2  C4  UNL     1     -14.157  -2.435   1.068  1.00  0.00     0.041 C 
HETATM    3  C5  UNL     1     -13.931  -0.865  -0.876  1.00  0.00     0.123 A 
HETATM    4  C6  UNL     1     -13.363  -2.112  -1.510  1.00  0.00     0.035 C 
HETATM    5  N1  UNL     1     -15.095  -0.485  -1.619  1.00  0.00    -0.220 N 
ATOM      6  H1  UNL     1     -15.085  -0.264  -2.615  1.00  0.00     0.178 HD
HETATM    7  C7  UNL     1     -16.149  -0.454  -0.897  1.00  0.00     0.672 A 
HETATM    8  N3  UNL     1     -15.807  -0.813   0.430  1.00  0.00    -0.211 N 
HETATM    9  C9  UNL     1     -16.759  -0.911   1.510  1.00  0.00     0.169 C 
ENDROOT
BRANCH   1  10
HETATM   10  C2  UNL     1     -13.694  -0.074   1.430  1.00  0.00     0.029 C 
HETATM   11  C1  UNL     1     -12.707  -0.719   2.341  1.00  0.00     0.007 C 
ENDBRANCH   1  10
BRANCH   7  12
HETATM   12  N2  UNL     1     -17.484  -0.108  -1.351  1.00  0.00    -0.231 N 
HETATM   13  C8  UNL     1     -17.884   1.275  -1.342  1.00  0.00     0.165 C 
ATOM     14  H2  UNL     1     -18.128  -0.832  -1.669  1.00  0.00     0.177 HD
ENDBRANCH   7  12
TORSDOF 2
ENDMDL
MODEL 2
REMARK VINA RESULT: -4.877815228      1.312      2.994
REMARK  2 active torsions:
REMARK  status: ('A' for Active; 'I' for Inactive)
REMARK    1  A    between atoms: C2_2  and  C3_3 
REMARK    2  A    between atoms: C7_9  and  N2_10 
ROOT
HETATM    1  C3  UNL     1     -14.336  -1.599  -0.070  1.00  0.00     0.066 A 
HETATM    2  C4  UNL     1     -13.243  -0.812  -0.739  1.00  0.00     0.041 C 
HETATM    3  C5  UNL     1     -14.241  -1.642   1.408  1.00  0.00     0.123 A 
HETATM    4  C6  UNL     1     -13.108  -0.822   1.975  1.00  0.00     0.035 C 
HETATM    5  N1  UNL     1     -15.471  -1.079   1.881  1.00  0.00    -0.220 N 
ATOM      6  H1  UNL     1     -15.709  -0.991   2.870  1.00  0.00     0.178 HD
HETATM    7  C7  UNL     1     -16.235  -0.700   0.931  1.00  0.00     0.672 A 
HETATM    8  N3  UNL     1     -15.598  -0.970  -0.305  1.00  0.00    -0.211 N 
HETATM    9  C9  UNL     1     -16.164  -0.644  -1.592  1.00  0.00     0.169 C 
ENDROOT
BRANCH   1  10
HETATM   10  C2  UNL     1     -14.277  -3.011  -0.623  1.00  0.00     0.029 C 
HETATM   11  C1  UNL     1     -13.347  -3.155  -1.778  1.00  0.00     0.007 C 
ENDBRANCH   1  10
BRANCH   7  12
HETATM   12  N2  UNL     1     -17.545  -0.092   1.080  1.00  0.00    -0.231 N 
HETATM   13  C8  UNL     1     -18.711  -0.935   1.036  1.00  0.00     0.165 C 
ATOM     14  H2  UNL     1     -17.638   0.914   1.214  1.00  0.00     0.177 HD
ENDBRANCH   7  12
TORSDOF 2
ENDMDL
MODEL 3
REMARK VINA RESULT: -4.747250843      1.785      2.245
REMARK  2 active torsions:
REMARK  status: ('A' for Active; 'I' for Inactive)
REMARK    1  A    between atoms: C2_2  and  C3_3 
REMARK    2  A    between atoms: C7_9  and  N2_10 
ROOT
HETATM    1  C3  UNL     1     -13.916  -1.203  -0.890  1.00  0.00     0.066 A 
HETATM    2  C4  UNL     1     -14.232  -2.642  -0.586  1.00  0.00     0.041 C 
HETATM    3  C5  UNL     1     -12.806  -1.011  -1.852  1.00  0.00     0.123 A 
HETATM    4  C6  UNL     1     -12.247  -2.298  -2.409  1.00  0.00     0.035 C 
HETATM    5  N1  UNL     1     -13.373  -0.271  -2.940  1.00  0.00    -0.220 N 
ATOM      6  H1  UNL     1     -12.841   0.032  -3.756  1.00  0.00     0.178 HD
HETATM    7  C7  UNL     1     -14.616  -0.033  -2.776  1.00  0.00     0.672 A 
HETATM    8  N3  UNL     1     -15.032  -0.592  -1.542  1.00  0.00    -0.211 N 
HETATM    9  C9  UNL     1     -16.386  -0.537  -1.048  1.00  0.00     0.169 C 
ENDROOT
BRANCH   1  10
HETATM   10  C2  UNL     1     -13.570  -0.530   0.425  1.00  0.00     0.029 C 
HETATM   11  C1  UNL     1     -13.568  -1.466   1.584  1.00  0.00     0.007 C 
ENDBRANCH   1  10
BRANCH   7  12
HETATM   12  N2  UNL     1     -15.475   0.693  -3.695  1.00  0.00    -0.231 N 
HETATM   13  C8  UNL     1     -16.218  -0.047  -4.682  1.00  0.00     0.165 C 
ATOM     14  H2  UNL     1     -15.550   1.708  -3.643  1.00  0.00     0.177 HD
ENDBRANCH   7  12
TORSDOF 2
ENDMDL
MODEL 4
REMARK VINA RESULT: -4.710504437      3.275      4.711
REMARK  2 active torsions:
REMARK  status: ('A' for Active; 'I' for Inactive)
REMARK    1  A    between atoms: C2_2  and  C3_3 
REMARK    2  A    between atoms: C7_9  and  N2_10 
ROOT
HETATM    1  C3  UNL     1     -14.271  -1.223  -3.448  1.00  0.00     0.066 A 
HETATM    2  C4  UNL     1     -13.928   0.225  -3.234  1.00  0.00     0.041 C 
HETATM    3  C5  UNL     1     -15.219  -1.780  -2.456  1.00  0.00     0.123 A 
HETATM    4  C6  UNL     1     -15.727  -0.768  -1.458  1.00  0.00     0.035 C 
HETATM    5  N1  UNL     1     -16.338  -2.243  -3.221  1.00  0.00    -0.220 N 
ATOM      6  H1  UNL     1     -17.154  -2.699  -2.812  1.00  0.00     0.178 HD
HETATM    7  C7  UNL     1     -16.202  -2.022  -4.471  1.00  0.00     0.672 A 
HETATM    8  N3  UNL     1     -14.959  -1.378  -4.691  1.00  0.00    -0.211 N 
HETATM    9  C9  UNL     1     -14.489  -0.954  -5.988  1.00  0.00     0.169 C 
ENDROOT
BRANCH   1  10
HETATM   10  C2  UNL     1     -12.971  -2.005  -3.401  1.00  0.00     0.029 C 
HETATM   11  C1  UNL     1     -12.273  -1.911  -2.088  1.00  0.00     0.007 C 
ENDBRANCH   1  10
BRANCH   7  12
HETATM   12  N2  UNL     1     -17.157  -2.370  -5.509  1.00  0.00    -0.231 N 
HETATM   13  C8  UNL     1     -18.519  -2.645  -5.134  1.00  0.00     0.165 C 
ATOM     14  H2  UNL     1     -16.867  -2.419  -6.485  1.00  0.00     0.177 HD
ENDBRANCH   7  12
TORSDOF 2
ENDMDL
MODEL 5
REMARK VINA RESULT: -4.699543118      2.094      3.896
REMARK  2 active torsions:
REMARK  status: ('A' for Active; 'I' for Inactive)
REMARK    1  A    between atoms: C2_2  and  C3_3 
REMARK    2  A    between atoms: C7_9  and  N2_10 
ROOT
HETATM    1  C3  UNL     1     -14.761  -1.660   0.672  1.00  0.00     0.066 A 
HETATM    2  C4  UNL     1     -14.960  -0.808  -0.551  1.00  0.00     0.041 C 
HETATM    3  C5  UNL     1     -13.443  -1.491   1.328  1.00  0.00     0.123 A 
HETATM    4  C6  UNL     1     -12.572  -0.436   0.691  1.00  0.00     0.035 C 
HETATM    5  N1  UNL     1     -13.738  -1.069   2.664  1.00  0.00    -0.220 N 
ATOM      6  H1  UNL     1     -13.024  -0.889   3.372  1.00  0.00     0.178 HD
HETATM    7  C7  UNL     1     -14.991  -0.944   2.874  1.00  0.00     0.672 A 
HETATM    8  N3  UNL     1     -15.690  -1.273   1.687  1.00  0.00    -0.211 N 
HETATM    9  C9  UNL     1     -17.126  -1.214   1.554  1.00  0.00     0.169 C 
ENDROOT
BRANCH   1  10
HETATM   10  C2  UNL     1     -14.933  -3.106   0.246  1.00  0.00     0.029 C 
HETATM   11  C1  UNL     1     -14.163  -3.456  -0.981  1.00  0.00     0.007 C 
ENDBRANCH   1  10
BRANCH   7  12
HETATM   12  N2  UNL     1     -15.611  -0.534   4.122  1.00  0.00    -0.231 N 
HETATM   13  C8  UNL     1     -14.823  -0.547   5.327  1.00  0.00     0.165 C 
ATOM     14  H2  UNL     1     -16.588  -0.241   4.144  1.00  0.00     0.177 HD
ENDBRANCH   7  12
TORSDOF 2
ENDMDL
