MODEL 1
REMARK VINA RESULT: -5.182541365      0.000      0.000
REMARK  1 active torsions:
REMARK  status: ('A' for Active; 'I' for Inactive)
REMARK    1  A    between atoms: N2_9  and  C5_10 
ROOT
HETATM    1  C5  UNL     1     -19.516  -0.015  -1.146  1.00  0.00     0.248 C 
HETATM    2  C6  UNL     1     -19.862  -0.961  -0.099  1.00  0.00     0.079 C 
HETATM    3  N3  UNL     1     -20.137  -1.725   0.714  1.00  0.00    -0.196 NA
ENDROOT
BRANCH   1   4
HETATM    4  N2  UNL     1     -18.084   0.146  -1.314  1.00  0.00    -0.349 N 
HETATM    5  C4  UNL     1     -17.554  -0.050  -2.615  1.00  0.00     0.136 C 
HETATM    6  S1  UNL     1     -15.744  -0.222  -2.607  1.00  0.00    -0.094 SA
HETATM    7  N1  UNL     1     -18.205  -0.113  -3.708  1.00  0.00    -0.380 N 
HETATM    8  C3  UNL     1     -15.404  -1.021  -1.016  1.00  0.00     0.088 C 
HETATM    9  C2  UNL     1     -16.098  -0.353   0.121  1.00  0.00     0.009 C 
HETATM   10  C1  UNL     1     -16.477  -1.398   1.155  1.00  0.00     0.012 C 
HETATM   11  C7  UNL     1     -17.224   0.524  -0.200  1.00  0.00     0.131 C 
ATOM     12  H12 UNL     1     -17.823  -0.254  -4.643  1.00  0.00     0.158 HD
ATOM     13  H11 UNL     1     -19.220  -0.016  -3.713  1.00  0.00     0.158 HD
ENDBRANCH   1   4
TORSDOF 1
ENDMDL
MODEL 2
REMARK VINA RESULT: -5.178349789      2.957      4.289
REMARK  1 active torsions:
REMARK  status: ('A' for Active; 'I' for Inactive)
REMARK    1  A    between atoms: N2_9  and  C5_10 
ROOT
HETATM    1  C5  UNL     1     -17.505  -0.774   1.568  1.00  0.00     0.248 C 
HETATM    2  C6  UNL     1     -17.739   0.448   0.818  1.00  0.00     0.079 C 
HETATM    3  N3  UNL     1     -17.922   1.426   0.243  1.00  0.00    -0.196 NA
ENDROOT
BRANCH   1   4
HETATM    4  N2  UNL     1     -16.126  -1.223   1.504  1.00  0.00    -0.349 N 
HETATM    5  C4  UNL     1     -15.285  -0.902   2.601  1.00  0.00     0.136 C 
HETATM    6  S1  UNL     1     -13.525  -1.155   2.220  1.00  0.00    -0.094 SA
HETATM    7  N1  UNL     1     -15.644  -0.480   3.747  1.00  0.00    -0.380 N 
HETATM    8  C3  UNL     1     -13.419  -0.782   0.449  1.00  0.00     0.088 C 
HETATM    9  C2  UNL     1     -14.466  -1.483  -0.348  1.00  0.00     0.009 C 
HETATM   10  C1  UNL     1     -14.875  -0.601  -1.514  1.00  0.00     0.012 C 
HETATM   11  C7  UNL     1     -15.629  -1.998   0.375  1.00  0.00     0.131 C 
ATOM     12  H12 UNL     1     -15.039  -0.249   4.535  1.00  0.00     0.158 HD
ATOM     13  H11 UNL     1     -16.631  -0.339   3.961  1.00  0.00     0.158 HD
ENDBRANCH   1   4
TORSDOF 1
ENDMDL
MODEL 3
REMARK VINA RESULT: -5.066382073      3.339      4.923
REMARK  1 active torsions:
REMARK  status: ('A' for Active; 'I' for Inactive)
REMARK    1  A    between atoms: N2_9  and  C5_10 
ROOT
HETATM    1  C5  UNL     1     -13.994  -0.713  -1.424  1.00  0.00     0.248 C 
HETATM    2  C6  UNL     1     -12.926  -1.628  -1.789  1.00  0.00     0.079 C 
HETATM    3  N3  UNL     1     -12.066  -2.338  -2.068  1.00  0.00    -0.196 NA
ENDROOT
BRANCH   1   4
HETATM    4  N2  UNL     1     -14.689  -1.109  -0.213  1.00  0.00    -0.349 N 
HETATM    5  C4  UNL     1     -16.005  -0.612  -0.024  1.00  0.00     0.136 C 
HETATM    6  S1  UNL     1     -16.593  -0.838   1.681  1.00  0.00    -0.094 SA
HETATM    7  N1  UNL     1     -16.748  -0.057  -0.897  1.00  0.00    -0.380 N 
HETATM    8  C3  UNL     1     -15.081  -0.698   2.670  1.00  0.00     0.088 C 
HETATM    9  C2  UNL     1     -13.970  -1.540   2.143  1.00  0.00     0.009 C 
HETATM   10  C1  UNL     1     -12.648  -0.838   2.400  1.00  0.00     0.012 C 
HETATM   11  C7  UNL     1     -14.076  -2.004   0.759  1.00  0.00     0.131 C 
ATOM     12  H12 UNL     1     -17.694   0.300  -0.761  1.00  0.00     0.158 HD
ATOM     13  H11 UNL     1     -16.419   0.069  -1.853  1.00  0.00     0.158 HD
ENDBRANCH   1   4
TORSDOF 1
ENDMDL
MODEL 4
REMARK VINA RESULT: -5.017379549      2.290      2.779
REMARK  1 active torsions:
REMARK  status: ('A' for Active; 'I' for Inactive)
REMARK    1  A    between atoms: N2_9  and  C5_10 
ROOT
HETATM    1  C5  UNL     1     -17.115  -0.395  -1.108  1.00  0.00     0.248 C 
HETATM    2  C6  UNL     1     -17.583   0.758  -0.359  1.00  0.00     0.079 C 
HETATM    3  N3  UNL     1     -17.954   1.659   0.252  1.00  0.00    -0.196 NA
ENDROOT
BRANCH   1   4
HETATM    4  N2  UNL     1     -15.668  -0.468  -1.193  1.00  0.00    -0.349 N 
HETATM    5  C4  UNL     1     -15.070  -0.134  -2.435  1.00  0.00     0.136 C 
HETATM    6  S1  UNL     1     -13.330  -0.653  -2.527  1.00  0.00    -0.094 SA
HETATM    7  N1  UNL     1     -15.622   0.456  -3.419  1.00  0.00    -0.380 N 
HETATM    8  C3  UNL     1     -13.284  -2.155  -1.513  1.00  0.00     0.088 C 
HETATM    9  C2  UNL     1     -13.942  -1.973  -0.188  1.00  0.00     0.009 C 
HETATM   10  C1  UNL     1     -14.597  -3.280   0.225  1.00  0.00     0.012 C 
HETATM   11  C7  UNL     1     -14.857  -0.841  -0.042  1.00  0.00     0.131 C 
ATOM     12  H12 UNL     1     -15.191   0.696  -4.312  1.00  0.00     0.158 HD
ATOM     13  H11 UNL     1     -16.597   0.747  -3.367  1.00  0.00     0.158 HD
ENDBRANCH   1   4
TORSDOF 1
ENDMDL
MODEL 5
REMARK VINA RESULT: -4.991594738      1.372      1.420
REMARK  1 active torsions:
REMARK  status: ('A' for Active; 'I' for Inactive)
REMARK    1  A    between atoms: N2_9  and  C5_10 
ROOT
HETATM    1  C5  UNL     1     -19.899  -0.497  -1.908  1.00  0.00     0.248 C 
HETATM    2  C6  UNL     1     -20.815   0.340  -1.152  1.00  0.00     0.079 C 
HETATM    3  N3  UNL     1     -21.540   0.987  -0.538  1.00  0.00    -0.196 NA
ENDROOT
BRANCH   1   4
HETATM    4  N2  UNL     1     -18.508  -0.126  -1.722  1.00  0.00    -0.349 N 
HETATM    5  C4  UNL     1     -17.583  -0.549  -2.711  1.00  0.00     0.136 C 
HETATM    6  S1  UNL     1     -15.858  -0.381  -2.162  1.00  0.00    -0.094 SA
HETATM    7  N1  UNL     1     -17.852  -1.007  -3.868  1.00  0.00    -0.380 N 
HETATM    8  C3  UNL     1     -15.954  -0.670  -0.375  1.00  0.00     0.088 C 
HETATM    9  C2  UNL     1     -17.029   0.129   0.278  1.00  0.00     0.009 C 
HETATM   10  C1  UNL     1     -17.608  -0.668   1.434  1.00  0.00     0.012 C 
HETATM   11  C7  UNL     1     -18.079   0.674  -0.582  1.00  0.00     0.131 C 
ATOM     12  H12 UNL     1     -17.186  -1.311  -4.579  1.00  0.00     0.158 HD
ATOM     13  H11 UNL     1     -18.819  -1.101  -4.176  1.00  0.00     0.158 HD
ENDBRANCH   1   4
TORSDOF 1
ENDMDL
