MODEL 1
REMARK VINA RESULT: -6.217606111      0.000      0.000
REMARK  2 active torsions:
REMARK  status: ('A' for Active; 'I' for Inactive)
REMARK    1  A    between atoms: C2_2  and  N3_7 
REMARK    2  A    between atoms: N3_7  and  C5_9 
ROOT
HETATM    1  C1  UNL     1     -17.154  -0.709   1.954  1.00  0.00     0.072 C 
HETATM    2  C2  UNL     1     -17.741  -0.662   0.556  1.00  0.00     0.202 C 
HETATM    3  C3  UNL     1     -19.074  -1.273   0.665  1.00  0.00     0.106 C 
HETATM    4  N1  UNL     1     -20.122  -1.754   0.756  1.00  0.00    -0.193 NA
HETATM    5  C4  UNL     1     -17.883   0.786   0.237  1.00  0.00     0.106 C 
HETATM    6  N2  UNL     1     -17.981   1.907  -0.014  1.00  0.00    -0.193 NA
ENDROOT
BRANCH   2   7
HETATM    7  N3  UNL     1     -16.940  -1.218  -0.450  1.00  0.00    -0.386 N 
ATOM      8  H3  UNL     1     -17.333  -1.942  -1.052  1.00  0.00     0.156 HD
BRANCH   7   9
HETATM    9  C5  UNL     1     -15.614  -0.809  -0.654  1.00  0.00     0.079 C 
HETATM   10  C6  UNL     1     -14.756  -2.047  -0.319  1.00  0.00     0.025 C 
HETATM   11  C7  UNL     1     -13.423  -1.816  -0.952  1.00  0.00     0.002 C 
HETATM   12  C8  UNL     1     -13.633  -0.712  -1.953  1.00  0.00     0.002 C 
HETATM   13  C9  UNL     1     -15.162  -0.543  -2.046  1.00  0.00     0.025 C 
ENDBRANCH   7   9
ENDBRANCH   2   7
TORSDOF 2
ENDMDL
MODEL 2
REMARK VINA RESULT: -6.139699922      3.246      5.158
REMARK  2 active torsions:
REMARK  status: ('A' for Active; 'I' for Inactive)
REMARK    1  A    between atoms: C2_2  and  N3_7 
REMARK    2  A    between atoms: N3_7  and  C5_9 
ROOT
HETATM    1  C1  UNL     1     -14.572  -3.041   0.216  1.00  0.00     0.072 C 
HETATM    2  C2  UNL     1     -13.889  -1.707  -0.023  1.00  0.00     0.202 C 
HETATM    3  C3  UNL     1     -12.892  -1.956  -1.075  1.00  0.00     0.106 C 
HETATM    4  N1  UNL     1     -12.109  -2.156  -1.903  1.00  0.00    -0.193 NA
HETATM    5  C4  UNL     1     -14.953  -0.809  -0.550  1.00  0.00     0.106 C 
HETATM    6  N2  UNL     1     -15.781  -0.110  -0.947  1.00  0.00    -0.193 NA
ENDROOT
BRANCH   2   7
HETATM    7  N3  UNL     1     -13.369  -1.086   1.120  1.00  0.00    -0.386 N 
ATOM      8  H3  UNL     1     -12.785  -0.257   1.010  1.00  0.00     0.156 HD
BRANCH   7   9
HETATM    9  C5  UNL     1     -13.628  -1.570   2.411  1.00  0.00     0.079 C 
HETATM   10  C6  UNL     1     -12.354  -1.253   3.221  1.00  0.00     0.025 C 
HETATM   11  C7  UNL     1     -12.747  -1.318   4.661  1.00  0.00     0.002 C 
HETATM   12  C8  UNL     1     -14.251  -1.252   4.675  1.00  0.00     0.002 C 
HETATM   13  C9  UNL     1     -14.648  -0.870   3.237  1.00  0.00     0.025 C 
ENDBRANCH   7   9
ENDBRANCH   2   7
TORSDOF 2
ENDMDL
MODEL 3
REMARK VINA RESULT: -6.038974092      2.568      3.693
REMARK  2 active torsions:
REMARK  status: ('A' for Active; 'I' for Inactive)
REMARK    1  A    between atoms: C2_2  and  N3_7 
REMARK    2  A    between atoms: N3_7  and  C5_9 
ROOT
HETATM    1  C1  UNL     1     -17.119  -1.629   0.961  1.00  0.00     0.072 C 
HETATM    2  C2  UNL     1     -16.280  -0.468   0.459  1.00  0.00     0.202 C 
HETATM    3  C3  UNL     1     -15.813  -0.866  -0.877  1.00  0.00     0.106 C 
HETATM    4  N1  UNL     1     -15.449  -1.182  -1.929  1.00  0.00    -0.193 NA
HETATM    5  C4  UNL     1     -17.225   0.676   0.335  1.00  0.00     0.106 C 
HETATM    6  N2  UNL     1     -17.955   1.565   0.250  1.00  0.00    -0.193 NA
ENDROOT
BRANCH   2   7
HETATM    7  N3  UNL     1     -15.256  -0.051   1.320  1.00  0.00    -0.386 N 
ATOM      8  H3  UNL     1     -14.990   0.933   1.333  1.00  0.00     0.156 HD
BRANCH   7   9
HETATM    9  C5  UNL     1     -14.586  -0.949   2.164  1.00  0.00     0.079 C 
HETATM   10  C6  UNL     1     -13.091  -0.594   2.021  1.00  0.00     0.025 C 
HETATM   11  C7  UNL     1     -12.406  -1.181   3.212  1.00  0.00     0.002 C 
HETATM   12  C8  UNL     1     -13.499  -1.486   4.201  1.00  0.00     0.002 C 
HETATM   13  C9  UNL     1     -14.755  -0.797   3.634  1.00  0.00     0.025 C 
ENDBRANCH   7   9
ENDBRANCH   2   7
TORSDOF 2
ENDMDL
MODEL 4
REMARK VINA RESULT: -5.973684377      1.467      2.934
REMARK  2 active torsions:
REMARK  status: ('A' for Active; 'I' for Inactive)
REMARK    1  A    between atoms: C2_2  and  N3_7 
REMARK    2  A    between atoms: N3_7  and  C5_9 
ROOT
HETATM    1  C1  UNL     1     -18.147  -0.856  -1.596  1.00  0.00     0.072 C 
HETATM    2  C2  UNL     1     -18.052  -0.713  -0.088  1.00  0.00     0.202 C 
HETATM    3  C3  UNL     1     -17.995   0.733   0.171  1.00  0.00     0.106 C 
HETATM    4  N1  UNL     1     -17.952   1.872   0.369  1.00  0.00    -0.193 NA
HETATM    5  C4  UNL     1     -19.331  -1.263   0.441  1.00  0.00     0.106 C 
HETATM    6  N2  UNL     1     -20.316  -1.700   0.851  1.00  0.00    -0.193 NA
ENDROOT
BRANCH   2   7
HETATM    7  N3  UNL     1     -17.021  -1.441   0.519  1.00  0.00    -0.386 N 
ATOM      8  H3  UNL     1     -17.214  -2.382   0.861  1.00  0.00     0.156 HD
BRANCH   7   9
HETATM    9  C5  UNL     1     -15.729  -0.914   0.670  1.00  0.00     0.079 C 
HETATM   10  C6  UNL     1     -15.495  -0.856   2.195  1.00  0.00     0.025 C 
HETATM   11  C7  UNL     1     -14.017  -0.752   2.388  1.00  0.00     0.002 C 
HETATM   12  C8  UNL     1     -13.407  -1.158   1.074  1.00  0.00     0.002 C 
HETATM   13  C9  UNL     1     -14.571  -1.750   0.257  1.00  0.00     0.025 C 
ENDBRANCH   7   9
ENDBRANCH   2   7
TORSDOF 2
ENDMDL
MODEL 5
REMARK VINA RESULT: -5.937092983      3.093      5.002
REMARK  2 active torsions:
REMARK  status: ('A' for Active; 'I' for Inactive)
REMARK    1  A    between atoms: C2_2  and  N3_7 
REMARK    2  A    between atoms: N3_7  and  C5_9 
ROOT
HETATM    1  C1  UNL     1     -13.273  -1.116  -1.304  1.00  0.00     0.072 C 
HETATM    2  C2  UNL     1     -14.020  -1.266   0.009  1.00  0.00     0.202 C 
HETATM    3  C3  UNL     1     -15.259  -0.491  -0.149  1.00  0.00     0.106 C 
HETATM    4  N1  UNL     1     -16.234   0.119  -0.279  1.00  0.00    -0.193 NA
HETATM    5  C4  UNL     1     -14.348  -2.714   0.112  1.00  0.00     0.106 C 
HETATM    6  N2  UNL     1     -14.592  -3.838   0.197  1.00  0.00    -0.193 NA
ENDROOT
BRANCH   2   7
HETATM    7  N3  UNL     1     -13.286  -0.938   1.157  1.00  0.00    -0.386 N 
ATOM      8  H3  UNL     1     -12.502  -0.289   1.075  1.00  0.00     0.156 HD
BRANCH   7   9
HETATM    9  C5  UNL     1     -13.596  -1.474   2.415  1.00  0.00     0.079 C 
HETATM   10  C6  UNL     1     -12.317  -1.287   3.258  1.00  0.00     0.025 C 
HETATM   11  C7  UNL     1     -12.736  -1.406   4.687  1.00  0.00     0.002 C 
HETATM   12  C8  UNL     1     -14.232  -1.241   4.687  1.00  0.00     0.002 C 
HETATM   13  C9  UNL     1     -14.581  -0.755   3.267  1.00  0.00     0.025 C 
ENDBRANCH   7   9
ENDBRANCH   2   7
TORSDOF 2
ENDMDL
