MODEL 1
REMARK VINA RESULT: -6.182609073      0.000      0.000
REMARK  1 active torsions:
REMARK  status: ('A' for Active; 'I' for Inactive)
REMARK    1  A    between atoms: O1_2  and  C2_3 
ROOT
HETATM    1  C2  UNL     1      13.720  10.953  -1.616  1.00  0.00     0.272 C 
HETATM    2  C3  UNL     1      13.466   9.608  -0.989  1.00  0.00     0.100 C 
HETATM    3  C4  UNL     1      14.112   9.446   0.356  1.00  0.00     0.076 C 
HETATM    4  C5  UNL     1      13.493  10.328   1.399  1.00  0.00     0.039 C 
HETATM    5  C6  UNL     1      12.450   9.443   2.020  1.00  0.00     0.003 C 
HETATM    6  C7  UNL     1      13.193   8.116   2.134  1.00  0.00     0.003 C 
HETATM    7  C8  UNL     1      13.915   8.018   0.801  1.00  0.00     0.039 C 
HETATM    8  O2  UNL     1      15.497   9.729   0.256  1.00  0.00    -0.305 OA
HETATM    9  C9  UNL     1      15.822  10.964  -0.331  1.00  0.00     0.261 C 
HETATM   10  N1  UNL     1      16.983  11.493  -0.171  1.00  0.00    -0.359 N 
ATOM     11  H11 UNL     1      17.219  12.389  -0.597  1.00  0.00     0.160 HD
ATOM     12  H12 UNL     1      17.694  11.025   0.390  1.00  0.00     0.160 HD
HETATM   13  O3  UNL     1      14.868  11.593  -1.084  1.00  0.00    -0.285 OA
ENDROOT
BRANCH   1  14
HETATM   14  O1  UNL     1      13.791  10.772  -2.975  1.00  0.00    -0.365 OA
HETATM   15  C1  UNL     1      13.809   9.462  -3.380  1.00  0.00     0.204 C 
ENDBRANCH   1  14
TORSDOF 1
ENDMDL
MODEL 2
REMARK VINA RESULT: -6.048574000      5.865      7.276
REMARK  1 active torsions:
REMARK  status: ('A' for Active; 'I' for Inactive)
REMARK    1  A    between atoms: O1_2  and  C2_3 
ROOT
HETATM    1  C2  UNL     1      14.043   9.315   5.199  1.00  0.00     0.272 C 
HETATM    2  C3  UNL     1      13.267   8.991   6.448  1.00  0.00     0.100 C 
HETATM    3  C4  UNL     1      14.043   9.230   7.710  1.00  0.00     0.076 C 
HETATM    4  C5  UNL     1      14.310  10.685   7.952  1.00  0.00     0.039 C 
HETATM    5  C6  UNL     1      13.159  11.104   8.823  1.00  0.00     0.003 C 
HETATM    6  C7  UNL     1      13.049   9.924   9.784  1.00  0.00     0.003 C 
HETATM    7  C8  UNL     1      13.219   8.724   8.868  1.00  0.00     0.039 C 
HETATM    8  O2  UNL     1      15.271   8.525   7.654  1.00  0.00    -0.305 OA
HETATM    9  C9  UNL     1      16.054   8.761   6.510  1.00  0.00     0.261 C 
HETATM   10  N1  UNL     1      17.307   8.476   6.490  1.00  0.00    -0.359 N 
ATOM     11  H11 UNL     1      17.875   8.647   5.661  1.00  0.00     0.160 HD
ATOM     12  H12 UNL     1      17.762   8.072   7.309  1.00  0.00     0.160 HD
HETATM   13  O3  UNL     1      15.445   9.303   5.412  1.00  0.00    -0.285 OA
ENDROOT
BRANCH   1  14
HETATM   14  O1  UNL     1      13.644   8.438   4.221  1.00  0.00    -0.365 OA
HETATM   15  C1  UNL     1      13.322   9.020   3.022  1.00  0.00     0.204 C 
ENDBRANCH   1  14
TORSDOF 1
ENDMDL
MODEL 3
REMARK VINA RESULT: -6.026076256      1.798      3.869
REMARK  1 active torsions:
REMARK  status: ('A' for Active; 'I' for Inactive)
REMARK    1  A    between atoms: O1_2  and  C2_3 
ROOT
HETATM    1  C2  UNL     1      15.509   9.933   1.478  1.00  0.00     0.272 C 
HETATM    2  C3  UNL     1      14.374  10.316   0.566  1.00  0.00     0.100 C 
HETATM    3  C4  UNL     1      14.821  10.696  -0.816  1.00  0.00     0.076 C 
HETATM    4  C5  UNL     1      15.374   9.531  -1.580  1.00  0.00     0.039 C 
HETATM    5  C6  UNL     1      14.179   9.017  -2.331  1.00  0.00     0.003 C 
HETATM    6  C7  UNL     1      13.523  10.311  -2.800  1.00  0.00     0.003 C 
HETATM    7  C8  UNL     1      13.620  11.203  -1.574  1.00  0.00     0.039 C 
HETATM    8  O2  UNL     1      15.800  11.718  -0.733  1.00  0.00    -0.305 OA
HETATM    9  C9  UNL     1      16.891  11.446   0.110  1.00  0.00     0.261 C 
HETATM   10  N1  UNL     1      17.991  12.104   0.012  1.00  0.00    -0.359 N 
ATOM     11  H11 UNL     1      18.782  11.906   0.624  1.00  0.00     0.160 HD
ATOM     12  H12 UNL     1      18.095  12.841  -0.686  1.00  0.00     0.160 HD
HETATM   13  O3  UNL     1      16.753  10.457   1.046  1.00  0.00    -0.285 OA
ENDROOT
BRANCH   1  14
HETATM   14  O1  UNL     1      15.174  10.332   2.748  1.00  0.00    -0.365 OA
HETATM   15  C1  UNL     1      13.946  10.934   2.857  1.00  0.00     0.204 C 
ENDBRANCH   1  14
TORSDOF 1
ENDMDL
MODEL 4
REMARK VINA RESULT: -5.909823336      1.834      2.980
REMARK  1 active torsions:
REMARK  status: ('A' for Active; 'I' for Inactive)
REMARK    1  A    between atoms: O1_2  and  C2_3 
ROOT
HETATM    1  C2  UNL     1      15.824  10.583  -0.659  1.00  0.00     0.272 C 
HETATM    2  C3  UNL     1      14.984  10.450   0.583  1.00  0.00     0.100 C 
HETATM    3  C4  UNL     1      13.761   9.602   0.388  1.00  0.00     0.076 C 
HETATM    4  C5  UNL     1      14.095   8.159   0.157  1.00  0.00     0.039 C 
HETATM    5  C6  UNL     1      14.033   7.569   1.537  1.00  0.00     0.003 C 
HETATM    6  C7  UNL     1      12.787   8.237   2.108  1.00  0.00     0.003 C 
HETATM    7  C8  UNL     1      12.934   9.677   1.647  1.00  0.00     0.039 C 
HETATM    8  O2  UNL     1      13.009  10.097  -0.707  1.00  0.00    -0.305 OA
HETATM    9  C9  UNL     1      13.723  10.263  -1.907  1.00  0.00     0.261 C 
HETATM   10  N1  UNL     1      13.117  10.361  -3.036  1.00  0.00    -0.359 N 
ATOM     11  H11 UNL     1      13.635  10.482  -3.906  1.00  0.00     0.160 HD
ATOM     12  H12 UNL     1      12.099  10.319  -3.084  1.00  0.00     0.160 HD
HETATM   13  O3  UNL     1      15.089  10.319  -1.843  1.00  0.00    -0.285 OA
ENDROOT
BRANCH   1  14
HETATM   14  O1  UNL     1      16.388  11.834  -0.649  1.00  0.00    -0.365 OA
HETATM   15  C1  UNL     1      17.507  11.954   0.136  1.00  0.00     0.204 C 
ENDBRANCH   1  14
TORSDOF 1
ENDMDL
MODEL 5
REMARK VINA RESULT: -5.831845594      2.345      4.303
REMARK  1 active torsions:
REMARK  status: ('A' for Active; 'I' for Inactive)
REMARK    1  A    between atoms: O1_2  and  C2_3 
ROOT
HETATM    1  C2  UNL     1      13.762  10.392   0.716  1.00  0.00     0.272 C 
HETATM    2  C3  UNL     1      14.637  10.684  -0.474  1.00  0.00     0.100 C 
HETATM    3  C4  UNL     1      14.639   9.585  -1.496  1.00  0.00     0.076 C 
HETATM    4  C5  UNL     1      13.316   9.442  -2.187  1.00  0.00     0.039 C 
HETATM    5  C6  UNL     1      13.474  10.301  -3.409  1.00  0.00     0.003 C 
HETATM    6  C7  UNL     1      14.889   9.950  -3.858  1.00  0.00     0.003 C 
HETATM    7  C8  UNL     1      15.663   9.928  -2.550  1.00  0.00     0.039 C 
HETATM    8  O2  UNL     1      14.986   8.359  -0.875  1.00  0.00    -0.305 OA
HETATM    9  C9  UNL     1      14.224   8.016   0.256  1.00  0.00     0.261 C 
HETATM   10  N1  UNL     1      14.189   6.809   0.695  1.00  0.00    -0.359 N 
ATOM     11  H11 UNL     1      13.637   6.560   1.515  1.00  0.00     0.160 HD
ATOM     12  H12 UNL     1      14.715   6.071   0.227  1.00  0.00     0.160 HD
HETATM   13  O3  UNL     1      13.517   9.005   0.883  1.00  0.00    -0.285 OA
ENDROOT
BRANCH   1  14
HETATM   14  O1  UNL     1      14.352  10.966   1.816  1.00  0.00    -0.365 OA
HETATM   15  C1  UNL     1      13.804  10.599   3.019  1.00  0.00     0.204 C 
ENDBRANCH   1  14
TORSDOF 1
ENDMDL
