MODEL 1
REMARK VINA RESULT: -5.757305434      0.000      0.000
REMARK  2 active torsions:
REMARK  status: ('A' for Active; 'I' for Inactive)
REMARK    1  A    between atoms: C2_2  and  C3_3 
REMARK    2  A    between atoms: N1_11  and  O3_12 
ROOT
HETATM    1  C3  UNL     1      14.495   9.567  -0.383  1.00  0.00     0.142 C 
HETATM    2  C4  UNL     1      13.494  10.526  -0.957  1.00  0.00     0.050 C 
HETATM    3  C5  UNL     1      15.040   9.986   0.919  1.00  0.00     0.290 C 
HETATM    4  O1  UNL     1      15.562  11.120   1.171  1.00  0.00    -0.262 OA
HETATM    5  O2  UNL     1      14.853   8.896   1.762  1.00  0.00    -0.291 OA
HETATM    6  C6  UNL     1      13.663   8.298   1.312  1.00  0.00     0.142 C 
HETATM    7  C7  UNL     1      13.514   6.869   1.755  1.00  0.00     0.066 C 
HETATM    8  C8  UNL     1      12.510   9.108   1.820  1.00  0.00     0.066 C 
HETATM    9  N1  UNL     1      13.813   8.318  -0.111  1.00  0.00    -0.142 NA
ENDROOT
BRANCH   1  10
HETATM   10  C2  UNL     1      15.647   9.358  -1.313  1.00  0.00     0.000 C 
HETATM   11  C1  UNL     1      15.923  10.214  -2.287  1.00  0.00     0.009 C 
ENDBRANCH   1  10
BRANCH   9  12
HETATM   12  O3  UNL     1      14.642   7.310  -0.456  1.00  0.00    -0.309 OA
ATOM     13  H3  UNL     1      15.163   7.600  -1.195  1.00  0.00     0.237 HD
ENDBRANCH   9  12
TORSDOF 2
ENDMDL
MODEL 2
REMARK VINA RESULT: -5.472459366      1.213      1.287
REMARK  2 active torsions:
REMARK  status: ('A' for Active; 'I' for Inactive)
REMARK    1  A    between atoms: C2_2  and  C3_3 
REMARK    2  A    between atoms: N1_11  and  O3_12 
ROOT
HETATM    1  C3  UNL     1      14.253   9.955  -1.104  1.00  0.00     0.142 C 
HETATM    2  C4  UNL     1      13.074  10.799  -1.489  1.00  0.00     0.050 C 
HETATM    3  C5  UNL     1      15.265  10.673  -0.311  1.00  0.00     0.290 C 
HETATM    4  O1  UNL     1      15.806  11.780  -0.632  1.00  0.00    -0.262 OA
HETATM    5  O2  UNL     1      15.471   9.885   0.816  1.00  0.00    -0.291 OA
HETATM    6  C6  UNL     1      14.222   9.295   1.073  1.00  0.00     0.142 C 
HETATM    7  C7  UNL     1      14.312   8.069   1.937  1.00  0.00     0.066 C 
HETATM    8  C8  UNL     1      13.347  10.316   1.734  1.00  0.00     0.066 C 
HETATM    9  N1  UNL     1      13.781   8.899  -0.231  1.00  0.00    -0.142 NA
ENDROOT
BRANCH   1  10
HETATM   10  C2  UNL     1      14.936   9.389  -2.309  1.00  0.00     0.000 C 
HETATM   11  C1  UNL     1      14.800   9.933  -3.510  1.00  0.00     0.009 C 
ENDBRANCH   1  10
BRANCH   9  12
HETATM   12  O3  UNL     1      14.432   7.765  -0.562  1.00  0.00    -0.309 OA
ATOM     13  H3  UNL     1      15.328   7.842  -0.255  1.00  0.00     0.237 HD
ENDBRANCH   9  12
TORSDOF 2
ENDMDL
MODEL 3
REMARK VINA RESULT: -5.387115232      1.822      2.787
REMARK  2 active torsions:
REMARK  status: ('A' for Active; 'I' for Inactive)
REMARK    1  A    between atoms: C2_2  and  C3_3 
REMARK    2  A    between atoms: N1_11  and  O3_12 
ROOT
HETATM    1  C3  UNL     1      14.712   9.680  -1.252  1.00  0.00     0.142 C 
HETATM    2  C4  UNL     1      16.188   9.928  -1.361  1.00  0.00     0.050 C 
HETATM    3  C5  UNL     1      14.370   8.363  -0.691  1.00  0.00     0.290 C 
HETATM    4  O1  UNL     1      14.813   7.244  -1.110  1.00  0.00    -0.262 OA
HETATM    5  O2  UNL     1      13.494   8.628   0.356  1.00  0.00    -0.291 OA
HETATM    6  C6  UNL     1      13.918   9.864   0.872  1.00  0.00     0.142 C 
HETATM    7  C7  UNL     1      12.861  10.561   1.682  1.00  0.00     0.066 C 
HETATM    8  C8  UNL     1      15.130   9.628   1.719  1.00  0.00     0.066 C 
HETATM    9  N1  UNL     1      14.166  10.635  -0.308  1.00  0.00    -0.142 NA
ENDROOT
BRANCH   1  10
HETATM   10  C2  UNL     1      14.039   9.797  -2.583  1.00  0.00     0.000 C 
HETATM   11  C1  UNL     1      14.729   9.961  -3.703  1.00  0.00     0.009 C 
ENDBRANCH   1  10
BRANCH   9  12
HETATM   12  O3  UNL     1      12.977  11.057  -0.787  1.00  0.00    -0.309 OA
ATOM     13  H3  UNL     1      13.147  11.709  -1.457  1.00  0.00     0.237 HD
ENDBRANCH   9  12
TORSDOF 2
ENDMDL
MODEL 4
REMARK VINA RESULT: -5.362537951      7.148      8.827
REMARK  2 active torsions:
REMARK  status: ('A' for Active; 'I' for Inactive)
REMARK    1  A    between atoms: C2_2  and  C3_3 
REMARK    2  A    between atoms: N1_11  and  O3_12 
ROOT
HETATM    1  C3  UNL     1      13.901   9.881   9.073  1.00  0.00     0.142 C 
HETATM    2  C4  UNL     1      12.563   9.381   9.529  1.00  0.00     0.050 C 
HETATM    3  C5  UNL     1      14.848   8.809   8.722  1.00  0.00     0.290 C 
HETATM    4  O1  UNL     1      15.156   7.824   9.467  1.00  0.00    -0.262 OA
HETATM    5  O2  UNL     1      15.297   9.122   7.444  1.00  0.00    -0.291 OA
HETATM    6  C6  UNL     1      14.199   9.741   6.821  1.00  0.00     0.142 C 
HETATM    7  C7  UNL     1      14.584  10.568   5.627  1.00  0.00     0.066 C 
HETATM    8  C8  UNL     1      13.232   8.674   6.408  1.00  0.00     0.066 C 
HETATM    9  N1  UNL     1      13.707  10.618   7.840  1.00  0.00    -0.142 NA
ENDROOT
BRANCH   1  10
HETATM   10  C2  UNL     1      14.548  10.739  10.113  1.00  0.00     0.000 C 
HETATM   11  C1  UNL     1      13.838  11.380  11.031  1.00  0.00     0.009 C 
ENDBRANCH   1  10
BRANCH   9  12
HETATM   12  O3  UNL     1      14.507  11.704   7.875  1.00  0.00    -0.309 OA
ATOM     13  H3  UNL     1      15.145  11.619   7.177  1.00  0.00     0.237 HD
ENDBRANCH   9  12
TORSDOF 2
ENDMDL
MODEL 5
REMARK VINA RESULT: -5.284078672      1.643      3.891
REMARK  2 active torsions:
REMARK  status: ('A' for Active; 'I' for Inactive)
REMARK    1  A    between atoms: C2_2  and  C3_3 
REMARK    2  A    between atoms: N1_11  and  O3_12 
ROOT
HETATM    1  C3  UNL     1      13.668   9.482   1.849  1.00  0.00     0.142 C 
HETATM    2  C4  UNL     1      12.212   9.671   2.160  1.00  0.00     0.050 C 
HETATM    3  C5  UNL     1      13.945   8.325   0.982  1.00  0.00     0.290 C 
HETATM    4  O1  UNL     1      13.546   7.134   1.190  1.00  0.00    -0.262 OA
HETATM    5  O2  UNL     1      14.708   8.828  -0.065  1.00  0.00    -0.291 OA
HETATM    6  C6  UNL     1      14.236  10.139  -0.254  1.00  0.00     0.142 C 
HETATM    7  C7  UNL     1      15.204  11.016  -0.996  1.00  0.00     0.066 C 
HETATM    8  C8  UNL     1      12.941  10.068  -1.003  1.00  0.00     0.066 C 
HETATM    9  N1  UNL     1      14.114  10.630   1.086  1.00  0.00    -0.142 NA
ENDROOT
BRANCH   1  10
HETATM   10  C2  UNL     1      14.476   9.321   3.097  1.00  0.00     0.000 C 
HETATM   11  C1  UNL     1      13.908   9.233   4.292  1.00  0.00     0.009 C 
ENDBRANCH   1  10
BRANCH   9  12
HETATM   12  O3  UNL     1      15.348  10.962   1.520  1.00  0.00    -0.309 OA
ATOM     13  H3  UNL     1      15.409  11.910   1.528  1.00  0.00     0.237 HD
ENDBRANCH   9  12
TORSDOF 2
ENDMDL
