MODEL 1
REMARK VINA RESULT: -5.276063718      0.000      0.000
REMARK  2 active torsions:
REMARK  status: ('A' for Active; 'I' for Inactive)
REMARK    1  A    between atoms: C5_5  and  O1_6 
REMARK    2  A    between atoms: O1_6  and  O2_7 
ROOT
HETATM    1  C1  UNL     1      15.664   9.867  -1.760  1.00  0.00     0.018 C 
HETATM    2  C2  UNL     1      14.396   9.551  -0.952  1.00  0.00    -0.010 C 
HETATM    3  C3  UNL     1      13.234   9.816  -1.870  1.00  0.00     0.018 C 
HETATM    4  C4  UNL     1      14.447   8.106  -0.582  1.00  0.00     0.050 C 
HETATM    5  C5  UNL     1      14.372   7.837   0.886  1.00  0.00     0.200 C 
HETATM    6  C6  UNL     1      14.676   9.085   1.714  1.00  0.00     0.218 C 
HETATM    7  O3  UNL     1      15.469   9.984   1.053  1.00  0.00    -0.356 OA
HETATM    8  C7  UNL     1      14.437  10.484   0.231  1.00  0.00     0.195 C 
HETATM    9  S1  UNL     1      13.233  10.166   1.490  1.00  0.00    -0.102 SA
ENDROOT
BRANCH   5  10
HETATM   10  O1  UNL     1      13.062   7.493   1.227  1.00  0.00    -0.234 OA
BRANCH  10  11
HETATM   11  O2  UNL     1      12.997   6.258   1.658  1.00  0.00    -0.250 OA
ATOM     12  H2  UNL     1      12.118   5.910   1.564  1.00  0.00     0.253 HD
ENDBRANCH  10  11
ENDBRANCH   5  10
TORSDOF 2
ENDMDL
MODEL 2
REMARK VINA RESULT: -5.097941938      2.285      3.938
REMARK  2 active torsions:
REMARK  status: ('A' for Active; 'I' for Inactive)
REMARK    1  A    between atoms: C5_5  and  O1_6 
REMARK    2  A    between atoms: O1_6  and  O2_7 
ROOT
HETATM    1  C1  UNL     1      13.937   8.012   1.043  1.00  0.00     0.018 C 
HETATM    2  C2  UNL     1      14.019   9.478   0.588  1.00  0.00    -0.010 C 
HETATM    3  C3  UNL     1      13.164  10.264   1.543  1.00  0.00     0.018 C 
HETATM    4  C4  UNL     1      15.446   9.903   0.697  1.00  0.00     0.050 C 
HETATM    5  C5  UNL     1      16.043  10.406  -0.576  1.00  0.00     0.200 C 
HETATM    6  C6  UNL     1      15.220   9.998  -1.797  1.00  0.00     0.218 C 
HETATM    7  O3  UNL     1      14.490   8.858  -1.592  1.00  0.00    -0.356 OA
HETATM    8  C7  UNL     1      13.488   9.485  -0.823  1.00  0.00     0.195 C 
HETATM    9  S1  UNL     1      13.709  11.003  -1.708  1.00  0.00    -0.102 SA
ENDROOT
BRANCH   5  10
HETATM   10  O1  UNL     1      16.018  11.803  -0.580  1.00  0.00    -0.234 OA
BRANCH  10  11
HETATM   11  O2  UNL     1      17.163  12.295  -0.176  1.00  0.00    -0.250 OA
ATOM     12  H2  UNL     1      17.092  12.647   0.704  1.00  0.00     0.253 HD
ENDBRANCH  10  11
ENDBRANCH   5  10
TORSDOF 2
ENDMDL
MODEL 3
REMARK VINA RESULT: -5.074938478      6.713      8.302
REMARK  2 active torsions:
REMARK  status: ('A' for Active; 'I' for Inactive)
REMARK    1  A    between atoms: C5_5  and  O1_6 
REMARK    2  A    between atoms: O1_6  and  O2_7 
ROOT
HETATM    1  C1  UNL     1      14.446  11.012  10.124  1.00  0.00     0.018 C 
HETATM    2  C2  UNL     1      13.795   9.989   9.180  1.00  0.00    -0.010 C 
HETATM    3  C3  UNL     1      12.528   9.541   9.853  1.00  0.00     0.018 C 
HETATM    4  C4  UNL     1      13.485  10.692   7.901  1.00  0.00     0.050 C 
HETATM    5  C5  UNL     1      14.107  10.081   6.688  1.00  0.00     0.200 C 
HETATM    6  C6  UNL     1      15.250   9.132   7.046  1.00  0.00     0.218 C 
HETATM    7  O3  UNL     1      15.839   9.434   8.244  1.00  0.00    -0.356 OA
HETATM    8  C7  UNL     1      14.809   8.883   9.036  1.00  0.00     0.195 C 
HETATM    9  S1  UNL     1      14.447   7.681   7.788  1.00  0.00    -0.102 SA
ENDROOT
BRANCH   5  10
HETATM   10  O1  UNL     1      13.166   9.278   6.040  1.00  0.00    -0.234 OA
BRANCH  10  11
HETATM   11  O2  UNL     1      13.215   9.449   4.742  1.00  0.00    -0.250 OA
ATOM     12  H2  UNL     1      13.100   8.625   4.285  1.00  0.00     0.253 HD
ENDBRANCH  10  11
ENDBRANCH   5  10
TORSDOF 2
ENDMDL
MODEL 4
REMARK VINA RESULT: -5.071362377      6.728      8.321
REMARK  2 active torsions:
REMARK  status: ('A' for Active; 'I' for Inactive)
REMARK    1  A    between atoms: C5_5  and  O1_6 
REMARK    2  A    between atoms: O1_6  and  O2_7 
ROOT
HETATM    1  C1  UNL     1      12.577   9.519   9.756  1.00  0.00     0.018 C 
HETATM    2  C2  UNL     1      13.812   9.922   8.934  1.00  0.00    -0.010 C 
HETATM    3  C3  UNL     1      14.347  11.177   9.567  1.00  0.00     0.018 C 
HETATM    4  C4  UNL     1      14.808   8.816   9.048  1.00  0.00     0.050 C 
HETATM    5  C5  UNL     1      15.238   8.230   7.743  1.00  0.00     0.200 C 
HETATM    6  C6  UNL     1      14.277   8.587   6.610  1.00  0.00     0.218 C 
HETATM    7  O3  UNL     1      13.007   8.848   7.048  1.00  0.00    -0.356 OA
HETATM    8  C7  UNL     1      13.301  10.139   7.533  1.00  0.00     0.195 C 
HETATM    9  S1  UNL     1      14.550  10.356   6.296  1.00  0.00    -0.102 SA
ENDROOT
BRANCH   5  10
HETATM   10  O1  UNL     1      16.460   8.789   7.364  1.00  0.00    -0.234 OA
BRANCH  10  11
HETATM   11  O2  UNL     1      17.257   7.880   6.860  1.00  0.00    -0.250 OA
ATOM     12  H2  UNL     1      17.751   7.442   7.542  1.00  0.00     0.253 HD
ENDBRANCH  10  11
ENDBRANCH   5  10
TORSDOF 2
ENDMDL
MODEL 5
REMARK VINA RESULT: -5.066795090      2.605      3.583
REMARK  2 active torsions:
REMARK  status: ('A' for Active; 'I' for Inactive)
REMARK    1  A    between atoms: C5_5  and  O1_6 
REMARK    2  A    between atoms: O1_6  and  O2_7 
ROOT
HETATM    1  C1  UNL     1      13.997  10.289   2.231  1.00  0.00     0.018 C 
HETATM    2  C2  UNL     1      14.067   9.578   0.870  1.00  0.00    -0.010 C 
HETATM    3  C3  UNL     1      13.943   8.107   1.157  1.00  0.00     0.018 C 
HETATM    4  C4  UNL     1      12.907  10.049   0.057  1.00  0.00     0.050 C 
HETATM    5  C5  UNL     1      13.276  10.668  -1.252  1.00  0.00     0.200 C 
HETATM    6  C6  UNL     1      14.750  11.066  -1.303  1.00  0.00     0.218 C 
HETATM    7  O3  UNL     1      15.280  11.314  -0.065  1.00  0.00    -0.356 OA
HETATM    8  C7  UNL     1      15.407   9.956   0.295  1.00  0.00     0.195 C 
HETATM    9  S1  UNL     1      15.662   9.497  -1.397  1.00  0.00    -0.102 SA
ENDROOT
BRANCH   5  10
HETATM   10  O1  UNL     1      13.126   9.723  -2.269  1.00  0.00    -0.234 OA
BRANCH  10  11
HETATM   11  O2  UNL     1      12.096  10.007  -3.027  1.00  0.00    -0.250 OA
ATOM     12  H2  UNL     1      11.538   9.247  -3.143  1.00  0.00     0.253 HD
ENDBRANCH  10  11
ENDBRANCH   5  10
TORSDOF 2
ENDMDL
