MODEL 1
REMARK VINA RESULT: -6.265604551      0.000      0.000
REMARK  1 active torsions:
REMARK  status: ('A' for Active; 'I' for Inactive)
REMARK    1  A    between atoms: C2_2  and  C3_3 
ROOT
HETATM    1  C3  UNL     1      14.598  10.190   4.155  1.00  0.00     0.126 C 
HETATM    2  N1  UNL     1      14.031  10.617   5.393  1.00  0.00    -0.386 N 
ATOM      3  H1  UNL     1      13.523  11.502   5.403  1.00  0.00     0.160 HD
HETATM    4  C4  UNL     1      14.114   9.971   6.484  1.00  0.00     0.002 C 
HETATM    5  C5  UNL     1      13.484  10.518   7.701  1.00  0.00     0.064 C 
HETATM    6  C6  UNL     1      14.856   8.681   6.468  1.00  0.00     0.183 C 
HETATM    7  C7  UNL     1      15.147   8.258   7.834  1.00  0.00     0.075 C 
HETATM    8  N2  UNL     1      15.367   7.916   8.898  1.00  0.00    -0.196 NA
HETATM    9  C8  UNL     1      16.079   8.910   5.668  1.00  0.00     0.023 C 
HETATM   10  N3  UNL     1      17.201   8.602   6.170  1.00  0.00    -0.403 N 
ATOM     11  H31 UNL     1      18.044   8.759   5.618  1.00  0.00     0.155 HD
ATOM     12  H32 UNL     1      17.311   8.202   7.102  1.00  0.00     0.155 HD
HETATM   13  C9  UNL     1      15.919   9.488   4.319  1.00  0.00     0.165 C 
HETATM   14  C10 UNL     1      17.050  10.389   4.029  1.00  0.00     0.072 C 
HETATM   15  N4  UNL     1      17.952  11.089   3.793  1.00  0.00    -0.196 NA
ENDROOT
BRANCH   1  16
HETATM   16  C2  UNL     1      13.661   9.368   3.351  1.00  0.00    -0.011 C 
HETATM   17  C1  UNL     1      14.037   8.775   2.246  1.00  0.00     0.009 C 
ENDBRANCH   1  16
TORSDOF 1
ENDMDL
MODEL 2
REMARK VINA RESULT: -6.175382650      3.784      5.562
REMARK  1 active torsions:
REMARK  status: ('A' for Active; 'I' for Inactive)
REMARK    1  A    between atoms: C2_2  and  C3_3 
ROOT
HETATM    1  C3  UNL     1      14.837   9.752  -0.333  1.00  0.00     0.126 C 
HETATM    2  N1  UNL     1      16.255   9.879  -0.236  1.00  0.00    -0.386 N 
ATOM      3  H1  UNL     1      16.822   9.449  -0.967  1.00  0.00     0.160 HD
HETATM    4  C4  UNL     1      16.861  10.490   0.700  1.00  0.00     0.002 C 
HETATM    5  C5  UNL     1      18.335  10.553   0.689  1.00  0.00     0.064 C 
HETATM    6  C6  UNL     1      16.032  11.116   1.766  1.00  0.00     0.183 C 
HETATM    7  C7  UNL     1      16.871  11.462   2.909  1.00  0.00     0.075 C 
HETATM    8  N2  UNL     1      17.522  11.744   3.799  1.00  0.00    -0.196 NA
HETATM    9  C8  UNL     1      14.977  10.136   2.107  1.00  0.00     0.023 C 
HETATM   10  N3  UNL     1      14.820   9.810   3.321  1.00  0.00    -0.403 N 
ATOM     11  H31 UNL     1      14.092   9.134   3.556  1.00  0.00     0.155 HD
ATOM     12  H32 UNL     1      15.383  10.186   4.084  1.00  0.00     0.155 HD
HETATM   13  C9  UNL     1      14.162   9.591   1.003  1.00  0.00     0.165 C 
HETATM   14  C10 UNL     1      13.836   8.180   1.277  1.00  0.00     0.072 C 
HETATM   15  N4  UNL     1      13.563   7.069   1.502  1.00  0.00    -0.196 NA
ENDROOT
BRANCH   1  16
HETATM   16  C2  UNL     1      14.217  10.855  -1.107  1.00  0.00    -0.011 C 
HETATM   17  C1  UNL     1      12.935  10.876  -1.374  1.00  0.00     0.009 C 
ENDBRANCH   1  16
TORSDOF 1
ENDMDL
MODEL 3
REMARK VINA RESULT: -6.094860409      3.341      4.803
REMARK  1 active torsions:
REMARK  status: ('A' for Active; 'I' for Inactive)
REMARK    1  A    between atoms: C2_2  and  C3_3 
ROOT
HETATM    1  C3  UNL     1      15.378  10.598  -0.740  1.00  0.00     0.126 C 
HETATM    2  N1  UNL     1      14.220  10.757   0.080  1.00  0.00    -0.386 N 
ATOM      3  H1  UNL     1      13.459  11.334  -0.280  1.00  0.00     0.160 HD
HETATM    4  C4  UNL     1      14.070  10.228   1.226  1.00  0.00     0.002 C 
HETATM    5  C5  UNL     1      12.824  10.467   1.978  1.00  0.00     0.064 C 
HETATM    6  C6  UNL     1      15.182   9.387   1.749  1.00  0.00     0.183 C 
HETATM    7  C7  UNL     1      14.999   9.154   3.177  1.00  0.00     0.075 C 
HETATM    8  N2  UNL     1      14.856   8.958   4.290  1.00  0.00    -0.196 NA
HETATM    9  C8  UNL     1      16.435  10.111   1.443  1.00  0.00     0.023 C 
HETATM   10  N3  UNL     1      17.257  10.328   2.384  1.00  0.00    -0.403 N 
ATOM     11  H31 UNL     1      18.121  10.826   2.173  1.00  0.00     0.155 HD
ATOM     12  H32 UNL     1      17.102  10.030   3.347  1.00  0.00     0.155 HD
HETATM   13  C9  UNL     1      16.658  10.541   0.049  1.00  0.00     0.165 C 
HETATM   14  C10 UNL     1      17.359  11.838   0.036  1.00  0.00     0.072 C 
HETATM   15  N4  UNL     1      17.928  12.856   0.026  1.00  0.00    -0.196 NA
ENDROOT
BRANCH   1  16
HETATM   16  C2  UNL     1      15.272   9.438  -1.658  1.00  0.00    -0.011 C 
HETATM   17  C1  UNL     1      14.185   9.203  -2.350  1.00  0.00     0.009 C 
ENDBRANCH   1  16
TORSDOF 1
ENDMDL
MODEL 4
REMARK VINA RESULT: -6.055654307      3.257      5.112
REMARK  1 active torsions:
REMARK  status: ('A' for Active; 'I' for Inactive)
REMARK    1  A    between atoms: C2_2  and  C3_3 
ROOT
HETATM    1  C3  UNL     1      13.831   9.310   0.180  1.00  0.00     0.126 C 
HETATM    2  N1  UNL     1      15.135   9.836   0.427  1.00  0.00    -0.386 N 
ATOM      3  H1  UNL     1      15.861   9.652  -0.267  1.00  0.00     0.160 HD
HETATM    4  C4  UNL     1      15.456  10.517   1.451  1.00  0.00     0.002 C 
HETATM    5  C5  UNL     1      16.840  11.006   1.592  1.00  0.00     0.064 C 
HETATM    6  C6  UNL     1      14.397  10.783   2.462  1.00  0.00     0.183 C 
HETATM    7  C7  UNL     1      15.001  11.262   3.701  1.00  0.00     0.075 C 
HETATM    8  N2  UNL     1      15.466  11.647   4.667  1.00  0.00    -0.196 NA
HETATM    9  C8  UNL     1      13.657   9.514   2.640  1.00  0.00     0.023 C 
HETATM   10  N3  UNL     1      13.508   9.056   3.812  1.00  0.00    -0.403 N 
ATOM     11  H31 UNL     1      12.998   8.182   3.935  1.00  0.00     0.155 HD
ATOM     12  H32 UNL     1      13.871   9.516   4.648  1.00  0.00     0.155 HD
HETATM   13  C9  UNL     1      13.132   8.850   1.431  1.00  0.00     0.165 C 
HETATM   14  C10 UNL     1      13.218   7.387   1.592  1.00  0.00     0.072 C 
HETATM   15  N4  UNL     1      13.272   6.230   1.725  1.00  0.00    -0.196 NA
ENDROOT
BRANCH   1  16
HETATM   16  C2  UNL     1      12.975  10.246  -0.589  1.00  0.00    -0.011 C 
HETATM   17  C1  UNL     1      13.441  10.933  -1.601  1.00  0.00     0.009 C 
ENDBRANCH   1  16
TORSDOF 1
ENDMDL
MODEL 5
REMARK VINA RESULT: -6.049865916      2.749      5.436
REMARK  1 active torsions:
REMARK  status: ('A' for Active; 'I' for Inactive)
REMARK    1  A    between atoms: C2_2  and  C3_3 
ROOT
HETATM    1  C3  UNL     1      15.755   9.310   3.141  1.00  0.00     0.126 C 
HETATM    2  N1  UNL     1      15.575   9.397   1.727  1.00  0.00    -0.386 N 
ATOM      3  H1  UNL     1      15.029   8.664   1.272  1.00  0.00     0.160 HD
HETATM    4  C4  UNL     1      16.048  10.323   0.997  1.00  0.00     0.002 C 
HETATM    5  C5  UNL     1      15.792  10.303  -0.456  1.00  0.00     0.064 C 
HETATM    6  C6  UNL     1      16.844  11.390   1.663  1.00  0.00     0.183 C 
HETATM    7  C7  UNL     1      17.582  12.156   0.664  1.00  0.00     0.075 C 
HETATM    8  N2  UNL     1      18.152  12.765  -0.112  1.00  0.00    -0.196 NA
HETATM    9  C8  UNL     1      17.731  10.709   2.631  1.00  0.00     0.023 C 
HETATM   10  N3  UNL     1      18.975  10.951   2.591  1.00  0.00    -0.403 N 
ATOM     11  H31 UNL     1      19.586  10.481   3.259  1.00  0.00     0.155 HD
ATOM     12  H32 UNL     1      19.403  11.593   1.924  1.00  0.00     0.155 HD
HETATM   13  C9  UNL     1      17.111   9.779   3.596  1.00  0.00     0.165 C 
HETATM   14  C10 UNL     1      18.019   8.646   3.846  1.00  0.00     0.072 C 
HETATM   15  N4  UNL     1      18.745   7.757   4.057  1.00  0.00    -0.196 NA
ENDROOT
BRANCH   1  16
HETATM   16  C2  UNL     1      14.679   9.997   3.896  1.00  0.00    -0.011 C 
HETATM   17  C1  UNL     1      14.908  10.584   5.044  1.00  0.00     0.009 C 
ENDBRANCH   1  16
TORSDOF 1
ENDMDL
