MODEL 1
REMARK VINA RESULT: -7.689364701      0.000      0.000
REMARK  6 active torsions:
REMARK  status: ('A' for Active; 'I' for Inactive)
REMARK    1  A    between atoms: O1_1  and  C1_3 
REMARK    2  A    between atoms: C3_5  and  O2_6 
REMARK    3  A    between atoms: O2_6  and  C4_7 
REMARK    4  A    between atoms: C8_11  and  O3_12 
REMARK    5  A    between atoms: C9_14  and  O4_15 
REMARK    6  A    between atoms: C11_18  and  N1_19 
ROOT
HETATM    1  C1  UNL     1      -9.511  56.869   9.640  1.00  0.00     0.070 A 
HETATM    2  C2  UNL     1      -8.658  56.298  10.574  1.00  0.00     0.073 A 
HETATM    3  C3  UNL     1      -8.978  56.237  11.904  1.00  0.00     0.074 A 
HETATM    4  C10 UNL     1     -10.210  56.779  12.290  1.00  0.00     0.066 A 
HETATM    5  C11 UNL     1     -11.061  57.345  11.381  1.00  0.00     0.035 A 
HETATM    6  C17 UNL     1     -10.715  57.395  10.038  1.00  0.00     0.066 A 
ENDROOT
BRANCH   3   7
HETATM    7  O2  UNL     1      -8.146  55.675  12.837  1.00  0.00    -0.343 OA
BRANCH   7   8
HETATM    8  C4  UNL     1      -7.334  54.574  12.743  1.00  0.00     0.160 C 
HETATM    9  C5  UNL     1      -7.958  53.300  13.283  1.00  0.00     0.035 C 
HETATM   10  C6  UNL     1      -7.102  52.152  12.821  1.00  0.00     0.005 C 
HETATM   11  C7  UNL     1      -5.674  52.283  13.265  1.00  0.00     0.034 C 
HETATM   12  C8  UNL     1      -5.108  53.649  13.089  1.00  0.00     0.149 C 
HETATM   13  C9  UNL     1      -6.036  54.729  13.558  1.00  0.00     0.176 C 
BRANCH  12  14
HETATM   14  O3  UNL     1      -3.896  53.706  13.798  1.00  0.00    -0.393 OA
ATOM     15  H3  UNL     1      -3.254  53.201  13.315  1.00  0.00     0.210 HD
ENDBRANCH  12  14
BRANCH  13  16
HETATM   16  O4  UNL     1      -6.385  54.586  14.881  1.00  0.00    -0.390 OA
ATOM     17  H4  UNL     1      -7.329  54.686  14.924  1.00  0.00     0.210 HD
ENDBRANCH  13  16
ENDBRANCH   7   8
ENDBRANCH   3   7
BRANCH   1  18
HETATM   18  O1  UNL     1      -9.160  56.916   8.304  1.00  0.00    -0.361 OA
ATOM     19  H1  UNL     1      -9.821  56.826   7.628  1.00  0.00     0.217 HD
ENDBRANCH   1  18
BRANCH   5  20
HETATM   20  N1  UNL     1     -12.328  57.897  11.749  1.00  0.00    -0.381 N 
HETATM   21  C12 UNL     1     -13.362  56.962  12.135  1.00  0.00     0.123 C 
HETATM   22  C13 UNL     1     -14.700  57.664  11.904  1.00  0.00     0.020 C 
HETATM   23  C14 UNL     1     -14.723  58.849  12.810  1.00  0.00     0.003 C 
HETATM   24  C15 UNL     1     -13.652  59.855  12.506  1.00  0.00     0.020 C 
HETATM   25  C16 UNL     1     -12.501  59.303  11.727  1.00  0.00     0.123 C 
ENDBRANCH   5  20
TORSDOF 6
ENDMDL
MODEL 2
REMARK VINA RESULT: -7.673583174      0.303      1.113
REMARK  6 active torsions:
REMARK  status: ('A' for Active; 'I' for Inactive)
REMARK    1  A    between atoms: O1_1  and  C1_3 
REMARK    2  A    between atoms: C3_5  and  O2_6 
REMARK    3  A    between atoms: O2_6  and  C4_7 
REMARK    4  A    between atoms: C8_11  and  O3_12 
REMARK    5  A    between atoms: C9_14  and  O4_15 
REMARK    6  A    between atoms: C11_18  and  N1_19 
ROOT
HETATM    1  C1  UNL     1      -9.613  56.891   9.551  1.00  0.00     0.070 A 
HETATM    2  C2  UNL     1      -8.671  56.407  10.447  1.00  0.00     0.073 A 
HETATM    3  C3  UNL     1      -8.929  56.314  11.789  1.00  0.00     0.074 A 
HETATM    4  C10 UNL     1     -10.192  56.731  12.227  1.00  0.00     0.066 A 
HETATM    5  C11 UNL     1     -11.131  57.210  11.355  1.00  0.00     0.035 A 
HETATM    6  C17 UNL     1     -10.847  57.295   9.999  1.00  0.00     0.066 A 
ENDROOT
BRANCH   3   7
HETATM    7  O2  UNL     1      -8.008  55.836  12.685  1.00  0.00    -0.343 OA
BRANCH   7   8
HETATM    8  C4  UNL     1      -7.286  54.672  12.668  1.00  0.00     0.160 C 
HETATM    9  C5  UNL     1      -8.037  53.473  13.219  1.00  0.00     0.035 C 
HETATM   10  C6  UNL     1      -7.256  52.244  12.839  1.00  0.00     0.005 C 
HETATM   11  C7  UNL     1      -5.845  52.276  13.350  1.00  0.00     0.034 C 
HETATM   12  C8  UNL     1      -5.161  53.585  13.157  1.00  0.00     0.149 C 
HETATM   13  C9  UNL     1      -6.019  54.753  13.542  1.00  0.00     0.176 C 
BRANCH  12  14
HETATM   14  O3  UNL     1      -3.984  53.572  13.924  1.00  0.00    -0.393 OA
ATOM     15  H3  UNL     1      -3.401  54.233  13.572  1.00  0.00     0.210 HD
ENDBRANCH  12  14
BRANCH  13  16
HETATM   16  O4  UNL     1      -6.442  54.687  14.851  1.00  0.00    -0.390 OA
ATOM     17  H4  UNL     1      -7.388  54.773  14.834  1.00  0.00     0.210 HD
ENDBRANCH  13  16
ENDBRANCH   7   8
ENDBRANCH   3   7
BRANCH   1  18
HETATM   18  O1  UNL     1      -9.322  56.974   8.202  1.00  0.00    -0.361 OA
ATOM     19  H1  UNL     1      -8.651  57.568   7.889  1.00  0.00     0.217 HD
ENDBRANCH   1  18
BRANCH   5  20
HETATM   20  N1  UNL     1     -12.431  57.633  11.776  1.00  0.00    -0.381 N 
HETATM   21  C12 UNL     1     -12.663  59.059  11.851  1.00  0.00     0.123 C 
HETATM   22  C13 UNL     1     -13.814  59.267  12.836  1.00  0.00     0.020 C 
HETATM   23  C14 UNL     1     -15.006  58.588  12.250  1.00  0.00     0.003 C 
HETATM   24  C15 UNL     1     -14.835  57.106  12.096  1.00  0.00     0.020 C 
HETATM   25  C16 UNL     1     -13.409  56.655  12.083  1.00  0.00     0.123 C 
ENDBRANCH   5  20
TORSDOF 6
ENDMDL
MODEL 3
REMARK VINA RESULT: -7.430739142      4.210      5.924
REMARK  6 active torsions:
REMARK  status: ('A' for Active; 'I' for Inactive)
REMARK    1  A    between atoms: O1_1  and  C1_3 
REMARK    2  A    between atoms: C3_5  and  O2_6 
REMARK    3  A    between atoms: O2_6  and  C4_7 
REMARK    4  A    between atoms: C8_11  and  O3_12 
REMARK    5  A    between atoms: C9_14  and  O4_15 
REMARK    6  A    between atoms: C11_18  and  N1_19 
ROOT
HETATM    1  C1  UNL     1      -6.337  54.974  14.217  1.00  0.00     0.070 A 
HETATM    2  C2  UNL     1      -5.344  54.008  14.298  1.00  0.00     0.073 A 
HETATM    3  C3  UNL     1      -5.104  53.129  13.275  1.00  0.00     0.074 A 
HETATM    4  C10 UNL     1      -5.907  53.244  12.133  1.00  0.00     0.066 A 
HETATM    5  C11 UNL     1      -6.889  54.191  12.039  1.00  0.00     0.035 A 
HETATM    6  C17 UNL     1      -7.114  55.071  13.089  1.00  0.00     0.066 A 
ENDROOT
BRANCH   3   7
HETATM    7  O2  UNL     1      -4.126  52.171  13.341  1.00  0.00    -0.343 OA
BRANCH   7   8
HETATM    8  C4  UNL     1      -3.160  51.835  12.430  1.00  0.00     0.160 C 
HETATM    9  C5  UNL     1      -2.306  50.650  12.844  1.00  0.00     0.035 C 
HETATM   10  C6  UNL     1      -1.533  50.210  11.630  1.00  0.00     0.005 C 
HETATM   11  C7  UNL     1      -0.686  51.308  11.056  1.00  0.00     0.034 C 
HETATM   12  C8  UNL     1      -1.382  52.623  10.963  1.00  0.00     0.149 C 
HETATM   13  C9  UNL     1      -2.141  52.970  12.208  1.00  0.00     0.176 C 
BRANCH  12  14
HETATM   14  O3  UNL     1      -0.412  53.603  10.694  1.00  0.00    -0.393 OA
ATOM     15  H3  UNL     1      -0.866  54.404  10.462  1.00  0.00     0.210 HD
ENDBRANCH  12  14
BRANCH  13  16
HETATM   16  O4  UNL     1      -1.337  52.998  13.325  1.00  0.00    -0.390 OA
ATOM     17  H4  UNL     1      -0.457  53.187  13.020  1.00  0.00     0.210 HD
ENDBRANCH  13  16
ENDBRANCH   7   8
ENDBRANCH   3   7
BRANCH   1  18
HETATM   18  O1  UNL     1      -6.556  55.846  15.267  1.00  0.00    -0.361 OA
ATOM     19  H1  UNL     1      -7.425  56.190  15.435  1.00  0.00     0.217 HD
ENDBRANCH   1  18
BRANCH   5  20
HETATM   20  N1  UNL     1      -7.715  54.334  10.881  1.00  0.00    -0.381 N 
HETATM   21  C12 UNL     1      -9.018  53.708  10.925  1.00  0.00     0.123 C 
HETATM   22  C13 UNL     1      -9.445  53.475   9.475  1.00  0.00     0.020 C 
HETATM   23  C14 UNL     1      -9.549  54.820   8.838  1.00  0.00     0.003 C 
HETATM   24  C15 UNL     1      -8.245  55.561   8.790  1.00  0.00     0.020 C 
HETATM   25  C16 UNL     1      -7.231  55.075   9.774  1.00  0.00     0.123 C 
ENDBRANCH   5  20
TORSDOF 6
ENDMDL
MODEL 4
REMARK VINA RESULT: -7.399237840      1.247      1.624
REMARK  6 active torsions:
REMARK  status: ('A' for Active; 'I' for Inactive)
REMARK    1  A    between atoms: O1_1  and  C1_3 
REMARK    2  A    between atoms: C3_5  and  O2_6 
REMARK    3  A    between atoms: O2_6  and  C4_7 
REMARK    4  A    between atoms: C8_11  and  O3_12 
REMARK    5  A    between atoms: C9_14  and  O4_15 
REMARK    6  A    between atoms: C11_18  and  N1_19 
ROOT
HETATM    1  C1  UNL     1      -8.199  55.778   9.322  1.00  0.00     0.070 A 
HETATM    2  C2  UNL     1      -7.597  55.083  10.360  1.00  0.00     0.073 A 
HETATM    3  C3  UNL     1      -8.023  55.207  11.657  1.00  0.00     0.074 A 
HETATM    4  C10 UNL     1      -9.100  56.070  11.895  1.00  0.00     0.066 A 
HETATM    5  C11 UNL     1      -9.703  56.762  10.881  1.00  0.00     0.035 A 
HETATM    6  C17 UNL     1      -9.254  56.620   9.575  1.00  0.00     0.066 A 
ENDROOT
BRANCH   3   7
HETATM    7  O2  UNL     1      -7.439  54.525  12.692  1.00  0.00    -0.343 OA
BRANCH   7   8
HETATM    8  C4  UNL     1      -6.426  53.602  12.678  1.00  0.00     0.160 C 
HETATM    9  C5  UNL     1      -6.821  52.244  13.231  1.00  0.00     0.035 C 
HETATM   10  C6  UNL     1      -5.734  51.274  12.854  1.00  0.00     0.005 C 
HETATM   11  C7  UNL     1      -4.386  51.692  13.363  1.00  0.00     0.034 C 
HETATM   12  C8  UNL     1      -4.085  53.138  13.167  1.00  0.00     0.149 C 
HETATM   13  C9  UNL     1      -5.230  54.028  13.551  1.00  0.00     0.176 C 
BRANCH  12  14
HETATM   14  O3  UNL     1      -2.949  53.448  13.933  1.00  0.00    -0.393 OA
ATOM     15  H3  UNL     1      -3.155  54.209  14.462  1.00  0.00     0.210 HD
ENDBRANCH  12  14
BRANCH  13  16
HETATM   16  O4  UNL     1      -5.618  53.853  14.859  1.00  0.00    -0.390 OA
ATOM     17  H4  UNL     1      -4.918  54.204  15.398  1.00  0.00     0.210 HD
ENDBRANCH  13  16
ENDBRANCH   7   8
ENDBRANCH   3   7
BRANCH   1  18
HETATM   18  O1  UNL     1      -7.746  55.633   8.024  1.00  0.00    -0.361 OA
ATOM     19  H1  UNL     1      -8.324  55.802   7.289  1.00  0.00     0.217 HD
ENDBRANCH   1  18
BRANCH   5  20
HETATM   20  N1  UNL     1     -10.809  57.641  11.098  1.00  0.00    -0.381 N 
HETATM   21  C12 UNL     1     -11.748  57.269  12.133  1.00  0.00     0.123 C 
HETATM   22  C13 UNL     1     -13.071  57.961  11.798  1.00  0.00     0.020 C 
HETATM   23  C14 UNL     1     -12.811  59.429  11.852  1.00  0.00     0.003 C 
HETATM   24  C15 UNL     1     -11.811  59.897  10.836  1.00  0.00     0.020 C 
HETATM   25  C16 UNL     1     -10.923  58.815  10.311  1.00  0.00     0.123 C 
ENDBRANCH   5  20
TORSDOF 6
ENDMDL
MODEL 5
REMARK VINA RESULT: -7.352749485      3.195      4.894
REMARK  6 active torsions:
REMARK  status: ('A' for Active; 'I' for Inactive)
REMARK    1  A    between atoms: O1_1  and  C1_3 
REMARK    2  A    between atoms: C3_5  and  O2_6 
REMARK    3  A    between atoms: O2_6  and  C4_7 
REMARK    4  A    between atoms: C8_11  and  O3_12 
REMARK    5  A    between atoms: C9_14  and  O4_15 
REMARK    6  A    between atoms: C11_18  and  N1_19 
ROOT
HETATM    1  C1  UNL     1      -9.337  56.171  12.179  1.00  0.00     0.070 A 
HETATM    2  C2  UNL     1      -8.509  55.399  12.980  1.00  0.00     0.073 A 
HETATM    3  C3  UNL     1      -7.513  54.619  12.453  1.00  0.00     0.074 A 
HETATM    4  C10 UNL     1      -7.362  54.632  11.061  1.00  0.00     0.066 A 
HETATM    5  C11 UNL     1      -8.171  55.389  10.258  1.00  0.00     0.035 A 
HETATM    6  C17 UNL     1      -9.174  56.171  10.815  1.00  0.00     0.066 A 
ENDROOT
BRANCH   3   7
HETATM    7  O2  UNL     1      -6.687  53.853  13.233  1.00  0.00    -0.343 OA
BRANCH   7   8
HETATM    8  C4  UNL     1      -5.616  53.075  12.880  1.00  0.00     0.160 C 
HETATM    9  C5  UNL     1      -5.801  51.598  13.180  1.00  0.00     0.035 C 
HETATM   10  C6  UNL     1      -4.711  50.855  12.455  1.00  0.00     0.005 C 
HETATM   11  C7  UNL     1      -3.338  51.316  12.850  1.00  0.00     0.034 C 
HETATM   12  C8  UNL     1      -3.196  52.798  12.928  1.00  0.00     0.149 C 
HETATM   13  C9  UNL     1      -4.335  53.454  13.649  1.00  0.00     0.176 C 
BRANCH  12  14
HETATM   14  O3  UNL     1      -1.982  53.078  13.577  1.00  0.00    -0.393 OA
ATOM     15  H3  UNL     1      -1.825  54.012  13.506  1.00  0.00     0.210 HD
ENDBRANCH  12  14
BRANCH  13  16
HETATM   16  O4  UNL     1      -4.493  52.978  14.931  1.00  0.00    -0.390 OA
ATOM     17  H4  UNL     1      -4.318  52.045  14.896  1.00  0.00     0.210 HD
ENDBRANCH  13  16
ENDBRANCH   7   8
ENDBRANCH   3   7
BRANCH   1  18
HETATM   18  O1  UNL     1     -10.334  56.947  12.740  1.00  0.00    -0.361 OA
ATOM     19  H1  UNL     1     -10.806  57.581  12.214  1.00  0.00     0.217 HD
ENDBRANCH   1  18
BRANCH   5  20
HETATM   20  N1  UNL     1      -8.031  55.426   8.836  1.00  0.00    -0.381 N 
HETATM   21  C12 UNL     1      -6.996  54.595   8.259  1.00  0.00     0.123 C 
HETATM   22  C13 UNL     1      -6.641  55.211   6.905  1.00  0.00     0.020 C 
HETATM   23  C14 UNL     1      -7.873  55.143   6.067  1.00  0.00     0.003 C 
HETATM   24  C15 UNL     1      -9.016  55.945   6.618  1.00  0.00     0.020 C 
HETATM   25  C16 UNL     1      -8.900  56.248   8.077  1.00  0.00     0.123 C 
ENDBRANCH   5  20
TORSDOF 6
ENDMDL
