MODEL 1
REMARK VINA RESULT: -6.537540697      0.000      0.000
REMARK  6 active torsions:
REMARK  status: ('A' for Active; 'I' for Inactive)
REMARK    1  A    between atoms: N2_7  and  C4_8 
REMARK    2  A    between atoms: C6_10  and  O2_11 
REMARK    3  A    between atoms: C7_13  and  C8_14 
REMARK    4  A    between atoms: C8_14  and  S1_15 
REMARK    5  A    between atoms: S1_15  and  C9_16 
REMARK    6  A    between atoms: C9_16  and  N4_20 
ROOT
HETATM    1  C1  UNL     1      -2.592  48.831  10.753  1.00  0.00     0.044 C 
HETATM    2  C2  UNL     1      -2.053  49.955  10.357  1.00  0.00     0.038 A 
HETATM    3  N1  UNL     1      -1.821  50.129   8.943  1.00  0.00    -0.309 N 
ATOM      4  H1  UNL     1      -2.064  49.391   8.283  1.00  0.00     0.170 HD
HETATM    5  C3  UNL     1      -1.249  51.344   8.490  1.00  0.00     0.329 A 
HETATM    6  O1  UNL     1      -1.027  51.540   7.250  1.00  0.00    -0.246 OA
HETATM    7  N2  UNL     1      -0.920  52.360   9.435  1.00  0.00    -0.280 N 
HETATM    8  C6  UNL     1      -1.164  52.146  10.817  1.00  0.00     0.155 A 
HETATM    9  C7  UNL     1      -1.704  51.011  11.297  1.00  0.00     0.029 A 
ENDROOT
BRANCH   9  10
HETATM   10  C8  UNL     1      -1.925  50.880  12.746  1.00  0.00     0.127 C 
BRANCH  10  11
HETATM   11  S1  UNL     1      -3.662  51.066  13.233  1.00  0.00    -0.090 SA
BRANCH  11  12
HETATM   12  C9  UNL     1      -3.986  52.808  13.429  1.00  0.00     0.136 C 
HETATM   13  N3  UNL     1      -3.003  53.604  13.609  1.00  0.00    -0.380 N 
ATOM     14  H32 UNL     1      -2.064  53.208  13.632  1.00  0.00     0.158 HD
ATOM     15  H31 UNL     1      -3.188  54.601  13.720  1.00  0.00     0.158 HD
BRANCH  12  16
HETATM   16  N4  UNL     1      -5.287  53.357  13.396  1.00  0.00    -0.362 N 
HETATM   17  C10 UNL     1      -6.275  52.920  14.350  1.00  0.00     0.125 C 
HETATM   18  C11 UNL     1      -7.592  52.839  13.602  1.00  0.00     0.020 C 
HETATM   19  C12 UNL     1      -8.048  54.215  13.244  1.00  0.00     0.003 C 
HETATM   20  C13 UNL     1      -6.906  55.117  12.911  1.00  0.00     0.020 C 
HETATM   21  C14 UNL     1      -5.666  54.354  12.427  1.00  0.00     0.125 C 
ENDBRANCH  12  16
ENDBRANCH  11  12
ENDBRANCH  10  11
ENDBRANCH   9  10
BRANCH   8  22
HETATM   22  O2  UNL     1      -0.826  53.163  11.702  1.00  0.00    -0.345 OA
ATOM     23  H2  UNL     1      -0.625  54.019  11.340  1.00  0.00     0.219 HD
ENDBRANCH   8  22
BRANCH   7  24
HETATM   24  C4  UNL     1      -0.338  53.604   9.000  1.00  0.00     0.131 C 
HETATM   25  C5  UNL     1       1.167  53.603   9.109  1.00  0.00     0.027 C 
ENDBRANCH   7  24
TORSDOF 6
ENDMDL
MODEL 2
REMARK VINA RESULT: -6.535468030      3.015      6.664
REMARK  6 active torsions:
REMARK  status: ('A' for Active; 'I' for Inactive)
REMARK    1  A    between atoms: N2_7  and  C4_8 
REMARK    2  A    between atoms: C6_10  and  O2_11 
REMARK    3  A    between atoms: C7_13  and  C8_14 
REMARK    4  A    between atoms: C8_14  and  S1_15 
REMARK    5  A    between atoms: S1_15  and  C9_16 
REMARK    6  A    between atoms: C9_16  and  N4_20 
ROOT
HETATM    1  C1  UNL     1      -5.648  50.696  12.458  1.00  0.00     0.044 C 
HETATM    2  C2  UNL     1      -6.388  51.766  12.587  1.00  0.00     0.038 A 
HETATM    3  N1  UNL     1      -7.718  51.738  12.027  1.00  0.00    -0.309 N 
ATOM      4  H1  UNL     1      -8.058  50.909  11.539  1.00  0.00     0.170 HD
HETATM    5  C3  UNL     1      -8.542  52.882  12.165  1.00  0.00     0.329 A 
HETATM    6  O1  UNL     1      -9.723  52.900  11.686  1.00  0.00    -0.246 OA
HETATM    7  N2  UNL     1      -8.042  54.027  12.853  1.00  0.00    -0.280 N 
HETATM    8  C6  UNL     1      -6.728  54.013  13.388  1.00  0.00     0.155 A 
HETATM    9  C7  UNL     1      -5.907  52.952  13.282  1.00  0.00     0.029 A 
ENDROOT
BRANCH   9  10
HETATM   10  C8  UNL     1      -4.561  53.026  13.873  1.00  0.00     0.127 C 
BRANCH  10  11
HETATM   11  S1  UNL     1      -3.414  54.067  12.931  1.00  0.00    -0.090 SA
BRANCH  11  12
HETATM   12  C9  UNL     1      -1.950  53.102  12.604  1.00  0.00     0.136 C 
HETATM   13  N3  UNL     1      -1.133  52.875  13.559  1.00  0.00    -0.380 N 
ATOM     14  H32 UNL     1      -1.352  53.258  14.478  1.00  0.00     0.158 HD
ATOM     15  H31 UNL     1      -0.296  52.323  13.373  1.00  0.00     0.158 HD
BRANCH  12  16
HETATM   16  N4  UNL     1      -1.647  52.572  11.331  1.00  0.00    -0.362 N 
HETATM   17  C10 UNL     1      -2.425  51.478  10.805  1.00  0.00     0.125 C 
HETATM   18  C11 UNL     1      -1.453  50.561  10.089  1.00  0.00     0.020 C 
HETATM   19  C12 UNL     1      -0.941  51.238   8.860  1.00  0.00     0.003 C 
HETATM   20  C13 UNL     1      -0.774  52.708   9.057  1.00  0.00     0.020 C 
HETATM   21  C14 UNL     1      -0.571  53.094  10.528  1.00  0.00     0.125 C 
ENDBRANCH  12  16
ENDBRANCH  11  12
ENDBRANCH  10  11
ENDBRANCH   9  10
BRANCH   8  22
HETATM   22  O2  UNL     1      -6.282  55.152  14.049  1.00  0.00    -0.345 OA
ATOM     23  H2  UNL     1      -5.392  55.153  14.382  1.00  0.00     0.219 HD
ENDBRANCH   8  22
BRANCH   7  24
HETATM   24  C4  UNL     1      -8.861  55.203  13.008  1.00  0.00     0.131 C 
HETATM   25  C5  UNL     1      -8.802  56.107  11.801  1.00  0.00     0.027 C 
ENDBRANCH   7  24
TORSDOF 6
ENDMDL
MODEL 3
REMARK VINA RESULT: -6.523114553      4.181      7.647
REMARK  6 active torsions:
REMARK  status: ('A' for Active; 'I' for Inactive)
REMARK    1  A    between atoms: N2_7  and  C4_8 
REMARK    2  A    between atoms: C6_10  and  O2_11 
REMARK    3  A    between atoms: C7_13  and  C8_14 
REMARK    4  A    between atoms: C8_14  and  S1_15 
REMARK    5  A    between atoms: S1_15  and  C9_16 
REMARK    6  A    between atoms: C9_16  and  N4_20 
ROOT
HETATM    1  C1  UNL     1      -6.820  54.019   9.968  1.00  0.00     0.044 C 
HETATM    2  C2  UNL     1      -7.689  54.867  10.454  1.00  0.00     0.038 A 
HETATM    3  N1  UNL     1      -8.297  55.807   9.542  1.00  0.00    -0.309 N 
ATOM      4  H1  UNL     1      -8.043  55.809   8.553  1.00  0.00     0.170 HD
HETATM    5  C3  UNL     1      -9.250  56.727  10.043  1.00  0.00     0.329 A 
HETATM    6  O1  UNL     1      -9.810  57.574   9.273  1.00  0.00    -0.246 OA
HETATM    7  N2  UNL     1      -9.587  56.702  11.429  1.00  0.00    -0.280 N 
HETATM    8  C6  UNL     1      -8.965  55.762  12.291  1.00  0.00     0.155 A 
HETATM    9  C7  UNL     1      -8.054  54.869  11.863  1.00  0.00     0.029 A 
ENDROOT
BRANCH   9  10
HETATM   10  C8  UNL     1      -7.465  53.928  12.830  1.00  0.00     0.127 C 
BRANCH  10  11
HETATM   11  S1  UNL     1      -5.915  54.517  13.561  1.00  0.00    -0.090 SA
BRANCH  11  12
HETATM   12  C9  UNL     1      -4.946  53.087  14.004  1.00  0.00     0.136 C 
HETATM   13  N3  UNL     1      -5.268  52.421  15.045  1.00  0.00    -0.380 N 
ATOM     14  H32 UNL     1      -6.072  52.736  15.586  1.00  0.00     0.158 HD
ATOM     15  H31 UNL     1      -4.714  51.602  15.298  1.00  0.00     0.158 HD
BRANCH  12  16
HETATM   16  N4  UNL     1      -3.832  52.651  13.254  1.00  0.00    -0.362 N 
HETATM   17  C10 UNL     1      -3.833  51.335  12.666  1.00  0.00     0.125 C 
HETATM   18  C11 UNL     1      -2.425  50.793  12.816  1.00  0.00     0.020 C 
HETATM   19  C12 UNL     1      -1.497  51.560  11.934  1.00  0.00     0.003 C 
HETATM   20  C13 UNL     1      -1.875  53.002  11.840  1.00  0.00     0.020 C 
HETATM   21  C14 UNL     1      -2.676  53.488  13.055  1.00  0.00     0.125 C 
ENDBRANCH  12  16
ENDBRANCH  11  12
ENDBRANCH  10  11
ENDBRANCH   9  10
BRANCH   8  22
HETATM   22  O2  UNL     1      -9.323  55.775  13.634  1.00  0.00    -0.345 OA
ATOM     23  H2  UNL     1      -8.905  55.147  14.212  1.00  0.00     0.219 HD
ENDBRANCH   8  22
BRANCH   7  24
HETATM   24  C4  UNL     1     -10.554  57.627  11.964  1.00  0.00     0.131 C 
HETATM   25  C5  UNL     1     -11.964  57.094  11.881  1.00  0.00     0.027 C 
ENDBRANCH   7  24
TORSDOF 6
ENDMDL
MODEL 4
REMARK VINA RESULT: -6.508468109      2.842      6.771
REMARK  6 active torsions:
REMARK  status: ('A' for Active; 'I' for Inactive)
REMARK    1  A    between atoms: N2_7  and  C4_8 
REMARK    2  A    between atoms: C6_10  and  O2_11 
REMARK    3  A    between atoms: C7_13  and  C8_14 
REMARK    4  A    between atoms: C8_14  and  S1_15 
REMARK    5  A    between atoms: S1_15  and  C9_16 
REMARK    6  A    between atoms: C9_16  and  N4_20 
ROOT
HETATM    1  C1  UNL     1      -4.240  51.426  13.862  1.00  0.00     0.044 C 
HETATM    2  C2  UNL     1      -5.233  52.240  13.614  1.00  0.00     0.038 A 
HETATM    3  N1  UNL     1      -5.295  53.475  14.359  1.00  0.00    -0.309 N 
ATOM      4  H1  UNL     1      -4.588  53.693  15.061  1.00  0.00     0.170 HD
HETATM    5  C3  UNL     1      -6.355  54.377  14.099  1.00  0.00     0.329 A 
HETATM    6  O1  UNL     1      -6.448  55.479  14.734  1.00  0.00    -0.246 OA
HETATM    7  N2  UNL     1      -7.330  54.048  13.111  1.00  0.00    -0.280 N 
HETATM    8  C6  UNL     1      -7.231  52.823  12.402  1.00  0.00     0.155 A 
HETATM    9  C7  UNL     1      -6.244  51.933  12.613  1.00  0.00     0.029 A 
ENDROOT
BRANCH   9  10
HETATM   10  C8  UNL     1      -6.221  50.690  11.826  1.00  0.00     0.127 C 
BRANCH  10  11
HETATM   11  S1  UNL     1      -5.358  50.853  10.239  1.00  0.00    -0.090 SA
BRANCH  11  12
HETATM   12  C9  UNL     1      -3.679  50.304  10.477  1.00  0.00     0.136 C 
HETATM   13  N3  UNL     1      -3.470  49.118  10.904  1.00  0.00    -0.380 N 
ATOM     14  H32 UNL     1      -4.280  48.527  11.093  1.00  0.00     0.158 HD
ATOM     15  H31 UNL     1      -2.509  48.803  11.040  1.00  0.00     0.158 HD
BRANCH  12  16
HETATM   16  N4  UNL     1      -2.558  51.122  10.215  1.00  0.00    -0.362 N 
HETATM   17  C10 UNL     1      -1.614  51.405  11.267  1.00  0.00     0.125 C 
HETATM   18  C11 UNL     1      -1.201  52.854  11.099  1.00  0.00     0.020 C 
HETATM   19  C12 UNL     1      -0.383  52.999   9.858  1.00  0.00     0.003 C 
HETATM   20  C13 UNL     1      -0.846  52.088   8.770  1.00  0.00     0.020 C 
HETATM   21  C14 UNL     1      -2.321  51.691   8.913  1.00  0.00     0.125 C 
ENDBRANCH  12  16
ENDBRANCH  11  12
ENDBRANCH  10  11
ENDBRANCH   9  10
BRANCH   8  22
HETATM   22  O2  UNL     1      -8.204  52.543  11.449  1.00  0.00    -0.345 OA
ATOM     23  H2  UNL     1      -8.427  53.227  10.828  1.00  0.00     0.219 HD
ENDBRANCH   8  22
BRANCH   7  24
HETATM   24  C4  UNL     1      -8.418  54.950  12.826  1.00  0.00     0.131 C 
HETATM   25  C5  UNL     1      -8.114  55.868  11.668  1.00  0.00     0.027 C 
ENDBRANCH   7  24
TORSDOF 6
ENDMDL
MODEL 5
REMARK VINA RESULT: -6.455789511      3.453      6.538
REMARK  6 active torsions:
REMARK  status: ('A' for Active; 'I' for Inactive)
REMARK    1  A    between atoms: N2_7  and  C4_8 
REMARK    2  A    between atoms: C6_10  and  O2_11 
REMARK    3  A    between atoms: C7_13  and  C8_14 
REMARK    4  A    between atoms: C8_14  and  S1_15 
REMARK    5  A    between atoms: S1_15  and  C9_16 
REMARK    6  A    between atoms: C9_16  and  N4_20 
ROOT
HETATM    1  C1  UNL     1      -6.007  51.861  10.560  1.00  0.00     0.044 C 
HETATM    2  C2  UNL     1      -6.715  52.940  10.772  1.00  0.00     0.038 A 
HETATM    3  N1  UNL     1      -6.929  53.834   9.659  1.00  0.00    -0.309 N 
ATOM      4  H1  UNL     1      -6.531  53.628   8.743  1.00  0.00     0.170 HD
HETATM    5  C3  UNL     1      -7.703  55.004   9.862  1.00  0.00     0.329 A 
HETATM    6  O1  UNL     1      -7.917  55.821   8.908  1.00  0.00    -0.246 OA
HETATM    7  N2  UNL     1      -8.250  55.268  11.153  1.00  0.00    -0.280 N 
HETATM    8  C6  UNL     1      -8.013  54.362  12.219  1.00  0.00     0.155 A 
HETATM    9  C7  UNL     1      -7.286  53.239  12.077  1.00  0.00     0.029 A 
ENDROOT
BRANCH   9  10
HETATM   10  C8  UNL     1      -7.098  52.356  13.240  1.00  0.00     0.127 C 
BRANCH  10  11
HETATM   11  S1  UNL     1      -5.835  52.947  14.400  1.00  0.00    -0.090 SA
BRANCH  11  12
HETATM   12  C9  UNL     1      -4.454  53.541  13.442  1.00  0.00     0.136 C 
HETATM   13  N3  UNL     1      -4.415  54.774  13.113  1.00  0.00    -0.380 N 
ATOM     14  H32 UNL     1      -5.181  55.375  13.414  1.00  0.00     0.158 HD
ATOM     15  H31 UNL     1      -3.624  55.115  12.565  1.00  0.00     0.158 HD
BRANCH  12  16
HETATM   16  N4  UNL     1      -3.393  52.708  13.025  1.00  0.00    -0.362 N 
HETATM   17  C10 UNL     1      -2.122  53.288  12.668  1.00  0.00     0.125 C 
HETATM   18  C11 UNL     1      -1.610  52.508  11.474  1.00  0.00     0.020 C 
HETATM   19  C12 UNL     1      -1.245  51.124  11.901  1.00  0.00     0.003 C 
HETATM   20  C13 UNL     1      -2.160  50.604  12.961  1.00  0.00     0.020 C 
HETATM   21  C14 UNL     1      -3.538  51.277  12.941  1.00  0.00     0.125 C 
ENDBRANCH  12  16
ENDBRANCH  11  12
ENDBRANCH  10  11
ENDBRANCH   9  10
BRANCH   8  22
HETATM   22  O2  UNL     1      -8.565  54.660  13.460  1.00  0.00    -0.345 OA
ATOM     23  H2  UNL     1      -8.409  54.052  14.173  1.00  0.00     0.219 HD
ENDBRANCH   8  22
BRANCH   7  24
HETATM   24  C4  UNL     1      -9.041  56.450  11.385  1.00  0.00     0.131 C 
HETATM   25  C5  UNL     1     -10.503  56.230  11.084  1.00  0.00     0.027 C 
ENDBRANCH   7  24
TORSDOF 6
ENDMDL
