MODEL 1
REMARK VINA RESULT: -6.991995589      0.000      0.000
REMARK  3 active torsions:
REMARK  status: ('A' for Active; 'I' for Inactive)
REMARK       I    between atoms: C1_4  and  N3_6 
REMARK    1  A    between atoms: N3_6  and  N4_8 
REMARK    2  A    between atoms: C2_10  and  C3_11 
REMARK    3  A    between atoms: C5_16  and  C6_17 
ROOT
HETATM    1  C3  UNL     1      -2.832  49.775  12.241  1.00  0.00     0.012 A 
HETATM    2  C4  UNL     1      -2.502  48.560  11.738  1.00  0.00     0.109 A 
HETATM    3  N5  UNL     1      -3.460  47.865  11.126  1.00  0.00    -0.336 N 
ATOM      4  H5  UNL     1      -3.383  46.944  10.694  1.00  0.00     0.173 HD
HETATM    5  S1  UNL     1      -4.815  48.839  11.222  1.00  0.00    -0.018 SA
HETATM    6  C5  UNL     1      -4.141  50.164  12.062  1.00  0.00     0.021 A 
ENDROOT
BRANCH   1   7
HETATM    7  C2  UNL     1      -1.857  50.647  12.943  1.00  0.00     0.121 C 
HETATM    8  N4  UNL     1      -1.159  51.566  12.451  1.00  0.00    -0.309 N 
ATOM      9  H4  UNL     1      -0.572  52.006  13.159  1.00  0.00     0.186 HD
BRANCH   8  10
HETATM   10  N3  UNL     1      -0.977  52.127  11.247  1.00  0.00    -0.274 N 
HETATM   11  C1  UNL     1      -0.128  51.437  10.302  1.00  0.00     0.200 C 
HETATM   12  N1  UNL     1       0.778  50.602  10.677  1.00  0.00    -0.372 N 
HETATM   13  N2  UNL     1      -0.283  51.675   8.915  1.00  0.00    -0.062 NA
ATOM     14  H12 UNL     1       1.378  50.115  10.010  1.00  0.00     0.158 HD
ATOM     15  H11 UNL     1       0.890  50.430  11.676  1.00  0.00     0.158 HD
ATOM     16  H3  UNL     1      -1.423  53.012  11.005  1.00  0.00     0.189 HD
ENDBRANCH   8  10
ENDBRANCH   1   7
BRANCH   6  17
HETATM   17  C6  UNL     1      -4.836  51.431  12.490  1.00  0.00    -0.003 C 
HETATM   18  C7  UNL     1      -6.343  51.119  12.250  1.00  0.00     0.019 C 
HETATM   19  C8  UNL     1      -7.200  52.280  12.618  1.00  0.00    -0.013 C 
HETATM   20  C9  UNL     1      -6.830  53.519  11.844  1.00  0.00     0.009 C 
HETATM   21  C13 UNL     1      -7.035  52.544  14.110  1.00  0.00     0.009 C 
HETATM   22  C10 UNL     1      -5.360  53.777  12.091  1.00  0.00    -0.013 C 
HETATM   23  C11 UNL     1      -5.121  54.055  13.539  1.00  0.00     0.009 C 
HETATM   24  C15 UNL     1      -4.575  52.587  11.595  1.00  0.00     0.019 C 
HETATM   25  C12 UNL     1      -5.589  52.879  14.329  1.00  0.00    -0.013 C 
HETATM   26  C14 UNL     1      -4.763  51.676  13.954  1.00  0.00     0.019 C 
ENDBRANCH   6  17
TORSDOF 3
ENDMDL
MODEL 2
REMARK VINA RESULT: -6.952480273      2.348      4.589
REMARK  3 active torsions:
REMARK  status: ('A' for Active; 'I' for Inactive)
REMARK       I    between atoms: C1_4  and  N3_6 
REMARK    1  A    between atoms: N3_6  and  N4_8 
REMARK    2  A    between atoms: C2_10  and  C3_11 
REMARK    3  A    between atoms: C5_16  and  C6_17 
ROOT
HETATM    1  C3  UNL     1      -6.145  52.090  13.245  1.00  0.00     0.012 A 
HETATM    2  C4  UNL     1      -7.406  52.584  13.297  1.00  0.00     0.109 A 
HETATM    3  N5  UNL     1      -8.276  52.152  12.384  1.00  0.00    -0.336 N 
ATOM      4  H5  UNL     1      -9.256  52.418  12.281  1.00  0.00     0.173 HD
HETATM    5  S1  UNL     1      -7.404  51.078  11.446  1.00  0.00    -0.018 SA
HETATM    6  C5  UNL     1      -5.896  51.184  12.240  1.00  0.00     0.021 A 
ENDROOT
BRANCH   1   7
HETATM    7  C2  UNL     1      -5.085  52.490  14.205  1.00  0.00     0.121 C 
HETATM    8  N4  UNL     1      -4.049  53.156  13.968  1.00  0.00    -0.309 N 
ATOM      9  H4  UNL     1      -3.491  53.287  14.812  1.00  0.00     0.186 HD
BRANCH   8  10
HETATM   10  N3  UNL     1      -3.476  53.742  12.907  1.00  0.00    -0.274 N 
HETATM   11  C1  UNL     1      -2.084  53.457  12.648  1.00  0.00     0.200 C 
HETATM   12  N1  UNL     1      -1.280  53.062  13.574  1.00  0.00    -0.372 N 
HETATM   13  N2  UNL     1      -1.567  53.610  11.339  1.00  0.00    -0.062 NA
ATOM     14  H12 UNL     1      -0.297  52.860  13.391  1.00  0.00     0.158 HD
ATOM     15  H11 UNL     1      -1.652  52.951  14.517  1.00  0.00     0.158 HD
ATOM     16  H3  UNL     1      -4.006  54.369  12.302  1.00  0.00     0.189 HD
ENDBRANCH   8  10
ENDBRANCH   1   7
BRANCH   6  17
HETATM   17  C6  UNL     1      -4.623  50.451  11.897  1.00  0.00    -0.003 C 
HETATM   18  C7  UNL     1      -5.127  49.102  11.305  1.00  0.00     0.019 C 
HETATM   19  C8  UNL     1      -3.989  48.229  10.907  1.00  0.00    -0.013 C 
HETATM   20  C9  UNL     1      -3.071  47.938  12.066  1.00  0.00     0.009 C 
HETATM   21  C13 UNL     1      -3.208  48.932   9.803  1.00  0.00     0.009 C 
HETATM   22  C10 UNL     1      -2.618  49.272  12.620  1.00  0.00    -0.013 C 
HETATM   23  C11 UNL     1      -1.833  50.019  11.592  1.00  0.00     0.009 C 
HETATM   24  C15 UNL     1      -3.835  50.036  13.084  1.00  0.00     0.019 C 
HETATM   25  C12 UNL     1      -2.695  50.213  10.390  1.00  0.00    -0.013 C 
HETATM   26  C14 UNL     1      -3.877  51.067  10.768  1.00  0.00     0.019 C 
ENDBRANCH   6  17
TORSDOF 3
ENDMDL
MODEL 3
REMARK VINA RESULT: -6.882650685      2.880      4.714
REMARK  3 active torsions:
REMARK  status: ('A' for Active; 'I' for Inactive)
REMARK       I    between atoms: C1_4  and  N3_6 
REMARK    1  A    between atoms: N3_6  and  N4_8 
REMARK    2  A    between atoms: C2_10  and  C3_11 
REMARK    3  A    between atoms: C5_16  and  C6_17 
ROOT
HETATM    1  C3  UNL     1      -5.991  53.956  13.068  1.00  0.00     0.012 A 
HETATM    2  C4  UNL     1      -6.499  55.189  13.314  1.00  0.00     0.109 A 
HETATM    3  N5  UNL     1      -7.277  55.734  12.379  1.00  0.00    -0.336 N 
ATOM      4  H5  UNL     1      -7.736  56.644  12.402  1.00  0.00     0.173 HD
HETATM    5  S1  UNL     1      -7.331  54.592  11.159  1.00  0.00    -0.018 SA
HETATM    6  C5  UNL     1      -6.339  53.393  11.861  1.00  0.00     0.021 A 
ENDROOT
BRANCH   1   7
HETATM    7  C2  UNL     1      -5.114  53.242  14.030  1.00  0.00     0.121 C 
HETATM    8  N4  UNL     1      -3.861  53.250  14.074  1.00  0.00    -0.309 N 
ATOM      9  H4  UNL     1      -3.512  52.671  14.838  1.00  0.00     0.186 HD
BRANCH   8  10
HETATM   10  N3  UNL     1      -2.854  53.813  13.390  1.00  0.00    -0.274 N 
HETATM   11  C1  UNL     1      -1.844  52.941  12.834  1.00  0.00     0.200 C 
HETATM   12  N1  UNL     1      -1.612  51.768  13.312  1.00  0.00    -0.372 N 
HETATM   13  N2  UNL     1      -1.075  53.374  11.727  1.00  0.00    -0.062 NA
ATOM     14  H12 UNL     1      -0.899  51.152  12.919  1.00  0.00     0.158 HD
ATOM     15  H11 UNL     1      -2.167  51.456  14.109  1.00  0.00     0.158 HD
ATOM     16  H3  UNL     1      -2.803  54.824  13.266  1.00  0.00     0.189 HD
ENDBRANCH   8  10
ENDBRANCH   1   7
BRANCH   6  17
HETATM   17  C6  UNL     1      -5.956  52.058  11.276  1.00  0.00    -0.003 C 
HETATM   18  C7  UNL     1      -6.798  51.978   9.968  1.00  0.00     0.019 C 
HETATM   19  C8  UNL     1      -6.551  50.701   9.244  1.00  0.00    -0.013 C 
HETATM   20  C9  UNL     1      -6.865  49.500  10.099  1.00  0.00     0.009 C 
HETATM   21  C13 UNL     1      -5.085  50.661   8.829  1.00  0.00     0.009 C 
HETATM   22  C10 UNL     1      -6.040  49.624  11.361  1.00  0.00    -0.013 C 
HETATM   23  C11 UNL     1      -4.583  49.583  11.033  1.00  0.00     0.009 C 
HETATM   24  C15 UNL     1      -6.436  50.898  12.068  1.00  0.00     0.019 C 
HETATM   25  C12 UNL     1      -4.280  50.702  10.094  1.00  0.00    -0.013 C 
HETATM   26  C14 UNL     1      -4.553  52.011  10.786  1.00  0.00     0.019 C 
ENDBRANCH   6  17
TORSDOF 3
ENDMDL
MODEL 4
REMARK VINA RESULT: -6.769599281      3.255      5.743
REMARK  3 active torsions:
REMARK  status: ('A' for Active; 'I' for Inactive)
REMARK       I    between atoms: C1_4  and  N3_6 
REMARK    1  A    between atoms: N3_6  and  N4_8 
REMARK    2  A    between atoms: C2_10  and  C3_11 
REMARK    3  A    between atoms: C5_16  and  C6_17 
ROOT
HETATM    1  C3  UNL     1      -5.354  51.695  12.560  1.00  0.00     0.012 A 
HETATM    2  C4  UNL     1      -6.703  51.724  12.686  1.00  0.00     0.109 A 
HETATM    3  N5  UNL     1      -7.420  51.023  11.807  1.00  0.00    -0.336 N 
ATOM      4  H5  UNL     1      -8.435  50.936  11.758  1.00  0.00     0.173 HD
HETATM    5  S1  UNL     1      -6.284  50.319  10.803  1.00  0.00    -0.018 SA
HETATM    6  C5  UNL     1      -4.863  50.934  11.523  1.00  0.00     0.021 A 
ENDROOT
BRANCH   1   7
HETATM    7  C2  UNL     1      -4.445  52.430  13.476  1.00  0.00     0.121 C 
HETATM    8  N4  UNL     1      -4.758  53.276  14.347  1.00  0.00    -0.309 N 
ATOM      9  H4  UNL     1      -3.935  53.627  14.836  1.00  0.00     0.186 HD
BRANCH   8  10
HETATM   10  N3  UNL     1      -5.881  53.844  14.811  1.00  0.00    -0.274 N 
HETATM   11  C1  UNL     1      -6.327  55.068  14.185  1.00  0.00     0.200 C 
HETATM   12  N1  UNL     1      -5.520  55.849  13.554  1.00  0.00    -0.372 N 
HETATM   13  N2  UNL     1      -7.692  55.436  14.256  1.00  0.00    -0.062 NA
ATOM     14  H12 UNL     1      -5.835  56.713  13.112  1.00  0.00     0.158 HD
ATOM     15  H11 UNL     1      -4.537  55.584  13.502  1.00  0.00     0.158 HD
ATOM     16  H3  UNL     1      -6.403  53.426  15.580  1.00  0.00     0.189 HD
ENDBRANCH   8  10
ENDBRANCH   1   7
BRANCH   6  17
HETATM   17  C6  UNL     1      -3.437  50.686  11.101  1.00  0.00    -0.003 C 
HETATM   18  C7  UNL     1      -3.581  50.031   9.696  1.00  0.00     0.019 C 
HETATM   19  C8  UNL     1      -2.251  49.705   9.113  1.00  0.00    -0.013 C 
HETATM   20  C9  UNL     1      -1.459  48.781  10.002  1.00  0.00     0.009 C 
HETATM   21  C13 UNL     1      -1.481  51.006   8.918  1.00  0.00     0.009 C 
HETATM   22  C10 UNL     1      -1.356  49.446  11.357  1.00  0.00    -0.013 C 
HETATM   23  C11 UNL     1      -0.601  50.730  11.247  1.00  0.00     0.009 C 
HETATM   24  C15 UNL     1      -2.750  49.642  11.902  1.00  0.00     0.019 C 
HETATM   25  C12 UNL     1      -1.314  51.614  10.280  1.00  0.00    -0.013 C 
HETATM   26  C14 UNL     1      -2.681  51.936  10.824  1.00  0.00     0.019 C 
ENDBRANCH   6  17
TORSDOF 3
ENDMDL
MODEL 5
REMARK VINA RESULT: -6.730959914      2.034      2.957
REMARK  3 active torsions:
REMARK  status: ('A' for Active; 'I' for Inactive)
REMARK       I    between atoms: C1_4  and  N3_6 
REMARK    1  A    between atoms: N3_6  and  N4_8 
REMARK    2  A    between atoms: C2_10  and  C3_11 
REMARK    3  A    between atoms: C5_16  and  C6_17 
ROOT
HETATM    1  C3  UNL     1      -4.540  50.750  12.816  1.00  0.00     0.012 A 
HETATM    2  C4  UNL     1      -3.558  49.824  12.940  1.00  0.00     0.109 A 
HETATM    3  N5  UNL     1      -3.614  48.755  12.145  1.00  0.00    -0.336 N 
ATOM      4  H5  UNL     1      -2.962  47.972  12.107  1.00  0.00     0.173 HD
HETATM    5  S1  UNL     1      -4.989  48.987  11.224  1.00  0.00    -0.018 SA
HETATM    6  C5  UNL     1      -5.503  50.482  11.870  1.00  0.00     0.021 A 
ENDROOT
BRANCH   1   7
HETATM    7  C2  UNL     1      -4.590  51.984  13.641  1.00  0.00     0.121 C 
HETATM    8  N4  UNL     1      -4.028  53.081  13.411  1.00  0.00    -0.309 N 
ATOM      9  H4  UNL     1      -4.230  53.762  14.143  1.00  0.00     0.186 HD
BRANCH   8  10
HETATM   10  N3  UNL     1      -3.233  53.602  12.465  1.00  0.00    -0.274 N 
HETATM   11  C1  UNL     1      -1.819  53.313  12.536  1.00  0.00     0.200 C 
HETATM   12  N1  UNL     1      -1.240  52.987  13.639  1.00  0.00    -0.372 N 
HETATM   13  N2  UNL     1      -1.028  53.385  11.364  1.00  0.00    -0.062 NA
ATOM     14  H12 UNL     1      -0.242  52.784  13.690  1.00  0.00     0.158 HD
ATOM     15  H11 UNL     1      -1.810  52.935  14.484  1.00  0.00     0.158 HD
ATOM     16  H3  UNL     1      -3.615  54.183  11.719  1.00  0.00     0.189 HD
ENDBRANCH   8  10
ENDBRANCH   1   7
BRANCH   6  17
HETATM   17  C6  UNL     1      -6.718  51.284  11.477  1.00  0.00    -0.003 C 
HETATM   18  C7  UNL     1      -7.671  50.221  10.855  1.00  0.00     0.019 C 
HETATM   19  C8  UNL     1      -8.945  50.840  10.397  1.00  0.00    -0.013 C 
HETATM   20  C9  UNL     1      -8.707  51.932   9.385  1.00  0.00     0.009 C 
HETATM   21  C13 UNL     1      -9.660  51.420  11.612  1.00  0.00     0.009 C 
HETATM   22  C10 UNL     1      -7.767  52.932  10.022  1.00  0.00    -0.013 C 
HETATM   23  C11 UNL     1      -8.407  53.553  11.220  1.00  0.00     0.009 C 
HETATM   24  C15 UNL     1      -6.474  52.228  10.358  1.00  0.00     0.019 C 
HETATM   25  C12 UNL     1      -8.753  52.468  12.184  1.00  0.00    -0.013 C 
HETATM   26  C14 UNL     1      -7.485  51.796  12.643  1.00  0.00     0.019 C 
ENDBRANCH   6  17
TORSDOF 3
ENDMDL
