MODEL 1
REMARK VINA RESULT: -7.141878149      0.000      0.000
REMARK  5 active torsions:
REMARK  status: ('A' for Active; 'I' for Inactive)
REMARK    1  A    between atoms: C2_2  and  C3_3 
REMARK    2  A    between atoms: C3_3  and  O1_4 
REMARK    3  A    between atoms: N1_12  and  C10_13 
REMARK    4  A    between atoms: C11_16  and  N3_17 
REMARK    5  A    between atoms: C12_22  and  C13_23 
ROOT
HETATM    1  C10 UNL     1      -2.411  51.705  11.317  1.00  0.00     0.696 A 
HETATM    2  N2  UNL     1      -1.676  50.600  11.316  1.00  0.00    -0.022 N 
ATOM      3  H2  UNL     1      -2.004  49.811  11.873  1.00  0.00     0.203 HD
HETATM    4  C11 UNL     1      -0.529  50.448  10.631  1.00  0.00     0.691 A 
HETATM    5  N4  UNL     1      -0.105  51.482   9.902  1.00  0.00    -0.179 N 
ATOM      6  H4  UNL     1       0.761  51.400   9.370  1.00  0.00     0.185 HD
HETATM    7  C12 UNL     1      -0.812  52.643   9.858  1.00  0.00     0.117 A 
HETATM    8  N5  UNL     1      -1.945  52.740  10.558  1.00  0.00    -0.179 N 
ATOM      9  H5  UNL     1      -2.477  53.610  10.526  1.00  0.00     0.185 HD
ENDROOT
BRANCH   1  10
HETATM   10  N1  UNL     1      -3.621  51.829  12.056  1.00  0.00    -0.212 N 
HETATM   11  C6  UNL     1      -3.882  52.658  13.195  1.00  0.00     0.102 C 
HETATM   12  C5  UNL     1      -4.272  54.053  12.864  1.00  0.00     0.029 C 
HETATM   13  C7  UNL     1      -4.931  51.880  13.941  1.00  0.00     0.032 C 
HETATM   14  C4  UNL     1      -5.745  54.336  13.034  1.00  0.00     0.040 C 
HETATM   15  C3  UNL     1      -6.613  53.587  12.078  1.00  0.00     0.058 C 
HETATM   16  C16 UNL     1      -6.951  52.207  12.482  1.00  0.00     0.044 C 
HETATM   17  C8  UNL     1      -5.794  51.342  12.857  1.00  0.00     0.009 C 
HETATM   18  C9  UNL     1      -4.828  51.088  11.736  1.00  0.00     0.146 C 
BRANCH  15  19
HETATM   19  C2  UNL     1      -7.938  54.342  11.890  1.00  0.00     0.033 C 
HETATM   20  C1  UNL     1      -8.274  55.196  13.064  1.00  0.00     0.008 C 
ENDBRANCH  15  19
BRANCH  15  21
HETATM   21  O1  UNL     1      -5.988  53.653  10.815  1.00  0.00    -0.390 OA
ATOM     22  H1  UNL     1      -5.325  54.326  10.914  1.00  0.00     0.210 HD
ENDBRANCH  15  21
ENDBRANCH   1  10
BRANCH   4  23
HETATM   23  N3  UNL     1       0.172  49.364  10.645  1.00  0.00    -0.234 N 
ATOM     24  H32 UNL     1       0.741  49.154  11.464  1.00  0.00     0.174 HD
ATOM     25  H31 UNL     1       0.192  48.695   9.874  1.00  0.00     0.174 HD
ENDBRANCH   4  23
BRANCH   7  26
HETATM   26  C13 UNL     1      -0.259  53.728   9.022  1.00  0.00     0.046 C 
HETATM   27  C14 UNL     1       1.268  53.682   9.095  1.00  0.00     0.017 C 
HETATM   28  C15 UNL     1      -0.642  53.516   7.576  1.00  0.00     0.017 C 
ENDBRANCH   7  26
TORSDOF 5
ENDMDL
MODEL 2
REMARK VINA RESULT: -6.977149349      4.079      7.049
REMARK  5 active torsions:
REMARK  status: ('A' for Active; 'I' for Inactive)
REMARK    1  A    between atoms: C2_2  and  C3_3 
REMARK    2  A    between atoms: C3_3  and  O1_4 
REMARK    3  A    between atoms: N1_12  and  C10_13 
REMARK    4  A    between atoms: C11_16  and  N3_17 
REMARK    5  A    between atoms: C12_22  and  C13_23 
ROOT
HETATM    1  C10 UNL     1      -7.500  54.719  11.089  1.00  0.00     0.696 A 
HETATM    2  N2  UNL     1      -7.029  54.784   9.850  1.00  0.00    -0.022 N 
ATOM      3  H2  UNL     1      -6.178  54.264   9.638  1.00  0.00     0.203 HD
HETATM    4  C11 UNL     1      -7.596  55.490   8.855  1.00  0.00     0.691 A 
HETATM    5  N4  UNL     1      -8.710  56.167   9.138  1.00  0.00    -0.179 N 
ATOM      6  H4  UNL     1      -9.166  56.712   8.407  1.00  0.00     0.185 HD
HETATM    7  C12 UNL     1      -9.246  56.141  10.388  1.00  0.00     0.117 A 
HETATM    8  N5  UNL     1      -8.641  55.425  11.339  1.00  0.00    -0.179 N 
ATOM      9  H5  UNL     1      -9.043  55.404  12.276  1.00  0.00     0.185 HD
ENDROOT
BRANCH   1  10
HETATM   10  N1  UNL     1      -6.871  53.961  12.117  1.00  0.00    -0.212 N 
HETATM   11  C6  UNL     1      -7.195  52.641  12.568  1.00  0.00     0.102 C 
HETATM   12  C5  UNL     1      -6.573  51.550  11.774  1.00  0.00     0.029 C 
HETATM   13  C7  UNL     1      -6.781  52.671  14.014  1.00  0.00     0.032 C 
HETATM   14  C4  UNL     1      -5.404  50.882  12.458  1.00  0.00     0.040 C 
HETATM   15  C3  UNL     1      -4.225  51.779  12.641  1.00  0.00     0.058 C 
HETATM   16  C16 UNL     1      -4.274  52.649  13.834  1.00  0.00     0.044 C 
HETATM   17  C8  UNL     1      -5.520  53.456  13.993  1.00  0.00     0.009 C 
HETATM   18  C9  UNL     1      -5.749  54.455  12.895  1.00  0.00     0.146 C 
BRANCH  15  19
HETATM   19  C2  UNL     1      -2.948  50.931  12.751  1.00  0.00     0.033 C 
HETATM   20  C1  UNL     1      -3.236  49.526  13.157  1.00  0.00     0.008 C 
ENDBRANCH  15  19
BRANCH  15  21
HETATM   21  O1  UNL     1      -4.065  52.501  11.439  1.00  0.00    -0.390 OA
ATOM     22  H1  UNL     1      -4.746  52.165  10.869  1.00  0.00     0.210 HD
ENDBRANCH  15  21
ENDBRANCH   1  10
BRANCH   4  23
HETATM   23  N3  UNL     1      -7.121  55.541   7.656  1.00  0.00    -0.234 N 
ATOM     24  H32 UNL     1      -6.921  54.669   7.166  1.00  0.00     0.174 HD
ATOM     25  H31 UNL     1      -6.929  56.412   7.162  1.00  0.00     0.174 HD
ENDBRANCH   4  23
BRANCH   7  26
HETATM   26  C13 UNL     1     -10.481  56.925  10.599  1.00  0.00     0.046 C 
HETATM   27  C14 UNL     1     -10.731  57.062  12.102  1.00  0.00     0.017 C 
HETATM   28  C15 UNL     1     -10.311  58.320  10.047  1.00  0.00     0.017 C 
ENDBRANCH   7  26
TORSDOF 5
ENDMDL
MODEL 3
REMARK VINA RESULT: -6.958502788      1.796      2.751
REMARK  5 active torsions:
REMARK  status: ('A' for Active; 'I' for Inactive)
REMARK    1  A    between atoms: C2_2  and  C3_3 
REMARK    2  A    between atoms: C3_3  and  O1_4 
REMARK    3  A    between atoms: N1_12  and  C10_13 
REMARK    4  A    between atoms: C11_16  and  N3_17 
REMARK    5  A    between atoms: C12_22  and  C13_23 
ROOT
HETATM    1  C10 UNL     1      -4.086  52.640  12.053  1.00  0.00     0.696 A 
HETATM    2  N2  UNL     1      -3.257  53.036  13.011  1.00  0.00    -0.022 N 
ATOM      3  H2  UNL     1      -3.664  53.461  13.844  1.00  0.00     0.203 HD
HETATM    4  C11 UNL     1      -1.919  52.915  12.960  1.00  0.00     0.691 A 
HETATM    5  N4  UNL     1      -1.393  52.357  11.869  1.00  0.00    -0.179 N 
ATOM      6  H4  UNL     1      -0.381  52.249  11.797  1.00  0.00     0.185 HD
HETATM    7  C12 UNL     1      -2.186  51.928  10.850  1.00  0.00     0.117 A 
HETATM    8  N5  UNL     1      -3.510  52.073  10.953  1.00  0.00    -0.179 N 
ATOM      9  H5  UNL     1      -4.106  51.752  10.190  1.00  0.00     0.185 HD
ENDROOT
BRANCH   1  10
HETATM   10  N1  UNL     1      -5.499  52.786  12.143  1.00  0.00    -0.212 N 
HETATM   11  C6  UNL     1      -6.264  53.355  13.212  1.00  0.00     0.102 C 
HETATM   12  C5  UNL     1      -6.399  54.834  13.153  1.00  0.00     0.029 C 
HETATM   13  C7  UNL     1      -7.567  52.609  13.124  1.00  0.00     0.032 C 
HETATM   14  C4  UNL     1      -7.756  55.309  12.688  1.00  0.00     0.040 C 
HETATM   15  C3  UNL     1      -8.058  54.960  11.270  1.00  0.00     0.058 C 
HETATM   16  C16 UNL     1      -8.592  53.599  11.054  1.00  0.00     0.044 C 
HETATM   17  C8  UNL     1      -7.797  52.491  11.661  1.00  0.00     0.009 C 
HETATM   18  C9  UNL     1      -6.411  52.351  11.100  1.00  0.00     0.146 C 
BRANCH  15  19
HETATM   19  C2  UNL     1      -9.095  55.947  10.709  1.00  0.00     0.033 C 
HETATM   20  C1  UNL     1      -9.906  56.585  11.785  1.00  0.00     0.008 C 
ENDBRANCH  15  19
BRANCH  15  21
HETATM   21  O1  UNL     1      -6.889  55.217  10.522  1.00  0.00    -0.390 OA
ATOM     22  H1  UNL     1      -6.193  55.224  11.168  1.00  0.00     0.210 HD
ENDBRANCH  15  21
ENDBRANCH   1  10
BRANCH   4  23
HETATM   23  N3  UNL     1      -1.130  53.307  13.904  1.00  0.00    -0.234 N 
ATOM     24  H32 UNL     1      -1.133  52.805  14.791  1.00  0.00     0.174 HD
ATOM     25  H31 UNL     1      -0.495  54.101  13.815  1.00  0.00     0.174 HD
ENDBRANCH   4  23
BRANCH   7  26
HETATM   26  C13 UNL     1      -1.507  51.324   9.685  1.00  0.00     0.046 C 
HETATM   27  C14 UNL     1      -1.844  52.138   8.435  1.00  0.00     0.017 C 
HETATM   28  C15 UNL     1      -0.009  51.387   9.868  1.00  0.00     0.017 C 
ENDBRANCH   7  26
TORSDOF 5
ENDMDL
MODEL 4
REMARK VINA RESULT: -6.943333101      4.208      7.098
REMARK  5 active torsions:
REMARK  status: ('A' for Active; 'I' for Inactive)
REMARK    1  A    between atoms: C2_2  and  C3_3 
REMARK    2  A    between atoms: C3_3  and  O1_4 
REMARK    3  A    between atoms: N1_12  and  C10_13 
REMARK    4  A    between atoms: C11_16  and  N3_17 
REMARK    5  A    between atoms: C12_22  and  C13_23 
ROOT
HETATM    1  C10 UNL     1      -8.094  55.013  11.995  1.00  0.00     0.696 A 
HETATM    2  N2  UNL     1      -9.026  55.759  12.574  1.00  0.00    -0.022 N 
ATOM      3  H2  UNL     1      -9.117  55.704  13.588  1.00  0.00     0.203 HD
HETATM    4  C11 UNL     1      -9.861  56.583  11.915  1.00  0.00     0.691 A 
HETATM    5  N4  UNL     1      -9.737  56.652  10.588  1.00  0.00    -0.179 N 
ATOM      6  H4  UNL     1     -10.353  57.267  10.058  1.00  0.00     0.185 HD
HETATM    7  C12 UNL     1      -8.800  55.914   9.933  1.00  0.00     0.117 A 
HETATM    8  N5  UNL     1      -7.998  55.112  10.637  1.00  0.00    -0.179 N 
ATOM      9  H5  UNL     1      -7.295  54.558  10.147  1.00  0.00     0.185 HD
ENDROOT
BRANCH   1  10
HETATM   10  N1  UNL     1      -7.228  54.151  12.726  1.00  0.00    -0.212 N 
HETATM   11  C6  UNL     1      -7.497  52.829  13.209  1.00  0.00     0.102 C 
HETATM   12  C5  UNL     1      -7.265  51.751  12.213  1.00  0.00     0.029 C 
HETATM   13  C7  UNL     1      -6.629  52.739  14.435  1.00  0.00     0.032 C 
HETATM   14  C4  UNL     1      -5.997  50.964  12.443  1.00  0.00     0.040 C 
HETATM   15  C3  UNL     1      -4.753  51.765  12.257  1.00  0.00     0.058 C 
HETATM   16  C16 UNL     1      -4.333  52.560  13.430  1.00  0.00     0.044 C 
HETATM   17  C8  UNL     1      -5.383  53.437  14.025  1.00  0.00     0.009 C 
HETATM   18  C9  UNL     1      -5.876  54.517  13.105  1.00  0.00     0.146 C 
BRANCH  15  19
HETATM   19  C2  UNL     1      -3.588  50.828  11.904  1.00  0.00     0.033 C 
HETATM   20  C1  UNL     1      -3.324  49.826  12.976  1.00  0.00     0.008 C 
ENDBRANCH  15  19
BRANCH  15  21
HETATM   21  O1  UNL     1      -4.936  52.550  11.098  1.00  0.00    -0.390 OA
ATOM     22  H1  UNL     1      -5.830  52.862  11.163  1.00  0.00     0.210 HD
ENDBRANCH  15  21
ENDBRANCH   1  10
BRANCH   4  23
HETATM   23  N3  UNL     1     -10.762  57.300  12.497  1.00  0.00    -0.234 N 
ATOM     24  H32 UNL     1     -11.352  56.870  13.209  1.00  0.00     0.174 HD
ATOM     25  H31 UNL     1     -10.924  58.285  12.285  1.00  0.00     0.174 HD
ENDBRANCH   4  23
BRANCH   7  26
HETATM   26  C13 UNL     1      -8.744  56.062   8.464  1.00  0.00     0.046 C 
HETATM   27  C14 UNL     1      -7.495  55.351   7.941  1.00  0.00     0.017 C 
HETATM   28  C15 UNL     1      -9.938  55.391   7.828  1.00  0.00     0.017 C 
ENDBRANCH   7  26
TORSDOF 5
ENDMDL
MODEL 5
REMARK VINA RESULT: -6.899585136      1.198      1.440
REMARK  5 active torsions:
REMARK  status: ('A' for Active; 'I' for Inactive)
REMARK    1  A    between atoms: C2_2  and  C3_3 
REMARK    2  A    between atoms: C3_3  and  O1_4 
REMARK    3  A    between atoms: N1_12  and  C10_13 
REMARK    4  A    between atoms: C11_16  and  N3_17 
REMARK    5  A    between atoms: C12_22  and  C13_23 
ROOT
HETATM    1  C10 UNL     1      -3.025  51.857  11.227  1.00  0.00     0.696 A 
HETATM    2  N2  UNL     1      -1.872  51.348  11.642  1.00  0.00    -0.022 N 
ATOM      3  H2  UNL     1      -1.779  51.133  12.635  1.00  0.00     0.203 HD
HETATM    4  C11 UNL     1      -0.819  51.093  10.845  1.00  0.00     0.691 A 
HETATM    5  N4  UNL     1      -0.947  51.374   9.548  1.00  0.00    -0.179 N 
ATOM      6  H4  UNL     1      -0.168  51.194   8.915  1.00  0.00     0.185 HD
HETATM    7  C12 UNL     1      -2.102  51.898   9.056  1.00  0.00     0.117 A 
HETATM    8  N5  UNL     1      -3.117  52.131   9.892  1.00  0.00    -0.179 N 
ATOM      9  H5  UNL     1      -3.984  52.523   9.525  1.00  0.00     0.185 HD
ENDROOT
BRANCH   1  10
HETATM   10  N1  UNL     1      -4.118  52.114  12.101  1.00  0.00    -0.212 N 
HETATM   11  C6  UNL     1      -4.127  52.892  13.303  1.00  0.00     0.102 C 
HETATM   12  C5  UNL     1      -4.321  54.350  13.091  1.00  0.00     0.029 C 
HETATM   13  C7  UNL     1      -5.205  52.234  14.120  1.00  0.00     0.032 C 
HETATM   14  C4  UNL     1      -5.706  54.842  13.438  1.00  0.00     0.040 C 
HETATM   15  C3  UNL     1      -6.774  54.302  12.547  1.00  0.00     0.058 C 
HETATM   16  C16 UNL     1      -7.285  52.964  12.913  1.00  0.00     0.044 C 
HETATM   17  C8  UNL     1      -6.248  51.910  13.112  1.00  0.00     0.009 C 
HETATM   18  C9  UNL     1      -5.453  51.589  11.879  1.00  0.00     0.146 C 
BRANCH  15  19
HETATM   19  C2  UNL     1      -7.975  55.260  12.546  1.00  0.00     0.033 C 
HETATM   20  C1  UNL     1      -8.123  55.979  11.248  1.00  0.00     0.008 C 
ENDBRANCH  15  19
BRANCH  15  21
HETATM   21  O1  UNL     1      -6.279  54.358  11.227  1.00  0.00    -0.390 OA
ATOM     22  H1  UNL     1      -6.657  55.151  10.866  1.00  0.00     0.210 HD
ENDBRANCH  15  21
ENDBRANCH   1  10
BRANCH   4  23
HETATM   23  N3  UNL     1       0.294  50.597  11.271  1.00  0.00    -0.234 N 
ATOM     24  H32 UNL     1       1.066  50.479  10.614  1.00  0.00     0.174 HD
ATOM     25  H31 UNL     1       0.452  50.311  12.237  1.00  0.00     0.174 HD
ENDBRANCH   4  23
BRANCH   7  26
HETATM   26  C13 UNL     1      -2.144  52.173   7.605  1.00  0.00     0.046 C 
HETATM   27  C14 UNL     1      -0.966  53.077   7.236  1.00  0.00     0.017 C 
HETATM   28  C15 UNL     1      -1.979  50.888   6.828  1.00  0.00     0.017 C 
ENDBRANCH   7  26
TORSDOF 5
ENDMDL
