MODEL 1
REMARK VINA RESULT: -5.696881095      0.000      0.000
REMARK  7 active torsions:
REMARK  status: ('A' for Active; 'I' for Inactive)
REMARK    1  A    between atoms: C2_2  and  C3_3 
REMARK    2  A    between atoms: C5_7  and  C6_8 
REMARK    3  A    between atoms: N2_10  and  N3_12 
REMARK    4  A    between atoms: N3_12  and  C8_14 
REMARK    5  A    between atoms: C8_14  and  N4_16 
REMARK    6  A    between atoms: N4_16  and  C9_18 
REMARK    7  A    between atoms: C9_18  and  N5_20 
ROOT
HETATM    1  C6  UNL     1      -5.691  53.467  13.452  1.00  0.00     0.055 C 
HETATM    2  C7  UNL     1      -6.111  52.874  14.742  1.00  0.00     0.072 C 
HETATM    3  N2  UNL     1      -6.474  54.183  12.760  1.00  0.00    -0.300 N 
ATOM      4  H2  UNL     1      -7.410  54.330  13.139  1.00  0.00     0.186 HD
ENDROOT
BRANCH   3   5
HETATM    5  N3  UNL     1      -6.199  54.780  11.559  1.00  0.00    -0.276 N 
ATOM      6  H3  UNL     1      -5.241  55.008  11.294  1.00  0.00     0.189 HD
BRANCH   5   7
HETATM    7  C8  UNL     1      -7.319  55.082  10.664  1.00  0.00     0.192 C 
HETATM    8  S1  UNL     1      -8.570  55.939  11.252  1.00  0.00    -0.039 SA
BRANCH   7   9
HETATM    9  N4  UNL     1      -7.254  54.618   9.348  1.00  0.00    -0.309 N 
ATOM     10  H4  UNL     1      -7.158  53.604   9.279  1.00  0.00     0.170 HD
BRANCH   9  11
HETATM   11  C9  UNL     1      -7.292  55.257   8.110  1.00  0.00     0.173 C 
HETATM   12  S2  UNL     1      -8.768  55.800   7.522  1.00  0.00    -0.041 SA
BRANCH  11  13
HETATM   13  N5  UNL     1      -6.195  55.499   7.287  1.00  0.00    -0.371 N 
HETATM   14  C10 UNL     1      -6.311  55.158   5.847  1.00  0.00     0.148 C 
ATOM     15  H5  UNL     1      -5.336  55.900   7.664  1.00  0.00     0.161 HD
ENDBRANCH  11  13
ENDBRANCH   9  11
ENDBRANCH   7   9
ENDBRANCH   5   7
ENDBRANCH   3   5
BRANCH   1  16
HETATM   16  C5  UNL     1      -4.304  53.187  12.993  1.00  0.00     0.098 A 
HETATM   17  N1  UNL     1      -3.178  53.706  13.434  1.00  0.00    -0.358 N 
HETATM   18  C4  UNL     1      -2.040  53.335  12.904  1.00  0.00     0.103 A 
ATOM     19  H1  UNL     1      -3.192  54.395  14.185  1.00  0.00     0.166 HD
HETATM   20  C3  UNL     1      -2.100  52.402  11.895  1.00  0.00    -0.000 A 
HETATM   21  S3  UNL     1      -3.773  52.119  11.772  1.00  0.00    -0.074 SA
BRANCH  20  22
HETATM   22  C2  UNL     1      -0.949  51.808  11.121  1.00  0.00     0.043 C 
HETATM   23  C1  UNL     1      -0.515  52.752  10.027  1.00  0.00     0.010 C 
ENDBRANCH  20  22
ENDBRANCH   1  16
TORSDOF 7
ENDMDL
MODEL 2
REMARK VINA RESULT: -5.615276914      1.720      2.028
REMARK  7 active torsions:
REMARK  status: ('A' for Active; 'I' for Inactive)
REMARK    1  A    between atoms: C2_2  and  C3_3 
REMARK    2  A    between atoms: C5_7  and  C6_8 
REMARK    3  A    between atoms: N2_10  and  N3_12 
REMARK    4  A    between atoms: N3_12  and  C8_14 
REMARK    5  A    between atoms: C8_14  and  N4_16 
REMARK    6  A    between atoms: N4_16  and  C9_18 
REMARK    7  A    between atoms: C9_18  and  N5_20 
ROOT
HETATM    1  C6  UNL     1      -6.121  54.626  12.866  1.00  0.00     0.055 C 
HETATM    2  C7  UNL     1      -6.562  55.100  14.198  1.00  0.00     0.072 C 
HETATM    3  N2  UNL     1      -6.756  54.920  11.810  1.00  0.00    -0.300 N 
ATOM      4  H2  UNL     1      -7.587  55.501  11.925  1.00  0.00     0.186 HD
ENDROOT
BRANCH   3   5
HETATM    5  N3  UNL     1      -6.446  54.541  10.531  1.00  0.00    -0.276 N 
ATOM      6  H3  UNL     1      -5.567  54.068  10.323  1.00  0.00     0.189 HD
BRANCH   5   7
HETATM    7  C8  UNL     1      -7.413  54.833   9.469  1.00  0.00     0.192 C 
HETATM    8  S1  UNL     1      -8.973  54.448   9.716  1.00  0.00    -0.039 SA
BRANCH   7   9
HETATM    9  N4  UNL     1      -6.942  55.430   8.297  1.00  0.00    -0.309 N 
ATOM     10  H4  UNL     1      -7.014  56.448   8.302  1.00  0.00     0.170 HD
BRANCH   9  11
HETATM   11  C9  UNL     1      -6.395  54.918   7.121  1.00  0.00     0.173 C 
HETATM   12  S2  UNL     1      -6.544  53.277   6.804  1.00  0.00    -0.041 SA
BRANCH  11  13
HETATM   13  N5  UNL     1      -5.718  55.656   6.153  1.00  0.00    -0.371 N 
HETATM   14  C10 UNL     1      -6.275  55.684   4.778  1.00  0.00     0.148 C 
ATOM     15  H5  UNL     1      -4.864  56.164   6.383  1.00  0.00     0.161 HD
ENDBRANCH  11  13
ENDBRANCH   9  11
ENDBRANCH   7   9
ENDBRANCH   5   7
ENDBRANCH   3   5
BRANCH   1  16
HETATM   16  C5  UNL     1      -4.896  53.783  12.814  1.00  0.00     0.098 A 
HETATM   17  N1  UNL     1      -3.660  54.156  12.562  1.00  0.00    -0.358 N 
HETATM   18  C4  UNL     1      -2.700  53.265  12.559  1.00  0.00     0.103 A 
ATOM     19  H1  UNL     1      -3.449  55.135  12.370  1.00  0.00     0.166 HD
HETATM   20  C3  UNL     1      -3.060  51.965  12.827  1.00  0.00    -0.000 A 
HETATM   21  S3  UNL     1      -4.739  52.103  13.064  1.00  0.00    -0.074 SA
BRANCH  20  22
HETATM   22  C2  UNL     1      -2.161  50.755  12.885  1.00  0.00     0.043 C 
HETATM   23  C1  UNL     1      -2.973  49.516  13.174  1.00  0.00     0.010 C 
ENDBRANCH  20  22
ENDBRANCH   1  16
TORSDOF 7
ENDMDL
MODEL 3
REMARK VINA RESULT: -5.601282842      1.871      2.701
REMARK  7 active torsions:
REMARK  status: ('A' for Active; 'I' for Inactive)
REMARK    1  A    between atoms: C2_2  and  C3_3 
REMARK    2  A    between atoms: C5_7  and  C6_8 
REMARK    3  A    between atoms: N2_10  and  N3_12 
REMARK    4  A    between atoms: N3_12  and  C8_14 
REMARK    5  A    between atoms: C8_14  and  N4_16 
REMARK    6  A    between atoms: N4_16  and  C9_18 
REMARK    7  A    between atoms: C9_18  and  N5_20 
ROOT
HETATM    1  C6  UNL     1      -7.150  54.836  11.946  1.00  0.00     0.055 C 
HETATM    2  C7  UNL     1      -8.068  55.074  13.084  1.00  0.00     0.072 C 
HETATM    3  N2  UNL     1      -7.437  55.206  10.769  1.00  0.00    -0.300 N 
ATOM      4  H2  UNL     1      -8.334  55.677  10.645  1.00  0.00     0.186 HD
ENDROOT
BRANCH   3   5
HETATM    5  N3  UNL     1      -6.673  55.041   9.645  1.00  0.00    -0.276 N 
ATOM      6  H3  UNL     1      -5.722  54.677   9.707  1.00  0.00     0.189 HD
BRANCH   5   7
HETATM    7  C8  UNL     1      -7.257  55.401   8.351  1.00  0.00     0.192 C 
HETATM    8  S1  UNL     1      -8.851  55.717   8.283  1.00  0.00    -0.039 SA
BRANCH   7   9
HETATM    9  N4  UNL     1      -6.414  55.454   7.239  1.00  0.00    -0.309 N 
ATOM     10  H4  UNL     1      -5.457  55.727   7.467  1.00  0.00     0.170 HD
BRANCH   9  11
HETATM   11  C9  UNL     1      -6.612  55.212   5.880  1.00  0.00     0.173 C 
HETATM   12  S2  UNL     1      -6.680  53.624   5.340  1.00  0.00    -0.041 SA
BRANCH  11  13
HETATM   13  N5  UNL     1      -6.766  56.187   4.897  1.00  0.00    -0.371 N 
HETATM   14  C10 UNL     1      -8.144  56.614   4.546  1.00  0.00     0.148 C 
ATOM     15  H5  UNL     1      -5.956  56.595   4.432  1.00  0.00     0.161 HD
ENDBRANCH  11  13
ENDBRANCH   9  11
ENDBRANCH   7   9
ENDBRANCH   5   7
ENDBRANCH   3   5
BRANCH   1  16
HETATM   16  C5  UNL     1      -5.869  54.139  12.239  1.00  0.00     0.098 A 
HETATM   17  N1  UNL     1      -4.720  54.665  12.607  1.00  0.00    -0.358 N 
HETATM   18  C4  UNL     1      -3.689  53.887  12.823  1.00  0.00     0.103 A 
ATOM     19  H1  UNL     1      -4.633  55.674  12.723  1.00  0.00     0.166 HD
HETATM   20  C3  UNL     1      -3.884  52.537  12.647  1.00  0.00    -0.000 A 
HETATM   21  S3  UNL     1      -5.519  52.470  12.185  1.00  0.00    -0.074 SA
BRANCH  20  22
HETATM   22  C2  UNL     1      -2.873  51.431  12.827  1.00  0.00     0.043 C 
HETATM   23  C1  UNL     1      -3.575  50.122  13.096  1.00  0.00     0.010 C 
ENDBRANCH  20  22
ENDBRANCH   1  16
TORSDOF 7
ENDMDL
MODEL 4
REMARK VINA RESULT: -5.576834140      2.333      5.796
REMARK  7 active torsions:
REMARK  status: ('A' for Active; 'I' for Inactive)
REMARK    1  A    between atoms: C2_2  and  C3_3 
REMARK    2  A    between atoms: C5_7  and  C6_8 
REMARK    3  A    between atoms: N2_10  and  N3_12 
REMARK    4  A    between atoms: N3_12  and  C8_14 
REMARK    5  A    between atoms: C8_14  and  N4_16 
REMARK    6  A    between atoms: N4_16  and  C9_18 
REMARK    7  A    between atoms: C9_18  and  N5_20 
ROOT
HETATM    1  C6  UNL     1      -4.974  53.379  13.471  1.00  0.00     0.055 C 
HETATM    2  C7  UNL     1      -5.719  53.121  14.724  1.00  0.00     0.072 C 
HETATM    3  N2  UNL     1      -3.712  53.480  13.454  1.00  0.00    -0.300 N 
ATOM      4  H2  UNL     1      -3.235  53.374  14.349  1.00  0.00     0.186 HD
ENDROOT
BRANCH   3   5
HETATM    5  N3  UNL     1      -2.920  53.717  12.362  1.00  0.00    -0.276 N 
ATOM      6  H3  UNL     1      -3.069  54.537  11.775  1.00  0.00     0.189 HD
BRANCH   5   7
HETATM    7  C8  UNL     1      -1.853  52.760  12.060  1.00  0.00     0.192 C 
HETATM    8  S1  UNL     1      -1.915  51.289  12.751  1.00  0.00    -0.039 SA
BRANCH   7   9
HETATM    9  N4  UNL     1      -0.834  53.161  11.192  1.00  0.00    -0.309 N 
ATOM     10  H4  UNL     1      -0.036  53.581  11.669  1.00  0.00     0.170 HD
BRANCH   9  11
HETATM   11  C9  UNL     1      -0.687  53.105   9.807  1.00  0.00     0.173 C 
HETATM   12  S2  UNL     1      -1.432  51.861   8.961  1.00  0.00    -0.041 SA
BRANCH  11  13
HETATM   13  N5  UNL     1       0.037  54.007   9.031  1.00  0.00    -0.371 N 
HETATM   14  C10 UNL     1       1.518  53.984   9.132  1.00  0.00     0.148 C 
ATOM     15  H5  UNL     1      -0.436  54.664   8.411  1.00  0.00     0.161 HD
ENDBRANCH  11  13
ENDBRANCH   9  11
ENDBRANCH   7   9
ENDBRANCH   5   7
ENDBRANCH   3   5
BRANCH   1  16
HETATM   16  C5  UNL     1      -5.771  53.518  12.222  1.00  0.00     0.098 A 
HETATM   17  N1  UNL     1      -6.280  54.612  11.696  1.00  0.00    -0.358 N 
HETATM   18  C4  UNL     1      -6.960  54.540  10.579  1.00  0.00     0.103 A 
ATOM     19  H1  UNL     1      -6.145  55.511  12.156  1.00  0.00     0.166 HD
HETATM   20  C3  UNL     1      -7.098  53.293  10.017  1.00  0.00    -0.000 A 
HETATM   21  S3  UNL     1      -6.253  52.310  11.117  1.00  0.00    -0.074 SA
BRANCH  20  22
HETATM   22  C2  UNL     1      -7.826  52.933   8.745  1.00  0.00     0.043 C 
HETATM   23  C1  UNL     1      -7.310  53.764   7.596  1.00  0.00     0.010 C 
ENDBRANCH  20  22
ENDBRANCH   1  16
TORSDOF 7
ENDMDL
MODEL 5
REMARK VINA RESULT: -5.552889843      1.847      2.751
REMARK  7 active torsions:
REMARK  status: ('A' for Active; 'I' for Inactive)
REMARK    1  A    between atoms: C2_2  and  C3_3 
REMARK    2  A    between atoms: C5_7  and  C6_8 
REMARK    3  A    between atoms: N2_10  and  N3_12 
REMARK    4  A    between atoms: N3_12  and  C8_14 
REMARK    5  A    between atoms: C8_14  and  N4_16 
REMARK    6  A    between atoms: N4_16  and  C9_18 
REMARK    7  A    between atoms: C9_18  and  N5_20 
ROOT
HETATM    1  C6  UNL     1      -5.643  53.459  13.531  1.00  0.00     0.055 C 
HETATM    2  C7  UNL     1      -6.051  52.859  14.822  1.00  0.00     0.072 C 
HETATM    3  N2  UNL     1      -6.427  54.192  12.859  1.00  0.00    -0.300 N 
ATOM      4  H2  UNL     1      -7.355  54.348  13.254  1.00  0.00     0.186 HD
ENDROOT
BRANCH   3   5
HETATM    5  N3  UNL     1      -6.163  54.797  11.659  1.00  0.00    -0.276 N 
ATOM      6  H3  UNL     1      -5.280  55.281  11.500  1.00  0.00     0.189 HD
BRANCH   5   7
HETATM    7  C8  UNL     1      -7.184  54.730  10.611  1.00  0.00     0.192 C 
HETATM    8  S1  UNL     1      -7.464  53.297   9.894  1.00  0.00    -0.039 SA
BRANCH   7   9
HETATM    9  N4  UNL     1      -7.867  55.903  10.280  1.00  0.00    -0.309 N 
ATOM     10  H4  UNL     1      -7.444  56.415   9.505  1.00  0.00     0.170 HD
BRANCH   9  11
HETATM   11  C9  UNL     1      -9.007  56.518  10.794  1.00  0.00     0.173 C 
HETATM   12  S2  UNL     1      -9.850  57.602   9.829  1.00  0.00    -0.041 SA
BRANCH  11  13
HETATM   13  N5  UNL     1      -9.535  56.314  12.067  1.00  0.00    -0.371 N 
HETATM   14  C10 UNL     1     -10.767  57.052  12.441  1.00  0.00     0.148 C 
ATOM     15  H5  UNL     1      -9.087  55.675  12.724  1.00  0.00     0.161 HD
ENDBRANCH  11  13
ENDBRANCH   9  11
ENDBRANCH   7   9
ENDBRANCH   5   7
ENDBRANCH   3   5
BRANCH   1  16
HETATM   16  C5  UNL     1      -4.267  53.165  13.049  1.00  0.00     0.098 A 
HETATM   17  N1  UNL     1      -3.129  53.679  13.465  1.00  0.00    -0.358 N 
HETATM   18  C4  UNL     1      -2.004  53.296  12.916  1.00  0.00     0.103 A 
ATOM     19  H1  UNL     1      -3.124  54.373  14.212  1.00  0.00     0.166 HD
HETATM   20  C3  UNL     1      -2.090  52.357  11.915  1.00  0.00    -0.000 A 
HETATM   21  S3  UNL     1      -3.767  52.086  11.825  1.00  0.00    -0.074 SA
BRANCH  20  22
HETATM   22  C2  UNL     1      -0.958  51.750  11.124  1.00  0.00     0.043 C 
HETATM   23  C1  UNL     1      -0.457  52.732  10.094  1.00  0.00     0.010 C 
ENDBRANCH  20  22
ENDBRANCH   1  16
TORSDOF 7
ENDMDL
