MODEL 1
REMARK VINA RESULT: -6.737885884      0.000      0.000
REMARK  4 active torsions:
REMARK  status: ('A' for Active; 'I' for Inactive)
REMARK    1  A    between atoms: C2_2  and  C3_3 
REMARK    2  A    between atoms: C3_3  and  N1_4 
REMARK    3  A    between atoms: C5_8  and  C6_9 
REMARK    4  A    between atoms: N2_18  and  O3_20 
ROOT
HETATM    1  N1  UNL     1      -8.543  54.436  10.129  1.00  0.00    -0.356 N 
HETATM    2  C4  UNL     1      -8.910  55.577  10.928  1.00  0.00     0.138 C 
HETATM    3  S1  UNL     1      -9.512  56.904  10.248  1.00  0.00    -0.053 SA
HETATM    4  S2  UNL     1      -8.628  55.359  12.697  1.00  0.00    -0.079 SA
HETATM    5  C5  UNL     1      -7.119  54.336  12.981  1.00  0.00     0.105 C 
HETATM    6  C7  UNL     1      -7.447  52.954  13.494  1.00  0.00     0.032 C 
HETATM    7  C8  UNL     1      -6.720  51.849  12.803  1.00  0.00     0.002 C 
HETATM    8  C9  UNL     1      -7.330  51.240  11.600  1.00  0.00     0.002 C 
HETATM    9  C10 UNL     1      -7.457  52.177  10.386  1.00  0.00     0.025 C 
HETATM   10  C11 UNL     1      -7.905  53.449  10.925  1.00  0.00     0.088 C 
HETATM   11  C12 UNL     1      -6.702  54.132  11.535  1.00  0.00     0.057 C 
ENDROOT
BRANCH   1  12
HETATM   12  C3  UNL     1      -8.791  54.331   8.744  1.00  0.00     0.178 C 
BRANCH  12  13
HETATM   13  C2  UNL     1      -7.883  55.058   7.871  1.00  0.00     0.024 C 
HETATM   14  C1  UNL     1      -8.420  55.800   6.713  1.00  0.00     0.067 C 
HETATM   15  N2  UNL     1      -6.625  55.064   8.087  1.00  0.00    -0.276 N 
ATOM     16  H2  UNL     1      -6.238  54.556   8.882  1.00  0.00     0.193 HD
BRANCH  15  17
HETATM   17  O3  UNL     1      -5.802  55.759   7.244  1.00  0.00    -0.290 OA
ATOM     18  H3  UNL     1      -5.953  55.719   6.306  1.00  0.00     0.244 HD
ENDBRANCH  15  17
ENDBRANCH  12  13
ENDBRANCH   1  12
BRANCH   5  19
HETATM   19  C6  UNL     1      -6.120  55.042  13.779  1.00  0.00     0.193 C 
HETATM   20  O1  UNL     1      -6.509  55.615  14.838  1.00  0.00    -0.647 OA
HETATM   21  O2  UNL     1      -4.798  55.092  13.406  1.00  0.00    -0.647 OA
ENDBRANCH   5  19
TORSDOF 4
ENDMDL
MODEL 2
REMARK VINA RESULT: -6.644814788      1.197      1.227
REMARK  4 active torsions:
REMARK  status: ('A' for Active; 'I' for Inactive)
REMARK    1  A    between atoms: C2_2  and  C3_3 
REMARK    2  A    between atoms: C3_3  and  N1_4 
REMARK    3  A    between atoms: C5_8  and  C6_9 
REMARK    4  A    between atoms: N2_18  and  O3_20 
ROOT
HETATM    1  N1  UNL     1      -8.074  53.953  10.541  1.00  0.00    -0.356 N 
HETATM    2  C4  UNL     1      -8.164  54.972  11.555  1.00  0.00     0.138 C 
HETATM    3  S1  UNL     1      -8.796  56.413  11.226  1.00  0.00    -0.053 SA
HETATM    4  S2  UNL     1      -7.516  54.469  13.164  1.00  0.00    -0.079 SA
HETATM    5  C5  UNL     1      -6.066  53.350  12.946  1.00  0.00     0.105 C 
HETATM    6  C7  UNL     1      -6.380  51.921  13.321  1.00  0.00     0.032 C 
HETATM    7  C8  UNL     1      -5.912  50.905  12.332  1.00  0.00     0.002 C 
HETATM    8  C9  UNL     1      -6.820  50.517  11.228  1.00  0.00     0.002 C 
HETATM    9  C10 UNL     1      -7.138  51.635  10.221  1.00  0.00     0.025 C 
HETATM   10  C11 UNL     1      -7.355  52.828  11.022  1.00  0.00     0.088 C 
HETATM   11  C12 UNL     1      -5.997  53.353  11.428  1.00  0.00     0.057 C 
ENDROOT
BRANCH   1  12
HETATM   12  C3  UNL     1      -8.630  54.075   9.250  1.00  0.00     0.178 C 
BRANCH  12  13
HETATM   13  C2  UNL     1      -7.902  54.917   8.313  1.00  0.00     0.024 C 
HETATM   14  C1  UNL     1      -8.646  55.819   7.412  1.00  0.00     0.067 C 
HETATM   15  N2  UNL     1      -6.627  54.889   8.256  1.00  0.00    -0.276 N 
ATOM     16  H2  UNL     1      -6.098  54.271   8.870  1.00  0.00     0.193 HD
BRANCH  15  17
HETATM   17  O3  UNL     1      -5.977  55.696   7.361  1.00  0.00    -0.290 OA
ATOM     18  H3  UNL     1      -5.637  55.321   6.557  1.00  0.00     0.244 HD
ENDBRANCH  15  17
ENDBRANCH  12  13
ENDBRANCH   1  12
BRANCH   5  19
HETATM   19  C6  UNL     1      -4.864  53.879  13.583  1.00  0.00     0.193 C 
HETATM   20  O1  UNL     1      -4.567  53.444  14.733  1.00  0.00    -0.647 OA
HETATM   21  O2  UNL     1      -4.071  54.817  12.967  1.00  0.00    -0.647 OA
ENDBRANCH   5  19
TORSDOF 4
ENDMDL
MODEL 3
REMARK VINA RESULT: -6.579172257      4.352      6.178
REMARK  4 active torsions:
REMARK  status: ('A' for Active; 'I' for Inactive)
REMARK    1  A    between atoms: C2_2  and  C3_3 
REMARK    2  A    between atoms: C3_3  and  N1_4 
REMARK    3  A    between atoms: C5_8  and  C6_9 
REMARK    4  A    between atoms: N2_18  and  O3_20 
ROOT
HETATM    1  N1  UNL     1      -5.429  52.548  11.907  1.00  0.00    -0.356 N 
HETATM    2  C4  UNL     1      -6.056  51.334  11.452  1.00  0.00     0.138 C 
HETATM    3  S1  UNL     1      -7.657  51.185  11.439  1.00  0.00    -0.053 SA
HETATM    4  S2  UNL     1      -4.894  50.058  10.924  1.00  0.00    -0.079 SA
HETATM    5  C5  UNL     1      -3.372  50.111  11.965  1.00  0.00     0.105 C 
HETATM    6  C7  UNL     1      -2.176  50.637  11.209  1.00  0.00     0.032 C 
HETATM    7  C8  UNL     1      -1.381  51.663  11.946  1.00  0.00     0.002 C 
HETATM    8  C9  UNL     1      -1.748  53.090  11.796  1.00  0.00     0.002 C 
HETATM    9  C10 UNL     1      -3.128  53.472  12.359  1.00  0.00     0.025 C 
HETATM   10  C11 UNL     1      -4.019  52.395  11.964  1.00  0.00     0.088 C 
HETATM   11  C12 UNL     1      -3.772  51.236  12.904  1.00  0.00     0.057 C 
ENDROOT
BRANCH   1  12
HETATM   12  C3  UNL     1      -6.136  53.722  12.245  1.00  0.00     0.178 C 
BRANCH  12  13
HETATM   13  C2  UNL     1      -6.230  54.029  13.664  1.00  0.00     0.024 C 
HETATM   14  C1  UNL     1      -6.366  52.931  14.641  1.00  0.00     0.067 C 
HETATM   15  N2  UNL     1      -6.199  55.235  14.080  1.00  0.00    -0.276 N 
ATOM     16  H2  UNL     1      -6.106  56.006  13.418  1.00  0.00     0.193 HD
BRANCH  15  17
HETATM   17  O3  UNL     1      -6.290  55.486  15.423  1.00  0.00    -0.290 OA
ATOM     18  H3  UNL     1      -5.786  56.197  15.800  1.00  0.00     0.244 HD
ENDBRANCH  15  17
ENDBRANCH  12  13
ENDBRANCH   1  12
BRANCH   5  19
HETATM   19  C6  UNL     1      -3.130  48.843  12.649  1.00  0.00     0.193 C 
HETATM   20  O1  UNL     1      -2.849  48.883  13.881  1.00  0.00    -0.647 OA
HETATM   21  O2  UNL     1      -3.201  47.640  11.989  1.00  0.00    -0.647 OA
ENDBRANCH   5  19
TORSDOF 4
ENDMDL
MODEL 4
REMARK VINA RESULT: -6.416082135      0.890      1.026
REMARK  4 active torsions:
REMARK  status: ('A' for Active; 'I' for Inactive)
REMARK    1  A    between atoms: C2_2  and  C3_3 
REMARK    2  A    between atoms: C3_3  and  N1_4 
REMARK    3  A    between atoms: C5_8  and  C6_9 
REMARK    4  A    between atoms: N2_18  and  O3_20 
ROOT
HETATM    1  N1  UNL     1      -8.066  54.061   9.718  1.00  0.00    -0.356 N 
HETATM    2  C4  UNL     1      -8.634  55.185  10.417  1.00  0.00     0.138 C 
HETATM    3  S1  UNL     1      -9.222  56.447   9.614  1.00  0.00    -0.053 SA
HETATM    4  S2  UNL     1      -8.612  55.022  12.215  1.00  0.00    -0.079 SA
HETATM    5  C5  UNL     1      -7.092  54.126  12.755  1.00  0.00     0.105 C 
HETATM    6  C7  UNL     1      -7.392  52.733  13.254  1.00  0.00     0.032 C 
HETATM    7  C8  UNL     1      -6.487  51.675  12.716  1.00  0.00     0.002 C 
HETATM    8  C9  UNL     1      -6.858  50.997  11.452  1.00  0.00     0.002 C 
HETATM    9  C10 UNL     1      -6.867  51.899  10.206  1.00  0.00     0.025 C 
HETATM   10  C11 UNL     1      -7.486  53.142  10.631  1.00  0.00     0.088 C 
HETATM   11  C12 UNL     1      -6.445  53.928  11.395  1.00  0.00     0.057 C 
ENDROOT
BRANCH   1  12
HETATM   12  C3  UNL     1      -8.090  53.911   8.315  1.00  0.00     0.178 C 
BRANCH  12  13
HETATM   13  C2  UNL     1      -6.866  54.256   7.610  1.00  0.00     0.024 C 
HETATM   14  C1  UNL     1      -6.040  53.187   7.014  1.00  0.00     0.067 C 
HETATM   15  N2  UNL     1      -6.491  55.471   7.498  1.00  0.00    -0.276 N 
ATOM     16  H2  UNL     1      -7.049  56.222   7.905  1.00  0.00     0.193 HD
BRANCH  15  17
HETATM   17  O3  UNL     1      -5.333  55.758   6.827  1.00  0.00    -0.290 OA
ATOM     18  H3  UNL     1      -5.354  56.373   6.103  1.00  0.00     0.244 HD
ENDBRANCH  15  17
ENDBRANCH  12  13
ENDBRANCH   1  12
BRANCH   5  19
HETATM   19  C6  UNL     1      -6.283  54.923  13.673  1.00  0.00     0.193 C 
HETATM   20  O1  UNL     1      -6.877  55.518  14.618  1.00  0.00    -0.647 OA
HETATM   21  O2  UNL     1      -4.921  55.033  13.529  1.00  0.00    -0.647 OA
ENDBRANCH   5  19
TORSDOF 4
ENDMDL
MODEL 5
REMARK VINA RESULT: -6.352284845      4.181      5.900
REMARK  4 active torsions:
REMARK  status: ('A' for Active; 'I' for Inactive)
REMARK    1  A    between atoms: C2_2  and  C3_3 
REMARK    2  A    between atoms: C3_3  and  N1_4 
REMARK    3  A    between atoms: C5_8  and  C6_9 
REMARK    4  A    between atoms: N2_18  and  O3_20 
ROOT
HETATM    1  N1  UNL     1      -3.831  51.407  11.610  1.00  0.00    -0.356 N 
HETATM    2  C4  UNL     1      -3.256  52.693  11.910  1.00  0.00     0.138 C 
HETATM    3  S1  UNL     1      -1.662  52.902  11.933  1.00  0.00    -0.053 SA
HETATM    4  S2  UNL     1      -4.474  53.983  12.244  1.00  0.00    -0.079 SA
HETATM    5  C5  UNL     1      -5.935  53.272  13.116  1.00  0.00     0.105 C 
HETATM    6  C7  UNL     1      -7.159  53.211  12.233  1.00  0.00     0.032 C 
HETATM    7  C8  UNL     1      -7.889  51.910  12.278  1.00  0.00     0.002 C 
HETATM    8  C9  UNL     1      -7.498  50.843  11.328  1.00  0.00     0.002 C 
HETATM    9  C10 UNL     1      -6.082  50.277  11.527  1.00  0.00     0.025 C 
HETATM   10  C11 UNL     1      -5.238  51.430  11.790  1.00  0.00     0.088 C 
HETATM   11  C12 UNL     1      -5.459  51.834  13.230  1.00  0.00     0.057 C 
ENDROOT
BRANCH   1  12
HETATM   12  C3  UNL     1      -3.080  50.286  11.195  1.00  0.00     0.178 C 
BRANCH  12  13
HETATM   13  C2  UNL     1      -2.935  49.213  12.167  1.00  0.00     0.024 C 
HETATM   14  C1  UNL     1      -2.904  47.810  11.707  1.00  0.00     0.067 C 
HETATM   15  N2  UNL     1      -2.836  49.464  13.414  1.00  0.00    -0.276 N 
ATOM     16  H2  UNL     1      -2.857  50.427  13.749  1.00  0.00     0.193 HD
BRANCH  15  17
HETATM   17  O3  UNL     1      -2.701  48.428  14.299  1.00  0.00    -0.290 OA
ATOM     18  H3  UNL     1      -1.846  48.239  14.669  1.00  0.00     0.244 HD
ENDBRANCH  15  17
ENDBRANCH  12  13
ENDBRANCH   1  12
BRANCH   5  19
HETATM   19  C6  UNL     1      -6.168  53.911  14.408  1.00  0.00     0.193 C 
HETATM   20  O1  UNL     1      -5.636  53.387  15.428  1.00  0.00    -0.647 OA
HETATM   21  O2  UNL     1      -6.937  55.044  14.528  1.00  0.00    -0.647 OA
ENDBRANCH   5  19
TORSDOF 4
ENDMDL
