MODEL 1
REMARK VINA RESULT: -6.896744145      0.000      0.000
REMARK  4 active torsions:
REMARK  status: ('A' for Active; 'I' for Inactive)
REMARK    1  A    between atoms: N4_13  and  C6_14 
REMARK    2  A    between atoms: C14_23  and  C15_24 
REMARK    3  A    between atoms: C15_24  and  C16_25 
REMARK    4  A    between atoms: C16_25  and  O1_26 
ROOT
HETATM    1  C6  UNL     1      -4.054  51.908  12.540  1.00  0.00     0.109 C 
HETATM    2  C7  UNL     1      -4.301  53.166  13.407  1.00  0.00     0.027 C 
HETATM    3  C8  UNL     1      -5.489  52.822  14.271  1.00  0.00     0.004 C 
HETATM    4  C9  UNL     1      -6.616  52.235  13.455  1.00  0.00     0.019 C 
HETATM    5  C10 UNL     1      -6.461  52.448  11.993  1.00  0.00     0.095 C 
HETATM    6  C11 UNL     1      -6.898  53.816  11.623  1.00  0.00     0.064 C 
HETATM    7  N5  UNL     1      -7.230  54.887  11.341  1.00  0.00    -0.197 NA
HETATM    8  C12 UNL     1      -5.126  52.167  11.415  1.00  0.00     0.046 C 
ENDROOT
BRANCH   1   9
HETATM    9  N4  UNL     1      -2.809  51.982  11.863  1.00  0.00    -0.286 N 
HETATM   10  N3  UNL     1      -2.211  53.160  11.517  1.00  0.00    -0.308 N 
HETATM   11  C5  UNL     1      -1.069  52.959  10.928  1.00  0.00     0.124 A 
ATOM     12  H3  UNL     1      -2.610  54.082  11.698  1.00  0.00     0.186 HD
HETATM   13  C4  UNL     1      -0.850  51.603  10.851  1.00  0.00     0.053 A 
HETATM   14  C3  UNL     1       0.172  50.836  10.350  1.00  0.00     0.113 A 
HETATM   15  C13 UNL     1      -1.983  51.014  11.458  1.00  0.00     0.074 A 
HETATM   16  N1  UNL     1       0.073  49.508  10.448  1.00  0.00    -0.345 N 
HETATM   17  N2  UNL     1       1.182  51.431   9.806  1.00  0.00    -0.385 N 
HETATM   18  C2  UNL     1      -0.987  48.909  11.016  1.00  0.00     0.015 A 
ATOM     19  H1  UNL     1       0.827  48.929  10.079  1.00  0.00     0.167 HD
HETATM   20  C1  UNL     1      -1.021  47.407  11.068  1.00  0.00     0.069 C 
HETATM   21  C14 UNL     1      -2.057  49.632  11.545  1.00  0.00    -0.004 A 
ATOM     22  H22 UNL     1       1.941  50.861   9.434  1.00  0.00     0.157 HD
ATOM     23  H21 UNL     1       1.258  52.445   9.732  1.00  0.00     0.157 HD
BRANCH  21  24
HETATM   24  C15 UNL     1      -3.203  48.993  12.177  1.00  0.00     0.069 C 
BRANCH  24  25
HETATM   25  C16 UNL     1      -4.341  48.605  11.270  1.00  0.00     0.168 C 
BRANCH  25  26
HETATM   26  O1  UNL     1      -4.457  47.194  11.212  1.00  0.00    -0.401 OA
ATOM     27  H1  UNL     1      -5.364  46.947  11.070  1.00  0.00     0.209 HD
ENDBRANCH  25  26
ENDBRANCH  24  25
ENDBRANCH  21  24
ENDBRANCH   1   9
TORSDOF 4
ENDMDL
MODEL 2
REMARK VINA RESULT: -6.788592275      2.449      3.467
REMARK  4 active torsions:
REMARK  status: ('A' for Active; 'I' for Inactive)
REMARK    1  A    between atoms: N4_13  and  C6_14 
REMARK    2  A    between atoms: C14_23  and  C15_24 
REMARK    3  A    between atoms: C15_24  and  C16_25 
REMARK    4  A    between atoms: C16_25  and  O1_26 
ROOT
HETATM    1  C6  UNL     1      -6.824  53.178  11.533  1.00  0.00     0.109 C 
HETATM    2  C7  UNL     1      -7.818  52.931  12.694  1.00  0.00     0.027 C 
HETATM    3  C8  UNL     1      -9.103  52.508  12.028  1.00  0.00     0.004 C 
HETATM    4  C9  UNL     1      -9.477  53.440  10.900  1.00  0.00     0.019 C 
HETATM    5  C10 UNL     1      -8.728  54.722  10.920  1.00  0.00     0.095 C 
HETATM    6  C11 UNL     1      -9.333  55.656  11.900  1.00  0.00     0.064 C 
HETATM    7  N5  UNL     1      -9.803  56.377  12.672  1.00  0.00    -0.197 NA
HETATM    8  C12 UNL     1      -7.265  54.638  11.135  1.00  0.00     0.046 C 
ENDROOT
BRANCH   1   9
HETATM    9  N4  UNL     1      -5.497  53.331  12.011  1.00  0.00    -0.286 N 
HETATM   10  N3  UNL     1      -4.959  54.536  12.366  1.00  0.00    -0.308 N 
HETATM   11  C5  UNL     1      -3.739  54.404  12.794  1.00  0.00     0.124 A 
ATOM     12  H3  UNL     1      -5.454  55.426  12.303  1.00  0.00     0.186 HD
HETATM   13  C4  UNL     1      -3.398  53.072  12.741  1.00  0.00     0.053 A 
HETATM   14  C3  UNL     1      -2.264  52.371  13.070  1.00  0.00     0.113 A 
HETATM   15  C13 UNL     1      -4.545  52.420  12.236  1.00  0.00     0.074 A 
HETATM   16  N1  UNL     1      -2.268  51.047  12.901  1.00  0.00    -0.345 N 
HETATM   17  N2  UNL     1      -1.246  53.022  13.527  1.00  0.00    -0.385 N 
HETATM   18  C2  UNL     1      -3.338  50.390  12.422  1.00  0.00     0.015 A 
ATOM     19  H1  UNL     1      -1.431  50.517  13.143  1.00  0.00     0.167 HD
HETATM   20  C1  UNL     1      -3.247  48.899  12.250  1.00  0.00     0.069 C 
HETATM   21  C14 UNL     1      -4.519  51.044  12.071  1.00  0.00    -0.004 A 
ATOM     22  H22 UNL     1      -0.404  52.501  13.772  1.00  0.00     0.157 HD
ATOM     23  H21 UNL     1      -1.243  54.034  13.657  1.00  0.00     0.157 HD
BRANCH  21  24
HETATM   24  C15 UNL     1      -5.689  50.339  11.566  1.00  0.00     0.069 C 
BRANCH  24  25
HETATM   25  C16 UNL     1      -5.763  50.139  10.075  1.00  0.00     0.168 C 
BRANCH  25  26
HETATM   26  O1  UNL     1      -7.107  50.231   9.638  1.00  0.00    -0.401 OA
ATOM     27  H1  UNL     1      -7.418  51.124   9.724  1.00  0.00     0.209 HD
ENDBRANCH  25  26
ENDBRANCH  24  25
ENDBRANCH  21  24
ENDBRANCH   1   9
TORSDOF 4
ENDMDL
MODEL 3
REMARK VINA RESULT: -6.676073497      2.660      3.376
REMARK  4 active torsions:
REMARK  status: ('A' for Active; 'I' for Inactive)
REMARK    1  A    between atoms: N4_13  and  C6_14 
REMARK    2  A    between atoms: C14_23  and  C15_24 
REMARK    3  A    between atoms: C15_24  and  C16_25 
REMARK    4  A    between atoms: C16_25  and  O1_26 
ROOT
HETATM    1  C6  UNL     1      -4.950  52.021  12.213  1.00  0.00     0.109 C 
HETATM    2  C7  UNL     1      -4.932  53.546  12.480  1.00  0.00     0.027 C 
HETATM    3  C8  UNL     1      -4.961  53.683  13.982  1.00  0.00     0.004 C 
HETATM    4  C9  UNL     1      -6.039  52.823  14.596  1.00  0.00     0.019 C 
HETATM    5  C10 UNL     1      -7.034  52.326  13.610  1.00  0.00     0.095 C 
HETATM    6  C11 UNL     1      -8.034  53.379  13.315  1.00  0.00     0.064 C 
HETATM    7  N5  UNL     1      -8.807  54.207  13.080  1.00  0.00    -0.197 NA
HETATM    8  C12 UNL     1      -6.500  51.764  12.348  1.00  0.00     0.046 C 
ENDROOT
BRANCH   1   9
HETATM    9  N4  UNL     1      -4.664  51.730  10.854  1.00  0.00    -0.286 N 
HETATM   10  N3  UNL     1      -5.621  51.659   9.882  1.00  0.00    -0.308 N 
HETATM   11  C5  UNL     1      -5.100  51.403   8.719  1.00  0.00     0.124 A 
ATOM     12  H3  UNL     1      -6.619  51.791  10.048  1.00  0.00     0.186 HD
HETATM   13  C4  UNL     1      -3.737  51.286   8.867  1.00  0.00     0.053 A 
HETATM   14  C3  UNL     1      -2.708  51.036   7.993  1.00  0.00     0.113 A 
HETATM   15  C13 UNL     1      -3.498  51.501  10.243  1.00  0.00     0.074 A 
HETATM   16  N1  UNL     1      -1.464  50.998   8.476  1.00  0.00    -0.345 N 
HETATM   17  N2  UNL     1      -2.988  50.847   6.746  1.00  0.00    -0.385 N 
HETATM   18  C2  UNL     1      -1.195  51.196   9.778  1.00  0.00     0.015 A 
ATOM     19  H1  UNL     1      -0.692  50.813   7.835  1.00  0.00     0.167 HD
HETATM   20  C1  UNL     1       0.236  51.120  10.234  1.00  0.00     0.069 C 
HETATM   21  C14 UNL     1      -2.195  51.456  10.714  1.00  0.00    -0.004 A 
ATOM     22  H22 UNL     1      -2.224  50.661   6.097  1.00  0.00     0.157 HD
ATOM     23  H21 UNL     1      -3.939  50.876   6.377  1.00  0.00     0.157 HD
BRANCH  21  24
HETATM   24  C15 UNL     1      -1.912  51.687  12.124  1.00  0.00     0.069 C 
BRANCH  24  25
HETATM   25  C16 UNL     1      -1.532  53.093  12.512  1.00  0.00     0.168 C 
BRANCH  25  26
HETATM   26  O1  UNL     1      -1.172  53.139  13.881  1.00  0.00    -0.401 OA
ATOM     27  H1  UNL     1      -0.539  53.832  14.028  1.00  0.00     0.209 HD
ENDBRANCH  25  26
ENDBRANCH  24  25
ENDBRANCH  21  24
ENDBRANCH   1   9
TORSDOF 4
ENDMDL
MODEL 4
REMARK VINA RESULT: -6.662853445      1.657      1.848
REMARK  4 active torsions:
REMARK  status: ('A' for Active; 'I' for Inactive)
REMARK    1  A    between atoms: N4_13  and  C6_14 
REMARK    2  A    between atoms: C14_23  and  C15_24 
REMARK    3  A    between atoms: C15_24  and  C16_25 
REMARK    4  A    between atoms: C16_25  and  O1_26 
ROOT
HETATM    1  C6  UNL     1      -5.128  52.449  12.148  1.00  0.00     0.109 C 
HETATM    2  C7  UNL     1      -5.417  52.179  13.645  1.00  0.00     0.027 C 
HETATM    3  C8  UNL     1      -6.920  52.109  13.750  1.00  0.00     0.004 C 
HETATM    4  C9  UNL     1      -7.579  53.275  13.054  1.00  0.00     0.019 C 
HETATM    5  C10 UNL     1      -6.641  54.384  12.742  1.00  0.00     0.095 C 
HETATM    6  C11 UNL     1      -6.416  55.221  13.945  1.00  0.00     0.064 C 
HETATM    7  N5  UNL     1      -6.236  55.865  14.888  1.00  0.00    -0.197 NA
HETATM    8  C12 UNL     1      -5.344  54.011  12.133  1.00  0.00     0.046 C 
ENDROOT
BRANCH   1   9
HETATM    9  N4  UNL     1      -3.752  52.282  11.848  1.00  0.00    -0.286 N 
HETATM   10  N3  UNL     1      -2.859  53.316  11.812  1.00  0.00    -0.308 N 
HETATM   11  C5  UNL     1      -1.659  52.898  11.537  1.00  0.00     0.124 A 
ATOM     12  H3  UNL     1      -3.104  54.292  11.980  1.00  0.00     0.186 HD
HETATM   13  C4  UNL     1      -1.698  51.533  11.371  1.00  0.00     0.053 A 
HETATM   14  C3  UNL     1      -0.747  50.586  11.084  1.00  0.00     0.113 A 
HETATM   15  C13 UNL     1      -3.051  51.178  11.576  1.00  0.00     0.074 A 
HETATM   16  N1  UNL     1      -1.129  49.310  11.001  1.00  0.00    -0.345 N 
HETATM   17  N2  UNL     1       0.474  50.971  10.906  1.00  0.00    -0.385 N 
HETATM   18  C2  UNL     1      -2.405  48.931  11.188  1.00  0.00     0.015 A 
ATOM     19  H1  UNL     1      -0.430  48.598  10.788  1.00  0.00     0.167 HD
HETATM   20  C1  UNL     1      -2.747  47.473  11.060  1.00  0.00     0.069 C 
HETATM   21  C14 UNL     1      -3.417  49.844  11.484  1.00  0.00    -0.004 A 
ATOM     22  H22 UNL     1       1.181  50.267  10.693  1.00  0.00     0.157 HD
ATOM     23  H21 UNL     1       0.766  51.946  10.969  1.00  0.00     0.157 HD
BRANCH  21  24
HETATM   24  C15 UNL     1      -4.800  49.442  11.704  1.00  0.00     0.069 C 
BRANCH  24  25
HETATM   25  C16 UNL     1      -5.692  49.408  10.491  1.00  0.00     0.168 C 
BRANCH  25  26
HETATM   26  O1  UNL     1      -7.014  49.766  10.849  1.00  0.00    -0.401 OA
ATOM     27  H1  UNL     1      -7.636  49.341  10.269  1.00  0.00     0.209 HD
ENDBRANCH  25  26
ENDBRANCH  24  25
ENDBRANCH  21  24
ENDBRANCH   1   9
TORSDOF 4
ENDMDL
MODEL 5
REMARK VINA RESULT: -6.558516198      4.631      8.009
REMARK  4 active torsions:
REMARK  status: ('A' for Active; 'I' for Inactive)
REMARK    1  A    between atoms: N4_13  and  C6_14 
REMARK    2  A    between atoms: C14_23  and  C15_24 
REMARK    3  A    between atoms: C15_24  and  C16_25 
REMARK    4  A    between atoms: C16_25  and  O1_26 
ROOT
HETATM    1  C6  UNL     1      -7.417  53.564  11.330  1.00  0.00     0.109 C 
HETATM    2  C7  UNL     1      -6.547  52.284  11.384  1.00  0.00     0.027 C 
HETATM    3  C8  UNL     1      -6.839  51.666  12.729  1.00  0.00     0.004 C 
HETATM    4  C9  UNL     1      -6.750  52.686  13.838  1.00  0.00     0.019 C 
HETATM    5  C10 UNL     1      -6.069  53.943  13.434  1.00  0.00     0.095 C 
HETATM    6  C11 UNL     1      -4.597  53.765  13.470  1.00  0.00     0.064 C 
HETATM    7  N5  UNL     1      -3.451  53.619  13.491  1.00  0.00    -0.197 NA
HETATM    8  C12 UNL     1      -6.477  54.537  12.140  1.00  0.00     0.046 C 
ENDROOT
BRANCH   1   9
HETATM    9  N4  UNL     1      -7.448  54.114  10.022  1.00  0.00    -0.286 N 
HETATM   10  N3  UNL     1      -6.513  53.835   9.067  1.00  0.00    -0.308 N 
HETATM   11  C5  UNL     1      -6.778  54.444   7.949  1.00  0.00     0.124 A 
ATOM     12  H3  UNL     1      -5.707  53.226   9.212  1.00  0.00     0.186 HD
HETATM   13  C4  UNL     1      -7.931  55.176   8.114  1.00  0.00     0.053 A 
HETATM   14  C3  UNL     1      -8.665  55.987   7.283  1.00  0.00     0.113 A 
HETATM   15  C13 UNL     1      -8.328  54.940   9.450  1.00  0.00     0.074 A 
HETATM   16  N1  UNL     1      -9.771  56.554   7.769  1.00  0.00    -0.345 N 
HETATM   17  N2  UNL     1      -8.252  56.165   6.072  1.00  0.00    -0.385 N 
HETATM   18  C2  UNL     1     -10.182  56.357   9.033  1.00  0.00     0.015 A 
ATOM     19  H1  UNL     1     -10.324  57.158   7.160  1.00  0.00     0.167 HD
HETATM   20  C1  UNL     1     -11.432  57.050   9.499  1.00  0.00     0.069 C 
HETATM   21  C14 UNL     1      -9.482  55.544   9.925  1.00  0.00    -0.004 A 
ATOM     22  H22 UNL     1      -8.797  56.767   5.455  1.00  0.00     0.157 HD
ATOM     23  H21 UNL     1      -7.407  55.731   5.701  1.00  0.00     0.157 HD
BRANCH  21  24
HETATM   24  C15 UNL     1      -9.927  55.310  11.292  1.00  0.00     0.069 C 
BRANCH  24  25
HETATM   25  C16 UNL     1      -9.542  56.351  12.312  1.00  0.00     0.168 C 
BRANCH  25  26
HETATM   26  O1  UNL     1      -9.333  55.742  13.573  1.00  0.00    -0.401 OA
ATOM     27  H1  UNL     1     -10.118  55.283  13.848  1.00  0.00     0.209 HD
ENDBRANCH  25  26
ENDBRANCH  24  25
ENDBRANCH  21  24
ENDBRANCH   1   9
TORSDOF 4
ENDMDL
