MODEL 1
REMARK VINA RESULT: -5.301414795      0.000      0.000
REMARK  9 active torsions:
REMARK  status: ('A' for Active; 'I' for Inactive)
REMARK    1  A    between atoms: C2_2  and  N1_4 
REMARK    2  A    between atoms: N1_4  and  C5_6 
REMARK    3  A    between atoms: C5_6  and  C6_7 
REMARK    4  A    between atoms: C6_7  and  N2_8 
REMARK    5  A    between atoms: N2_8  and  C7_10 
REMARK    6  A    between atoms: C7_10  and  N3_12 
REMARK    7  A    between atoms: N3_12  and  C8_14 
REMARK    8  A    between atoms: C8_14  and  N4_16 
REMARK    9  A    between atoms: N4_16  and  C9_18 
ROOT
HETATM    1  N3  UNL     1      -3.390  52.552  11.045  1.00  0.00    -0.310 N 
ATOM      2  H3  UNL     1      -3.152  52.850  10.099  1.00  0.00     0.170 HD
ENDROOT
BRANCH   1   3
HETATM    3  C7  UNL     1      -2.340  52.656  11.953  1.00  0.00     0.173 C 
HETATM    4  S1  UNL     1      -2.340  54.019  12.939  1.00  0.00    -0.041 SA
BRANCH   3   5
HETATM    5  N2  UNL     1      -1.274  51.751  12.084  1.00  0.00    -0.365 N 
ATOM      6  H2  UNL     1      -0.700  51.791  12.927  1.00  0.00     0.161 HD
BRANCH   5   7
HETATM    7  C6  UNL     1      -0.948  50.748  11.060  1.00  0.00     0.141 C 
BRANCH   7   8
HETATM    8  C5  UNL     1      -0.031  51.339  10.053  1.00  0.00     0.136 C 
BRANCH   8   9
HETATM    9  N1  UNL     1      -0.671  51.769   8.850  1.00  0.00    -0.412 N 
HETATM   10  C4  UNL     1      -1.688  50.953   8.318  1.00  0.00     0.143 C 
BRANCH   9  11
HETATM   11  C2  UNL     1      -0.748  53.171   8.639  1.00  0.00     0.070 C 
HETATM   12  C1  UNL     1       0.479  53.884   9.107  1.00  0.00     0.031 C 
HETATM   13  C3  UNL     1      -1.036  53.558   7.217  1.00  0.00     0.031 C 
ENDBRANCH   9  11
ENDBRANCH   8   9
ENDBRANCH   7   8
ENDBRANCH   5   7
ENDBRANCH   3   5
ENDBRANCH   1   3
BRANCH   1  14
HETATM   14  C8  UNL     1      -4.720  52.112  11.190  1.00  0.00     0.174 C 
HETATM   15  S2  UNL     1      -5.144  50.540  11.424  1.00  0.00    -0.041 SA
BRANCH  14  16
HETATM   16  N4  UNL     1      -5.803  53.075  11.134  1.00  0.00    -0.362 N 
ATOM     17  H4  UNL     1      -6.429  53.056  10.329  1.00  0.00     0.162 HD
BRANCH  16  18
HETATM   18  C9  UNL     1      -6.039  54.059  12.164  1.00  0.00     0.087 C 
HETATM   19  C10 UNL     1      -6.985  55.081  11.595  1.00  0.00     0.051 C 
HETATM   20  C11 UNL     1      -8.096  55.523  12.453  1.00  0.00     0.169 C 
HETATM   21  O1  UNL     1      -8.539  54.670  13.421  1.00  0.00    -0.391 OA
HETATM   22  C12 UNL     1      -8.176  53.358  13.238  1.00  0.00     0.169 C 
HETATM   23  C13 UNL     1      -6.643  53.337  13.355  1.00  0.00     0.051 C 
ENDBRANCH  16  18
ENDBRANCH  14  16
ENDBRANCH   1  14
TORSDOF 9
ENDMDL
MODEL 2
REMARK VINA RESULT: -5.269561896      2.496      3.849
REMARK  9 active torsions:
REMARK  status: ('A' for Active; 'I' for Inactive)
REMARK    1  A    between atoms: C2_2  and  N1_4 
REMARK    2  A    between atoms: N1_4  and  C5_6 
REMARK    3  A    between atoms: C5_6  and  C6_7 
REMARK    4  A    between atoms: C6_7  and  N2_8 
REMARK    5  A    between atoms: N2_8  and  C7_10 
REMARK    6  A    between atoms: C7_10  and  N3_12 
REMARK    7  A    between atoms: N3_12  and  C8_14 
REMARK    8  A    between atoms: C8_14  and  N4_16 
REMARK    9  A    between atoms: N4_16  and  C9_18 
ROOT
HETATM    1  N3  UNL     1      -5.359  54.782  12.029  1.00  0.00    -0.310 N 
ATOM      2  H3  UNL     1      -4.632  55.399  11.664  1.00  0.00     0.170 HD
ENDROOT
BRANCH   1   3
HETATM    3  C7  UNL     1      -5.032  54.174  13.237  1.00  0.00     0.173 C 
HETATM    4  S1  UNL     1      -6.322  53.717  14.215  1.00  0.00    -0.041 SA
BRANCH   3   5
HETATM    5  N2  UNL     1      -3.731  53.949  13.719  1.00  0.00    -0.365 N 
ATOM      6  H2  UNL     1      -3.605  53.761  14.714  1.00  0.00     0.161 HD
BRANCH   5   7
HETATM    7  C6  UNL     1      -2.545  53.973  12.853  1.00  0.00     0.141 C 
BRANCH   7   8
HETATM    8  C5  UNL     1      -2.047  52.590  12.645  1.00  0.00     0.136 C 
BRANCH   8   9
HETATM    9  N1  UNL     1      -1.440  52.366  11.371  1.00  0.00    -0.412 N 
HETATM   10  C4  UNL     1      -1.004  53.489  10.643  1.00  0.00     0.143 C 
BRANCH   9  11
HETATM   11  C2  UNL     1      -0.741  51.140  11.209  1.00  0.00     0.070 C 
HETATM   12  C1  UNL     1      -1.663  49.983  11.002  1.00  0.00     0.031 C 
HETATM   13  C3  UNL     1       0.282  51.163  10.109  1.00  0.00     0.031 C 
ENDBRANCH   9  11
ENDBRANCH   8   9
ENDBRANCH   7   8
ENDBRANCH   5   7
ENDBRANCH   3   5
ENDBRANCH   1   3
BRANCH   1  14
HETATM   14  C8  UNL     1      -6.506  54.705  11.216  1.00  0.00     0.174 C 
HETATM   15  S2  UNL     1      -6.971  53.345  10.415  1.00  0.00    -0.041 SA
BRANCH  14  16
HETATM   16  N4  UNL     1      -7.349  55.874  11.053  1.00  0.00    -0.362 N 
ATOM     17  H4  UNL     1      -6.901  56.786  10.960  1.00  0.00     0.162 HD
BRANCH  16  18
HETATM   18  C9  UNL     1      -8.790  55.810  11.016  1.00  0.00     0.087 C 
HETATM   19  C10 UNL     1      -9.298  56.471  12.267  1.00  0.00     0.051 C 
HETATM   20  C11 UNL     1     -10.432  57.399  12.128  1.00  0.00     0.169 C 
HETATM   21  O1  UNL     1     -10.610  58.020  10.927  1.00  0.00    -0.391 OA
HETATM   22  C12 UNL     1      -9.504  58.020  10.113  1.00  0.00     0.169 C 
HETATM   23  C13 UNL     1      -9.247  56.544   9.768  1.00  0.00     0.051 C 
ENDBRANCH  16  18
ENDBRANCH  14  16
ENDBRANCH   1  14
TORSDOF 9
ENDMDL
MODEL 3
REMARK VINA RESULT: -5.248575370      2.679      4.265
REMARK  9 active torsions:
REMARK  status: ('A' for Active; 'I' for Inactive)
REMARK    1  A    between atoms: C2_2  and  N1_4 
REMARK    2  A    between atoms: N1_4  and  C5_6 
REMARK    3  A    between atoms: C5_6  and  C6_7 
REMARK    4  A    between atoms: C6_7  and  N2_8 
REMARK    5  A    between atoms: N2_8  and  C7_10 
REMARK    6  A    between atoms: C7_10  and  N3_12 
REMARK    7  A    between atoms: N3_12  and  C8_14 
REMARK    8  A    between atoms: C8_14  and  N4_16 
REMARK    9  A    between atoms: N4_16  and  C9_18 
ROOT
HETATM    1  N3  UNL     1      -5.401  54.770  11.867  1.00  0.00    -0.310 N 
ATOM      2  H3  UNL     1      -4.637  55.326  11.483  1.00  0.00     0.170 HD
ENDROOT
BRANCH   1   3
HETATM    3  C7  UNL     1      -5.123  54.206  13.108  1.00  0.00     0.173 C 
HETATM    4  S1  UNL     1      -6.450  53.821  14.067  1.00  0.00    -0.041 SA
BRANCH   3   5
HETATM    5  N2  UNL     1      -3.842  53.971  13.636  1.00  0.00    -0.365 N 
ATOM      6  H2  UNL     1      -3.748  53.820  14.641  1.00  0.00     0.161 HD
BRANCH   5   7
HETATM    7  C6  UNL     1      -2.631  53.933  12.804  1.00  0.00     0.141 C 
BRANCH   7   8
HETATM    8  C5  UNL     1      -2.215  52.525  12.588  1.00  0.00     0.136 C 
BRANCH   8   9
HETATM    9  N1  UNL     1      -2.917  51.855  11.539  1.00  0.00    -0.412 N 
HETATM   10  C4  UNL     1      -2.473  52.054  10.218  1.00  0.00     0.143 C 
BRANCH   9  11
HETATM   11  C2  UNL     1      -3.519  50.613  11.872  1.00  0.00     0.070 C 
HETATM   12  C1  UNL     1      -2.929  50.007  13.103  1.00  0.00     0.031 C 
HETATM   13  C3  UNL     1      -5.012  50.679  12.018  1.00  0.00     0.031 C 
ENDBRANCH   9  11
ENDBRANCH   8   9
ENDBRANCH   7   8
ENDBRANCH   5   7
ENDBRANCH   3   5
ENDBRANCH   1   3
BRANCH   1  14
HETATM   14  C8  UNL     1      -6.542  54.717  11.042  1.00  0.00     0.174 C 
HETATM   15  S2  UNL     1      -6.997  53.382  10.195  1.00  0.00    -0.041 SA
BRANCH  14  16
HETATM   16  N4  UNL     1      -7.386  55.888  10.910  1.00  0.00    -0.362 N 
ATOM     17  H4  UNL     1      -6.939  56.800  10.810  1.00  0.00     0.162 HD
BRANCH  16  18
HETATM   18  C9  UNL     1      -8.828  55.827  10.914  1.00  0.00     0.087 C 
HETATM   19  C10 UNL     1      -9.297  56.453  12.199  1.00  0.00     0.051 C 
HETATM   20  C11 UNL     1     -10.433  57.386  12.121  1.00  0.00     0.169 C 
HETATM   21  O1  UNL     1     -10.645  58.042  10.944  1.00  0.00    -0.391 OA
HETATM   22  C12 UNL     1      -9.563  58.065  10.097  1.00  0.00     0.169 C 
HETATM   23  C13 UNL     1      -9.320  56.598   9.703  1.00  0.00     0.051 C 
ENDBRANCH  16  18
ENDBRANCH  14  16
ENDBRANCH   1  14
TORSDOF 9
ENDMDL
MODEL 4
REMARK VINA RESULT: -5.246235670      2.977      4.285
REMARK  9 active torsions:
REMARK  status: ('A' for Active; 'I' for Inactive)
REMARK    1  A    between atoms: C2_2  and  N1_4 
REMARK    2  A    between atoms: N1_4  and  C5_6 
REMARK    3  A    between atoms: C5_6  and  C6_7 
REMARK    4  A    between atoms: C6_7  and  N2_8 
REMARK    5  A    between atoms: N2_8  and  C7_10 
REMARK    6  A    between atoms: C7_10  and  N3_12 
REMARK    7  A    between atoms: N3_12  and  C8_14 
REMARK    8  A    between atoms: C8_14  and  N4_16 
REMARK    9  A    between atoms: N4_16  and  C9_18 
ROOT
HETATM    1  N3  UNL     1      -6.339  55.626  12.775  1.00  0.00    -0.310 N 
ATOM      2  H3  UNL     1      -6.455  56.486  13.312  1.00  0.00     0.170 HD
ENDROOT
BRANCH   1   3
HETATM    3  C7  UNL     1      -5.380  54.760  13.292  1.00  0.00     0.173 C 
HETATM    4  S1  UNL     1      -5.923  53.628  14.411  1.00  0.00    -0.041 SA
BRANCH   3   5
HETATM    5  N2  UNL     1      -4.008  54.780  12.991  1.00  0.00    -0.365 N 
ATOM      6  H2  UNL     1      -3.574  55.671  12.749  1.00  0.00     0.161 HD
BRANCH   5   7
HETATM    7  C6  UNL     1      -3.170  53.572  13.009  1.00  0.00     0.141 C 
BRANCH   7   8
HETATM    8  C5  UNL     1      -2.103  53.686  11.983  1.00  0.00     0.136 C 
BRANCH   8   9
HETATM    9  N1  UNL     1      -1.383  52.475  11.744  1.00  0.00    -0.412 N 
HETATM   10  C4  UNL     1      -1.718  51.346  12.515  1.00  0.00     0.143 C 
BRANCH   9  11
HETATM   11  C2  UNL     1      -0.901  52.274  10.423  1.00  0.00     0.070 C 
HETATM   12  C1  UNL     1      -0.395  53.537   9.805  1.00  0.00     0.031 C 
HETATM   13  C3  UNL     1       0.153  51.211  10.314  1.00  0.00     0.031 C 
ENDBRANCH   9  11
ENDBRANCH   8   9
ENDBRANCH   7   8
ENDBRANCH   5   7
ENDBRANCH   3   5
ENDBRANCH   1   3
BRANCH   1  14
HETATM   14  C8  UNL     1      -7.180  55.537  11.649  1.00  0.00     0.174 C 
HETATM   15  S2  UNL     1      -7.298  54.199  10.699  1.00  0.00    -0.041 SA
BRANCH  14  16
HETATM   16  N4  UNL     1      -8.003  56.671  11.277  1.00  0.00    -0.362 N 
ATOM     17  H4  UNL     1      -7.570  57.594  11.241  1.00  0.00     0.162 HD
BRANCH  16  18
HETATM   18  C9  UNL     1      -9.406  56.557  10.956  1.00  0.00     0.087 C 
HETATM   19  C10 UNL     1     -10.176  57.148  12.105  1.00  0.00     0.051 C 
HETATM   20  C11 UNL     1     -11.300  58.040  11.777  1.00  0.00     0.169 C 
HETATM   21  O1  UNL     1     -11.266  58.704  10.586  1.00  0.00    -0.391 OA
HETATM   22  C12 UNL     1     -10.023  58.777  10.005  1.00  0.00     0.169 C 
HETATM   23  C13 UNL     1      -9.642  57.326   9.668  1.00  0.00     0.051 C 
ENDBRANCH  16  18
ENDBRANCH  14  16
ENDBRANCH   1  14
TORSDOF 9
ENDMDL
MODEL 5
REMARK VINA RESULT: -5.192546544      4.925      9.447
REMARK  9 active torsions:
REMARK  status: ('A' for Active; 'I' for Inactive)
REMARK    1  A    between atoms: C2_2  and  N1_4 
REMARK    2  A    between atoms: N1_4  and  C5_6 
REMARK    3  A    between atoms: C5_6  and  C6_7 
REMARK    4  A    between atoms: C6_7  and  N2_8 
REMARK    5  A    between atoms: N2_8  and  C7_10 
REMARK    6  A    between atoms: C7_10  and  N3_12 
REMARK    7  A    between atoms: N3_12  and  C8_14 
REMARK    8  A    between atoms: C8_14  and  N4_16 
REMARK    9  A    between atoms: N4_16  and  C9_18 
ROOT
HETATM    1  N3  UNL     1      -7.650  56.322  10.313  1.00  0.00    -0.310 N 
ATOM      2  H3  UNL     1      -6.918  56.937   9.958  1.00  0.00     0.170 HD
ENDROOT
BRANCH   1   3
HETATM    3  C7  UNL     1      -8.847  56.971  10.599  1.00  0.00     0.173 C 
HETATM    4  S1  UNL     1      -9.531  56.646  12.101  1.00  0.00    -0.041 SA
BRANCH   3   5
HETATM    5  N2  UNL     1      -9.542  57.832   9.733  1.00  0.00    -0.365 N 
ATOM      6  H2  UNL     1      -9.462  57.682   8.727  1.00  0.00     0.161 HD
BRANCH   5   7
HETATM    7  C6  UNL     1     -10.381  58.939  10.214  1.00  0.00     0.141 C 
BRANCH   7   8
HETATM    8  C5  UNL     1     -11.800  58.682   9.863  1.00  0.00     0.136 C 
BRANCH   8   9
HETATM    9  N1  UNL     1     -12.746  59.326  10.719  1.00  0.00    -0.412 N 
HETATM   10  C4  UNL     1     -13.874  59.922  10.123  1.00  0.00     0.143 C 
BRANCH   9  11
HETATM   11  C2  UNL     1     -12.872  58.802  12.033  1.00  0.00     0.070 C 
HETATM   12  C1  UNL     1     -13.761  59.637  12.895  1.00  0.00     0.031 C 
HETATM   13  C3  UNL     1     -13.335  57.374  12.078  1.00  0.00     0.031 C 
ENDBRANCH   9  11
ENDBRANCH   8   9
ENDBRANCH   7   8
ENDBRANCH   5   7
ENDBRANCH   3   5
ENDBRANCH   1   3
BRANCH   1  14
HETATM   14  C8  UNL     1      -7.260  54.972  10.422  1.00  0.00     0.174 C 
HETATM   15  S2  UNL     1      -8.051  53.730   9.688  1.00  0.00    -0.041 SA
BRANCH  14  16
HETATM   16  N4  UNL     1      -6.101  54.623  11.219  1.00  0.00    -0.362 N 
ATOM     17  H4  UNL     1      -5.356  54.080  10.782  1.00  0.00     0.162 HD
BRANCH  16  18
HETATM   18  C9  UNL     1      -5.949  55.007  12.603  1.00  0.00     0.087 C 
HETATM   19  C10 UNL     1      -6.690  53.992  13.430  1.00  0.00     0.051 C 
HETATM   20  C11 UNL     1      -6.019  53.487  14.639  1.00  0.00     0.169 C 
HETATM   21  O1  UNL     1      -4.656  53.507  14.673  1.00  0.00    -0.391 OA
HETATM   22  C12 UNL     1      -4.054  53.623  13.443  1.00  0.00     0.169 C 
HETATM   23  C13 UNL     1      -4.463  55.008  12.915  1.00  0.00     0.051 C 
ENDBRANCH  16  18
ENDBRANCH  14  16
ENDBRANCH   1  14
TORSDOF 9
ENDMDL
