MODEL 1
REMARK VINA RESULT: -6.881844678      0.000      0.000
REMARK  6 active torsions:
REMARK  status: ('A' for Active; 'I' for Inactive)
REMARK    1  A    between atoms: C1_2  and  C2_4 
REMARK    2  A    between atoms: C2_4  and  N1_5 
REMARK       I    between atoms: N2_8  and  C5_9 
REMARK       I    between atoms: C5_9  and  N3_11 
REMARK    3  A    between atoms: N3_11  and  C6_13 
REMARK    4  A    between atoms: C13_20  and  C14_21 
REMARK    5  A    between atoms: C14_21  and  C15_22 
REMARK    6  A    between atoms: C15_22  and  O4_23 
ROOT
HETATM    1  N1  UNL     1      -7.408  52.349  10.801  1.00  0.00    -0.342 N 
HETATM    2  C3  UNL     1      -7.724  53.539  10.122  1.00  0.00     0.088 C 
HETATM    3  C4  UNL     1      -7.174  54.786  10.788  1.00  0.00     0.172 C 
HETATM    4  N2  UNL     1      -7.800  54.987  12.076  1.00  0.00    -0.329 N 
HETATM    5  C5  UNL     1      -8.826  55.932  12.164  1.00  0.00     0.318 C 
HETATM    6  O3  UNL     1      -9.348  56.094  13.331  1.00  0.00    -0.247 OA
HETATM    7  N3  UNL     1      -9.305  56.694  11.074  1.00  0.00    -0.338 N 
ATOM      8  H3  UNL     1      -8.888  56.555  10.154  1.00  0.00     0.164 HD
HETATM    9  C12 UNL     1      -7.506  54.319  13.335  1.00  0.00     0.138 C 
HETATM   10  C13 UNL     1      -7.097  52.899  13.199  1.00  0.00     0.044 C 
HETATM   11  C16 UNL     1      -7.832  52.159  12.106  1.00  0.00     0.075 C 
ENDROOT
BRANCH   7  12
HETATM   12  C6  UNL     1     -10.374  57.670  11.220  1.00  0.00     0.086 C 
HETATM   13  C7  UNL     1     -10.398  58.680  10.110  1.00  0.00     0.025 C 
HETATM   14  C8  UNL     1     -11.153  59.893  10.656  1.00  0.00     0.002 C 
HETATM   15  C9  UNL     1     -12.096  59.514  11.754  1.00  0.00     0.000 C 
HETATM   16  C10 UNL     1     -12.730  58.155  11.565  1.00  0.00     0.002 C 
HETATM   17  C11 UNL     1     -11.738  57.052  11.333  1.00  0.00     0.025 C 
ENDBRANCH   7  12
BRANCH  10  18
HETATM   18  C14 UNL     1      -5.621  52.640  13.161  1.00  0.00     0.037 C 
BRANCH  18  19
HETATM   19  C15 UNL     1      -4.835  53.724  13.836  1.00  0.00     0.165 C 
BRANCH  19  20
HETATM   20  O4  UNL     1      -4.831  53.481  15.232  1.00  0.00    -0.401 OA
ATOM     21  H4  UNL     1      -5.545  52.892  15.441  1.00  0.00     0.209 HD
ENDBRANCH  19  20
ENDBRANCH  18  19
ENDBRANCH  10  18
BRANCH   1  22
HETATM   22  C2  UNL     1      -6.668  51.359  10.146  1.00  0.00     0.179 C 
BRANCH  22  23
HETATM   23  C1  UNL     1      -5.519  51.966   9.424  1.00  0.00     0.215 C 
HETATM   24  O1  UNL     1      -4.512  52.446  10.004  1.00  0.00    -0.643 OA
HETATM   25  O2  UNL     1      -5.509  52.031   8.024  1.00  0.00    -0.643 OA
ENDBRANCH  22  23
ENDBRANCH   1  22
TORSDOF 6
ENDMDL
MODEL 2
REMARK VINA RESULT: -6.838227013      1.276      1.473
REMARK  6 active torsions:
REMARK  status: ('A' for Active; 'I' for Inactive)
REMARK    1  A    between atoms: C1_2  and  C2_4 
REMARK    2  A    between atoms: C2_4  and  N1_5 
REMARK       I    between atoms: N2_8  and  C5_9 
REMARK       I    between atoms: C5_9  and  N3_11 
REMARK    3  A    between atoms: N3_11  and  C6_13 
REMARK    4  A    between atoms: C13_20  and  C14_21 
REMARK    5  A    between atoms: C14_21  and  C15_22 
REMARK    6  A    between atoms: C15_22  and  O4_23 
ROOT
HETATM    1  N1  UNL     1      -7.587  53.003  10.772  1.00  0.00    -0.342 N 
HETATM    2  C3  UNL     1      -8.072  54.140  10.102  1.00  0.00     0.088 C 
HETATM    3  C4  UNL     1      -7.580  55.450  10.688  1.00  0.00     0.172 C 
HETATM    4  N2  UNL     1      -8.100  55.630  12.025  1.00  0.00    -0.329 N 
HETATM    5  C5  UNL     1      -9.196  56.482  12.190  1.00  0.00     0.318 C 
HETATM    6  O3  UNL     1      -9.621  56.630  13.398  1.00  0.00    -0.247 OA
HETATM    7  N3  UNL     1      -9.842  57.167  11.135  1.00  0.00    -0.338 N 
ATOM      8  H3  UNL     1      -9.500  57.040  10.183  1.00  0.00     0.164 HD
HETATM    9  C12 UNL     1      -7.631  55.028  13.263  1.00  0.00     0.138 C 
HETATM   10  C13 UNL     1      -7.109  53.647  13.119  1.00  0.00     0.044 C 
HETATM   11  C16 UNL     1      -7.870  52.813  12.115  1.00  0.00     0.075 C 
ENDROOT
BRANCH   7  12
HETATM   12  C6  UNL     1     -10.978  58.047  11.361  1.00  0.00     0.086 C 
HETATM   13  C7  UNL     1     -10.988  59.235  10.444  1.00  0.00     0.025 C 
HETATM   14  C8  UNL     1     -11.854  60.293  11.129  1.00  0.00     0.002 C 
HETATM   15  C9  UNL     1     -12.845  59.679  12.067  1.00  0.00     0.000 C 
HETATM   16  C10 UNL     1     -13.378  58.346  11.597  1.00  0.00     0.002 C 
HETATM   17  C11 UNL     1     -12.305  57.351  11.258  1.00  0.00     0.025 C 
ENDBRANCH   7  12
BRANCH  10  18
HETATM   18  C14 UNL     1      -5.625  53.520  12.947  1.00  0.00     0.037 C 
BRANCH  18  19
HETATM   19  C15 UNL     1      -4.996  52.687  14.024  1.00  0.00     0.165 C 
BRANCH  19  20
HETATM   20  O4  UNL     1      -4.845  53.484  15.186  1.00  0.00    -0.401 OA
ATOM     21  H4  UNL     1      -4.493  52.943  15.882  1.00  0.00     0.209 HD
ENDBRANCH  19  20
ENDBRANCH  18  19
ENDBRANCH  10  18
BRANCH   1  22
HETATM   22  C2  UNL     1      -6.823  52.065  10.070  1.00  0.00     0.179 C 
BRANCH  22  23
HETATM   23  C1  UNL     1      -6.920  50.731  10.718  1.00  0.00     0.215 C 
HETATM   24  O1  UNL     1      -7.910  49.967  10.588  1.00  0.00    -0.643 OA
HETATM   25  O2  UNL     1      -5.879  50.253  11.527  1.00  0.00    -0.643 OA
ENDBRANCH  22  23
ENDBRANCH   1  22
TORSDOF 6
ENDMDL
MODEL 3
REMARK VINA RESULT: -6.319399114      2.357      3.362
REMARK  6 active torsions:
REMARK  status: ('A' for Active; 'I' for Inactive)
REMARK    1  A    between atoms: C1_2  and  C2_4 
REMARK    2  A    between atoms: C2_4  and  N1_5 
REMARK       I    between atoms: N2_8  and  C5_9 
REMARK       I    between atoms: C5_9  and  N3_11 
REMARK    3  A    between atoms: N3_11  and  C6_13 
REMARK    4  A    between atoms: C13_20  and  C14_21 
REMARK    5  A    between atoms: C14_21  and  C15_22 
REMARK    6  A    between atoms: C15_22  and  O4_23 
ROOT
HETATM    1  N1  UNL     1      -4.195  53.831  12.385  1.00  0.00    -0.342 N 
HETATM    2  C3  UNL     1      -5.090  54.801  12.871  1.00  0.00     0.088 C 
HETATM    3  C4  UNL     1      -6.433  54.235  13.291  1.00  0.00     0.172 C 
HETATM    4  N2  UNL     1      -7.138  53.706  12.144  1.00  0.00    -0.329 N 
HETATM    5  C5  UNL     1      -8.147  54.492  11.577  1.00  0.00     0.318 C 
HETATM    6  O3  UNL     1      -8.762  53.980  10.568  1.00  0.00    -0.247 OA
HETATM    7  N3  UNL     1      -8.514  55.776  12.040  1.00  0.00    -0.338 N 
ATOM      8  H3  UNL     1      -8.017  56.173  12.838  1.00  0.00     0.164 HD
HETATM    9  C12 UNL     1      -6.936  52.433  11.470  1.00  0.00     0.138 C 
HETATM   10  C13 UNL     1      -5.529  51.964  11.445  1.00  0.00     0.044 C 
HETATM   11  C16 UNL     1      -4.523  53.077  11.270  1.00  0.00     0.075 C 
ENDROOT
BRANCH   7  12
HETATM   12  C6  UNL     1      -9.575  56.552  11.418  1.00  0.00     0.086 C 
HETATM   13  C7  UNL     1     -10.389  57.329  12.411  1.00  0.00     0.025 C 
HETATM   14  C8  UNL     1     -11.727  57.620  11.727  1.00  0.00     0.002 C 
HETATM   15  C9  UNL     1     -11.602  57.622  10.237  1.00  0.00     0.000 C 
HETATM   16  C10 UNL     1     -10.281  58.163   9.741  1.00  0.00     0.002 C 
HETATM   17  C11 UNL     1      -9.085  57.495  10.357  1.00  0.00     0.025 C 
ENDBRANCH   7  12
BRANCH  10  18
HETATM   18  C14 UNL     1      -5.133  51.013  12.534  1.00  0.00     0.037 C 
BRANCH  18  19
HETATM   19  C15 UNL     1      -4.025  50.094  12.112  1.00  0.00     0.165 C 
BRANCH  19  20
HETATM   20  O4  UNL     1      -3.065  50.031  13.152  1.00  0.00    -0.401 OA
ATOM     21  H4  UNL     1      -2.309  50.547  12.901  1.00  0.00     0.209 HD
ENDBRANCH  19  20
ENDBRANCH  18  19
ENDBRANCH  10  18
BRANCH   1  22
HETATM   22  C2  UNL     1      -2.970  53.639  13.034  1.00  0.00     0.179 C 
BRANCH  22  23
HETATM   23  C1  UNL     1      -1.916  53.278  12.051  1.00  0.00     0.215 C 
HETATM   24  O1  UNL     1      -1.633  53.980  11.047  1.00  0.00    -0.643 OA
HETATM   25  O2  UNL     1      -1.169  52.101  12.206  1.00  0.00    -0.643 OA
ENDBRANCH  22  23
ENDBRANCH   1  22
TORSDOF 6
ENDMDL
MODEL 4
REMARK VINA RESULT: -6.189126290      1.922      2.249
REMARK  6 active torsions:
REMARK  status: ('A' for Active; 'I' for Inactive)
REMARK    1  A    between atoms: C1_2  and  C2_4 
REMARK    2  A    between atoms: C2_4  and  N1_5 
REMARK       I    between atoms: N2_8  and  C5_9 
REMARK       I    between atoms: C5_9  and  N3_11 
REMARK    3  A    between atoms: N3_11  and  C6_13 
REMARK    4  A    between atoms: C13_20  and  C14_21 
REMARK    5  A    between atoms: C14_21  and  C15_22 
REMARK    6  A    between atoms: C15_22  and  O4_23 
ROOT
HETATM    1  N1  UNL     1      -7.811  54.072   9.834  1.00  0.00    -0.342 N 
HETATM    2  C3  UNL     1      -8.496  55.244   9.466  1.00  0.00     0.088 C 
HETATM    3  C4  UNL     1      -8.120  56.457  10.296  1.00  0.00     0.172 C 
HETATM    4  N2  UNL     1      -8.531  56.274  11.670  1.00  0.00    -0.329 N 
HETATM    5  C5  UNL     1      -9.705  56.906  12.091  1.00  0.00     0.318 C 
HETATM    6  O3  UNL     1     -10.030  56.731  13.325  1.00  0.00    -0.247 OA
HETATM    7  N3  UNL     1     -10.528  57.699  11.258  1.00  0.00    -0.338 N 
ATOM      8  H3  UNL     1     -10.263  57.826  10.282  1.00  0.00     0.164 HD
HETATM    9  C12 UNL     1      -7.876  55.496  12.711  1.00  0.00     0.138 C 
HETATM   10  C13 UNL     1      -7.200  54.266  12.229  1.00  0.00     0.044 C 
HETATM   11  C16 UNL     1      -7.941  53.564  11.116  1.00  0.00     0.075 C 
ENDROOT
BRANCH   7  12
HETATM   12  C6  UNL     1     -11.739  58.338  11.747  1.00  0.00     0.086 C 
HETATM   13  C7  UNL     1     -11.928  59.723  11.200  1.00  0.00     0.025 C 
HETATM   14  C8  UNL     1     -12.867  60.439  12.173  1.00  0.00     0.002 C 
HETATM   15  C9  UNL     1     -13.732  59.476  12.923  1.00  0.00     0.000 C 
HETATM   16  C10 UNL     1     -14.141  58.270  12.109  1.00  0.00     0.002 C 
HETATM   17  C11 UNL     1     -12.985  57.544  11.482  1.00  0.00     0.025 C 
ENDBRANCH   7  12
BRANCH  10  18
HETATM   18  C14 UNL     1      -5.735  54.392  11.938  1.00  0.00     0.037 C 
BRANCH  18  19
HETATM   19  C15 UNL     1      -4.930  54.663  13.175  1.00  0.00     0.165 C 
BRANCH  19  20
HETATM   20  O4  UNL     1      -4.085  55.774  12.934  1.00  0.00    -0.401 OA
ATOM     21  H4  UNL     1      -3.925  55.839  12.001  1.00  0.00     0.209 HD
ENDBRANCH  19  20
ENDBRANCH  18  19
ENDBRANCH  10  18
BRANCH   1  22
HETATM   22  C2  UNL     1      -7.005  53.424   8.893  1.00  0.00     0.179 C 
BRANCH  22  23
HETATM   23  C1  UNL     1      -6.970  54.195   7.623  1.00  0.00     0.215 C 
HETATM   24  O1  UNL     1      -7.644  53.889   6.607  1.00  0.00    -0.643 OA
HETATM   25  O2  UNL     1      -6.158  55.332   7.501  1.00  0.00    -0.643 OA
ENDBRANCH  22  23
ENDBRANCH   1  22
TORSDOF 6
ENDMDL
MODEL 5
REMARK VINA RESULT: -6.102460814      1.953      3.190
REMARK  6 active torsions:
REMARK  status: ('A' for Active; 'I' for Inactive)
REMARK    1  A    between atoms: C1_2  and  C2_4 
REMARK    2  A    between atoms: C2_4  and  N1_5 
REMARK       I    between atoms: N2_8  and  C5_9 
REMARK       I    between atoms: C5_9  and  N3_11 
REMARK    3  A    between atoms: N3_11  and  C6_13 
REMARK    4  A    between atoms: C13_20  and  C14_21 
REMARK    5  A    between atoms: C14_21  and  C15_22 
REMARK    6  A    between atoms: C15_22  and  O4_23 
ROOT
HETATM    1  N1  UNL     1      -5.729  53.901  12.902  1.00  0.00    -0.342 N 
HETATM    2  C3  UNL     1      -6.770  54.727  13.362  1.00  0.00     0.088 C 
HETATM    3  C4  UNL     1      -8.154  54.154  13.125  1.00  0.00     0.172 C 
HETATM    4  N2  UNL     1      -8.427  54.067  11.707  1.00  0.00    -0.329 N 
HETATM    5  C5  UNL     1      -9.227  55.060  11.134  1.00  0.00     0.318 C 
HETATM    6  O3  UNL     1      -9.461  54.940   9.873  1.00  0.00    -0.247 OA
HETATM    7  N3  UNL     1      -9.774  56.154  11.844  1.00  0.00    -0.338 N 
ATOM      8  H3  UNL     1      -9.579  56.241  12.841  1.00  0.00     0.164 HD
HETATM    9  C12 UNL     1      -7.969  53.061  10.761  1.00  0.00     0.138 C 
HETATM   10  C13 UNL     1      -6.613  52.527  11.037  1.00  0.00     0.044 C 
HETATM   11  C16 UNL     1      -5.648  53.565  11.561  1.00  0.00     0.075 C 
ENDROOT
BRANCH   7  12
HETATM   12  C6  UNL     1     -10.605  57.159  11.200  1.00  0.00     0.086 C 
HETATM   13  C7  UNL     1     -11.711  57.656  12.085  1.00  0.00     0.025 C 
HETATM   14  C8  UNL     1     -12.772  58.240  11.151  1.00  0.00     0.002 C 
HETATM   15  C9  UNL     1     -12.183  58.687   9.850  1.00  0.00     0.000 C 
HETATM   16  C10 UNL     1     -10.788  59.253   9.980  1.00  0.00     0.002 C 
HETATM   17  C11 UNL     1      -9.831  58.342  10.693  1.00  0.00     0.025 C 
ENDBRANCH   7  12
BRANCH  10  18
HETATM   18  C14 UNL     1      -6.555  51.254  11.827  1.00  0.00     0.037 C 
BRANCH  18  19
HETATM   19  C15 UNL     1      -5.486  50.326  11.333  1.00  0.00     0.165 C 
BRANCH  19  20
HETATM   20  O4  UNL     1      -4.405  50.347  12.249  1.00  0.00    -0.401 OA
ATOM     21  H4  UNL     1      -4.716  50.043  13.093  1.00  0.00     0.209 HD
ENDBRANCH  19  20
ENDBRANCH  18  19
ENDBRANCH  10  18
BRANCH   1  22
HETATM   22  C2  UNL     1      -4.775  53.428  13.810  1.00  0.00     0.179 C 
BRANCH  22  23
HETATM   23  C1  UNL     1      -3.405  53.641  13.276  1.00  0.00     0.215 C 
HETATM   24  O1  UNL     1      -2.944  54.773  12.978  1.00  0.00    -0.643 OA
HETATM   25  O2  UNL     1      -2.540  52.556  13.075  1.00  0.00    -0.643 OA
ENDBRANCH  22  23
ENDBRANCH   1  22
TORSDOF 6
ENDMDL
