MODEL 1
REMARK VINA RESULT: -6.410272081      0.000      0.000
REMARK  9 active torsions:
REMARK  status: ('A' for Active; 'I' for Inactive)
REMARK    1  A    between atoms: O1_1  and  C1_3 
REMARK    2  A    between atoms: C1_3  and  C2_4 
REMARK    3  A    between atoms: C1_3  and  N2_10 
REMARK    4  A    between atoms: C2_4  and  N1_5 
REMARK    5  A    between atoms: N2_10  and  C7_11 
REMARK    6  A    between atoms: N2_10  and  C12_21 
REMARK    7  A    between atoms: C7_11  and  C8_12 
REMARK    8  A    between atoms: C8_12  and  O2_13 
REMARK    9  A    between atoms: C17_26  and  O3_27 
ROOT
HETATM    1  N2  UNL     1      -7.471  53.947  12.760  1.00  0.00    -0.354 N 
ENDROOT
BRANCH   1   2
HETATM    2  C1  UNL     1      -7.782  55.307  12.905  1.00  0.00     0.142 C 
BRANCH   2   3
HETATM    3  O1  UNL     1      -7.716  55.736  14.132  1.00  0.00    -0.348 OA
ATOM      4  H1  UNL     1      -8.116  55.177  14.786  1.00  0.00     0.219 HD
ENDBRANCH   2   3
BRANCH   2   5
HETATM    5  C2  UNL     1      -8.161  56.297  11.911  1.00  0.00     0.355 C 
BRANCH   5   6
HETATM    6  N1  UNL     1      -9.620  56.197  11.687  1.00  0.00     0.096 N 
HETATM    7  C3  UNL     1     -10.293  57.339  12.270  1.00  0.00     0.273 C 
HETATM    8  C4  UNL     1     -11.501  57.575  11.393  1.00  0.00     0.032 C 
HETATM    9  C5  UNL     1     -10.916  57.309  10.024  1.00  0.00     0.032 C 
HETATM   10  C6  UNL     1      -9.933  56.217  10.277  1.00  0.00     0.273 C 
ENDBRANCH   5   6
ENDBRANCH   2   5
ENDBRANCH   1   2
BRANCH   1  11
HETATM   11  C7  UNL     1      -6.723  53.334  13.867  1.00  0.00     0.164 C 
BRANCH  11  12
HETATM   12  C8  UNL     1      -5.273  53.319  13.767  1.00  0.00     0.099 C 
HETATM   13  C9  UNL     1      -4.582  52.120  13.241  1.00  0.00     0.068 C 
HETATM   14  C10 UNL     1      -3.142  52.638  13.101  1.00  0.00     0.235 C 
HETATM   15  N3  UNL     1      -3.207  54.079  13.300  1.00  0.00    -0.072 N 
HETATM   16  C11 UNL     1      -4.610  54.407  12.959  1.00  0.00     0.271 C 
ATOM     17  H32 UNL     1      -2.911  54.393  14.224  1.00  0.00     0.277 HD
ATOM     18  H31 UNL     1      -2.509  54.611  12.779  1.00  0.00     0.277 HD
BRANCH  12  19
HETATM   19  O2  UNL     1      -4.775  53.525  15.082  1.00  0.00    -0.386 OA
ATOM     20  H2  UNL     1      -4.281  52.746  15.308  1.00  0.00     0.210 HD
ENDBRANCH  12  19
ENDBRANCH  11  12
ENDBRANCH   1  11
BRANCH   1  21
HETATM   21  C12 UNL     1      -7.799  53.192  11.617  1.00  0.00     0.115 C 
HETATM   22  C13 UNL     1      -7.901  51.694  11.771  1.00  0.00     0.028 C 
HETATM   23  C14 UNL     1      -8.792  51.188  10.656  1.00  0.00     0.002 C 
HETATM   24  C15 UNL     1      -8.500  51.698   9.301  1.00  0.00     0.003 C 
HETATM   25  C16 UNL     1      -8.030  53.130   9.209  1.00  0.00     0.034 C 
HETATM   26  C17 UNL     1      -7.014  53.378  10.355  1.00  0.00     0.141 C 
BRANCH  26  27
HETATM   27  O3  UNL     1      -6.026  52.374  10.173  1.00  0.00    -0.394 OA
ATOM     28  H3  UNL     1      -6.237  51.779   9.463  1.00  0.00     0.210 HD
ENDBRANCH  26  27
ENDBRANCH   1  21
TORSDOF 9
ENDMDL
MODEL 2
REMARK VINA RESULT: -6.349331715      1.627      2.331
REMARK  9 active torsions:
REMARK  status: ('A' for Active; 'I' for Inactive)
REMARK    1  A    between atoms: O1_1  and  C1_3 
REMARK    2  A    between atoms: C1_3  and  C2_4 
REMARK    3  A    between atoms: C1_3  and  N2_10 
REMARK    4  A    between atoms: C2_4  and  N1_5 
REMARK    5  A    between atoms: N2_10  and  C7_11 
REMARK    6  A    between atoms: N2_10  and  C12_21 
REMARK    7  A    between atoms: C7_11  and  C8_12 
REMARK    8  A    between atoms: C8_12  and  O2_13 
REMARK    9  A    between atoms: C17_26  and  O3_27 
ROOT
HETATM    1  N2  UNL     1      -8.042  54.778  11.645  1.00  0.00    -0.354 N 
ENDROOT
BRANCH   1   2
HETATM    2  C1  UNL     1      -8.022  55.716  10.603  1.00  0.00     0.142 C 
BRANCH   2   3
HETATM    3  O1  UNL     1      -6.829  55.984  10.155  1.00  0.00    -0.348 OA
ATOM      4  H1  UNL     1      -6.447  55.328   9.584  1.00  0.00     0.219 HD
ENDBRANCH   2   3
BRANCH   2   5
HETATM    5  C2  UNL     1      -9.111  56.424   9.953  1.00  0.00     0.355 C 
BRANCH   5   6
HETATM    6  N1  UNL     1      -9.455  57.606  10.775  1.00  0.00     0.096 N 
HETATM    7  C3  UNL     1     -10.009  58.650   9.940  1.00  0.00     0.273 C 
HETATM    8  C4  UNL     1     -10.985  59.388  10.827  1.00  0.00     0.032 C 
HETATM    9  C5  UNL     1     -11.603  58.238  11.590  1.00  0.00     0.032 C 
HETATM   10  C6  UNL     1     -10.469  57.284  11.751  1.00  0.00     0.273 C 
ENDBRANCH   5   6
ENDBRANCH   2   5
ENDBRANCH   1   2
BRANCH   1  11
HETATM   11  C7  UNL     1      -7.677  55.284  12.976  1.00  0.00     0.164 C 
BRANCH  11  12
HETATM   12  C8  UNL     1      -6.564  54.640  13.654  1.00  0.00     0.099 C 
HETATM   13  C9  UNL     1      -6.692  53.240  14.117  1.00  0.00     0.068 C 
HETATM   14  C10 UNL     1      -5.247  52.927  14.536  1.00  0.00     0.235 C 
HETATM   15  N3  UNL     1      -4.433  54.033  14.050  1.00  0.00    -0.072 N 
HETATM   16  C11 UNL     1      -5.238  54.583  12.937  1.00  0.00     0.271 C 
ATOM     17  H32 UNL     1      -4.175  54.715  14.764  1.00  0.00     0.277 HD
ATOM     18  H31 UNL     1      -3.478  53.778  13.798  1.00  0.00     0.277 HD
BRANCH  12  19
HETATM   19  O2  UNL     1      -6.288  55.421  14.808  1.00  0.00    -0.386 OA
ATOM     20  H2  UNL     1      -5.398  55.214  15.067  1.00  0.00     0.210 HD
ENDBRANCH  12  19
ENDBRANCH  11  12
ENDBRANCH   1  11
BRANCH   1  21
HETATM   21  C12 UNL     1      -8.343  53.415  11.459  1.00  0.00     0.115 C 
HETATM   22  C13 UNL     1      -7.433  52.611  10.563  1.00  0.00     0.028 C 
HETATM   23  C14 UNL     1      -7.576  51.158  10.965  1.00  0.00     0.002 C 
HETATM   24  C15 UNL     1      -8.954  50.656  11.133  1.00  0.00     0.003 C 
HETATM   25  C16 UNL     1      -9.958  51.630  11.704  1.00  0.00     0.034 C 
HETATM   26  C17 UNL     1      -9.723  53.011  11.038  1.00  0.00     0.141 C 
BRANCH  26  27
HETATM   27  O3  UNL     1      -9.814  52.750   9.644  1.00  0.00    -0.394 OA
ATOM     28  H3  UNL     1     -10.464  53.292   9.213  1.00  0.00     0.210 HD
ENDBRANCH  26  27
ENDBRANCH   1  21
TORSDOF 9
ENDMDL
MODEL 3
REMARK VINA RESULT: -6.307113832      1.273      1.661
REMARK  9 active torsions:
REMARK  status: ('A' for Active; 'I' for Inactive)
REMARK    1  A    between atoms: O1_1  and  C1_3 
REMARK    2  A    between atoms: C1_3  and  C2_4 
REMARK    3  A    between atoms: C1_3  and  N2_10 
REMARK    4  A    between atoms: C2_4  and  N1_5 
REMARK    5  A    between atoms: N2_10  and  C7_11 
REMARK    6  A    between atoms: N2_10  and  C12_21 
REMARK    7  A    between atoms: C7_11  and  C8_12 
REMARK    8  A    between atoms: C8_12  and  O2_13 
REMARK    9  A    between atoms: C17_26  and  O3_27 
ROOT
HETATM    1  N2  UNL     1      -7.769  53.776  12.963  1.00  0.00    -0.354 N 
ENDROOT
BRANCH   1   2
HETATM    2  C1  UNL     1      -8.172  55.102  12.751  1.00  0.00     0.142 C 
BRANCH   2   3
HETATM    3  O1  UNL     1      -8.925  55.584  13.697  1.00  0.00    -0.348 OA
ATOM      4  H1  UNL     1      -8.608  55.451  14.583  1.00  0.00     0.219 HD
ENDBRANCH   2   3
BRANCH   2   5
HETATM    5  C2  UNL     1      -7.883  56.010  11.653  1.00  0.00     0.355 C 
BRANCH   5   6
HETATM    6  N1  UNL     1      -9.116  56.180  10.853  1.00  0.00     0.096 N 
HETATM    7  C3  UNL     1      -9.565  57.555  10.915  1.00  0.00     0.273 C 
HETATM    8  C4  UNL     1     -10.236  57.810   9.585  1.00  0.00     0.032 C 
HETATM    9  C5  UNL     1      -9.310  57.067   8.649  1.00  0.00     0.032 C 
HETATM   10  C6  UNL     1      -8.875  55.893   9.458  1.00  0.00     0.273 C 
ENDBRANCH   5   6
ENDBRANCH   2   5
ENDBRANCH   1   2
BRANCH   1  11
HETATM   11  C7  UNL     1      -6.931  53.538  14.147  1.00  0.00     0.164 C 
BRANCH  11  12
HETATM   12  C8  UNL     1      -5.500  53.399  13.936  1.00  0.00     0.099 C 
HETATM   13  C9  UNL     1      -4.959  52.155  13.343  1.00  0.00     0.068 C 
HETATM   14  C10 UNL     1      -3.493  52.549  13.100  1.00  0.00     0.235 C 
HETATM   15  N3  UNL     1      -3.415  53.986  13.323  1.00  0.00    -0.072 N 
HETATM   16  C11 UNL     1      -4.805  54.441  13.096  1.00  0.00     0.271 C 
ATOM     17  H32 UNL     1      -3.024  54.254  14.226  1.00  0.00     0.277 HD
ATOM     18  H31 UNL     1      -2.715  54.466  12.758  1.00  0.00     0.277 HD
BRANCH  12  19
HETATM   19  O2  UNL     1      -4.889  53.534  15.212  1.00  0.00    -0.386 OA
ATOM     20  H2  UNL     1      -3.970  53.324  15.094  1.00  0.00     0.210 HD
ENDBRANCH  12  19
ENDBRANCH  11  12
ENDBRANCH   1  11
BRANCH   1  21
HETATM   21  C12 UNL     1      -8.090  52.717  12.092  1.00  0.00     0.115 C 
HETATM   22  C13 UNL     1      -7.426  52.697  10.737  1.00  0.00     0.028 C 
HETATM   23  C14 UNL     1      -7.442  51.263  10.249  1.00  0.00     0.002 C 
HETATM   24  C15 UNL     1      -8.726  50.544  10.370  1.00  0.00     0.003 C 
HETATM   25  C16 UNL     1      -9.565  50.868  11.583  1.00  0.00     0.034 C 
HETATM   26  C17 UNL     1      -9.525  52.403  11.802  1.00  0.00     0.141 C 
BRANCH  26  27
HETATM   27  O3  UNL     1      -9.963  52.947  10.565  1.00  0.00    -0.394 OA
ATOM     28  H3  UNL     1     -10.908  52.930  10.474  1.00  0.00     0.210 HD
ENDBRANCH  26  27
ENDBRANCH   1  21
TORSDOF 9
ENDMDL
MODEL 4
REMARK VINA RESULT: -6.231922003      2.226      4.662
REMARK  9 active torsions:
REMARK  status: ('A' for Active; 'I' for Inactive)
REMARK    1  A    between atoms: O1_1  and  C1_3 
REMARK    2  A    between atoms: C1_3  and  C2_4 
REMARK    3  A    between atoms: C1_3  and  N2_10 
REMARK    4  A    between atoms: C2_4  and  N1_5 
REMARK    5  A    between atoms: N2_10  and  C7_11 
REMARK    6  A    between atoms: N2_10  and  C12_21 
REMARK    7  A    between atoms: C7_11  and  C8_12 
REMARK    8  A    between atoms: C8_12  and  O2_13 
REMARK    9  A    between atoms: C17_26  and  O3_27 
ROOT
HETATM    1  N2  UNL     1      -8.132  56.035  11.792  1.00  0.00    -0.354 N 
ENDROOT
BRANCH   1   2
HETATM    2  C1  UNL     1      -9.396  56.404  12.276  1.00  0.00     0.142 C 
BRANCH   2   3
HETATM    3  O1  UNL     1      -9.477  56.432  13.575  1.00  0.00    -0.348 OA
ATOM      4  H1  UNL     1      -8.684  56.195  14.042  1.00  0.00     0.219 HD
ENDBRANCH   2   3
BRANCH   2   5
HETATM    5  C2  UNL     1     -10.611  56.755  11.562  1.00  0.00     0.355 C 
BRANCH   5   6
HETATM    6  N1  UNL     1     -10.880  58.195  11.779  1.00  0.00     0.096 N 
HETATM    7  C3  UNL     1     -10.592  58.943  10.573  1.00  0.00     0.273 C 
HETATM    8  C4  UNL     1     -11.558  60.105  10.592  1.00  0.00     0.032 C 
HETATM    9  C5  UNL     1     -12.806  59.433  11.117  1.00  0.00     0.032 C 
HETATM   10  C6  UNL     1     -12.274  58.425  12.079  1.00  0.00     0.273 C 
ENDBRANCH   5   6
ENDBRANCH   2   5
ENDBRANCH   1   2
BRANCH   1  11
HETATM   11  C7  UNL     1      -7.740  56.618  10.501  1.00  0.00     0.164 C 
BRANCH  11  12
HETATM   12  C8  UNL     1      -7.912  55.794   9.316  1.00  0.00     0.099 C 
HETATM   13  C9  UNL     1      -8.353  54.387   9.453  1.00  0.00     0.068 C 
HETATM   14  C10 UNL     1      -8.616  54.009   7.987  1.00  0.00     0.235 C 
HETATM   15  N3  UNL     1      -8.556  55.251   7.229  1.00  0.00    -0.072 N 
HETATM   16  C11 UNL     1      -8.854  56.284   8.245  1.00  0.00     0.271 C 
ATOM     17  H32 UNL     1      -7.683  55.395   6.722  1.00  0.00     0.277 HD
ATOM     18  H31 UNL     1      -9.161  55.277   6.408  1.00  0.00     0.277 HD
BRANCH  12  19
HETATM   19  O2  UNL     1      -6.651  55.757   8.663  1.00  0.00    -0.386 OA
ATOM     20  H2  UNL     1      -6.230  56.589   8.844  1.00  0.00     0.210 HD
ENDBRANCH  12  19
ENDBRANCH  11  12
ENDBRANCH   1  11
BRANCH   1  21
HETATM   21  C12 UNL     1      -7.281  55.129  12.453  1.00  0.00     0.115 C 
HETATM   22  C13 UNL     1      -7.921  54.002  13.228  1.00  0.00     0.028 C 
HETATM   23  C14 UNL     1      -6.897  52.891  13.333  1.00  0.00     0.002 C 
HETATM   24  C15 UNL     1      -5.536  53.290  13.744  1.00  0.00     0.003 C 
HETATM   25  C16 UNL     1      -5.049  54.629  13.243  1.00  0.00     0.034 C 
HETATM   26  C17 UNL     1      -6.215  55.645  13.370  1.00  0.00     0.141 C 
BRANCH  26  27
HETATM   27  O3  UNL     1      -6.593  55.579  14.738  1.00  0.00    -0.394 OA
ATOM     28  H3  UNL     1      -7.525  55.708  14.865  1.00  0.00     0.210 HD
ENDBRANCH  26  27
ENDBRANCH   1  21
TORSDOF 9
ENDMDL
MODEL 5
REMARK VINA RESULT: -6.204720321      3.812      6.790
REMARK  9 active torsions:
REMARK  status: ('A' for Active; 'I' for Inactive)
REMARK    1  A    between atoms: O1_1  and  C1_3 
REMARK    2  A    between atoms: C1_3  and  C2_4 
REMARK    3  A    between atoms: C1_3  and  N2_10 
REMARK    4  A    between atoms: C2_4  and  N1_5 
REMARK    5  A    between atoms: N2_10  and  C7_11 
REMARK    6  A    between atoms: N2_10  and  C12_21 
REMARK    7  A    between atoms: C7_11  and  C8_12 
REMARK    8  A    between atoms: C8_12  and  O2_13 
REMARK    9  A    between atoms: C17_26  and  O3_27 
ROOT
HETATM    1  N2  UNL     1      -3.230  51.602  12.974  1.00  0.00    -0.354 N 
ENDROOT
BRANCH   1   2
HETATM    2  C1  UNL     1      -2.128  52.387  12.605  1.00  0.00     0.142 C 
BRANCH   2   3
HETATM    3  O1  UNL     1      -1.079  52.209  13.355  1.00  0.00    -0.348 OA
ATOM      4  H1  UNL     1      -0.885  52.910  13.966  1.00  0.00     0.219 HD
ENDBRANCH   2   3
BRANCH   2   5
HETATM    5  C2  UNL     1      -1.977  53.354  11.531  1.00  0.00     0.355 C 
BRANCH   5   6
HETATM    6  N1  UNL     1      -1.179  52.730  10.452  1.00  0.00     0.096 N 
HETATM    7  C3  UNL     1      -2.028  52.420   9.320  1.00  0.00     0.273 C 
HETATM    8  C4  UNL     1      -1.133  52.555   8.109  1.00  0.00     0.032 C 
HETATM    9  C5  UNL     1      -0.320  53.773   8.488  1.00  0.00     0.032 C 
HETATM   10  C6  UNL     1      -0.165  53.636   9.965  1.00  0.00     0.273 C 
ENDBRANCH   5   6
ENDBRANCH   2   5
ENDBRANCH   1   2
BRANCH   1  11
HETATM   11  C7  UNL     1      -2.979  50.161  13.115  1.00  0.00     0.164 C 
BRANCH  11  12
HETATM   12  C8  UNL     1      -2.828  49.386  11.895  1.00  0.00     0.099 C 
HETATM   13  C9  UNL     1      -3.723  49.638  10.745  1.00  0.00     0.068 C 
HETATM   14  C10 UNL     1      -3.058  48.788   9.651  1.00  0.00     0.235 C 
HETATM   15  N3  UNL     1      -1.771  48.369  10.189  1.00  0.00    -0.072 N 
HETATM   16  C11 UNL     1      -1.481  49.394  11.216  1.00  0.00     0.271 C 
ATOM     17  H32 UNL     1      -1.747  47.408  10.530  1.00  0.00     0.277 HD
ATOM     18  H31 UNL     1      -1.037  48.250   9.489  1.00  0.00     0.277 HD
BRANCH  12  19
HETATM   19  O2  UNL     1      -3.013  48.024  12.257  1.00  0.00    -0.386 OA
ATOM     20  H2  UNL     1      -3.375  47.590  11.494  1.00  0.00     0.210 HD
ENDBRANCH  12  19
ENDBRANCH  11  12
ENDBRANCH   1  11
BRANCH   1  21
HETATM   21  C12 UNL     1      -4.526  52.121  13.160  1.00  0.00     0.115 C 
HETATM   22  C13 UNL     1      -5.339  52.440  11.929  1.00  0.00     0.028 C 
HETATM   23  C14 UNL     1      -6.798  52.406  12.332  1.00  0.00     0.002 C 
HETATM   24  C15 UNL     1      -7.154  53.130  13.569  1.00  0.00     0.003 C 
HETATM   25  C16 UNL     1      -6.132  53.103  14.680  1.00  0.00     0.034 C 
HETATM   26  C17 UNL     1      -4.729  53.308  14.051  1.00  0.00     0.141 C 
BRANCH  26  27
HETATM   27  O3  UNL     1      -4.843  54.523  13.324  1.00  0.00    -0.394 OA
ATOM     28  H3  UNL     1      -4.783  55.289  13.882  1.00  0.00     0.210 HD
ENDBRANCH  26  27
ENDBRANCH   1  21
TORSDOF 9
ENDMDL
