MODEL 1
REMARK VINA RESULT: -5.279439674      0.000      0.000
REMARK  2 active torsions:
REMARK  status: ('A' for Active; 'I' for Inactive)
REMARK    1  A    between atoms: O1_2  and  N1_3 
REMARK    2  A    between atoms: C2_5  and  C3_6 
ROOT
HETATM    1  C3  UNL     1      14.347   9.594   7.012  1.00  0.00     0.026 C 
HETATM    2  C4  UNL     1      13.631   8.298   6.686  1.00  0.00     0.248 C 
HETATM    3  N2  UNL     1      14.256   7.208   7.420  1.00  0.00    -0.074 N 
ATOM      4  H21 UNL     1      15.086   6.868   6.934  1.00  0.00     0.277 HD
ATOM      5  H22 UNL     1      13.684   6.365   7.381  1.00  0.00     0.277 HD
HETATM    6  C5  UNL     1      14.563   7.560   8.776  1.00  0.00     0.237 C 
HETATM    7  C6  UNL     1      15.121   8.970   8.833  1.00  0.00     0.022 C 
HETATM    8  C7  UNL     1      15.767   9.206   7.457  1.00  0.00     0.024 C 
HETATM    9  C8  UNL     1      14.093   9.977   8.412  1.00  0.00    -0.021 A 
HETATM   10  C9  UNL     1      13.943  11.243   9.024  1.00  0.00     0.012 A 
HETATM   11  C10 UNL     1      12.812  10.179   9.033  1.00  0.00     0.012 A 
ENDROOT
BRANCH   1  12
HETATM   12  C2  UNL     1      14.303  10.630   5.981  1.00  0.00     0.099 C 
HETATM   13  N1  UNL     1      15.301  10.912   5.253  1.00  0.00    -0.281 N 
ATOM     14  H1  UNL     1      16.152  10.374   5.421  1.00  0.00     0.193 HD
BRANCH  13  15
HETATM   15  O1  UNL     1      15.362  11.843   4.281  1.00  0.00    -0.286 OA
HETATM   16  C1  UNL     1      16.525  12.214   3.578  1.00  0.00     0.237 C 
ENDBRANCH  13  15
ENDBRANCH   1  12
TORSDOF 2
ENDMDL
MODEL 2
REMARK VINA RESULT: -5.252449018      5.060      6.339
REMARK  2 active torsions:
REMARK  status: ('A' for Active; 'I' for Inactive)
REMARK    1  A    between atoms: O1_2  and  N1_3 
REMARK    2  A    between atoms: C2_5  and  C3_6 
ROOT
HETATM    1  C3  UNL     1      14.756  10.178   1.842  1.00  0.00     0.026 C 
HETATM    2  C4  UNL     1      14.751   8.863   2.596  1.00  0.00     0.248 C 
HETATM    3  N2  UNL     1      13.520   8.756   3.364  1.00  0.00    -0.074 N 
ATOM      4  H21 UNL     1      13.595   9.258   4.248  1.00  0.00     0.277 HD
ATOM      5  H22 UNL     1      13.392   7.809   3.721  1.00  0.00     0.277 HD
HETATM    6  C5  UNL     1      12.368   9.186   2.625  1.00  0.00     0.237 C 
HETATM    7  C6  UNL     1      12.698  10.439   1.835  1.00  0.00     0.022 C 
HETATM    8  C7  UNL     1      13.828  11.127   2.619  1.00  0.00     0.024 C 
HETATM    9  C8  UNL     1      13.730  10.162   0.784  1.00  0.00    -0.021 A 
HETATM   10  C9  UNL     1      13.708  10.739  -0.507  1.00  0.00     0.012 A 
HETATM   11  C10 UNL     1      13.607   9.206  -0.283  1.00  0.00     0.012 A 
ENDROOT
BRANCH   1  12
HETATM   12  C2  UNL     1      16.071  10.739   1.537  1.00  0.00     0.099 C 
HETATM   13  N1  UNL     1      16.980  10.072   0.959  1.00  0.00    -0.281 N 
ATOM     14  H1  UNL     1      16.749   9.109   0.712  1.00  0.00     0.193 HD
BRANCH  13  15
HETATM   15  O1  UNL     1      18.218  10.495   0.634  1.00  0.00    -0.286 OA
HETATM   16  C1  UNL     1      18.515  11.618  -0.160  1.00  0.00     0.237 C 
ENDBRANCH  13  15
ENDBRANCH   1  12
TORSDOF 2
ENDMDL
MODEL 3
REMARK VINA RESULT: -5.161742899      4.676      6.404
REMARK  2 active torsions:
REMARK  status: ('A' for Active; 'I' for Inactive)
REMARK    1  A    between atoms: O1_2  and  N1_3 
REMARK    2  A    between atoms: C2_5  and  C3_6 
ROOT
HETATM    1  C3  UNL     1      13.888  10.072   1.303  1.00  0.00     0.026 C 
HETATM    2  C4  UNL     1      12.751  10.567   2.176  1.00  0.00     0.248 C 
HETATM    3  N2  UNL     1      12.561   9.643   3.283  1.00  0.00    -0.074 N 
ATOM      4  H21 UNL     1      11.991   8.845   3.000  1.00  0.00     0.277 HD
ATOM      5  H22 UNL     1      11.946  10.043   3.992  1.00  0.00     0.277 HD
HETATM    6  C5  UNL     1      13.800   9.211   3.861  1.00  0.00     0.237 C 
HETATM    7  C6  UNL     1      14.813   8.931   2.767  1.00  0.00     0.022 C 
HETATM    8  C7  UNL     1      13.981   8.554   1.530  1.00  0.00     0.024 C 
HETATM    9  C8  UNL     1      15.168  10.184   2.023  1.00  0.00    -0.021 A 
HETATM   10  C9  UNL     1      16.475  10.481   1.571  1.00  0.00     0.012 A 
HETATM   11  C10 UNL     1      15.732  11.373   2.603  1.00  0.00     0.012 A 
ENDROOT
BRANCH   1  12
HETATM   12  C2  UNL     1      13.837  10.468  -0.105  1.00  0.00     0.099 C 
HETATM   13  N1  UNL     1      13.006   9.972  -0.923  1.00  0.00    -0.281 N 
ATOM     14  H1  UNL     1      12.364   9.272  -0.550  1.00  0.00     0.193 HD
BRANCH  13  15
HETATM   15  O1  UNL     1      12.878  10.267  -2.232  1.00  0.00    -0.286 OA
HETATM   16  C1  UNL     1      13.917  10.232  -3.181  1.00  0.00     0.237 C 
ENDBRANCH  13  15
ENDBRANCH   1  12
TORSDOF 2
ENDMDL
MODEL 4
REMARK VINA RESULT: -5.130587826      2.976      5.437
REMARK  2 active torsions:
REMARK  status: ('A' for Active; 'I' for Inactive)
REMARK    1  A    between atoms: O1_2  and  N1_3 
REMARK    2  A    between atoms: C2_5  and  C3_6 
ROOT
HETATM    1  C3  UNL     1      14.496   9.926   3.961  1.00  0.00     0.026 C 
HETATM    2  C4  UNL     1      15.062  11.332   3.931  1.00  0.00     0.248 C 
HETATM    3  N2  UNL     1      16.099  11.409   2.913  1.00  0.00    -0.074 N 
ATOM      4  H21 UNL     1      16.989  11.062   3.270  1.00  0.00     0.277 HD
ATOM      5  H22 UNL     1      16.360  12.378   2.729  1.00  0.00     0.277 HD
HETATM    6  C5  UNL     1      15.734  10.735   1.700  1.00  0.00     0.237 C 
HETATM    7  C6  UNL     1      15.043   9.424   2.024  1.00  0.00     0.022 C 
HETATM    8  C7  UNL     1      15.591   9.004   3.398  1.00  0.00     0.024 C 
HETATM    9  C8  UNL     1      13.739   9.656   2.726  1.00  0.00    -0.021 A 
HETATM   10  C9  UNL     1      12.575   8.887   2.489  1.00  0.00     0.012 A 
HETATM   11  C10 UNL     1      12.631  10.413   2.209  1.00  0.00     0.012 A 
ENDROOT
BRANCH   1  12
HETATM   12  C2  UNL     1      13.937   9.485   5.238  1.00  0.00     0.099 C 
HETATM   13  N1  UNL     1      13.765  10.272   6.216  1.00  0.00    -0.281 N 
ATOM     14  H1  UNL     1      14.039  11.244   6.070  1.00  0.00     0.193 HD
BRANCH  13  15
HETATM   15  O1  UNL     1      13.260   9.967   7.427  1.00  0.00    -0.286 OA
HETATM   16  C1  UNL     1      13.359  10.771   8.579  1.00  0.00     0.237 C 
ENDBRANCH  13  15
ENDBRANCH   1  12
TORSDOF 2
ENDMDL
MODEL 5
REMARK VINA RESULT: -5.105804776      3.118      4.613
REMARK  2 active torsions:
REMARK  status: ('A' for Active; 'I' for Inactive)
REMARK    1  A    between atoms: O1_2  and  N1_3 
REMARK    2  A    between atoms: C2_5  and  C3_6 
ROOT
HETATM    1  C3  UNL     1      15.811  10.152   3.236  1.00  0.00     0.026 C 
HETATM    2  C4  UNL     1      16.336   8.811   3.711  1.00  0.00     0.248 C 
HETATM    3  N2  UNL     1      16.176   8.719   5.154  1.00  0.00    -0.074 N 
ATOM      4  H21 UNL     1      16.943   9.187   5.638  1.00  0.00     0.277 HD
ATOM      5  H22 UNL     1      16.332   7.765   5.480  1.00  0.00     0.277 HD
HETATM    6  C5  UNL     1      14.907   9.215   5.603  1.00  0.00     0.237 C 
HETATM    7  C6  UNL     1      14.551  10.484   4.850  1.00  0.00     0.022 C 
HETATM    8  C7  UNL     1      15.898  11.104   4.440  1.00  0.00     0.024 C 
HETATM    9  C8  UNL     1      14.347  10.209   3.390  1.00  0.00    -0.021 A 
HETATM   10  C9  UNL     1      13.346  10.833   2.609  1.00  0.00     0.012 A 
HETATM   11  C10 UNL     1      13.384   9.297   2.835  1.00  0.00     0.012 A 
ENDROOT
BRANCH   1  12
HETATM   12  C2  UNL     1      16.409  10.679   2.009  1.00  0.00     0.099 C 
HETATM   13  N1  UNL     1      17.283  10.042   1.349  1.00  0.00    -0.281 N 
ATOM     14  H1  UNL     1      17.556   9.130   1.717  1.00  0.00     0.193 HD
BRANCH  13  15
HETATM   15  O1  UNL     1      17.892  10.437   0.213  1.00  0.00    -0.286 OA
HETATM   16  C1  UNL     1      18.297  11.752  -0.081  1.00  0.00     0.237 C 
ENDBRANCH  13  15
ENDBRANCH   1  12
TORSDOF 2
ENDMDL
