MODEL 1
REMARK VINA RESULT: -5.899262410      0.000      0.000
REMARK  1 active torsions:
REMARK  status: ('A' for Active; 'I' for Inactive)
REMARK    1  A    between atoms: O1_2  and  C2_3 
ROOT
HETATM    1  C2  UNL     1      15.875  11.238  -0.695  1.00  0.00     0.561 C 
HETATM    2  N1  UNL     1      15.678  10.178   0.247  1.00  0.00    -0.010 N 
ATOM      3  H11 UNL     1      16.069  10.387   1.166  1.00  0.00     0.283 HD
ATOM      4  H12 UNL     1      16.245   9.355   0.042  1.00  0.00     0.283 HD
HETATM    5  C3  UNL     1      14.260   9.885   0.293  1.00  0.00     0.157 C 
HETATM    6  C4  UNL     1      13.977   8.456   0.054  1.00  0.00     0.041 C 
HETATM    7  C5  UNL     1      13.730   7.622   1.252  1.00  0.00     0.002 C 
HETATM    8  C6  UNL     1      13.049   8.299   2.383  1.00  0.00     0.000 C 
HETATM    9  C7  UNL     1      13.735   9.606   2.734  1.00  0.00     0.002 C 
HETATM   10  C8  UNL     1      13.689  10.478   1.523  1.00  0.00     0.041 C 
HETATM   11  C9  UNL     1      13.709  10.678  -0.902  1.00  0.00     0.316 C 
HETATM   12  N2  UNL     1      14.851  11.015  -1.699  1.00  0.00     0.143 N 
HETATM   13  C10 UNL     1      15.268   9.935  -2.577  1.00  0.00     0.316 C 
ENDROOT
BRANCH   1  14
HETATM   14  O1  UNL     1      17.112  11.218  -1.294  1.00  0.00    -0.342 OA
HETATM   15  C1  UNL     1      18.065  11.599  -0.352  1.00  0.00     0.206 C 
ENDBRANCH   1  14
TORSDOF 1
ENDMDL
MODEL 2
REMARK VINA RESULT: -5.582881499      4.354      6.279
REMARK  1 active torsions:
REMARK  status: ('A' for Active; 'I' for Inactive)
REMARK    1  A    between atoms: O1_2  and  C2_3 
ROOT
HETATM    1  C2  UNL     1      13.789   9.168   3.826  1.00  0.00     0.561 C 
HETATM    2  N1  UNL     1      13.134   9.418   5.075  1.00  0.00    -0.010 N 
ATOM      3  H11 UNL     1      12.347   8.791   5.242  1.00  0.00     0.283 HD
ATOM      4  H12 UNL     1      12.613  10.295   5.079  1.00  0.00     0.283 HD
HETATM    5  C3  UNL     1      14.136   9.354   6.118  1.00  0.00     0.157 C 
HETATM    6  C4  UNL     1      14.146  10.569   6.958  1.00  0.00     0.041 C 
HETATM    7  C5  UNL     1      13.436  10.483   8.254  1.00  0.00     0.002 C 
HETATM    8  C6  UNL     1      13.471   9.159   8.925  1.00  0.00     0.000 C 
HETATM    9  C7  UNL     1      13.053   8.052   7.975  1.00  0.00     0.002 C 
HETATM   10  C8  UNL     1      14.007   8.061   6.826  1.00  0.00     0.041 C 
HETATM   11  C9  UNL     1      15.452   9.320   5.328  1.00  0.00     0.316 C 
HETATM   12  N2  UNL     1      15.113   9.735   4.000  1.00  0.00     0.143 N 
HETATM   13  C10 UNL     1      15.038  11.180   3.859  1.00  0.00     0.316 C 
ENDROOT
BRANCH   1  14
HETATM   14  O1  UNL     1      13.174   9.767   2.752  1.00  0.00    -0.342 OA
HETATM   15  C1  UNL     1      12.356   8.826   2.131  1.00  0.00     0.206 C 
ENDBRANCH   1  14
TORSDOF 1
ENDMDL
MODEL 3
REMARK VINA RESULT: -5.531843526      1.835      3.755
REMARK  1 active torsions:
REMARK  status: ('A' for Active; 'I' for Inactive)
REMARK    1  A    between atoms: O1_2  and  C2_3 
ROOT
HETATM    1  C2  UNL     1      15.445  10.467   1.298  1.00  0.00     0.561 C 
HETATM    2  N1  UNL     1      14.938  10.809   0.003  1.00  0.00    -0.010 N 
ATOM      3  H11 UNL     1      15.667  11.125  -0.637  1.00  0.00     0.283 HD
ATOM      4  H12 UNL     1      14.381  11.663   0.009  1.00  0.00     0.283 HD
HETATM    5  C3  UNL     1      14.206   9.665  -0.500  1.00  0.00     0.157 C 
HETATM    6  C4  UNL     1      12.832  10.016  -0.908  1.00  0.00     0.041 C 
HETATM    7  C5  UNL     1      12.606  10.230  -2.356  1.00  0.00     0.002 C 
HETATM    8  C6  UNL     1      13.423   9.393  -3.269  1.00  0.00     0.000 C 
HETATM    9  C7  UNL     1      14.895   9.464  -2.908  1.00  0.00     0.002 C 
HETATM   10  C8  UNL     1      15.040   8.969  -1.507  1.00  0.00     0.041 C 
HETATM   11  C9  UNL     1      14.110   8.752   0.731  1.00  0.00     0.316 C 
HETATM   12  N2  UNL     1      14.437   9.582   1.852  1.00  0.00     0.143 N 
HETATM   13  C10 UNL     1      13.310  10.372   2.320  1.00  0.00     0.316 C 
ENDROOT
BRANCH   1  14
HETATM   14  O1  UNL     1      15.605  11.551   2.129  1.00  0.00    -0.342 OA
HETATM   15  C1  UNL     1      16.966  11.839   2.220  1.00  0.00     0.206 C 
ENDBRANCH   1  14
TORSDOF 1
ENDMDL
MODEL 4
REMARK VINA RESULT: -5.405409130      6.550      8.515
REMARK  1 active torsions:
REMARK  status: ('A' for Active; 'I' for Inactive)
REMARK    1  A    between atoms: O1_2  and  C2_3 
ROOT
HETATM    1  C2  UNL     1      14.050   9.490   6.403  1.00  0.00     0.561 C 
HETATM    2  N1  UNL     1      14.235  10.548   7.351  1.00  0.00    -0.010 N 
ATOM      3  H11 UNL     1      13.719  11.394   7.105  1.00  0.00     0.283 HD
ATOM      4  H12 UNL     1      15.173  10.947   7.320  1.00  0.00     0.283 HD
HETATM    5  C3  UNL     1      13.884  10.036   8.659  1.00  0.00     0.157 C 
HETATM    6  C4  UNL     1      14.964  10.236   9.645  1.00  0.00     0.041 C 
HETATM    7  C5  UNL     1      14.821  11.394  10.556  1.00  0.00     0.002 C 
HETATM    8  C6  UNL     1      13.433  11.743  10.947  1.00  0.00     0.000 C 
HETATM    9  C7  UNL     1      12.535  11.865   9.730  1.00  0.00     0.002 C 
HETATM   10  C8  UNL     1      12.545  10.546   9.029  1.00  0.00     0.041 C 
HETATM   11  C9  UNL     1      13.751   8.526   8.410  1.00  0.00     0.316 C 
HETATM   12  N2  UNL     1      14.381   8.288   7.146  1.00  0.00     0.143 N 
HETATM   13  C10 UNL     1      15.826   8.168   7.246  1.00  0.00     0.316 C 
ENDROOT
BRANCH   1  14
HETATM   14  O1  UNL     1      14.870   9.586   5.304  1.00  0.00    -0.342 OA
HETATM   15  C1  UNL     1      14.818  10.895   4.828  1.00  0.00     0.206 C 
ENDBRANCH   1  14
TORSDOF 1
ENDMDL
MODEL 5
REMARK VINA RESULT: -5.404285015      5.108      7.145
REMARK  1 active torsions:
REMARK  status: ('A' for Active; 'I' for Inactive)
REMARK    1  A    between atoms: O1_2  and  C2_3 
ROOT
HETATM    1  C2  UNL     1      14.349   9.979   7.588  1.00  0.00     0.561 C 
HETATM    2  N1  UNL     1      13.722  10.343   6.353  1.00  0.00    -0.010 N 
ATOM      3  H11 UNL     1      13.550  11.346   6.277  1.00  0.00     0.283 HD
ATOM      4  H12 UNL     1      12.751  10.034   6.296  1.00  0.00     0.283 HD
HETATM    5  C3  UNL     1      14.540   9.829   5.275  1.00  0.00     0.157 C 
HETATM    6  C4  UNL     1      13.764   8.997   4.333  1.00  0.00     0.041 C 
HETATM    7  C5  UNL     1      13.320   9.654   3.083  1.00  0.00     0.002 C 
HETATM    8  C6  UNL     1      14.237  10.680   2.529  1.00  0.00     0.000 C 
HETATM    9  C7  UNL     1      14.633  11.691   3.590  1.00  0.00     0.002 C 
HETATM   10  C8  UNL     1      15.316  10.945   4.689  1.00  0.00     0.041 C 
HETATM   11  C9  UNL     1      15.530   8.910   6.005  1.00  0.00     0.316 C 
HETATM   12  N2  UNL     1      14.970   8.698   7.306  1.00  0.00     0.143 N 
HETATM   13  C10 UNL     1      13.956   7.658   7.324  1.00  0.00     0.316 C 
ENDROOT
BRANCH   1  14
HETATM   14  O1  UNL     1      13.465   9.836   8.632  1.00  0.00    -0.342 OA
HETATM   15  C1  UNL     1      13.075  11.104   9.057  1.00  0.00     0.206 C 
ENDBRANCH   1  14
TORSDOF 1
ENDMDL
