MODEL 1
REMARK VINA RESULT: -5.803936190      0.000      0.000
REMARK  2 active torsions:
REMARK  status: ('A' for Active; 'I' for Inactive)
REMARK    1  A    between atoms: C8_10  and  C9_11 
REMARK    2  A    between atoms: C9_11  and  N3_12 
ROOT
HETATM    1  N1  UNL     1      18.100  12.671  -0.174  1.00  0.00    -0.197 NA
HETATM    2  C1  UNL     1      17.423  11.751  -0.010  1.00  0.00     0.066 C 
HETATM    3  C2  UNL     1      16.566  10.602   0.193  1.00  0.00     0.128 C 
HETATM    4  C3  UNL     1      16.390  10.450   1.711  1.00  0.00     0.051 C 
HETATM    5  C4  UNL     1      14.972   9.973   1.854  1.00  0.00     0.274 C 
HETATM    6  N2  UNL     1      14.463   9.741   0.515  1.00  0.00     0.095 N 
HETATM    7  C5  UNL     1      13.056  10.098   0.507  1.00  0.00     0.273 C 
HETATM    8  C6  UNL     1      12.632  10.791  -0.748  1.00  0.00     0.031 C 
HETATM    9  C7  UNL     1      13.485  10.256  -1.895  1.00  0.00     0.010 C 
HETATM   10  C8  UNL     1      14.879  10.803  -1.666  1.00  0.00     0.046 C 
HETATM   11  C10 UNL     1      15.161  10.795  -0.229  1.00  0.00     0.246 C 
ENDROOT
BRANCH  10  12
HETATM   12  C9  UNL     1      15.857  10.094  -2.543  1.00  0.00     0.236 C 
BRANCH  12  13
HETATM   13  N3  UNL     1      15.475  10.045  -3.923  1.00  0.00    -0.079 N 
ATOM     14  H33 UNL     1      14.558  10.470  -4.056  1.00  0.00     0.274 HD
ATOM     15  H32 UNL     1      16.044  10.687  -4.475  1.00  0.00     0.274 HD
ATOM     16  H31 UNL     1      15.498   9.109  -4.327  1.00  0.00     0.274 HD
ENDBRANCH  12  13
ENDBRANCH  10  12
TORSDOF 2
ENDMDL
MODEL 2
REMARK VINA RESULT: -5.780371649      1.537      1.970
REMARK  2 active torsions:
REMARK  status: ('A' for Active; 'I' for Inactive)
REMARK    1  A    between atoms: C8_10  and  C9_11 
REMARK    2  A    between atoms: C9_11  and  N3_12 
ROOT
HETATM    1  N1  UNL     1      18.025  12.748  -0.210  1.00  0.00    -0.197 NA
HETATM    2  C1  UNL     1      17.593  11.822   0.326  1.00  0.00     0.066 C 
HETATM    3  C2  UNL     1      17.042  10.663   0.998  1.00  0.00     0.128 C 
HETATM    4  C3  UNL     1      17.560  10.709   2.443  1.00  0.00     0.051 C 
HETATM    5  C4  UNL     1      16.407  10.175   3.246  1.00  0.00     0.274 C 
HETATM    6  N2  UNL     1      15.398   9.734   2.301  1.00  0.00     0.095 N 
HETATM    7  C5  UNL     1      14.096  10.005   2.884  1.00  0.00     0.273 C 
HETATM    8  C6  UNL     1      13.096  10.495   1.887  1.00  0.00     0.031 C 
HETATM    9  C7  UNL     1      13.422   9.860   0.538  1.00  0.00     0.010 C 
HETATM   10  C8  UNL     1      14.706  10.512   0.070  1.00  0.00     0.046 C 
HETATM   11  C10 UNL     1      15.582  10.716   1.226  1.00  0.00     0.246 C 
ENDROOT
BRANCH  10  12
HETATM   12  C9  UNL     1      15.280   9.748  -1.076  1.00  0.00     0.236 C 
BRANCH  12  13
HETATM   13  N3  UNL     1      14.937   8.357  -1.080  1.00  0.00    -0.079 N 
ATOM     14  H33 UNL     1      13.929   8.237  -1.181  1.00  0.00     0.274 HD
ATOM     15  H32 UNL     1      15.250   7.913  -1.943  1.00  0.00     0.274 HD
ATOM     16  H31 UNL     1      15.279   7.842  -0.268  1.00  0.00     0.274 HD
ENDBRANCH  12  13
ENDBRANCH  10  12
TORSDOF 2
ENDMDL
MODEL 3
REMARK VINA RESULT: -5.561082386      1.833      3.728
REMARK  2 active torsions:
REMARK  status: ('A' for Active; 'I' for Inactive)
REMARK    1  A    between atoms: C8_10  and  C9_11 
REMARK    2  A    between atoms: C9_11  and  N3_12 
ROOT
HETATM    1  N1  UNL     1      13.184   6.702   1.665  1.00  0.00    -0.197 NA
HETATM    2  C1  UNL     1      13.458   7.822   1.719  1.00  0.00     0.066 C 
HETATM    3  C2  UNL     1      13.807   9.226   1.780  1.00  0.00     0.128 C 
HETATM    4  C3  UNL     1      14.575   9.429   3.094  1.00  0.00     0.051 C 
HETATM    5  C4  UNL     1      15.605  10.465   2.742  1.00  0.00     0.274 C 
HETATM    6  N2  UNL     1      15.326  10.900   1.387  1.00  0.00     0.095 N 
HETATM    7  C5  UNL     1      16.595  11.179   0.739  1.00  0.00     0.273 C 
HETATM    8  C6  UNL     1      16.635  10.741  -0.690  1.00  0.00     0.031 C 
HETATM    9  C7  UNL     1      15.226  10.868  -1.263  1.00  0.00     0.010 C 
HETATM   10  C8  UNL     1      14.410   9.776  -0.603  1.00  0.00     0.046 C 
HETATM   11  C10 UNL     1      14.825   9.654   0.796  1.00  0.00     0.246 C 
ENDROOT
BRANCH  10  12
HETATM   12  C9  UNL     1      12.955  10.006  -0.849  1.00  0.00     0.236 C 
BRANCH  12  13
HETATM   13  N3  UNL     1      12.635  10.313  -2.212  1.00  0.00    -0.079 N 
ATOM     14  H33 UNL     1      13.116  11.162  -2.509  1.00  0.00     0.274 HD
ATOM     15  H32 UNL     1      13.070   9.640  -2.842  1.00  0.00     0.274 HD
ATOM     16  H31 UNL     1      11.635  10.384  -2.397  1.00  0.00     0.274 HD
ENDBRANCH  12  13
ENDBRANCH  10  12
TORSDOF 2
ENDMDL
MODEL 4
REMARK VINA RESULT: -5.434365053      1.561      3.016
REMARK  2 active torsions:
REMARK  status: ('A' for Active; 'I' for Inactive)
REMARK    1  A    between atoms: C8_10  and  C9_11 
REMARK    2  A    between atoms: C9_11  and  N3_12 
ROOT
HETATM    1  N1  UNL     1      15.100  12.295   3.576  1.00  0.00    -0.197 NA
HETATM    2  C1  UNL     1      15.163  11.367   2.893  1.00  0.00     0.066 C 
HETATM    3  C2  UNL     1      15.239  10.209   2.028  1.00  0.00     0.128 C 
HETATM    4  C3  UNL     1      14.027   9.329   2.368  1.00  0.00     0.051 C 
HETATM    5  C4  UNL     1      13.632   8.748   1.039  1.00  0.00     0.274 C 
HETATM    6  N2  UNL     1      14.637   9.159   0.078  1.00  0.00     0.095 N 
HETATM    7  C5  UNL     1      13.972   9.379  -1.194  1.00  0.00     0.273 C 
HETATM    8  C6  UNL     1      14.502  10.562  -1.938  1.00  0.00     0.031 C 
HETATM    9  C7  UNL     1      15.984  10.709  -1.600  1.00  0.00     0.010 C 
HETATM   10  C8  UNL     1      16.037  11.170  -0.159  1.00  0.00     0.046 C 
HETATM   11  C10 UNL     1      14.986  10.486   0.597  1.00  0.00     0.246 C 
ENDROOT
BRANCH  10  12
HETATM   12  C9  UNL     1      17.429  11.042   0.367  1.00  0.00     0.236 C 
BRANCH  12  13
HETATM   13  N3  UNL     1      18.092  12.295   0.574  1.00  0.00    -0.079 N 
ATOM     14  H33 UNL     1      17.418  13.022   0.813  1.00  0.00     0.274 HD
ATOM     15  H32 UNL     1      18.635  12.274   1.437  1.00  0.00     0.274 HD
ATOM     16  H31 UNL     1      18.675  12.590  -0.208  1.00  0.00     0.274 HD
ENDBRANCH  12  13
ENDBRANCH  10  12
TORSDOF 2
ENDMDL
MODEL 5
REMARK VINA RESULT: -5.398934795      1.824      3.868
REMARK  2 active torsions:
REMARK  status: ('A' for Active; 'I' for Inactive)
REMARK    1  A    between atoms: C8_10  and  C9_11 
REMARK    2  A    between atoms: C9_11  and  N3_12 
ROOT
HETATM    1  N1  UNL     1      19.268  11.494  -0.177  1.00  0.00    -0.197 NA
HETATM    2  C1  UNL     1      18.116  11.485  -0.102  1.00  0.00     0.066 C 
HETATM    3  C2  UNL     1      16.672  11.467  -0.003  1.00  0.00     0.128 C 
HETATM    4  C3  UNL     1      16.151  10.879  -1.323  1.00  0.00     0.051 C 
HETATM    5  C4  UNL     1      14.949  10.082  -0.901  1.00  0.00     0.274 C 
HETATM    6  N2  UNL     1      14.744  10.334   0.513  1.00  0.00     0.095 N 
HETATM    7  C5  UNL     1      14.251   9.109   1.116  1.00  0.00     0.273 C 
HETATM    8  C6  UNL     1      14.823   8.849   2.472  1.00  0.00     0.031 C 
HETATM    9  C7  UNL     1      15.094  10.197   3.138  1.00  0.00     0.010 C 
HETATM   10  C8  UNL     1      16.265  10.800   2.392  1.00  0.00     0.046 C 
HETATM   11  C10 UNL     1      16.130  10.490   0.966  1.00  0.00     0.246 C 
ENDROOT
BRANCH  10  12
HETATM   12  C9  UNL     1      16.410  12.243   2.749  1.00  0.00     0.236 C 
BRANCH  12  13
HETATM   13  N3  UNL     1      17.317  12.487   3.831  1.00  0.00    -0.079 N 
ATOM     14  H33 UNL     1      17.171  11.810   4.580  1.00  0.00     0.274 HD
ATOM     15  H32 UNL     1      18.270  12.243   3.562  1.00  0.00     0.274 HD
ATOM     16  H31 UNL     1      17.281  13.439   4.196  1.00  0.00     0.274 HD
ENDBRANCH  12  13
ENDBRANCH  10  12
TORSDOF 2
ENDMDL
