MODEL 1
REMARK VINA RESULT: -5.222403858      0.000      0.000
REMARK  3 active torsions:
REMARK  status: ('A' for Active; 'I' for Inactive)
REMARK    1  A    between atoms: N1_1  and  N2_4 
REMARK       I    between atoms: N2_4  and  C1_5 
REMARK       I    between atoms: C1_5  and  N3_6 
REMARK       I    between atoms: C1_5  and  N4_10 
REMARK    2  A    between atoms: N4_10  and  N5_12 
REMARK    3  A    between atoms: C2_14  and  C3_15 
ROOT
HETATM    1  N2  UNL     1       7.551  40.987  18.385  1.00  0.00    -0.092 NA
HETATM    2  C1  UNL     1       8.633  41.762  18.939  1.00  0.00     0.410 C 
HETATM    3  N3  UNL     1       8.382  43.182  18.804  1.00  0.00    -0.041 N 
ATOM      4  H31 UNL     1       9.147  43.730  19.196  1.00  0.00     0.278 HD
ATOM      5  H32 UNL     1       7.484  43.444  19.211  1.00  0.00     0.278 HD
ATOM      6  H33 UNL     1       8.194  43.439  17.835  1.00  0.00     0.278 HD
HETATM    7  N4  UNL     1       8.961  41.407  20.297  1.00  0.00    -0.292 N 
ATOM      8  H4  UNL     1       9.905  41.076  20.498  1.00  0.00     0.184 HD
ENDROOT
BRANCH   7   9
HETATM    9  N5  UNL     1       8.050  41.494  21.350  1.00  0.00    -0.310 N 
HETATM   10  C2  UNL     1       8.120  42.339  22.294  1.00  0.00     0.156 C 
ATOM     11  H5  UNL     1       7.275  40.831  21.363  1.00  0.00     0.185 HD
BRANCH  10  12
HETATM   12  C3  UNL     1       9.155  43.351  22.434  1.00  0.00     0.138 A 
HETATM   13  N6  UNL     1      10.370  43.155  22.964  1.00  0.00    -0.335 N 
HETATM   14  C4  UNL     1      10.998  44.318  22.903  1.00  0.00     0.199 A 
ATOM     15  H6  UNL     1      10.739  42.281  23.339  1.00  0.00     0.168 HD
HETATM   16  N7  UNL     1      10.200  45.244  22.346  1.00  0.00    -0.295 N 
HETATM   17  N8  UNL     1       9.065  44.637  22.060  1.00  0.00    -0.283 N 
ATOM     18  H7  UNL     1      10.427  46.224  22.176  1.00  0.00     0.187 HD
ATOM     19  H8  UNL     1       8.252  45.074  21.626  1.00  0.00     0.188 HD
ENDBRANCH  10  12
ENDBRANCH   7   9
BRANCH   1  20
HETATM   20  N1  UNL     1       6.330  41.215  18.971  1.00  0.00    -0.345 N 
ATOM     21  H12 UNL     1       5.714  41.965  18.659  1.00  0.00     0.172 HD
ATOM     22  H11 UNL     1       6.100  40.575  19.731  1.00  0.00     0.172 HD
ENDBRANCH   1  20
TORSDOF 3
ENDMDL
MODEL 2
REMARK VINA RESULT: -5.184419264      2.768      6.294
REMARK  3 active torsions:
REMARK  status: ('A' for Active; 'I' for Inactive)
REMARK    1  A    between atoms: N1_1  and  N2_4 
REMARK       I    between atoms: N2_4  and  C1_5 
REMARK       I    between atoms: C1_5  and  N3_6 
REMARK       I    between atoms: C1_5  and  N4_10 
REMARK    2  A    between atoms: N4_10  and  N5_12 
REMARK    3  A    between atoms: C2_14  and  C3_15 
ROOT
HETATM    1  N2  UNL     1      14.201  46.898  23.134  1.00  0.00    -0.092 NA
HETATM    2  C1  UNL     1      13.509  45.887  23.894  1.00  0.00     0.410 C 
HETATM    3  N3  UNL     1      13.399  46.265  25.288  1.00  0.00    -0.041 N 
ATOM      4  H31 UNL     1      12.910  45.550  25.825  1.00  0.00     0.278 HD
ATOM      5  H32 UNL     1      12.962  47.180  25.395  1.00  0.00     0.278 HD
ATOM      6  H33 UNL     1      14.311  46.479  25.691  1.00  0.00     0.278 HD
HETATM    7  N4  UNL     1      12.230  45.522  23.340  1.00  0.00    -0.292 N 
ATOM      8  H4  UNL     1      12.080  44.551  23.064  1.00  0.00     0.184 HD
ENDROOT
BRANCH   7   9
HETATM    9  N5  UNL     1      11.188  46.431  23.161  1.00  0.00    -0.310 N 
HETATM   10  C2  UNL     1      10.066  46.148  22.638  1.00  0.00     0.156 C 
ATOM     11  H5  UNL     1      11.337  47.391  23.473  1.00  0.00     0.185 HD
BRANCH  10  12
HETATM   12  C3  UNL     1       9.685  44.836  22.140  1.00  0.00     0.138 A 
HETATM   13  N6  UNL     1       9.216  43.826  22.885  1.00  0.00    -0.335 N 
HETATM   14  C4  UNL     1       8.994  42.820  22.055  1.00  0.00     0.199 A 
ATOM     15  H6  UNL     1       9.061  43.831  23.893  1.00  0.00     0.168 HD
HETATM   16  N7  UNL     1       9.315  43.178  20.800  1.00  0.00    -0.295 N 
HETATM   17  N8  UNL     1       9.741  44.423  20.864  1.00  0.00    -0.283 N 
ATOM     18  H7  UNL     1       9.243  42.599  19.963  1.00  0.00     0.187 HD
ATOM     19  H8  UNL     1      10.060  44.982  20.073  1.00  0.00     0.188 HD
ENDBRANCH  10  12
ENDBRANCH   7   9
BRANCH   1  20
HETATM   20  N1  UNL     1      13.598  48.132  23.147  1.00  0.00    -0.345 N 
ATOM     21  H12 UNL     1      13.160  48.509  23.988  1.00  0.00     0.172 HD
ATOM     22  H11 UNL     1      13.628  48.626  22.256  1.00  0.00     0.172 HD
ENDBRANCH   1  20
TORSDOF 3
ENDMDL
MODEL 3
REMARK VINA RESULT: -5.143021317      2.795      6.338
REMARK  3 active torsions:
REMARK  status: ('A' for Active; 'I' for Inactive)
REMARK    1  A    between atoms: N1_1  and  N2_4 
REMARK       I    between atoms: N2_4  and  C1_5 
REMARK       I    between atoms: C1_5  and  N3_6 
REMARK       I    between atoms: C1_5  and  N4_10 
REMARK    2  A    between atoms: N4_10  and  N5_12 
REMARK    3  A    between atoms: C2_14  and  C3_15 
ROOT
HETATM    1  N2  UNL     1      14.206  46.911  23.139  1.00  0.00    -0.092 NA
HETATM    2  C1  UNL     1      13.515  45.898  23.898  1.00  0.00     0.410 C 
HETATM    3  N3  UNL     1      13.402  46.275  25.292  1.00  0.00    -0.041 N 
ATOM      4  H31 UNL     1      12.914  45.558  25.828  1.00  0.00     0.278 HD
ATOM      5  H32 UNL     1      12.963  47.189  25.399  1.00  0.00     0.278 HD
ATOM      6  H33 UNL     1      14.313  46.491  25.696  1.00  0.00     0.278 HD
HETATM    7  N4  UNL     1      12.237  45.530  23.341  1.00  0.00    -0.292 N 
ATOM      8  H4  UNL     1      12.089  44.560  23.065  1.00  0.00     0.184 HD
ENDROOT
BRANCH   7   9
HETATM    9  N5  UNL     1      11.193  46.437  23.162  1.00  0.00    -0.310 N 
HETATM   10  C2  UNL     1      10.071  46.151  22.641  1.00  0.00     0.156 C 
ATOM     11  H5  UNL     1      11.341  47.398  23.472  1.00  0.00     0.185 HD
BRANCH  10  12
HETATM   12  C3  UNL     1       9.693  44.837  22.145  1.00  0.00     0.138 A 
HETATM   13  N6  UNL     1       9.750  44.440  20.867  1.00  0.00    -0.335 N 
HETATM   14  C4  UNL     1       9.321  43.189  20.843  1.00  0.00     0.199 A 
ATOM     15  H6  UNL     1      10.063  44.994  20.069  1.00  0.00     0.168 HD
HETATM   16  N7  UNL     1       8.994  42.790  22.084  1.00  0.00    -0.295 N 
HETATM   17  N8  UNL     1       9.227  43.814  22.879  1.00  0.00    -0.283 N 
ATOM     18  H7  UNL     1       8.636  41.874  22.356  1.00  0.00     0.187 HD
ATOM     19  H8  UNL     1       9.077  43.828  23.888  1.00  0.00     0.188 HD
ENDBRANCH  10  12
ENDBRANCH   7   9
BRANCH   1  20
HETATM   20  N1  UNL     1      13.599  48.144  23.152  1.00  0.00    -0.345 N 
ATOM     21  H12 UNL     1      12.733  48.324  22.645  1.00  0.00     0.172 HD
ATOM     22  H11 UNL     1      14.086  48.848  23.707  1.00  0.00     0.172 HD
ENDBRANCH   1  20
TORSDOF 3
ENDMDL
MODEL 4
REMARK VINA RESULT: -5.113214372      1.324      4.624
REMARK  3 active torsions:
REMARK  status: ('A' for Active; 'I' for Inactive)
REMARK    1  A    between atoms: N1_1  and  N2_4 
REMARK       I    between atoms: N2_4  and  C1_5 
REMARK       I    between atoms: C1_5  and  N3_6 
REMARK       I    between atoms: C1_5  and  N4_10 
REMARK    2  A    between atoms: N4_10  and  N5_12 
REMARK    3  A    between atoms: C2_14  and  C3_15 
ROOT
HETATM    1  N2  UNL     1      10.507  45.001  22.746  1.00  0.00    -0.092 NA
HETATM    2  C1  UNL     1       9.449  44.668  21.824  1.00  0.00     0.410 C 
HETATM    3  N3  UNL     1       9.982  44.279  20.535  1.00  0.00    -0.041 N 
ATOM      4  H31 UNL     1       9.234  44.044  19.883  1.00  0.00     0.278 HD
ATOM      5  H32 UNL     1      10.658  43.520  20.622  1.00  0.00     0.278 HD
ATOM      6  H33 UNL     1      10.601  44.995  20.154  1.00  0.00     0.278 HD
HETATM    7  N4  UNL     1       8.525  43.686  22.335  1.00  0.00    -0.292 N 
ATOM      8  H4  UNL     1       7.542  43.944  22.421  1.00  0.00     0.184 HD
ENDROOT
BRANCH   7   9
HETATM    9  N5  UNL     1       8.911  42.402  22.719  1.00  0.00    -0.310 N 
HETATM   10  C2  UNL     1       8.708  41.354  22.032  1.00  0.00     0.156 C 
ATOM     11  H5  UNL     1       9.389  42.297  23.614  1.00  0.00     0.185 HD
BRANCH  10  12
HETATM   12  C3  UNL     1       8.043  41.319  20.739  1.00  0.00     0.138 A 
HETATM   13  N6  UNL     1       8.589  41.686  19.572  1.00  0.00    -0.335 N 
HETATM   14  C4  UNL     1       7.659  41.503  18.649  1.00  0.00     0.199 A 
ATOM     15  H6  UNL     1       9.536  42.037  19.424  1.00  0.00     0.168 HD
HETATM   16  N7  UNL     1       6.537  41.028  19.214  1.00  0.00    -0.295 N 
HETATM   17  N8  UNL     1       6.784  40.918  20.503  1.00  0.00    -0.283 N 
ATOM     18  H7  UNL     1       5.664  40.796  18.738  1.00  0.00     0.187 HD
ATOM     19  H8  UNL     1       6.126  40.583  21.207  1.00  0.00     0.188 HD
ENDBRANCH  10  12
ENDBRANCH   7   9
BRANCH   1  20
HETATM   20  N1  UNL     1      11.390  43.977  22.992  1.00  0.00    -0.345 N 
ATOM     21  H12 UNL     1      11.326  43.400  23.830  1.00  0.00     0.172 HD
ATOM     22  H11 UNL     1      12.101  43.851  22.272  1.00  0.00     0.172 HD
ENDBRANCH   1  20
TORSDOF 3
ENDMDL
MODEL 5
REMARK VINA RESULT: -5.079462900      0.546      1.044
REMARK  3 active torsions:
REMARK  status: ('A' for Active; 'I' for Inactive)
REMARK    1  A    between atoms: N1_1  and  N2_4 
REMARK       I    between atoms: N2_4  and  C1_5 
REMARK       I    between atoms: C1_5  and  N3_6 
REMARK       I    between atoms: C1_5  and  N4_10 
REMARK    2  A    between atoms: N4_10  and  N5_12 
REMARK    3  A    between atoms: C2_14  and  C3_15 
ROOT
HETATM    1  N2  UNL     1       7.544  40.993  18.400  1.00  0.00    -0.092 NA
HETATM    2  C1  UNL     1       8.609  41.809  18.928  1.00  0.00     0.410 C 
HETATM    3  N3  UNL     1       8.311  43.219  18.777  1.00  0.00    -0.041 N 
ATOM      4  H31 UNL     1       9.064  43.796  19.150  1.00  0.00     0.278 HD
ATOM      5  H32 UNL     1       7.411  43.459  19.194  1.00  0.00     0.278 HD
ATOM      6  H33 UNL     1       8.101  43.456  17.807  1.00  0.00     0.278 HD
HETATM    7  N4  UNL     1       8.967  41.484  20.286  1.00  0.00    -0.292 N 
ATOM      8  H4  UNL     1       9.923  41.186  20.477  1.00  0.00     0.184 HD
ENDROOT
BRANCH   7   9
HETATM    9  N5  UNL     1       8.070  41.558  21.351  1.00  0.00    -0.310 N 
HETATM   10  C2  UNL     1       8.156  42.385  22.310  1.00  0.00     0.156 C 
ATOM     11  H5  UNL     1       7.289  40.901  21.360  1.00  0.00     0.185 HD
BRANCH  10  12
HETATM   12  C3  UNL     1       9.201  43.386  22.457  1.00  0.00     0.138 A 
HETATM   13  N6  UNL     1       9.085  44.684  22.147  1.00  0.00    -0.335 N 
HETATM   14  C4  UNL     1      10.251  45.242  22.427  1.00  0.00     0.199 A 
ATOM     15  H6  UNL     1       8.260  45.150  21.768  1.00  0.00     0.168 HD
HETATM   16  N7  UNL     1      11.100  44.319  22.909  1.00  0.00    -0.295 N 
HETATM   17  N8  UNL     1      10.442  43.177  22.923  1.00  0.00    -0.283 N 
ATOM     18  H7  UNL     1      12.064  44.472  23.206  1.00  0.00     0.187 HD
ATOM     19  H8  UNL     1      10.816  42.281  23.237  1.00  0.00     0.188 HD
ENDBRANCH  10  12
ENDBRANCH   7   9
BRANCH   1  20
HETATM   20  N1  UNL     1       6.324  41.191  19.001  1.00  0.00    -0.345 N 
ATOM     21  H12 UNL     1       6.089  42.067  19.468  1.00  0.00     0.172 HD
ATOM     22  H11 UNL     1       5.689  40.396  18.938  1.00  0.00     0.172 HD
ENDBRANCH   1  20
TORSDOF 3
ENDMDL
