MODEL 1
REMARK VINA RESULT: -6.002149006      0.000      0.000
REMARK  6 active torsions:
REMARK  status: ('A' for Active; 'I' for Inactive)
REMARK    1  A    between atoms: N1_1  and  C1_4 
REMARK    2  A    between atoms: C2_9  and  C3_10 
REMARK    3  A    between atoms: C3_10  and  N4_11 
REMARK    4  A    between atoms: N4_11  and  N5_12 
REMARK    5  A    between atoms: N4_11  and  C4_15 
REMARK    6  A    between atoms: N6_16  and  N7_18 
ROOT
HETATM    1  C1  UNL     1      11.494  45.380  23.381  1.00  0.00     0.691 A 
HETATM    2  N2  UNL     1      10.547  46.234  22.955  1.00  0.00    -0.131 N 
ATOM      3  H2  UNL     1      10.479  47.220  23.203  1.00  0.00     0.205 HD
HETATM    4  N3  UNL     1       9.707  45.572  22.150  1.00  0.00    -0.273 N 
ATOM      5  H3  UNL     1       8.893  45.974  21.684  1.00  0.00     0.189 HD
HETATM    6  C2  UNL     1      10.108  44.293  22.054  1.00  0.00     0.132 A 
HETATM    7  N8  UNL     1      11.208  44.203  22.820  1.00  0.00    -0.177 N 
ATOM      8  H8  UNL     1      11.750  43.350  22.955  1.00  0.00     0.185 HD
ENDROOT
BRANCH   6   9
HETATM    9  C3  UNL     1       9.490  43.172  21.270  1.00  0.00     0.227 C 
BRANCH   9  10
HETATM   10  N4  UNL     1       8.511  42.480  22.048  1.00  0.00    -0.286 N 
BRANCH  10  11
HETATM   11  N5  UNL     1       8.591  42.484  23.433  1.00  0.00    -0.342 N 
ATOM     12  H52 UNL     1       9.374  42.951  23.891  1.00  0.00     0.177 HD
ATOM     13  H51 UNL     1       7.872  42.021  23.990  1.00  0.00     0.177 HD
ENDBRANCH  10  11
BRANCH  10  14
HETATM   14  C4  UNL     1       7.458  41.790  21.415  1.00  0.00     0.216 C 
HETATM   15  N6  UNL     1       7.512  41.496  20.165  1.00  0.00    -0.301 N 
ATOM     16  H6  UNL     1       8.335  41.771  19.628  1.00  0.00     0.187 HD
BRANCH  15  17
HETATM   17  N7  UNL     1       6.482  40.814  19.516  1.00  0.00    -0.344 N 
ATOM     18  H72 UNL     1       5.741  41.368  19.085  1.00  0.00     0.176 HD
ATOM     19  H71 UNL     1       6.453  39.796  19.462  1.00  0.00     0.176 HD
ENDBRANCH  15  17
ENDBRANCH  10  14
ENDBRANCH   9  10
ENDBRANCH   6   9
BRANCH   1  20
HETATM   20  N1  UNL     1      12.477  45.697  24.186  1.00  0.00    -0.233 N 
ATOM     21  H12 UNL     1      12.822  45.203  25.009  1.00  0.00     0.174 HD
ATOM     22  H11 UNL     1      13.059  46.529  24.092  1.00  0.00     0.174 HD
ENDBRANCH   1  20
TORSDOF 6
ENDMDL
MODEL 2
REMARK VINA RESULT: -5.866871137      1.614      2.553
REMARK  6 active torsions:
REMARK  status: ('A' for Active; 'I' for Inactive)
REMARK    1  A    between atoms: N1_1  and  C1_4 
REMARK    2  A    between atoms: C2_9  and  C3_10 
REMARK    3  A    between atoms: C3_10  and  N4_11 
REMARK    4  A    between atoms: N4_11  and  N5_12 
REMARK    5  A    between atoms: N4_11  and  C4_15 
REMARK    6  A    between atoms: N6_16  and  N7_18 
ROOT
HETATM    1  C1  UNL     1      10.163  45.316  22.549  1.00  0.00     0.691 A 
HETATM    2  N2  UNL     1      11.097  44.413  22.897  1.00  0.00    -0.131 N 
ATOM      3  H2  UNL     1      12.059  44.623  23.161  1.00  0.00     0.205 HD
HETATM    4  N3  UNL     1      10.552  43.192  22.839  1.00  0.00    -0.273 N 
ATOM      5  H3  UNL     1      11.033  42.318  23.052  1.00  0.00     0.189 HD
HETATM    6  C2  UNL     1       9.269  43.302  22.454  1.00  0.00     0.132 A 
HETATM    7  N8  UNL     1       9.057  44.618  22.283  1.00  0.00    -0.177 N 
ATOM      8  H8  UNL     1       8.170  45.027  21.989  1.00  0.00     0.185 HD
ENDROOT
BRANCH   6   9
HETATM    9  C3  UNL     1       8.255  42.216  22.248  1.00  0.00     0.227 C 
BRANCH   9  10
HETATM   10  N4  UNL     1       8.124  41.891  20.862  1.00  0.00    -0.286 N 
BRANCH  10  11
HETATM   11  N5  UNL     1       7.054  41.125  20.423  1.00  0.00    -0.342 N 
ATOM     12  H52 UNL     1       6.195  41.099  20.973  1.00  0.00     0.177 HD
ATOM     13  H51 UNL     1       7.127  40.590  19.558  1.00  0.00     0.177 HD
ENDBRANCH  10  11
BRANCH  10  14
HETATM   14  C4  UNL     1       9.079  42.347  19.932  1.00  0.00     0.216 C 
HETATM   15  N6  UNL     1       8.776  43.221  19.040  1.00  0.00    -0.301 N 
ATOM     16  H6  UNL     1       7.824  43.587  19.012  1.00  0.00     0.187 HD
BRANCH  15  17
HETATM   17  N7  UNL     1       9.704  43.688  18.109  1.00  0.00    -0.344 N 
ATOM     18  H72 UNL     1       9.689  43.278  17.175  1.00  0.00     0.176 HD
ATOM     19  H71 UNL     1      10.383  44.414  18.334  1.00  0.00     0.176 HD
ENDBRANCH  15  17
ENDBRANCH  10  14
ENDBRANCH   9  10
ENDBRANCH   6   9
BRANCH   1  20
HETATM   20  N1  UNL     1      10.359  46.610  22.498  1.00  0.00    -0.233 N 
ATOM     21  H12 UNL     1       9.907  47.309  21.908  1.00  0.00     0.174 HD
ATOM     22  H11 UNL     1      11.028  47.118  23.074  1.00  0.00     0.174 HD
ENDBRANCH   1  20
TORSDOF 6
ENDMDL
MODEL 3
REMARK VINA RESULT: -5.782398008      0.724      1.375
REMARK  6 active torsions:
REMARK  status: ('A' for Active; 'I' for Inactive)
REMARK    1  A    between atoms: N1_1  and  C1_4 
REMARK    2  A    between atoms: C2_9  and  C3_10 
REMARK    3  A    between atoms: C3_10  and  N4_11 
REMARK    4  A    between atoms: N4_11  and  N5_12 
REMARK    5  A    between atoms: N4_11  and  C4_15 
REMARK    6  A    between atoms: N6_16  and  N7_18 
ROOT
HETATM    1  C1  UNL     1      10.492  46.219  22.611  1.00  0.00     0.691 A 
HETATM    2  N2  UNL     1      11.364  45.424  23.258  1.00  0.00    -0.131 N 
ATOM      3  H2  UNL     1      12.069  45.733  23.926  1.00  0.00     0.205 HD
HETATM    4  N3  UNL     1      11.151  44.159  22.876  1.00  0.00    -0.273 N 
ATOM      5  H3  UNL     1      11.669  43.345  23.208  1.00  0.00     0.189 HD
HETATM    6  C2  UNL     1      10.145  44.133  21.986  1.00  0.00     0.132 A 
HETATM    7  N8  UNL     1       9.759  45.412  21.841  1.00  0.00    -0.177 N 
ATOM      8  H8  UNL     1       9.008  45.724  21.226  1.00  0.00     0.185 HD
ENDROOT
BRANCH   6   9
HETATM    9  C3  UNL     1       9.548  42.952  21.279  1.00  0.00     0.227 C 
BRANCH   9  10
HETATM   10  N4  UNL     1       8.448  42.414  22.016  1.00  0.00    -0.286 N 
BRANCH  10  11
HETATM   11  N5  UNL     1       8.332  42.663  23.376  1.00  0.00    -0.342 N 
ATOM     12  H52 UNL     1       8.946  43.348  23.816  1.00  0.00     0.177 HD
ATOM     13  H51 UNL     1       7.637  42.163  23.931  1.00  0.00     0.177 HD
ENDBRANCH  10  11
BRANCH  10  14
HETATM   14  C4  UNL     1       7.474  41.628  21.368  1.00  0.00     0.216 C 
HETATM   15  N6  UNL     1       7.404  41.579  20.085  1.00  0.00    -0.301 N 
ATOM     16  H6  UNL     1       8.070  42.122  19.534  1.00  0.00     0.187 HD
BRANCH  15  17
HETATM   17  N7  UNL     1       6.449  40.809  19.421  1.00  0.00    -0.344 N 
ATOM     18  H72 UNL     1       6.780  40.050  18.825  1.00  0.00     0.176 HD
ATOM     19  H71 UNL     1       5.449  40.983  19.515  1.00  0.00     0.176 HD
ENDBRANCH  15  17
ENDBRANCH  10  14
ENDBRANCH   9  10
ENDBRANCH   6   9
BRANCH   1  20
HETATM   20  N1  UNL     1      10.425  47.519  22.750  1.00  0.00    -0.233 N 
ATOM     21  H12 UNL     1      11.163  48.183  22.987  1.00  0.00     0.174 HD
ATOM     22  H11 UNL     1       9.576  48.072  22.633  1.00  0.00     0.174 HD
ENDBRANCH   1  20
TORSDOF 6
ENDMDL
MODEL 4
REMARK VINA RESULT: -5.725590805      1.526      5.276
REMARK  6 active torsions:
REMARK  status: ('A' for Active; 'I' for Inactive)
REMARK    1  A    between atoms: N1_1  and  C1_4 
REMARK    2  A    between atoms: C2_9  and  C3_10 
REMARK    3  A    between atoms: C3_10  and  N4_11 
REMARK    4  A    between atoms: N4_11  and  N5_12 
REMARK    5  A    between atoms: N4_11  and  C4_15 
REMARK    6  A    between atoms: N6_16  and  N7_18 
ROOT
HETATM    1  C1  UNL     1       7.718  41.358  18.446  1.00  0.00     0.691 A 
HETATM    2  N2  UNL     1       8.601  42.371  18.490  1.00  0.00    -0.131 N 
ATOM      3  H2  UNL     1       9.115  42.748  17.694  1.00  0.00     0.205 HD
HETATM    4  N3  UNL     1       8.693  42.801  19.754  1.00  0.00    -0.273 N 
ATOM      5  H3  UNL     1       9.290  43.562  20.078  1.00  0.00     0.189 HD
HETATM    6  C2  UNL     1       7.873  42.070  20.527  1.00  0.00     0.132 A 
HETATM    7  N8  UNL     1       7.286  41.191  19.697  1.00  0.00    -0.177 N 
ATOM      8  H8  UNL     1       6.603  40.491  19.986  1.00  0.00     0.185 HD
ENDROOT
BRANCH   6   9
HETATM    9  C3  UNL     1       7.631  42.179  22.004  1.00  0.00     0.227 C 
BRANCH   9  10
HETATM   10  N4  UNL     1       8.830  42.537  22.696  1.00  0.00    -0.286 N 
BRANCH  10  11
HETATM   11  N5  UNL     1       9.229  41.822  23.816  1.00  0.00    -0.342 N 
ATOM     12  H52 UNL     1       8.584  41.711  24.598  1.00  0.00     0.177 HD
ATOM     13  H51 UNL     1      10.162  41.412  23.856  1.00  0.00     0.177 HD
ENDBRANCH  10  11
BRANCH  10  14
HETATM   14  C4  UNL     1       9.614  43.618  22.245  1.00  0.00     0.216 C 
HETATM   15  N6  UNL     1       9.372  44.821  22.628  1.00  0.00    -0.301 N 
ATOM     16  H6  UNL     1       8.596  44.988  23.270  1.00  0.00     0.187 HD
BRANCH  15  17
HETATM   17  N7  UNL     1      10.134  45.907  22.196  1.00  0.00    -0.344 N 
ATOM     18  H72 UNL     1      10.870  46.248  22.813  1.00  0.00     0.176 HD
ATOM     19  H71 UNL     1       9.976  46.358  21.295  1.00  0.00     0.176 HD
ENDBRANCH  15  17
ENDBRANCH  10  14
ENDBRANCH   9  10
ENDBRANCH   6   9
BRANCH   1  20
HETATM   20  N1  UNL     1       7.388  40.703  17.361  1.00  0.00    -0.233 N 
ATOM     21  H12 UNL     1       7.855  39.911  16.917  1.00  0.00     0.174 HD
ATOM     22  H11 UNL     1       6.575  40.910  16.782  1.00  0.00     0.174 HD
ENDBRANCH   1  20
TORSDOF 6
ENDMDL
MODEL 5
REMARK VINA RESULT: -5.649273134      1.439      5.685
REMARK  6 active torsions:
REMARK  status: ('A' for Active; 'I' for Inactive)
REMARK    1  A    between atoms: N1_1  and  C1_4 
REMARK    2  A    between atoms: C2_9  and  C3_10 
REMARK    3  A    between atoms: C3_10  and  N4_11 
REMARK    4  A    between atoms: N4_11  and  N5_12 
REMARK    5  A    between atoms: N4_11  and  C4_15 
REMARK    6  A    between atoms: N6_16  and  N7_18 
ROOT
HETATM    1  C1  UNL     1       7.562  41.501  19.029  1.00  0.00     0.691 A 
HETATM    2  N2  UNL     1       6.764  40.824  19.874  1.00  0.00    -0.131 N 
ATOM      3  H2  UNL     1       6.026  40.175  19.604  1.00  0.00     0.205 HD
HETATM    4  N3  UNL     1       7.100  41.146  21.129  1.00  0.00    -0.273 N 
ATOM      5  H3  UNL     1       6.659  40.780  21.972  1.00  0.00     0.189 HD
HETATM    6  C2  UNL     1       8.113  42.028  21.099  1.00  0.00     0.132 A 
HETATM    7  N8  UNL     1       8.377  42.229  19.796  1.00  0.00    -0.177 N 
ATOM      8  H8  UNL     1       9.102  42.853  19.442  1.00  0.00     0.185 HD
ENDROOT
BRANCH   6   9
HETATM    9  C3  UNL     1       8.827  42.677  22.249  1.00  0.00     0.227 C 
BRANCH   9  10
HETATM   10  N4  UNL     1       9.717  43.697  21.791  1.00  0.00    -0.286 N 
BRANCH  10  11
HETATM   11  N5  UNL     1       9.482  44.337  20.583  1.00  0.00    -0.342 N 
ATOM     12  H52 UNL     1       8.523  44.519  20.288  1.00  0.00     0.177 HD
ATOM     13  H51 UNL     1      10.264  44.623  19.993  1.00  0.00     0.177 HD
ENDBRANCH  10  11
BRANCH  10  14
HETATM   14  C4  UNL     1      10.839  44.061  22.563  1.00  0.00     0.216 C 
HETATM   15  N6  UNL     1      11.005  45.270  22.967  1.00  0.00    -0.301 N 
ATOM     16  H6  UNL     1      10.308  45.973  22.720  1.00  0.00     0.187 HD
BRANCH  15  17
HETATM   17  N7  UNL     1      12.107  45.654  23.732  1.00  0.00    -0.344 N 
ATOM     18  H72 UNL     1      12.868  44.984  23.841  1.00  0.00     0.176 HD
ATOM     19  H71 UNL     1      12.168  46.571  24.175  1.00  0.00     0.176 HD
ENDBRANCH  15  17
ENDBRANCH  10  14
ENDBRANCH   9  10
ENDBRANCH   6   9
BRANCH   1  20
HETATM   20  N1  UNL     1       7.505  41.422  17.724  1.00  0.00    -0.233 N 
ATOM     21  H12 UNL     1       8.147  41.795  17.025  1.00  0.00     0.174 HD
ATOM     22  H11 UNL     1       6.766  40.950  17.203  1.00  0.00     0.174 HD
ENDBRANCH   1  20
TORSDOF 6
ENDMDL
