MODEL 1
REMARK VINA RESULT: -5.720161847      0.000      0.000
REMARK  4 active torsions:
REMARK  status: ('A' for Active; 'I' for Inactive)
REMARK    1  A    between atoms: C2_3  and  N2_4 
REMARK    2  A    between atoms: C2_3  and  N3_8 
REMARK    3  A    between atoms: N3_8  and  N4_10 
REMARK    4  A    between atoms: N4_10  and  C3_11 
ROOT
HETATM    1  N1  UNL     1       9.208  41.948  23.060  1.00  0.00    -0.193 NA
HETATM    2  C1  UNL     1       9.476  43.027  22.739  1.00  0.00     0.115 C 
HETATM    3  C2  UNL     1       9.836  44.411  22.342  1.00  0.00     0.400 C 
ENDROOT
BRANCH   3   4
HETATM    4  N2  UNL     1       9.714  44.477  20.904  1.00  0.00    -0.044 N 
ATOM      5  H23 UNL     1      10.445  45.034  20.463  1.00  0.00     0.278 HD
ATOM      6  H22 UNL     1       9.927  43.594  20.441  1.00  0.00     0.278 HD
ATOM      7  H21 UNL     1       8.774  44.818  20.704  1.00  0.00     0.278 HD
ENDBRANCH   3   4
BRANCH   3   8
HETATM    8  N3  UNL     1      11.158  44.650  22.818  1.00  0.00    -0.296 N 
ATOM      9  H3  UNL     1      11.908  43.969  22.697  1.00  0.00     0.179 HD
BRANCH   8  10
HETATM   10  N4  UNL     1      11.359  45.848  23.446  1.00  0.00    -0.116 NA
BRANCH  10  11
HETATM   11  C3  UNL     1      12.744  45.980  23.804  1.00  0.00     0.216 C 
HETATM   12  C4  UNL     1      12.969  46.255  25.261  1.00  0.00     0.166 C 
HETATM   13  N5  UNL     1      14.256  46.923  25.231  1.00  0.00    -0.361 N 
HETATM   14  C5  UNL     1      14.484  47.425  24.060  1.00  0.00     0.185 C 
ATOM     15  H5  UNL     1      14.894  46.988  26.025  1.00  0.00     0.162 HD
HETATM   16  N6  UNL     1      15.654  48.161  23.643  1.00  0.00    -0.064 NA
HETATM   17  N7  UNL     1      13.377  47.143  23.197  1.00  0.00    -0.343 N 
ATOM     18  H7  UNL     1      13.096  47.642  22.352  1.00  0.00     0.164 HD
ENDBRANCH  10  11
ENDBRANCH   8  10
ENDBRANCH   3   8
TORSDOF 4
ENDMDL
MODEL 2
REMARK VINA RESULT: -5.703273224      2.855      6.848
REMARK  4 active torsions:
REMARK  status: ('A' for Active; 'I' for Inactive)
REMARK    1  A    between atoms: C2_3  and  N2_4 
REMARK    2  A    between atoms: C2_3  and  N3_8 
REMARK    3  A    between atoms: N3_8  and  N4_10 
REMARK    4  A    between atoms: N4_10  and  C3_11 
ROOT
HETATM    1  N1  UNL     1      10.578  48.244  22.143  1.00  0.00    -0.193 NA
HETATM    2  C1  UNL     1      10.449  47.139  22.460  1.00  0.00     0.115 C 
HETATM    3  C2  UNL     1      10.271  45.718  22.849  1.00  0.00     0.400 C 
ENDROOT
BRANCH   3   4
HETATM    4  N2  UNL     1      11.574  45.224  23.232  1.00  0.00    -0.044 N 
ATOM      5  H23 UNL     1      11.547  44.285  23.629  1.00  0.00     0.278 HD
ATOM      6  H22 UNL     1      12.173  45.009  22.435  1.00  0.00     0.278 HD
ATOM      7  H21 UNL     1      11.977  45.916  23.864  1.00  0.00     0.278 HD
ENDBRANCH   3   4
BRANCH   3   8
HETATM    8  N3  UNL     1       9.710  45.045  21.724  1.00  0.00    -0.296 N 
ATOM      9  H3  UNL     1       9.185  45.541  21.003  1.00  0.00     0.179 HD
BRANCH   8  10
HETATM   10  N4  UNL     1       9.919  43.694  21.671  1.00  0.00    -0.116 NA
BRANCH  10  11
HETATM   11  C3  UNL     1       8.664  43.017  21.507  1.00  0.00     0.216 C 
HETATM   12  C4  UNL     1       8.557  41.742  22.290  1.00  0.00     0.166 C 
HETATM   13  N5  UNL     1       7.571  41.012  21.516  1.00  0.00    -0.361 N 
HETATM   14  C5  UNL     1       7.515  41.462  20.304  1.00  0.00     0.185 C 
ATOM     15  H5  UNL     1       6.998  40.248  21.878  1.00  0.00     0.162 HD
HETATM   16  N6  UNL     1       6.659  40.993  19.241  1.00  0.00    -0.064 NA
HETATM   17  N7  UNL     1       8.455  42.532  20.150  1.00  0.00    -0.343 N 
ATOM     18  H7  UNL     1       8.881  42.875  19.288  1.00  0.00     0.164 HD
ENDBRANCH  10  11
ENDBRANCH   8  10
ENDBRANCH   3   8
TORSDOF 4
ENDMDL
MODEL 3
REMARK VINA RESULT: -5.528179590      2.812      4.272
REMARK  4 active torsions:
REMARK  status: ('A' for Active; 'I' for Inactive)
REMARK    1  A    between atoms: C2_3  and  N2_4 
REMARK    2  A    between atoms: C2_3  and  N3_8 
REMARK    3  A    between atoms: N3_8  and  N4_10 
REMARK    4  A    between atoms: N4_10  and  C3_11 
ROOT
HETATM    1  N1  UNL     1       8.956  42.710  18.291  1.00  0.00    -0.193 NA
HETATM    2  C1  UNL     1       8.641  42.183  19.272  1.00  0.00     0.115 C 
HETATM    3  C2  UNL     1       8.246  41.524  20.542  1.00  0.00     0.400 C 
ENDROOT
BRANCH   3   4
HETATM    4  N2  UNL     1       6.916  40.995  20.342  1.00  0.00    -0.044 N 
ATOM      5  H23 UNL     1       6.849  39.995  20.526  1.00  0.00     0.278 HD
ATOM      6  H22 UNL     1       6.251  41.302  21.052  1.00  0.00     0.278 HD
ATOM      7  H21 UNL     1       6.639  41.249  19.394  1.00  0.00     0.278 HD
ENDBRANCH   3   4
BRANCH   3   8
HETATM    8  N3  UNL     1       8.323  42.513  21.566  1.00  0.00    -0.296 N 
ATOM      9  H3  UNL     1       7.565  43.176  21.736  1.00  0.00     0.179 HD
BRANCH   8  10
HETATM   10  N4  UNL     1       9.473  42.519  22.306  1.00  0.00    -0.116 NA
BRANCH  10  11
HETATM   11  C3  UNL     1      10.160  43.766  22.123  1.00  0.00     0.216 C 
HETATM   12  C4  UNL     1      11.368  43.927  22.996  1.00  0.00     0.166 C 
HETATM   13  N5  UNL     1      11.473  45.371  23.078  1.00  0.00    -0.361 N 
HETATM   14  C5  UNL     1      10.335  45.929  22.812  1.00  0.00     0.185 C 
ATOM     15  H5  UNL     1      12.327  45.878  23.313  1.00  0.00     0.162 HD
HETATM   16  N6  UNL     1      10.044  47.342  22.793  1.00  0.00    -0.064 NA
HETATM   17  N7  UNL     1       9.363  44.916  22.529  1.00  0.00    -0.343 N 
ATOM     18  H7  UNL     1       8.347  44.984  22.597  1.00  0.00     0.164 HD
ENDBRANCH  10  11
ENDBRANCH   8  10
ENDBRANCH   3   8
TORSDOF 4
ENDMDL
MODEL 4
REMARK VINA RESULT: -5.428189620      3.045      7.299
REMARK  4 active torsions:
REMARK  status: ('A' for Active; 'I' for Inactive)
REMARK    1  A    between atoms: C2_3  and  N2_4 
REMARK    2  A    between atoms: C2_3  and  N3_8 
REMARK    3  A    between atoms: N3_8  and  N4_10 
REMARK    4  A    between atoms: N4_10  and  C3_11 
ROOT
HETATM    1  N1  UNL     1      10.495  47.062  23.050  1.00  0.00    -0.193 NA
HETATM    2  C1  UNL     1      10.211  45.974  22.776  1.00  0.00     0.115 C 
HETATM    3  C2  UNL     1       9.838  44.587  22.405  1.00  0.00     0.400 C 
ENDROOT
BRANCH   3   4
HETATM    4  N2  UNL     1      10.958  43.745  22.758  1.00  0.00    -0.044 N 
ATOM      5  H23 UNL     1      11.643  43.651  22.009  1.00  0.00     0.278 HD
ATOM      6  H22 UNL     1      11.578  44.169  23.448  1.00  0.00     0.278 HD
ATOM      7  H21 UNL     1      10.570  42.852  23.062  1.00  0.00     0.278 HD
ENDBRANCH   3   4
BRANCH   3   8
HETATM    8  N3  UNL     1       9.541  44.593  21.011  1.00  0.00    -0.296 N 
ATOM      9  H3  UNL     1       9.146  45.410  20.545  1.00  0.00     0.179 HD
BRANCH   8  10
HETATM   10  N4  UNL     1       9.820  43.436  20.336  1.00  0.00    -0.116 NA
BRANCH  10  11
HETATM   11  C3  UNL     1       8.611  42.898  19.780  1.00  0.00     0.216 C 
HETATM   12  C4  UNL     1       7.942  41.880  20.655  1.00  0.00     0.166 C 
HETATM   13  N5  UNL     1       7.197  41.107  19.680  1.00  0.00    -0.361 N 
HETATM   14  C5  UNL     1       7.709  41.246  18.498  1.00  0.00     0.185 C 
ATOM     15  H5  UNL     1       6.381  40.533  19.894  1.00  0.00     0.162 HD
HETATM   16  N6  UNL     1       7.248  40.636  17.275  1.00  0.00    -0.064 NA
HETATM   17  N7  UNL     1       8.841  42.121  18.570  1.00  0.00    -0.343 N 
ATOM     18  H7  UNL     1       9.627  42.185  17.922  1.00  0.00     0.164 HD
ENDBRANCH  10  11
ENDBRANCH   8  10
ENDBRANCH   3   8
TORSDOF 4
ENDMDL
MODEL 5
REMARK VINA RESULT: -5.393337562      2.793      6.829
REMARK  4 active torsions:
REMARK  status: ('A' for Active; 'I' for Inactive)
REMARK    1  A    between atoms: C2_3  and  N2_4 
REMARK    2  A    between atoms: C2_3  and  N3_8 
REMARK    3  A    between atoms: N3_8  and  N4_10 
REMARK    4  A    between atoms: N4_10  and  C3_11 
ROOT
HETATM    1  N1  UNL     1      10.486  48.203  22.061  1.00  0.00    -0.193 NA
HETATM    2  C1  UNL     1      10.426  47.115  22.450  1.00  0.00     0.115 C 
HETATM    3  C2  UNL     1      10.333  45.715  22.933  1.00  0.00     0.400 C 
ENDROOT
BRANCH   3   4
HETATM    4  N2  UNL     1      11.677  45.297  23.260  1.00  0.00    -0.044 N 
ATOM      5  H23 UNL     1      12.231  45.045  22.441  1.00  0.00     0.278 HD
ATOM      6  H22 UNL     1      12.269  46.062  23.585  1.00  0.00     0.278 HD
ATOM      7  H21 UNL     1      11.593  44.539  23.937  1.00  0.00     0.278 HD
ENDBRANCH   3   4
BRANCH   3   8
HETATM    8  N3  UNL     1       9.733  44.953  21.889  1.00  0.00    -0.296 N 
ATOM      9  H3  UNL     1       9.622  45.322  20.944  1.00  0.00     0.179 HD
BRANCH   8  10
HETATM   10  N4  UNL     1       9.315  43.695  22.231  1.00  0.00    -0.116 NA
BRANCH  10  11
HETATM   11  C3  UNL     1       9.209  42.883  21.052  1.00  0.00     0.216 C 
HETATM   12  C4  UNL     1       9.267  43.663  19.773  1.00  0.00     0.166 C 
HETATM   13  N5  UNL     1       8.555  42.782  18.867  1.00  0.00    -0.361 N 
HETATM   14  C5  UNL     1       7.788  41.973  19.525  1.00  0.00     0.185 C 
ATOM     15  H5  UNL     1       8.646  42.798  17.851  1.00  0.00     0.162 HD
HETATM   16  N6  UNL     1       6.926  40.954  18.975  1.00  0.00    -0.064 NA
HETATM   17  N7  UNL     1       7.912  42.233  20.927  1.00  0.00    -0.343 N 
ATOM     18  H7  UNL     1       7.245  42.014  21.668  1.00  0.00     0.164 HD
ENDBRANCH  10  11
ENDBRANCH   8  10
ENDBRANCH   3   8
TORSDOF 4
ENDMDL
