MODEL 1
REMARK VINA RESULT: -6.488352366      0.000      0.000
REMARK  4 active torsions:
REMARK  status: ('A' for Active; 'I' for Inactive)
REMARK    1  A    between atoms: N1_1  and  C1_5 
REMARK    2  A    between atoms: C1_5  and  C2_6 
REMARK    3  A    between atoms: C2_6  and  N2_7 
REMARK    4  A    between atoms: N2_7  and  C3_9 
ROOT
HETATM    1  C3  UNL     1       8.825  42.983  21.812  1.00  0.00     0.118 A 
HETATM    2  C4  UNL     1       7.845  42.091  22.200  1.00  0.00     0.137 A 
HETATM    3  N3  UNL     1       7.190  41.364  21.256  1.00  0.00    -0.348 N 
ATOM      4  H3  UNL     1       6.465  40.704  21.534  1.00  0.00     0.166 HD
HETATM    5  C5  UNL     1       7.498  41.516  19.954  1.00  0.00     0.157 A 
HETATM    6  N4  UNL     1       6.860  40.795  18.910  1.00  0.00    -0.079 NA
HETATM    7  C6  UNL     1       8.480  42.413  19.594  1.00  0.00     0.159 A 
HETATM    8  N5  UNL     1       8.807  42.575  18.226  1.00  0.00    -0.079 NA
HETATM    9  N6  UNL     1       9.155  43.157  20.517  1.00  0.00    -0.327 N 
ATOM     10  H6  UNL     1       9.880  43.818  20.238  1.00  0.00     0.168 HD
ENDROOT
BRANCH   1  11
HETATM   11  N2  UNL     1       9.446  43.673  22.708  1.00  0.00    -0.374 N 
ATOM     12  H2  UNL     1       8.931  43.985  23.531  1.00  0.00     0.161 HD
BRANCH  11  13
HETATM   13  C2  UNL     1      10.848  44.021  22.589  1.00  0.00     0.148 C 
BRANCH  13  14
HETATM   14  C1  UNL     1      10.983  45.421  23.205  1.00  0.00     0.249 C 
BRANCH  14  15
HETATM   15  N1  UNL     1      10.163  46.297  22.388  1.00  0.00    -0.078 N 
ATOM     16  H13 UNL     1       9.970  45.923  21.458  1.00  0.00     0.274 HD
ATOM     17  H12 UNL     1       9.195  46.357  22.701  1.00  0.00     0.274 HD
ATOM     18  H11 UNL     1      10.643  47.197  22.373  1.00  0.00     0.274 HD
ENDBRANCH  14  15
ENDBRANCH  13  14
ENDBRANCH  11  13
ENDBRANCH   1  11
TORSDOF 4
ENDMDL
MODEL 2
REMARK VINA RESULT: -6.269821410      1.111      2.059
REMARK  4 active torsions:
REMARK  status: ('A' for Active; 'I' for Inactive)
REMARK    1  A    between atoms: N1_1  and  C1_5 
REMARK    2  A    between atoms: C1_5  and  C2_6 
REMARK    3  A    between atoms: C2_6  and  N2_7 
REMARK    4  A    between atoms: N2_7  and  C3_9 
ROOT
HETATM    1  C3  UNL     1       8.688  42.928  20.971  1.00  0.00     0.118 A 
HETATM    2  C4  UNL     1       9.360  43.317  19.830  1.00  0.00     0.137 A 
HETATM    3  N3  UNL     1       8.997  42.795  18.629  1.00  0.00    -0.348 N 
ATOM      4  H3  UNL     1       9.489  43.077  17.781  1.00  0.00     0.166 HD
HETATM    5  C5  UNL     1       7.989  41.905  18.557  1.00  0.00     0.157 A 
HETATM    6  N4  UNL     1       7.551  41.315  17.341  1.00  0.00    -0.079 NA
HETATM    7  C6  UNL     1       7.335  41.534  19.711  1.00  0.00     0.159 A 
HETATM    8  N5  UNL     1       6.274  40.599  19.639  1.00  0.00    -0.079 NA
HETATM    9  N6  UNL     1       7.675  42.039  20.932  1.00  0.00    -0.327 N 
ATOM     10  H6  UNL     1       7.183  41.756  21.779  1.00  0.00     0.168 HD
ENDROOT
BRANCH   1  11
HETATM   11  N2  UNL     1       9.032  43.423  22.111  1.00  0.00    -0.374 N 
ATOM     12  H2  UNL     1       8.321  43.530  22.836  1.00  0.00     0.161 HD
BRANCH  11  13
HETATM   13  C2  UNL     1      10.392  43.833  22.404  1.00  0.00     0.148 C 
BRANCH  13  14
HETATM   14  C1  UNL     1      10.314  45.331  22.728  1.00  0.00     0.249 C 
BRANCH  14  15
HETATM   15  N1  UNL     1      11.559  45.660  23.397  1.00  0.00    -0.078 N 
ATOM     16  H13 UNL     1      11.888  44.929  24.028  1.00  0.00     0.274 HD
ATOM     17  H12 UNL     1      12.368  45.659  22.775  1.00  0.00     0.274 HD
ATOM     18  H11 UNL     1      11.402  46.556  23.859  1.00  0.00     0.274 HD
ENDBRANCH  14  15
ENDBRANCH  13  14
ENDBRANCH  11  13
ENDBRANCH   1  11
TORSDOF 4
ENDMDL
MODEL 3
REMARK VINA RESULT: -6.144852308      1.063      1.086
REMARK  4 active torsions:
REMARK  status: ('A' for Active; 'I' for Inactive)
REMARK    1  A    between atoms: N1_1  and  C1_5 
REMARK    2  A    between atoms: C1_5  and  C2_6 
REMARK    3  A    between atoms: C2_6  and  N2_7 
REMARK    4  A    between atoms: N2_7  and  C3_9 
ROOT
HETATM    1  C3  UNL     1       9.016  43.223  21.448  1.00  0.00     0.118 A 
HETATM    2  C4  UNL     1       8.100  42.191  21.487  1.00  0.00     0.137 A 
HETATM    3  N3  UNL     1       7.699  41.607  20.327  1.00  0.00    -0.348 N 
ATOM      4  H3  UNL     1       7.022  40.845  20.348  1.00  0.00     0.166 HD
HETATM    5  C5  UNL     1       8.195  42.035  19.151  1.00  0.00     0.157 A 
HETATM    6  N4  UNL     1       7.827  41.477  17.897  1.00  0.00    -0.079 NA
HETATM    7  C6  UNL     1       9.108  43.066  19.139  1.00  0.00     0.159 A 
HETATM    8  N5  UNL     1       9.632  43.518  17.904  1.00  0.00    -0.079 NA
HETATM    9  N6  UNL     1       9.530  43.673  20.286  1.00  0.00    -0.327 N 
ATOM     10  H6  UNL     1      10.206  44.436  20.265  1.00  0.00     0.168 HD
ENDROOT
BRANCH   1  11
HETATM   11  N2  UNL     1       9.396  43.778  22.549  1.00  0.00    -0.374 N 
ATOM     12  H2  UNL     1       8.697  43.971  23.267  1.00  0.00     0.161 HD
BRANCH  11  13
HETATM   13  C2  UNL     1      10.777  44.136  22.805  1.00  0.00     0.148 C 
BRANCH  13  14
HETATM   14  C1  UNL     1      10.776  45.652  23.046  1.00  0.00     0.249 C 
BRANCH  14  15
HETATM   15  N1  UNL     1      12.149  46.008  23.353  1.00  0.00    -0.078 N 
ATOM     16  H13 UNL     1      12.357  46.005  24.352  1.00  0.00     0.274 HD
ATOM     17  H12 UNL     1      12.824  45.293  23.083  1.00  0.00     0.274 HD
ATOM     18  H11 UNL     1      12.312  46.910  22.906  1.00  0.00     0.274 HD
ENDBRANCH  14  15
ENDBRANCH  13  14
ENDBRANCH  11  13
ENDBRANCH   1  11
TORSDOF 4
ENDMDL
MODEL 4
REMARK VINA RESULT: -5.688069394      1.346      1.510
REMARK  4 active torsions:
REMARK  status: ('A' for Active; 'I' for Inactive)
REMARK    1  A    between atoms: N1_1  and  C1_5 
REMARK    2  A    between atoms: C1_5  and  C2_6 
REMARK    3  A    between atoms: C2_6  and  N2_7 
REMARK    4  A    between atoms: N2_7  and  C3_9 
ROOT
HETATM    1  C3  UNL     1       9.941  43.678  21.848  1.00  0.00     0.118 A 
HETATM    2  C4  UNL     1       8.928  42.852  22.291  1.00  0.00     0.137 A 
HETATM    3  N3  UNL     1       8.075  42.296  21.391  1.00  0.00    -0.348 N 
ATOM      4  H3  UNL     1       7.323  41.686  21.710  1.00  0.00     0.166 HD
HETATM    5  C5  UNL     1       8.222  42.550  20.077  1.00  0.00     0.157 A 
HETATM    6  N4  UNL     1       7.373  42.008  19.075  1.00  0.00    -0.079 NA
HETATM    7  C6  UNL     1       9.241  43.378  19.661  1.00  0.00     0.159 A 
HETATM    8  N5  UNL     1       9.400  43.648  18.280  1.00  0.00    -0.079 NA
HETATM    9  N6  UNL     1      10.113  43.952  20.540  1.00  0.00    -0.327 N 
ATOM     10  H6  UNL     1      10.864  44.563  20.219  1.00  0.00     0.168 HD
ENDROOT
BRANCH   1  11
HETATM   11  N2  UNL     1      10.749  44.206  22.703  1.00  0.00    -0.374 N 
ATOM     12  H2  UNL     1      11.378  43.597  23.227  1.00  0.00     0.161 HD
BRANCH  11  13
HETATM   13  C2  UNL     1      10.800  45.634  22.948  1.00  0.00     0.148 C 
BRANCH  13  14
HETATM   14  C1  UNL     1      12.095  45.876  23.735  1.00  0.00     0.249 C 
BRANCH  14  15
HETATM   15  N1  UNL     1      12.824  46.894  23.000  1.00  0.00    -0.078 N 
ATOM     16  H13 UNL     1      12.583  47.847  23.276  1.00  0.00     0.274 HD
ATOM     17  H12 UNL     1      13.813  46.942  23.244  1.00  0.00     0.274 HD
ATOM     18  H11 UNL     1      12.657  46.702  22.013  1.00  0.00     0.274 HD
ENDBRANCH  14  15
ENDBRANCH  13  14
ENDBRANCH  11  13
ENDBRANCH   1  11
TORSDOF 4
ENDMDL
MODEL 5
REMARK VINA RESULT: -5.685233032      1.041      1.138
REMARK  4 active torsions:
REMARK  status: ('A' for Active; 'I' for Inactive)
REMARK    1  A    between atoms: N1_1  and  C1_5 
REMARK    2  A    between atoms: C1_5  and  C2_6 
REMARK    3  A    between atoms: C2_6  and  N2_7 
REMARK    4  A    between atoms: N2_7  and  C3_9 
ROOT
HETATM    1  C3  UNL     1       8.422  42.676  21.385  1.00  0.00     0.118 A 
HETATM    2  C4  UNL     1       7.528  41.638  21.217  1.00  0.00     0.137 A 
HETATM    3  N3  UNL     1       7.307  41.138  19.972  1.00  0.00    -0.348 N 
ATOM      4  H3  UNL     1       6.648  40.372  19.840  1.00  0.00     0.166 HD
HETATM    5  C5  UNL     1       7.959  41.655  18.914  1.00  0.00     0.157 A 
HETATM    6  N4  UNL     1       7.784  41.189  17.583  1.00  0.00    -0.079 NA
HETATM    7  C6  UNL     1       8.846  42.691  19.108  1.00  0.00     0.159 A 
HETATM    8  N5  UNL     1       9.534  43.237  17.997  1.00  0.00    -0.079 NA
HETATM    9  N6  UNL     1       9.089  43.214  20.345  1.00  0.00    -0.327 N 
ATOM     10  H6  UNL     1       9.748  43.981  20.476  1.00  0.00     0.168 HD
ENDROOT
BRANCH   1  11
HETATM   11  N2  UNL     1       8.630  43.150  22.566  1.00  0.00    -0.374 N 
ATOM     12  H2  UNL     1       7.865  43.622  23.048  1.00  0.00     0.161 HD
BRANCH  11  13
HETATM   13  C2  UNL     1       9.911  43.038  23.236  1.00  0.00     0.148 C 
BRANCH  13  14
HETATM   14  C1  UNL     1      10.826  44.069  22.563  1.00  0.00     0.249 C 
BRANCH  14  15
HETATM   15  N1  UNL     1      10.209  45.362  22.796  1.00  0.00    -0.078 N 
ATOM     16  H13 UNL     1      10.154  45.615  23.782  1.00  0.00     0.274 HD
ATOM     17  H12 UNL     1      10.787  46.148  22.499  1.00  0.00     0.274 HD
ATOM     18  H11 UNL     1       9.300  45.327  22.333  1.00  0.00     0.274 HD
ENDBRANCH  14  15
ENDBRANCH  13  14
ENDBRANCH  11  13
ENDBRANCH   1  11
TORSDOF 4
ENDMDL
