MODEL 1
REMARK VINA RESULT: -5.768940920      0.000      0.000
REMARK  4 active torsions:
REMARK  status: ('A' for Active; 'I' for Inactive)
REMARK    1  A    between atoms: N1_4  and  N2_5 
REMARK    2  A    between atoms: N5_12  and  C4_13 
REMARK    3  A    between atoms: C4_13  and  C5_14 
REMARK    4  A    between atoms: N6_15  and  N7_17 
ROOT
HETATM    1  C1  UNL     1       7.339  42.295  22.046  1.00  0.00     0.040 C 
HETATM    2  C2  UNL     1       8.576  41.950  21.200  1.00  0.00     0.147 C 
HETATM    3  C3  UNL     1       8.190  41.208  19.958  1.00  0.00     0.137 C 
HETATM    4  N1  UNL     1       8.153  41.959  18.773  1.00  0.00    -0.201 N 
HETATM    5  N3  UNL     1       8.805  43.121  18.687  1.00  0.00    -0.208 N 
ATOM      6  H3  UNL     1       8.760  43.664  17.823  1.00  0.00     0.212 HD
HETATM    7  N4  UNL     1       9.524  43.583  19.730  1.00  0.00    -0.224 N 
ATOM      8  H4  UNL     1      10.242  44.291  19.572  1.00  0.00     0.210 HD
HETATM    9  N5  UNL     1       9.307  43.123  20.978  1.00  0.00    -0.277 N 
ENDROOT
BRANCH   9  10
HETATM   10  C4  UNL     1       9.390  44.098  21.984  1.00  0.00     0.131 C 
BRANCH  10  11
HETATM   11  C5  UNL     1      10.688  44.242  22.647  1.00  0.00     0.125 C 
HETATM   12  N6  UNL     1      11.035  45.417  23.054  1.00  0.00    -0.317 N 
ATOM     13  H6  UNL     1      10.380  46.180  22.888  1.00  0.00     0.185 HD
BRANCH  12  14
HETATM   14  N7  UNL     1      12.220  45.728  23.694  1.00  0.00    -0.345 N 
ATOM     15  H72 UNL     1      12.877  44.959  23.821  1.00  0.00     0.176 HD
ATOM     16  H71 UNL     1      12.481  46.650  24.043  1.00  0.00     0.176 HD
ENDBRANCH  12  14
ENDBRANCH  10  11
ENDBRANCH   9  10
BRANCH   4  17
HETATM   17  N2  UNL     1       7.227  41.658  17.826  1.00  0.00    -0.324 N 
ATOM     18  H22 UNL     1       7.466  41.802  16.845  1.00  0.00     0.179 HD
ATOM     19  H21 UNL     1       6.259  41.507  18.107  1.00  0.00     0.179 HD
ENDBRANCH   4  17
TORSDOF 4
ENDMDL
MODEL 2
REMARK VINA RESULT: -3.976990171      1.298      4.996
REMARK  4 active torsions:
REMARK  status: ('A' for Active; 'I' for Inactive)
REMARK    1  A    between atoms: N1_4  and  N2_5 
REMARK    2  A    between atoms: N5_12  and  C4_13 
REMARK    3  A    between atoms: C4_13  and  C5_14 
REMARK    4  A    between atoms: N6_15  and  N7_17 
ROOT
HETATM    1  C1  UNL     1       8.789  40.887  22.835  1.00  0.00     0.040 C 
HETATM    2  C2  UNL     1       8.275  42.281  22.442  1.00  0.00     0.147 C 
HETATM    3  C3  UNL     1       9.112  43.358  23.059  1.00  0.00     0.137 C 
HETATM    4  N1  UNL     1      10.054  43.969  22.218  1.00  0.00    -0.201 N 
HETATM    5  N3  UNL     1       9.928  43.893  20.890  1.00  0.00    -0.208 N 
ATOM      6  H3  UNL     1      10.627  44.331  20.289  1.00  0.00     0.212 HD
HETATM    7  N4  UNL     1       8.885  43.243  20.337  1.00  0.00    -0.224 N 
ATOM      8  H4  UNL     1       8.629  43.433  19.368  1.00  0.00     0.210 HD
HETATM    9  N5  UNL     1       8.173  42.344  21.048  1.00  0.00    -0.277 N 
ENDROOT
BRANCH   9  10
HETATM   10  C4  UNL     1       7.768  41.214  20.322  1.00  0.00     0.131 C 
BRANCH  10  11
HETATM   11  C5  UNL     1       7.135  41.463  19.026  1.00  0.00     0.125 C 
HETATM   12  N6  UNL     1       7.647  40.904  17.981  1.00  0.00    -0.317 N 
ATOM     13  H6  UNL     1       8.469  40.317  18.123  1.00  0.00     0.185 HD
BRANCH  12  14
HETATM   14  N7  UNL     1       7.177  41.033  16.688  1.00  0.00    -0.345 N 
ATOM     15  H72 UNL     1       6.802  41.947  16.436  1.00  0.00     0.176 HD
ATOM     16  H71 UNL     1       7.177  40.297  15.981  1.00  0.00     0.176 HD
ENDBRANCH  12  14
ENDBRANCH  10  11
ENDBRANCH   9  10
BRANCH   4  17
HETATM   17  N2  UNL     1      11.239  44.381  22.738  1.00  0.00    -0.324 N 
ATOM     18  H22 UNL     1      12.088  43.876  22.482  1.00  0.00     0.179 HD
ATOM     19  H21 UNL     1      11.239  45.029  23.524  1.00  0.00     0.179 HD
ENDBRANCH   4  17
TORSDOF 4
ENDMDL
MODEL 3
REMARK VINA RESULT: -3.738589970      1.586      2.051
REMARK  4 active torsions:
REMARK  status: ('A' for Active; 'I' for Inactive)
REMARK    1  A    between atoms: N1_4  and  N2_5 
REMARK    2  A    between atoms: N5_12  and  C4_13 
REMARK    3  A    between atoms: C4_13  and  C5_14 
REMARK    4  A    between atoms: N6_15  and  N7_17 
ROOT
HETATM    1  C1  UNL     1       9.971  43.318  19.528  1.00  0.00     0.040 C 
HETATM    2  C2  UNL     1       8.470  43.305  19.860  1.00  0.00     0.147 C 
HETATM    3  C3  UNL     1       7.679  42.672  18.757  1.00  0.00     0.137 C 
HETATM    4  N1  UNL     1       7.273  41.345  18.968  1.00  0.00    -0.201 N 
HETATM    5  N3  UNL     1       7.232  40.837  20.203  1.00  0.00    -0.208 N 
ATOM      6  H3  UNL     1       6.947  39.867  20.341  1.00  0.00     0.212 HD
HETATM    7  N4  UNL     1       7.563  41.595  21.267  1.00  0.00    -0.224 N 
ATOM      8  H4  UNL     1       7.254  41.316  22.199  1.00  0.00     0.210 HD
HETATM    9  N5  UNL     1       8.296  42.716  21.118  1.00  0.00    -0.277 N 
ENDROOT
BRANCH   9  10
HETATM   10  C4  UNL     1       9.240  42.936  22.132  1.00  0.00     0.131 C 
BRANCH  10  11
HETATM   11  C5  UNL     1       9.568  44.333  22.427  1.00  0.00     0.125 C 
HETATM   12  N6  UNL     1      10.761  44.604  22.839  1.00  0.00    -0.317 N 
ATOM     13  H6  UNL     1      11.409  43.823  22.935  1.00  0.00     0.185 HD
BRANCH  12  14
HETATM   14  N7  UNL     1      11.234  45.861  23.161  1.00  0.00    -0.345 N 
ATOM     15  H72 UNL     1      11.948  46.245  22.542  1.00  0.00     0.176 HD
ATOM     16  H71 UNL     1      10.929  46.424  23.955  1.00  0.00     0.176 HD
ENDBRANCH  12  14
ENDBRANCH  10  11
ENDBRANCH   9  10
BRANCH   4  17
HETATM   17  N2  UNL     1       7.207  40.496  17.910  1.00  0.00    -0.324 N 
ATOM     18  H22 UNL     1       6.904  40.862  17.008  1.00  0.00     0.179 HD
ATOM     19  H21 UNL     1       7.245  39.491  18.076  1.00  0.00     0.179 HD
ENDBRANCH   4  17
TORSDOF 4
ENDMDL
MODEL 4
REMARK VINA RESULT: -3.644376834      1.549      5.189
REMARK  4 active torsions:
REMARK  status: ('A' for Active; 'I' for Inactive)
REMARK    1  A    between atoms: N1_4  and  N2_5 
REMARK    2  A    between atoms: N5_12  and  C4_13 
REMARK    3  A    between atoms: C4_13  and  C5_14 
REMARK    4  A    between atoms: N6_15  and  N7_17 
ROOT
HETATM    1  C1  UNL     1       8.845  43.912  19.278  1.00  0.00     0.040 C 
HETATM    2  C2  UNL     1       9.479  43.049  20.380  1.00  0.00     0.147 C 
HETATM    3  C3  UNL     1      10.415  43.855  21.226  1.00  0.00     0.137 C 
HETATM    4  N1  UNL     1       9.922  44.274  22.471  1.00  0.00    -0.201 N 
HETATM    5  N3  UNL     1       8.874  43.660  23.027  1.00  0.00    -0.208 N 
ATOM      6  H3  UNL     1       8.517  43.983  23.927  1.00  0.00     0.212 HD
HETATM    7  N4  UNL     1       8.285  42.617  22.409  1.00  0.00    -0.224 N 
ATOM      8  H4  UNL     1       7.701  41.977  22.948  1.00  0.00     0.210 HD
HETATM    9  N5  UNL     1       8.456  42.406  21.088  1.00  0.00    -0.277 N 
ENDROOT
BRANCH   9  10
HETATM   10  C4  UNL     1       7.310  41.959  20.414  1.00  0.00     0.131 C 
BRANCH  10  11
HETATM   11  C5  UNL     1       7.531  41.086  19.259  1.00  0.00     0.125 C 
HETATM   12  N6  UNL     1       7.177  41.517  18.095  1.00  0.00    -0.317 N 
ATOM     13  H6  UNL     1       6.762  42.447  18.049  1.00  0.00     0.185 HD
BRANCH  12  14
HETATM   14  N7  UNL     1       7.313  40.826  16.906  1.00  0.00    -0.345 N 
ATOM     15  H72 UNL     1       7.309  39.808  16.976  1.00  0.00     0.176 HD
ATOM     16  H71 UNL     1       7.415  41.247  15.983  1.00  0.00     0.176 HD
ENDBRANCH  12  14
ENDBRANCH  10  11
ENDBRANCH   9  10
BRANCH   4  17
HETATM   17  N2  UNL     1      10.314  45.475  22.969  1.00  0.00    -0.324 N 
ATOM     18  H22 UNL     1      11.210  45.536  23.452  1.00  0.00     0.179 HD
ATOM     19  H21 UNL     1       9.631  46.228  23.047  1.00  0.00     0.179 HD
ENDBRANCH   4  17
TORSDOF 4
ENDMDL
MODEL 5
REMARK VINA RESULT: -3.621576511      2.297      2.835
REMARK  4 active torsions:
REMARK  status: ('A' for Active; 'I' for Inactive)
REMARK    1  A    between atoms: N1_4  and  N2_5 
REMARK    2  A    between atoms: N5_12  and  C4_13 
REMARK    3  A    between atoms: C4_13  and  C5_14 
REMARK    4  A    between atoms: N6_15  and  N7_17 
ROOT
HETATM    1  C1  UNL     1       9.794  43.665  20.049  1.00  0.00     0.040 C 
HETATM    2  C2  UNL     1       8.789  43.685  21.211  1.00  0.00     0.147 C 
HETATM    3  C3  UNL     1       7.754  42.615  21.049  1.00  0.00     0.137 C 
HETATM    4  N1  UNL     1       7.932  41.458  21.823  1.00  0.00    -0.201 N 
HETATM    5  N3  UNL     1       8.711  41.482  22.909  1.00  0.00    -0.208 N 
ATOM      6  H3  UNL     1       8.842  40.631  23.456  1.00  0.00     0.212 HD
HETATM    7  N4  UNL     1       9.324  42.621  23.287  1.00  0.00    -0.224 N 
ATOM      8  H4  UNL     1       9.661  42.717  24.245  1.00  0.00     0.210 HD
HETATM    9  N5  UNL     1       9.498  43.636  22.417  1.00  0.00    -0.277 N 
ENDROOT
BRANCH   9  10
HETATM   10  C4  UNL     1      10.726  44.304  22.536  1.00  0.00     0.131 C 
BRANCH  10  11
HETATM   11  C5  UNL     1      10.672  45.693  22.995  1.00  0.00     0.125 C 
HETATM   12  N6  UNL     1      10.292  46.597  22.155  1.00  0.00    -0.317 N 
ATOM     13  H6  UNL     1      10.049  46.286  21.215  1.00  0.00     0.185 HD
BRANCH  12  14
HETATM   14  N7  UNL     1      10.185  47.948  22.422  1.00  0.00    -0.345 N 
ATOM     15  H72 UNL     1      11.030  48.502  22.280  1.00  0.00     0.176 HD
ATOM     16  H71 UNL     1       9.342  48.425  22.743  1.00  0.00     0.176 HD
ENDBRANCH  12  14
ENDBRANCH  10  11
ENDBRANCH   9  10
BRANCH   4  17
HETATM   17  N2  UNL     1       7.558  40.256  21.315  1.00  0.00    -0.324 N 
ATOM     18  H22 UNL     1       7.793  40.040  20.346  1.00  0.00     0.179 HD
ATOM     19  H21 UNL     1       6.877  39.692  21.822  1.00  0.00     0.179 HD
ENDBRANCH   4  17
TORSDOF 4
ENDMDL
