MODEL 1
REMARK VINA RESULT: -6.231765886      0.000      0.000
REMARK  2 active torsions:
REMARK  status: ('A' for Active; 'I' for Inactive)
REMARK    1  A    between atoms: C3_8  and  C4_9 
REMARK    2  A    between atoms: N4_10  and  N5_12 
REMARK       I    between atoms: N5_12  and  C5_14 
REMARK       I    between atoms: C5_14  and  N6_15 
REMARK       I    between atoms: C5_14  and  N7_19 
ROOT
HETATM    1  C4  UNL     1       8.938  42.396  21.849  1.00  0.00     0.139 C 
HETATM    2  N4  UNL     1       9.525  43.525  21.897  1.00  0.00    -0.311 N 
ATOM      3  H4  UNL     1       9.449  44.111  21.065  1.00  0.00     0.185 HD
ENDROOT
BRANCH   2   4
HETATM    4  N5  UNL     1      10.246  44.041  22.943  1.00  0.00    -0.284 N 
HETATM    5  C5  UNL     1      11.034  45.230  22.748  1.00  0.00     0.494 C 
HETATM    6  N6  UNL     1      10.126  46.287  22.346  1.00  0.00    -0.032 N 
HETATM    7  N7  UNL     1      11.755  45.534  23.941  1.00  0.00    -0.032 N 
ATOM      8  H63 UNL     1       9.565  46.042  21.530  1.00  0.00     0.279 HD
ATOM      9  H62 UNL     1       9.356  46.422  23.000  1.00  0.00     0.279 HD
ATOM     10  H61 UNL     1      10.684  47.130  22.207  1.00  0.00     0.279 HD
ATOM     11  H73 UNL     1      11.140  45.610  24.751  1.00  0.00     0.279 HD
ATOM     12  H72 UNL     1      12.321  44.747  24.258  1.00  0.00     0.279 HD
ATOM     13  H71 UNL     1      12.312  46.377  23.803  1.00  0.00     0.279 HD
ATOM     14  H5  UNL     1      10.225  43.584  23.854  1.00  0.00     0.184 HD
ENDBRANCH   2   4
BRANCH   1  15
HETATM   15  C3  UNL     1       8.217  42.030  20.636  1.00  0.00     0.091 A 
HETATM   16  C1  UNL     1       8.444  42.490  19.338  1.00  0.00     0.145 A 
HETATM   17  N1  UNL     1       9.444  43.413  19.002  1.00  0.00    -0.080 NA
HETATM   18  N2  UNL     1       7.552  41.896  18.517  1.00  0.00    -0.339 N 
HETATM   19  C2  UNL     1       6.771  41.077  19.255  1.00  0.00     0.182 A 
ATOM     20  H2  UNL     1       7.480  42.041  17.510  1.00  0.00     0.167 HD
HETATM   21  N3  UNL     1       7.186  41.173  20.512  1.00  0.00    -0.348 N 
ATOM     22  H3  UNL     1       6.773  40.659  21.290  1.00  0.00     0.167 HD
ENDBRANCH   1  15
TORSDOF 2
ENDMDL
MODEL 2
REMARK VINA RESULT: -6.220144267      1.294      2.032
REMARK  2 active torsions:
REMARK  status: ('A' for Active; 'I' for Inactive)
REMARK    1  A    between atoms: C3_8  and  C4_9 
REMARK    2  A    between atoms: N4_10  and  N5_12 
REMARK       I    between atoms: N5_12  and  C5_14 
REMARK       I    between atoms: C5_14  and  N6_15 
REMARK       I    between atoms: C5_14  and  N7_19 
ROOT
HETATM    1  C4  UNL     1       9.422  43.391  19.762  1.00  0.00     0.139 C 
HETATM    2  N4  UNL     1       9.114  44.096  20.778  1.00  0.00    -0.311 N 
ATOM      3  H4  UNL     1       8.202  43.914  21.196  1.00  0.00     0.185 HD
ENDROOT
BRANCH   2   4
HETATM    4  N5  UNL     1       9.874  45.072  21.370  1.00  0.00    -0.284 N 
HETATM    5  C5  UNL     1      10.236  44.949  22.757  1.00  0.00     0.494 C 
HETATM    6  N6  UNL     1      11.002  43.725  22.897  1.00  0.00    -0.032 N 
HETATM    7  N7  UNL     1      10.955  46.109  23.175  1.00  0.00    -0.032 N 
ATOM      8  H63 UNL     1      10.511  42.905  22.538  1.00  0.00     0.279 HD
ATOM      9  H62 UNL     1      11.805  43.683  22.270  1.00  0.00     0.279 HD
ATOM     10  H61 UNL     1      11.258  43.638  23.880  1.00  0.00     0.279 HD
ATOM     11  H73 UNL     1      11.764  46.292  22.583  1.00  0.00     0.279 HD
ATOM     12  H72 UNL     1      10.437  46.968  22.988  1.00  0.00     0.279 HD
ATOM     13  H71 UNL     1      11.211  46.022  24.158  1.00  0.00     0.279 HD
ATOM     14  H5  UNL     1      10.181  45.881  20.830  1.00  0.00     0.184 HD
ENDBRANCH   2   4
BRANCH   1  15
HETATM   15  C3  UNL     1       8.468  42.398  19.283  1.00  0.00     0.091 A 
HETATM   16  C1  UNL     1       7.503  41.714  20.024  1.00  0.00     0.145 A 
HETATM   17  N1  UNL     1       7.306  41.895  21.400  1.00  0.00    -0.080 NA
HETATM   18  N2  UNL     1       6.836  40.890  19.191  1.00  0.00    -0.339 N 
HETATM   19  C2  UNL     1       7.347  41.031  17.949  1.00  0.00     0.182 A 
ATOM     20  H2  UNL     1       6.073  40.265  19.454  1.00  0.00     0.167 HD
HETATM   21  N3  UNL     1       8.317  41.933  18.028  1.00  0.00    -0.348 N 
ATOM     22  H3  UNL     1       8.879  42.239  17.234  1.00  0.00     0.167 HD
ENDBRANCH   1  15
TORSDOF 2
ENDMDL
MODEL 3
REMARK VINA RESULT: -5.923440615      1.888      3.170
REMARK  2 active torsions:
REMARK  status: ('A' for Active; 'I' for Inactive)
REMARK    1  A    between atoms: C3_8  and  C4_9 
REMARK    2  A    between atoms: N4_10  and  N5_12 
REMARK       I    between atoms: N5_12  and  C5_14 
REMARK       I    between atoms: C5_14  and  N6_15 
REMARK       I    between atoms: C5_14  and  N7_19 
ROOT
HETATM    1  C4  UNL     1      10.283  45.132  22.748  1.00  0.00     0.139 C 
HETATM    2  N4  UNL     1      11.496  44.995  23.110  1.00  0.00    -0.311 N 
ATOM      3  H4  UNL     1      12.043  44.296  22.607  1.00  0.00     0.185 HD
ENDROOT
BRANCH   2   4
HETATM    4  N5  UNL     1      12.148  45.684  24.100  1.00  0.00    -0.284 N 
HETATM    5  C5  UNL     1      13.417  46.304  23.820  1.00  0.00     0.494 C 
HETATM    6  N6  UNL     1      13.202  47.267  22.757  1.00  0.00    -0.032 N 
HETATM    7  N7  UNL     1      13.942  46.892  25.010  1.00  0.00    -0.032 N 
ATOM      8  H63 UNL     1      12.767  46.856  21.930  1.00  0.00     0.279 HD
ATOM      9  H62 UNL     1      12.467  47.940  22.971  1.00  0.00     0.279 HD
ATOM     10  H61 UNL     1      14.100  47.706  22.558  1.00  0.00     0.279 HD
ATOM     11  H73 UNL     1      13.284  47.543  25.438  1.00  0.00     0.279 HD
ATOM     12  H72 UNL     1      14.004  46.220  25.775  1.00  0.00     0.279 HD
ATOM     13  H71 UNL     1      14.840  47.331  24.811  1.00  0.00     0.279 HD
ATOM     14  H5  UNL     1      11.736  45.757  25.030  1.00  0.00     0.184 HD
ENDBRANCH   2   4
BRANCH   1  15
HETATM   15  C3  UNL     1       9.775  44.297  21.666  1.00  0.00     0.091 A 
HETATM   16  C1  UNL     1       9.298  42.989  21.750  1.00  0.00     0.145 A 
HETATM   17  N1  UNL     1       9.236  42.258  22.945  1.00  0.00    -0.080 NA
HETATM   18  N2  UNL     1       8.927  42.593  20.515  1.00  0.00    -0.339 N 
HETATM   19  C2  UNL     1       9.154  43.609  19.654  1.00  0.00     0.182 A 
ATOM     20  H2  UNL     1       8.540  41.681  20.271  1.00  0.00     0.167 HD
HETATM   21  N3  UNL     1       9.659  44.612  20.361  1.00  0.00    -0.348 N 
ATOM     22  H3  UNL     1       9.926  45.513  19.965  1.00  0.00     0.167 HD
ENDBRANCH   1  15
TORSDOF 2
ENDMDL
MODEL 4
REMARK VINA RESULT: -5.619553245      1.253      2.136
REMARK  2 active torsions:
REMARK  status: ('A' for Active; 'I' for Inactive)
REMARK    1  A    between atoms: C3_8  and  C4_9 
REMARK    2  A    between atoms: N4_10  and  N5_12 
REMARK       I    between atoms: N5_12  and  C5_14 
REMARK       I    between atoms: C5_14  and  N6_15 
REMARK       I    between atoms: C5_14  and  N7_19 
ROOT
HETATM    1  C4  UNL     1       9.469  43.768  20.695  1.00  0.00     0.139 C 
HETATM    2  N4  UNL     1       9.375  44.574  21.676  1.00  0.00    -0.311 N 
ATOM      3  H4  UNL     1       8.678  44.347  22.385  1.00  0.00     0.185 HD
ENDROOT
BRANCH   2   4
HETATM    4  N5  UNL     1      10.109  45.714  21.884  1.00  0.00    -0.284 N 
HETATM    5  C5  UNL     1      10.826  45.885  23.120  1.00  0.00     0.494 C 
HETATM    6  N6  UNL     1      11.773  44.791  23.224  1.00  0.00    -0.032 N 
HETATM    7  N7  UNL     1      11.448  47.169  23.147  1.00  0.00    -0.032 N 
ATOM      8  H63 UNL     1      11.334  43.874  23.140  1.00  0.00     0.279 HD
ATOM      9  H62 UNL     1      12.387  44.718  22.413  1.00  0.00     0.279 HD
ATOM     10  H61 UNL     1      12.282  44.911  24.099  1.00  0.00     0.279 HD
ATOM     11  H73 UNL     1      12.044  47.322  22.334  1.00  0.00     0.279 HD
ATOM     12  H72 UNL     1      10.780  47.922  22.984  1.00  0.00     0.279 HD
ATOM     13  H71 UNL     1      11.957  47.289  24.022  1.00  0.00     0.279 HD
ATOM     14  H5  UNL     1      10.146  46.438  21.166  1.00  0.00     0.184 HD
ENDBRANCH   2   4
BRANCH   1  15
HETATM   15  C3  UNL     1       8.591  42.604  20.658  1.00  0.00     0.091 A 
HETATM   16  C1  UNL     1       8.378  41.664  21.667  1.00  0.00     0.145 A 
HETATM   17  N1  UNL     1       9.008  41.708  22.918  1.00  0.00    -0.080 NA
HETATM   18  N2  UNL     1       7.489  40.754  21.216  1.00  0.00    -0.339 N 
HETATM   19  C2  UNL     1       7.135  41.089  19.957  1.00  0.00     0.182 A 
ATOM     20  H2  UNL     1       7.143  39.949  21.738  1.00  0.00     0.167 HD
HETATM   21  N3  UNL     1       7.803  42.193  19.646  1.00  0.00    -0.348 N 
ATOM     22  H3  UNL     1       7.728  42.673  18.749  1.00  0.00     0.167 HD
ENDBRANCH   1  15
TORSDOF 2
ENDMDL
MODEL 5
REMARK VINA RESULT: -5.541349173      0.865      1.197
REMARK  2 active torsions:
REMARK  status: ('A' for Active; 'I' for Inactive)
REMARK    1  A    between atoms: C3_8  and  C4_9 
REMARK    2  A    between atoms: N4_10  and  N5_12 
REMARK       I    between atoms: N5_12  and  C5_14 
REMARK       I    between atoms: C5_14  and  N6_15 
REMARK       I    between atoms: C5_14  and  N7_19 
ROOT
HETATM    1  C4  UNL     1       8.843  43.138  21.288  1.00  0.00     0.139 C 
HETATM    2  N4  UNL     1       9.255  44.270  20.875  1.00  0.00    -0.311 N 
ATOM      3  H4  UNL     1       9.060  44.496  19.900  1.00  0.00     0.185 HD
ENDROOT
BRANCH   2   4
HETATM    4  N5  UNL     1       9.932  45.219  21.598  1.00  0.00    -0.284 N 
HETATM    5  C5  UNL     1      10.398  44.907  22.923  1.00  0.00     0.494 C 
HETATM    6  N6  UNL     1      11.311  43.786  22.807  1.00  0.00    -0.032 N 
HETATM    7  N7  UNL     1      11.000  46.061  23.509  1.00  0.00    -0.032 N 
ATOM      8  H63 UNL     1      10.898  42.984  22.330  1.00  0.00     0.279 HD
ATOM      9  H62 UNL     1      12.069  43.956  22.147  1.00  0.00     0.279 HD
ATOM     10  H61 UNL     1      11.641  43.564  23.746  1.00  0.00     0.279 HD
ATOM     11  H73 UNL     1      11.740  46.445  22.923  1.00  0.00     0.279 HD
ATOM     12  H72 UNL     1      10.373  46.865  23.503  1.00  0.00     0.279 HD
ATOM     13  H71 UNL     1      11.331  45.839  24.448  1.00  0.00     0.279 HD
ATOM     14  H5  UNL     1      10.104  46.141  21.198  1.00  0.00     0.184 HD
ENDBRANCH   2   4
BRANCH   1  15
HETATM   15  C3  UNL     1       8.138  42.266  20.356  1.00  0.00     0.091 A 
HETATM   16  C1  UNL     1       8.318  42.169  18.975  1.00  0.00     0.145 A 
HETATM   17  N1  UNL     1       9.247  42.933  18.256  1.00  0.00    -0.080 NA
HETATM   18  N2  UNL     1       7.463  41.239  18.501  1.00  0.00    -0.339 N 
HETATM   19  C2  UNL     1       6.749  40.747  19.537  1.00  0.00     0.182 A 
ATOM     20  H2  UNL     1       7.370  40.956  17.526  1.00  0.00     0.167 HD
HETATM   21  N3  UNL     1       7.168  41.372  20.630  1.00  0.00    -0.348 N 
ATOM     22  H3  UNL     1       6.800  41.197  21.565  1.00  0.00     0.167 HD
ENDBRANCH   1  15
TORSDOF 2
ENDMDL
