MODEL 1
REMARK VINA RESULT: -6.055194132      0.000      0.000
REMARK  7 active torsions:
REMARK  status: ('A' for Active; 'I' for Inactive)
REMARK    1  A    between atoms: N1_1  and  C1_5 
REMARK    2  A    between atoms: C1_5  and  N2_6 
REMARK    3  A    between atoms: C1_5  and  C2_10 
REMARK    4  A    between atoms: C2_10  and  N3_11 
REMARK    5  A    between atoms: C2_10  and  C3_15 
REMARK    6  A    between atoms: C6_18  and  O1_19 
REMARK    7  A    between atoms: N4_21  and  N5_22 
ROOT
HETATM    1  C2  UNL     1       9.332  42.692  22.360  1.00  0.00     0.292 C 
ENDROOT
BRANCH   1   2
HETATM    2  C1  UNL     1       9.990  43.976  22.004  1.00  0.00     0.413 C 
BRANCH   2   3
HETATM    3  N1  UNL     1       9.290  45.129  22.546  1.00  0.00    -0.048 N 
ATOM      4  H13 UNL     1       8.656  44.898  23.311  1.00  0.00     0.276 HD
ATOM      5  H12 UNL     1       9.893  45.761  23.072  1.00  0.00     0.276 HD
ATOM      6  H11 UNL     1       8.827  45.574  21.753  1.00  0.00     0.276 HD
ENDBRANCH   2   3
BRANCH   2   7
HETATM    7  N2  UNL     1      11.315  43.972  22.640  1.00  0.00    -0.048 N 
ATOM      8  H23 UNL     1      12.044  44.393  22.065  1.00  0.00     0.276 HD
ATOM      9  H22 UNL     1      11.391  44.617  23.427  1.00  0.00     0.276 HD
ATOM     10  H21 UNL     1      11.504  43.001  22.890  1.00  0.00     0.276 HD
ENDBRANCH   2   7
ENDBRANCH   1   2
BRANCH   1  11
HETATM   11  N3  UNL     1       8.476  42.787  23.525  1.00  0.00    -0.066 N 
ATOM     12  H33 UNL     1       8.935  42.388  24.345  1.00  0.00     0.275 HD
ATOM     13  H32 UNL     1       8.392  43.755  23.833  1.00  0.00     0.275 HD
ATOM     14  H31 UNL     1       7.556  42.370  23.386  1.00  0.00     0.275 HD
ENDBRANCH   1  11
BRANCH   1  15
HETATM   15  C3  UNL     1       8.504  42.159  21.252  1.00  0.00     0.070 A 
HETATM   16  C4  UNL     1       7.441  41.287  21.242  1.00  0.00     0.034 A 
HETATM   17  C5  UNL     1       7.019  41.128  19.920  1.00  0.00     0.060 A 
HETATM   18  C6  UNL     1       7.844  41.915  19.149  1.00  0.00     0.161 A 
HETATM   19  N4  UNL     1       8.717  42.515  19.972  1.00  0.00    -0.243 N 
BRANCH  18  20
HETATM   20  O1  UNL     1       7.770  42.052  17.750  1.00  0.00    -0.345 OA
ATOM     21  H1  UNL     1       7.396  42.794  17.287  1.00  0.00     0.219 HD
ENDBRANCH  18  20
BRANCH  19  22
HETATM   22  N5  UNL     1       9.708  43.396  19.510  1.00  0.00    -0.336 N 
ATOM     23  H52 UNL     1      10.663  43.094  19.314  1.00  0.00     0.177 HD
ATOM     24  H51 UNL     1       9.591  44.392  19.325  1.00  0.00     0.177 HD
ENDBRANCH  19  22
ENDBRANCH   1  15
TORSDOF 7
ENDMDL
MODEL 2
REMARK VINA RESULT: -5.884976858      1.287      1.791
REMARK  7 active torsions:
REMARK  status: ('A' for Active; 'I' for Inactive)
REMARK    1  A    between atoms: N1_1  and  C1_5 
REMARK    2  A    between atoms: C1_5  and  N2_6 
REMARK    3  A    between atoms: C1_5  and  C2_10 
REMARK    4  A    between atoms: C2_10  and  N3_11 
REMARK    5  A    between atoms: C2_10  and  C3_15 
REMARK    6  A    between atoms: C6_18  and  O1_19 
REMARK    7  A    between atoms: N4_21  and  N5_22 
ROOT
HETATM    1  C2  UNL     1       9.503  42.934  22.094  1.00  0.00     0.292 C 
ENDROOT
BRANCH   1   2
HETATM    2  C1  UNL     1      10.385  44.129  22.039  1.00  0.00     0.413 C 
BRANCH   2   3
HETATM    3  N1  UNL     1       9.682  45.357  22.368  1.00  0.00    -0.048 N 
ATOM      4  H13 UNL     1       8.820  45.205  22.892  1.00  0.00     0.276 HD
ATOM      5  H12 UNL     1      10.157  45.921  23.074  1.00  0.00     0.276 HD
ATOM      6  H11 UNL     1       9.541  45.846  21.484  1.00  0.00     0.276 HD
ENDBRANCH   2   3
BRANCH   2   7
HETATM    7  N2  UNL     1      11.409  43.956  23.081  1.00  0.00    -0.048 N 
ATOM      8  H23 UNL     1      11.443  43.012  23.464  1.00  0.00     0.276 HD
ATOM      9  H22 UNL     1      12.363  43.979  22.721  1.00  0.00     0.276 HD
ATOM     10  H21 UNL     1      11.221  44.673  23.781  1.00  0.00     0.276 HD
ENDBRANCH   2   7
ENDBRANCH   1   2
BRANCH   1  11
HETATM   11  N3  UNL     1       8.424  43.060  23.055  1.00  0.00    -0.066 N 
ATOM     12  H33 UNL     1       7.663  43.621  22.672  1.00  0.00     0.275 HD
ATOM     13  H32 UNL     1       7.938  42.172  23.171  1.00  0.00     0.275 HD
ATOM     14  H31 UNL     1       8.727  43.428  23.956  1.00  0.00     0.275 HD
ENDBRANCH   1  11
BRANCH   1  15
HETATM   15  C3  UNL     1       8.885  42.631  20.782  1.00  0.00     0.070 A 
HETATM   16  C4  UNL     1       9.053  43.195  19.540  1.00  0.00     0.034 A 
HETATM   17  C5  UNL     1       8.227  42.520  18.637  1.00  0.00     0.060 A 
HETATM   18  C6  UNL     1       7.570  41.551  19.361  1.00  0.00     0.161 A 
HETATM   19  N4  UNL     1       7.984  41.643  20.633  1.00  0.00    -0.243 N 
BRANCH  18  20
HETATM   20  O1  UNL     1       6.635  40.635  18.840  1.00  0.00    -0.345 OA
ATOM     21  H1  UNL     1       6.768  39.698  18.757  1.00  0.00     0.219 HD
ENDBRANCH  18  20
BRANCH  19  22
HETATM   22  N5  UNL     1       7.509  40.794  21.646  1.00  0.00    -0.336 N 
ATOM     23  H52 UNL     1       7.829  39.831  21.750  1.00  0.00     0.177 HD
ATOM     24  H51 UNL     1       6.821  41.035  22.360  1.00  0.00     0.177 HD
ENDBRANCH  19  22
ENDBRANCH   1  15
TORSDOF 7
ENDMDL
MODEL 3
REMARK VINA RESULT: -5.834783225      1.506      2.378
REMARK  7 active torsions:
REMARK  status: ('A' for Active; 'I' for Inactive)
REMARK    1  A    between atoms: N1_1  and  C1_5 
REMARK    2  A    between atoms: C1_5  and  N2_6 
REMARK    3  A    between atoms: C1_5  and  C2_10 
REMARK    4  A    between atoms: C2_10  and  N3_11 
REMARK    5  A    between atoms: C2_10  and  C3_15 
REMARK    6  A    between atoms: C6_18  and  O1_19 
REMARK    7  A    between atoms: N4_21  and  N5_22 
ROOT
HETATM    1  C2  UNL     1       9.318  44.009  21.310  1.00  0.00     0.292 C 
ENDROOT
BRANCH   1   2
HETATM    2  C1  UNL     1      10.401  43.458  22.166  1.00  0.00     0.413 C 
BRANCH   2   3
HETATM    3  N1  UNL     1      11.155  44.496  22.848  1.00  0.00    -0.048 N 
ATOM      4  H13 UNL     1      11.229  45.363  22.315  1.00  0.00     0.276 HD
ATOM      5  H12 UNL     1      10.670  44.888  23.655  1.00  0.00     0.276 HD
ATOM      6  H11 UNL     1      12.059  44.081  23.078  1.00  0.00     0.276 HD
ENDBRANCH   2   3
BRANCH   2   7
HETATM    7  N2  UNL     1       9.753  42.668  23.224  1.00  0.00    -0.048 N 
ATOM      8  H23 UNL     1      10.219  42.739  24.128  1.00  0.00     0.276 HD
ATOM      9  H22 UNL     1       8.852  43.044  23.519  1.00  0.00     0.276 HD
ATOM     10  H21 UNL     1       9.699  41.714  22.868  1.00  0.00     0.276 HD
ENDBRANCH   2   7
ENDBRANCH   1   2
BRANCH   1  11
HETATM   11  N3  UNL     1       9.745  45.129  20.494  1.00  0.00    -0.066 N 
ATOM     12  H33 UNL     1      10.290  45.791  21.046  1.00  0.00     0.275 HD
ATOM     13  H32 UNL     1      10.458  44.839  19.826  1.00  0.00     0.275 HD
ATOM     14  H31 UNL     1       8.975  45.601  20.021  1.00  0.00     0.275 HD
ENDBRANCH   1  11
BRANCH   1  15
HETATM   15  C3  UNL     1       8.755  42.991  20.392  1.00  0.00     0.070 A 
HETATM   16  C4  UNL     1       9.085  42.637  19.106  1.00  0.00     0.034 A 
HETATM   17  C5  UNL     1       8.235  41.602  18.706  1.00  0.00     0.060 A 
HETATM   18  C6  UNL     1       7.400  41.349  19.771  1.00  0.00     0.161 A 
HETATM   19  N4  UNL     1       7.735  42.192  20.758  1.00  0.00    -0.243 N 
BRANCH  18  20
HETATM   20  O1  UNL     1       6.383  40.376  19.799  1.00  0.00    -0.345 OA
ATOM     21  H1  UNL     1       5.959  40.044  20.582  1.00  0.00     0.219 HD
ENDBRANCH  18  20
BRANCH  19  22
HETATM   22  N5  UNL     1       7.078  42.203  21.999  1.00  0.00    -0.336 N 
ATOM     23  H52 UNL     1       6.556  43.012  22.337  1.00  0.00     0.177 HD
ATOM     24  H51 UNL     1       7.049  41.437  22.672  1.00  0.00     0.177 HD
ENDBRANCH  19  22
ENDBRANCH   1  15
TORSDOF 7
ENDMDL
MODEL 4
REMARK VINA RESULT: -5.765786061      0.959      1.696
REMARK  7 active torsions:
REMARK  status: ('A' for Active; 'I' for Inactive)
REMARK    1  A    between atoms: N1_1  and  C1_5 
REMARK    2  A    between atoms: C1_5  and  N2_6 
REMARK    3  A    between atoms: C1_5  and  C2_10 
REMARK    4  A    between atoms: C2_10  and  N3_11 
REMARK    5  A    between atoms: C2_10  and  C3_15 
REMARK    6  A    between atoms: C6_18  and  O1_19 
REMARK    7  A    between atoms: N4_21  and  N5_22 
ROOT
HETATM    1  C2  UNL     1       8.927  43.572  21.329  1.00  0.00     0.292 C 
ENDROOT
BRANCH   1   2
HETATM    2  C1  UNL     1       9.757  42.933  22.384  1.00  0.00     0.413 C 
BRANCH   2   3
HETATM    3  N1  UNL     1      10.747  43.839  22.940  1.00  0.00    -0.048 N 
ATOM      4  H13 UNL     1      11.698  43.648  22.623  1.00  0.00     0.276 HD
ATOM      5  H12 UNL     1      10.682  44.788  22.571  1.00  0.00     0.276 HD
ATOM      6  H11 UNL     1      10.637  43.788  23.953  1.00  0.00     0.276 HD
ENDBRANCH   2   3
BRANCH   2   7
HETATM    7  N2  UNL     1       8.854  42.590  23.493  1.00  0.00    -0.048 N 
ATOM      8  H23 UNL     1       7.887  42.875  23.334  1.00  0.00     0.276 HD
ATOM      9  H22 UNL     1       8.674  41.589  23.577  1.00  0.00     0.276 HD
ATOM     10  H21 UNL     1       9.267  43.001  24.329  1.00  0.00     0.276 HD
ENDBRANCH   2   7
ENDBRANCH   1   2
BRANCH   1  11
HETATM   11  N3  UNL     1       9.685  44.435  20.446  1.00  0.00    -0.066 N 
ATOM     12  H33 UNL     1      10.667  44.157  20.423  1.00  0.00     0.275 HD
ATOM     13  H32 UNL     1       9.438  44.262  19.472  1.00  0.00     0.275 HD
ATOM     14  H31 UNL     1       9.595  45.425  20.672  1.00  0.00     0.275 HD
ENDBRANCH   1  11
BRANCH   1  15
HETATM   15  C3  UNL     1       8.236  42.575  20.478  1.00  0.00     0.070 A 
HETATM   16  C4  UNL     1       7.306  41.607  20.775  1.00  0.00     0.034 A 
HETATM   17  C5  UNL     1       6.975  40.941  19.591  1.00  0.00     0.060 A 
HETATM   18  C6  UNL     1       7.719  41.527  18.593  1.00  0.00     0.161 A 
HETATM   19  N4  UNL     1       8.459  42.496  19.153  1.00  0.00    -0.243 N 
BRANCH  18  20
HETATM   20  O1  UNL     1       7.695  41.162  17.233  1.00  0.00    -0.345 OA
ATOM     21  H1  UNL     1       7.712  40.272  16.901  1.00  0.00     0.219 HD
ENDBRANCH  18  20
BRANCH  19  22
HETATM   22  N5  UNL     1       9.340  43.299  18.412  1.00  0.00    -0.336 N 
ATOM     23  H52 UNL     1       9.741  42.999  17.523  1.00  0.00     0.177 HD
ATOM     24  H51 UNL     1       9.662  44.233  18.666  1.00  0.00     0.177 HD
ENDBRANCH  19  22
ENDBRANCH   1  15
TORSDOF 7
ENDMDL
MODEL 5
REMARK VINA RESULT: -5.562707352      1.516      2.222
REMARK  7 active torsions:
REMARK  status: ('A' for Active; 'I' for Inactive)
REMARK    1  A    between atoms: N1_1  and  C1_5 
REMARK    2  A    between atoms: C1_5  and  N2_6 
REMARK    3  A    between atoms: C1_5  and  C2_10 
REMARK    4  A    between atoms: C2_10  and  N3_11 
REMARK    5  A    between atoms: C2_10  and  C3_15 
REMARK    6  A    between atoms: C6_18  and  O1_19 
REMARK    7  A    between atoms: N4_21  and  N5_22 
ROOT
HETATM    1  C2  UNL     1       8.235  41.959  21.982  1.00  0.00     0.292 C 
ENDROOT
BRANCH   1   2
HETATM    2  C1  UNL     1       9.355  42.551  22.760  1.00  0.00     0.413 C 
BRANCH   2   3
HETATM    3  N1  UNL     1       9.256  43.996  22.869  1.00  0.00    -0.048 N 
ATOM      4  H13 UNL     1       8.883  44.443  22.031  1.00  0.00     0.276 HD
ATOM      5  H12 UNL     1       8.525  44.306  23.510  1.00  0.00     0.276 HD
ATOM      6  H11 UNL     1      10.187  44.323  23.126  1.00  0.00     0.276 HD
ENDBRANCH   2   3
BRANCH   2   7
HETATM    7  N2  UNL     1       9.247  42.032  24.131  1.00  0.00    -0.048 N 
ATOM      8  H23 UNL     1      10.149  41.869  24.577  1.00  0.00     0.276 HD
ATOM      9  H22 UNL     1       8.901  42.720  24.801  1.00  0.00     0.276 HD
ATOM     10  H21 UNL     1       8.666  41.196  24.071  1.00  0.00     0.276 HD
ENDBRANCH   2   7
ENDBRANCH   1   2
BRANCH   1  11
HETATM   11  N3  UNL     1       6.936  42.482  22.357  1.00  0.00    -0.066 N 
ATOM     12  H33 UNL     1       6.226  41.751  22.310  1.00  0.00     0.275 HD
ATOM     13  H32 UNL     1       6.903  42.686  23.355  1.00  0.00     0.275 HD
ATOM     14  H31 UNL     1       6.655  43.296  21.811  1.00  0.00     0.275 HD
ENDBRANCH   1  11
BRANCH   1  15
HETATM   15  C3  UNL     1       8.388  42.176  20.524  1.00  0.00     0.070 A 
HETATM   16  C4  UNL     1       9.237  42.984  19.803  1.00  0.00     0.034 A 
HETATM   17  C5  UNL     1       8.966  42.800  18.444  1.00  0.00     0.060 A 
HETATM   18  C6  UNL     1       7.949  41.876  18.371  1.00  0.00     0.161 A 
HETATM   19  N4  UNL     1       7.628  41.524  19.625  1.00  0.00    -0.243 N 
BRANCH  18  20
HETATM   20  O1  UNL     1       7.363  41.397  17.183  1.00  0.00    -0.345 OA
ATOM     21  H1  UNL     1       6.548  41.706  16.806  1.00  0.00     0.219 HD
ENDBRANCH  18  20
BRANCH  19  22
HETATM   22  N5  UNL     1       6.620  40.590  19.914  1.00  0.00    -0.336 N 
ATOM     23  H52 UNL     1       6.003  40.680  20.722  1.00  0.00     0.177 HD
ATOM     24  H51 UNL     1       6.400  39.755  19.373  1.00  0.00     0.177 HD
ENDBRANCH  19  22
ENDBRANCH   1  15
TORSDOF 7
ENDMDL
