MODEL 1
REMARK VINA RESULT: -5.858337105      0.000      0.000
REMARK  2 active torsions:
REMARK  status: ('A' for Active; 'I' for Inactive)
REMARK    1  A    between atoms: N1_1  and  C1_4 
REMARK    2  A    between atoms: C3_8  and  C4_9 
ROOT
HETATM    1  C4  UNL     1      21.096  42.561  39.254  1.00  0.00     0.021 A 
HETATM    2  C5  UNL     1      19.976  42.110  38.605  1.00  0.00     0.099 A 
HETATM    3  N3  UNL     1      18.846  41.340  39.062  1.00  0.00    -0.093 NA
HETATM    4  S1  UNL     1      20.184  42.665  36.995  1.00  0.00    -0.078 SA
HETATM    5  C6  UNL     1      21.667  43.447  37.177  1.00  0.00     0.001 A 
HETATM    6  C7  UNL     1      21.988  43.269  38.497  1.00  0.00    -0.029 A 
HETATM    7  C8  UNL     1      23.305  43.927  38.879  1.00  0.00     0.051 C 
HETATM    8  C9  UNL     1      24.450  43.185  38.183  1.00  0.00     0.079 C 
HETATM    9  S2  UNL     1      24.209  43.355  36.359  1.00  0.00    -0.164 SA
HETATM   10  C10 UNL     1      22.588  44.208  36.235  1.00  0.00     0.120 C 
ENDROOT
BRANCH   1  11
HETATM   11  C3  UNL     1      21.272  42.272  40.716  1.00  0.00     0.037 A 
HETATM   12  C2  UNL     1      21.422  41.093  41.354  1.00  0.00     0.110 A 
HETATM   13  N2  UNL     1      21.542  41.103  42.660  1.00  0.00    -0.346 N 
HETATM   14  C1  UNL     1      21.509  42.268  43.298  1.00  0.00     0.142 A 
ATOM     15  H2  UNL     1      21.657  40.232  43.177  1.00  0.00     0.167 HD
HETATM   16  S3  UNL     1      21.305  43.371  42.021  1.00  0.00    -0.052 SA
BRANCH  14  17
HETATM   17  N1  UNL     1      21.612  42.478  44.596  1.00  0.00    -0.380 N 
ATOM     18  H12 UNL     1      22.323  42.980  45.127  1.00  0.00     0.158 HD
ATOM     19  H11 UNL     1      20.975  42.168  45.330  1.00  0.00     0.158 HD
ENDBRANCH  14  17
ENDBRANCH   1  11
TORSDOF 2
ENDMDL
MODEL 2
REMARK VINA RESULT: -5.847367513      2.000      3.372
REMARK  2 active torsions:
REMARK  status: ('A' for Active; 'I' for Inactive)
REMARK    1  A    between atoms: N1_1  and  C1_4 
REMARK    2  A    between atoms: C3_8  and  C4_9 
ROOT
HETATM    1  C4  UNL     1      22.067  42.583  39.226  1.00  0.00     0.021 A 
HETATM    2  C5  UNL     1      23.187  43.033  38.576  1.00  0.00     0.099 A 
HETATM    3  N3  UNL     1      24.316  43.805  39.031  1.00  0.00    -0.093 NA
HETATM    4  S1  UNL     1      22.980  42.472  36.967  1.00  0.00    -0.078 SA
HETATM    5  C6  UNL     1      21.498  41.689  37.152  1.00  0.00     0.001 A 
HETATM    6  C7  UNL     1      21.177  41.872  38.471  1.00  0.00    -0.029 A 
HETATM    7  C8  UNL     1      19.860  41.214  38.854  1.00  0.00     0.051 C 
HETATM    8  C9  UNL     1      18.714  41.952  38.155  1.00  0.00     0.079 C 
HETATM    9  S2  UNL     1      18.957  41.776  36.332  1.00  0.00    -0.164 SA
HETATM   10  C10 UNL     1      20.578  40.925  36.211  1.00  0.00     0.120 C 
ENDROOT
BRANCH   1  11
HETATM   11  C3  UNL     1      21.890  42.877  40.687  1.00  0.00     0.037 A 
HETATM   12  C2  UNL     1      21.720  44.057  41.319  1.00  0.00     0.110 A 
HETATM   13  N2  UNL     1      21.604  44.052  42.625  1.00  0.00    -0.346 N 
HETATM   14  C1  UNL     1      21.660  42.892  43.270  1.00  0.00     0.142 A 
ATOM     15  H2  UNL     1      21.474  44.924  43.137  1.00  0.00     0.167 HD
HETATM   16  S3  UNL     1      21.881  41.785  41.998  1.00  0.00    -0.052 SA
BRANCH  14  17
HETATM   17  N1  UNL     1      21.565  42.687  44.569  1.00  0.00    -0.380 N 
ATOM     18  H12 UNL     1      22.113  42.082  45.181  1.00  0.00     0.158 HD
ATOM     19  H11 UNL     1      20.905  43.111  45.221  1.00  0.00     0.158 HD
ENDBRANCH  14  17
ENDBRANCH   1  11
TORSDOF 2
ENDMDL
MODEL 3
REMARK VINA RESULT: -5.079884257      3.550      6.143
REMARK  2 active torsions:
REMARK  status: ('A' for Active; 'I' for Inactive)
REMARK    1  A    between atoms: N1_1  and  C1_4 
REMARK    2  A    between atoms: C3_8  and  C4_9 
ROOT
HETATM    1  C4  UNL     1      22.761  43.339  37.967  1.00  0.00     0.021 A 
HETATM    2  C5  UNL     1      23.468  43.186  39.131  1.00  0.00     0.099 A 
HETATM    3  N3  UNL     1      24.882  43.230  39.408  1.00  0.00    -0.093 NA
HETATM    4  S1  UNL     1      22.257  42.893  40.311  1.00  0.00    -0.078 SA
HETATM    5  C6  UNL     1      20.898  42.969  39.316  1.00  0.00     0.001 A 
HETATM    6  C7  UNL     1      21.401  43.224  38.068  1.00  0.00    -0.029 A 
HETATM    7  C8  UNL     1      20.318  43.351  37.008  1.00  0.00     0.051 C 
HETATM    8  C9  UNL     1      19.664  41.981  36.800  1.00  0.00     0.079 C 
HETATM    9  S2  UNL     1      18.878  41.481  38.396  1.00  0.00    -0.164 SA
HETATM   10  C10 UNL     1      19.403  42.810  39.548  1.00  0.00     0.120 C 
ENDROOT
BRANCH   1  11
HETATM   11  C3  UNL     1      23.491  43.623  36.687  1.00  0.00     0.037 A 
HETATM   12  C2  UNL     1      24.664  43.135  36.232  1.00  0.00     0.110 A 
HETATM   13  N2  UNL     1      25.106  43.560  35.073  1.00  0.00    -0.346 N 
HETATM   14  C1  UNL     1      24.386  44.448  34.398  1.00  0.00     0.142 A 
ATOM     15  H2  UNL     1      25.988  43.214  34.697  1.00  0.00     0.167 HD
HETATM   16  S3  UNL     1      23.054  44.688  35.427  1.00  0.00    -0.052 SA
BRANCH  14  17
HETATM   17  N1  UNL     1      24.664  44.988  33.227  1.00  0.00    -0.380 N 
ATOM     18  H12 UNL     1      25.247  45.792  32.995  1.00  0.00     0.158 HD
ATOM     19  H11 UNL     1      24.336  44.689  32.309  1.00  0.00     0.158 HD
ENDBRANCH  14  17
ENDBRANCH   1  11
TORSDOF 2
ENDMDL
MODEL 4
REMARK VINA RESULT: -5.073114884      2.710      5.403
REMARK  2 active torsions:
REMARK  status: ('A' for Active; 'I' for Inactive)
REMARK    1  A    between atoms: N1_1  and  C1_4 
REMARK    2  A    between atoms: C3_8  and  C4_9 
ROOT
HETATM    1  C4  UNL     1      20.388  41.801  37.978  1.00  0.00     0.021 A 
HETATM    2  C5  UNL     1      19.677  41.959  39.139  1.00  0.00     0.099 A 
HETATM    3  N3  UNL     1      18.262  41.919  39.411  1.00  0.00    -0.093 NA
HETATM    4  S1  UNL     1      20.884  42.252  40.323  1.00  0.00    -0.078 SA
HETATM    5  C6  UNL     1      22.247  42.169  39.334  1.00  0.00     0.001 A 
HETATM    6  C7  UNL     1      21.747  41.912  38.084  1.00  0.00    -0.029 A 
HETATM    7  C8  UNL     1      22.835  41.780  37.029  1.00  0.00     0.051 C 
HETATM    8  C9  UNL     1      23.493  43.148  36.820  1.00  0.00     0.079 C 
HETATM    9  S2  UNL     1      24.274  43.649  38.417  1.00  0.00    -0.164 SA
HETATM   10  C10 UNL     1      23.742  42.325  39.572  1.00  0.00     0.120 C 
ENDROOT
BRANCH   1  11
HETATM   11  C3  UNL     1      19.662  41.516  36.697  1.00  0.00     0.037 A 
HETATM   12  C2  UNL     1      18.479  41.985  36.248  1.00  0.00     0.110 A 
HETATM   13  N2  UNL     1      18.044  41.564  35.085  1.00  0.00    -0.346 N 
HETATM   14  C1  UNL     1      18.781  40.696  34.400  1.00  0.00     0.142 A 
ATOM     15  H2  UNL     1      17.155  41.896  34.713  1.00  0.00     0.167 HD
HETATM   16  S3  UNL     1      20.118  40.472  35.426  1.00  0.00    -0.052 SA
BRANCH  14  17
HETATM   17  N1  UNL     1      18.512  40.162  33.225  1.00  0.00    -0.380 N 
ATOM     18  H12 UNL     1      18.492  39.184  32.935  1.00  0.00     0.158 HD
ATOM     19  H11 UNL     1      18.265  40.647  32.362  1.00  0.00     0.158 HD
ENDBRANCH  14  17
ENDBRANCH   1  11
TORSDOF 2
ENDMDL
MODEL 5
REMARK VINA RESULT: -4.993166665      2.719      5.330
REMARK  2 active torsions:
REMARK  status: ('A' for Active; 'I' for Inactive)
REMARK    1  A    between atoms: N1_1  and  C1_4 
REMARK    2  A    between atoms: C3_8  and  C4_9 
ROOT
HETATM    1  C4  UNL     1      20.535  41.720  37.853  1.00  0.00     0.021 A 
HETATM    2  C5  UNL     1      19.799  41.910  38.993  1.00  0.00     0.099 A 
HETATM    3  N3  UNL     1      18.387  41.784  39.256  1.00  0.00    -0.093 NA
HETATM    4  S1  UNL     1      20.965  42.380  40.161  1.00  0.00    -0.078 SA
HETATM    5  C6  UNL     1      22.343  42.327  39.190  1.00  0.00     0.001 A 
HETATM    6  C7  UNL     1      21.881  41.941  37.960  1.00  0.00    -0.029 A 
HETATM    7  C8  UNL     1      22.989  41.813  36.926  1.00  0.00     0.051 C 
HETATM    8  C9  UNL     1      23.545  43.208  36.620  1.00  0.00     0.079 C 
HETATM    9  S2  UNL     1      24.266  43.884  38.180  1.00  0.00    -0.164 SA
HETATM   10  C10 UNL     1      23.819  42.613  39.427  1.00  0.00     0.120 C 
ENDROOT
BRANCH   1  11
HETATM   11  C3  UNL     1      19.849  41.286  36.591  1.00  0.00     0.037 A 
HETATM   12  C2  UNL     1      20.211  40.355  35.684  1.00  0.00     0.110 A 
HETATM   13  N2  UNL     1      19.439  40.172  34.640  1.00  0.00    -0.346 N 
HETATM   14  C1  UNL     1      18.338  40.905  34.519  1.00  0.00     0.142 A 
ATOM     15  H2  UNL     1      19.679  39.477  33.933  1.00  0.00     0.167 HD
HETATM   16  S3  UNL     1      18.398  41.876  35.913  1.00  0.00    -0.052 SA
BRANCH  14  17
HETATM   17  N1  UNL     1      17.445  40.864  33.548  1.00  0.00    -0.380 N 
ATOM     18  H12 UNL     1      16.561  40.360  33.488  1.00  0.00     0.158 HD
ATOM     19  H11 UNL     1      17.478  41.348  32.651  1.00  0.00     0.158 HD
ENDBRANCH  14  17
ENDBRANCH   1  11
TORSDOF 2
ENDMDL
