MODEL 1
REMARK VINA RESULT: -6.384056055      0.000      0.000
REMARK  3 active torsions:
REMARK  status: ('A' for Active; 'I' for Inactive)
REMARK    1  A    between atoms: N1_1  and  N2_4 
REMARK    2  A    between atoms: C1_5  and  O1_6 
REMARK    3  A    between atoms: C2_8  and  C3_9 
ROOT
HETATM    1  N2  UNL     1      19.715  41.230  34.622  1.00  0.00    -0.212 N 
HETATM    2  C1  UNL     1      20.346  41.509  35.772  1.00  0.00     0.193 A 
HETATM    3  C2  UNL     1      19.364  41.547  36.777  1.00  0.00     0.117 A 
HETATM    4  N3  UNL     1      18.218  41.285  36.147  1.00  0.00    -0.326 N 
ATOM      5  H3  UNL     1      17.310  41.241  36.611  1.00  0.00     0.168 HD
HETATM    6  C12 UNL     1      18.399  41.085  34.826  1.00  0.00     0.200 A 
HETATM    7  S1  UNL     1      17.228  40.724  33.725  1.00  0.00    -0.039 SA
ENDROOT
BRANCH   3   8
HETATM    8  C3  UNL     1      19.600  41.906  38.143  1.00  0.00     0.078 C 
HETATM    9  C4  UNL     1      18.482  41.988  39.128  1.00  0.00     0.070 C 
HETATM   10  C5  UNL     1      19.275  42.568  40.327  1.00  0.00     0.045 C 
HETATM   11  C6  UNL     1      20.686  42.216  39.958  1.00  0.00     0.068 C 
HETATM   12  C7  UNL     1      21.533  43.400  39.682  1.00  0.00     0.038 C 
HETATM   13  C11 UNL     1      21.318  41.476  41.117  1.00  0.00     0.038 C 
HETATM   14  O2  UNL     1      20.626  41.365  38.835  1.00  0.00    -0.342 OA
HETATM   15  C8  UNL     1      23.001  43.021  39.884  1.00  0.00     0.003 C 
HETATM   16  C9  UNL     1      23.257  43.054  41.369  1.00  0.00     0.000 C 
HETATM   17  C10 UNL     1      22.037  42.435  42.031  1.00  0.00     0.003 C 
ENDBRANCH   3   8
BRANCH   2  18
HETATM   18  O1  UNL     1      21.689  41.718  35.966  1.00  0.00    -0.343 OA
ATOM     19  H1  UNL     1      22.323  41.119  36.342  1.00  0.00     0.219 HD
ENDBRANCH   2  18
BRANCH   1  20
HETATM   20  N1  UNL     1      20.255  41.109  33.317  1.00  0.00    -0.334 N 
ATOM     21  H12 UNL     1      21.219  41.382  33.131  1.00  0.00     0.177 HD
ATOM     22  H11 UNL     1      19.812  40.749  32.471  1.00  0.00     0.177 HD
ENDBRANCH   1  20
TORSDOF 3
ENDMDL
MODEL 2
REMARK VINA RESULT: -6.367670533      3.618      4.621
REMARK  3 active torsions:
REMARK  status: ('A' for Active; 'I' for Inactive)
REMARK    1  A    between atoms: N1_1  and  N2_4 
REMARK    2  A    between atoms: C1_5  and  O1_6 
REMARK    3  A    between atoms: C2_8  and  C3_9 
ROOT
HETATM    1  N2  UNL     1      23.423  43.921  34.628  1.00  0.00    -0.212 N 
HETATM    2  C1  UNL     1      22.796  43.656  35.784  1.00  0.00     0.193 A 
HETATM    3  C2  UNL     1      23.787  43.583  36.778  1.00  0.00     0.117 A 
HETATM    4  N3  UNL     1      24.934  43.811  36.136  1.00  0.00    -0.326 N 
ATOM      5  H3  UNL     1      25.848  43.825  36.590  1.00  0.00     0.168 HD
HETATM    6  C12 UNL     1      24.745  44.022  34.818  1.00  0.00     0.200 A 
HETATM    7  S1  UNL     1      25.915  44.351  33.706  1.00  0.00    -0.039 SA
ENDROOT
BRANCH   3   8
HETATM    8  C3  UNL     1      23.554  43.225  38.144  1.00  0.00     0.078 C 
HETATM    9  C4  UNL     1      24.676  43.138  39.125  1.00  0.00     0.070 C 
HETATM   10  C5  UNL     1      23.885  42.562  40.328  1.00  0.00     0.045 C 
HETATM   11  C6  UNL     1      22.474  42.922  39.964  1.00  0.00     0.068 C 
HETATM   12  C7  UNL     1      21.619  41.743  39.692  1.00  0.00     0.038 C 
HETATM   13  C11 UNL     1      21.851  43.666  41.125  1.00  0.00     0.038 C 
HETATM   14  O2  UNL     1      22.535  43.773  38.841  1.00  0.00    -0.342 OA
HETATM   15  C8  UNL     1      20.154  42.130  39.900  1.00  0.00     0.003 C 
HETATM   16  C9  UNL     1      19.904  42.100  41.386  1.00  0.00     0.000 C 
HETATM   17  C10 UNL     1      21.131  42.711  42.043  1.00  0.00     0.003 C 
ENDBRANCH   3   8
BRANCH   2  18
HETATM   18  O1  UNL     1      21.449  43.490  35.991  1.00  0.00    -0.343 OA
ATOM     19  H1  UNL     1      20.828  43.025  35.443  1.00  0.00     0.219 HD
ENDBRANCH   2  18
BRANCH   1  20
HETATM   20  N1  UNL     1      22.873  44.065  33.329  1.00  0.00    -0.334 N 
ATOM     21  H12 UNL     1      23.383  43.728  32.513  1.00  0.00     0.177 HD
ATOM     22  H11 UNL     1      21.975  44.463  33.055  1.00  0.00     0.177 HD
ENDBRANCH   1  20
TORSDOF 3
ENDMDL
MODEL 3
REMARK VINA RESULT: -6.309213105      4.854      6.094
REMARK  3 active torsions:
REMARK  status: ('A' for Active; 'I' for Inactive)
REMARK    1  A    between atoms: N1_1  and  N2_4 
REMARK    2  A    between atoms: C1_5  and  O1_6 
REMARK    3  A    between atoms: C2_8  and  C3_9 
ROOT
HETATM    1  N2  UNL     1      25.191  44.851  32.725  1.00  0.00    -0.212 N 
HETATM    2  C1  UNL     1      24.239  44.859  33.669  1.00  0.00     0.193 A 
HETATM    3  C2  UNL     1      24.686  44.020  34.705  1.00  0.00     0.117 A 
HETATM    4  N3  UNL     1      25.875  43.575  34.298  1.00  0.00    -0.326 N 
ATOM      5  H3  UNL     1      26.461  42.938  34.838  1.00  0.00     0.168 HD
HETATM    6  C12 UNL     1      26.214  44.066  33.088  1.00  0.00     0.200 A 
HETATM    7  S1  UNL     1      27.608  43.758  32.267  1.00  0.00    -0.039 SA
ENDROOT
BRANCH   3   8
HETATM    8  C3  UNL     1      23.925  43.676  35.868  1.00  0.00     0.078 C 
HETATM    9  C4  UNL     1      24.433  43.964  37.242  1.00  0.00     0.070 C 
HETATM   10  C5  UNL     1      23.327  43.241  38.052  1.00  0.00     0.045 C 
HETATM   11  C6  UNL     1      22.217  43.158  37.045  1.00  0.00     0.068 C 
HETATM   12  C7  UNL     1      21.897  41.770  36.638  1.00  0.00     0.038 C 
HETATM   13  C11 UNL     1      20.964  43.743  37.659  1.00  0.00     0.038 C 
HETATM   14  O2  UNL     1      22.601  43.935  35.933  1.00  0.00    -0.342 OA
HETATM   15  C8  UNL     1      20.464  41.724  36.105  1.00  0.00     0.003 C 
HETATM   16  C9  UNL     1      19.554  41.693  37.307  1.00  0.00     0.000 C 
HETATM   17  C10 UNL     1      20.141  42.665  38.318  1.00  0.00     0.003 C 
ENDBRANCH   3   8
BRANCH   2  18
HETATM   18  O1  UNL     1      23.050  45.546  33.660  1.00  0.00    -0.343 OA
ATOM     19  H1  UNL     1      22.465  45.707  34.391  1.00  0.00     0.219 HD
ENDBRANCH   2  18
BRANCH   1  20
HETATM   20  N1  UNL     1      25.208  45.515  31.472  1.00  0.00    -0.334 N 
ATOM     21  H12 UNL     1      25.272  44.980  30.606  1.00  0.00     0.177 HD
ATOM     22  H11 UNL     1      25.143  46.513  31.275  1.00  0.00     0.177 HD
ENDBRANCH   1  20
TORSDOF 3
ENDMDL
MODEL 4
REMARK VINA RESULT: -6.303061645      2.260      2.991
REMARK  3 active torsions:
REMARK  status: ('A' for Active; 'I' for Inactive)
REMARK    1  A    between atoms: N1_1  and  N2_4 
REMARK    2  A    between atoms: C1_5  and  O1_6 
REMARK    3  A    between atoms: C2_8  and  C3_9 
ROOT
HETATM    1  N2  UNL     1      17.966  40.275  32.704  1.00  0.00    -0.212 N 
HETATM    2  C1  UNL     1      18.918  40.271  33.650  1.00  0.00     0.193 A 
HETATM    3  C2  UNL     1      18.464  41.103  34.688  1.00  0.00     0.117 A 
HETATM    4  N3  UNL     1      17.271  41.540  34.281  1.00  0.00    -0.326 N 
ATOM      5  H3  UNL     1      16.680  42.171  34.823  1.00  0.00     0.168 HD
HETATM    6  C12 UNL     1      16.937  41.050  33.070  1.00  0.00     0.200 A 
HETATM    7  S1  UNL     1      15.541  41.349  32.249  1.00  0.00    -0.039 SA
ENDROOT
BRANCH   3   8
HETATM    8  C3  UNL     1      19.221  41.450  35.852  1.00  0.00     0.078 C 
HETATM    9  C4  UNL     1      18.709  41.164  37.225  1.00  0.00     0.070 C 
HETATM   10  C5  UNL     1      19.812  41.889  38.038  1.00  0.00     0.045 C 
HETATM   11  C6  UNL     1      20.925  41.971  37.034  1.00  0.00     0.068 C 
HETATM   12  C7  UNL     1      21.245  43.358  36.626  1.00  0.00     0.038 C 
HETATM   13  C11 UNL     1      22.176  41.388  37.652  1.00  0.00     0.038 C 
HETATM   14  O2  UNL     1      20.545  41.192  35.922  1.00  0.00    -0.342 OA
HETATM   15  C8  UNL     1      22.680  43.404  36.097  1.00  0.00     0.003 C 
HETATM   16  C9  UNL     1      23.585  43.439  37.301  1.00  0.00     0.000 C 
HETATM   17  C10 UNL     1      22.996  42.468  38.312  1.00  0.00     0.003 C 
ENDBRANCH   3   8
BRANCH   2  18
HETATM   18  O1  UNL     1      20.112  39.594  33.640  1.00  0.00    -0.343 OA
ATOM     19  H1  UNL     1      20.292  38.726  33.981  1.00  0.00     0.219 HD
ENDBRANCH   2  18
BRANCH   1  20
HETATM   20  N1  UNL     1      17.956  39.615  31.450  1.00  0.00    -0.334 N 
ATOM     21  H12 UNL     1      18.757  39.057  31.154  1.00  0.00     0.177 HD
ATOM     22  H11 UNL     1      17.218  39.587  30.746  1.00  0.00     0.177 HD
ENDBRANCH   1  20
TORSDOF 3
ENDMDL
MODEL 5
REMARK VINA RESULT: -6.235080488      3.355      3.804
REMARK  3 active torsions:
REMARK  status: ('A' for Active; 'I' for Inactive)
REMARK    1  A    between atoms: N1_1  and  N2_4 
REMARK    2  A    between atoms: C1_5  and  O1_6 
REMARK    3  A    between atoms: C2_8  and  C3_9 
ROOT
HETATM    1  N2  UNL     1      24.176  44.244  35.824  1.00  0.00    -0.212 N 
HETATM    2  C1  UNL     1      23.866  43.858  37.071  1.00  0.00     0.193 A 
HETATM    3  C2  UNL     1      22.601  43.249  37.005  1.00  0.00     0.117 A 
HETATM    4  N3  UNL     1      22.252  43.318  35.720  1.00  0.00    -0.326 N 
ATOM      5  H3  UNL     1      21.374  42.957  35.347  1.00  0.00     0.168 HD
HETATM    6  C12 UNL     1      23.196  43.922  34.970  1.00  0.00     0.200 A 
HETATM    7  S1  UNL     1      23.134  44.177  33.343  1.00  0.00    -0.039 SA
ENDROOT
BRANCH   3   8
HETATM    8  C3  UNL     1      21.857  42.779  38.134  1.00  0.00     0.078 C 
HETATM    9  C4  UNL     1      20.746  41.793  37.976  1.00  0.00     0.070 C 
HETATM   10  C5  UNL     1      20.223  41.801  39.436  1.00  0.00     0.045 C 
HETATM   11  C6  UNL     1      21.406  42.351  40.180  1.00  0.00     0.068 C 
HETATM   12  C7  UNL     1      21.151  43.678  40.786  1.00  0.00     0.038 C 
HETATM   13  C11 UNL     1      21.748  41.403  41.309  1.00  0.00     0.038 C 
HETATM   14  O2  UNL     1      22.483  42.407  39.272  1.00  0.00    -0.342 OA
HETATM   15  C8  UNL     1      22.125  43.892  41.947  1.00  0.00     0.003 C 
HETATM   16  C9  UNL     1      21.569  43.131  43.124  1.00  0.00     0.000 C 
HETATM   17  C10 UNL     1      21.045  41.813  42.578  1.00  0.00     0.003 C 
ENDBRANCH   3   8
BRANCH   2  18
HETATM   18  O1  UNL     1      24.617  44.007  38.210  1.00  0.00    -0.343 OA
ATOM     19  H1  UNL     1      24.785  44.806  38.697  1.00  0.00     0.219 HD
ENDBRANCH   2  18
BRANCH   1  20
HETATM   20  N1  UNL     1      25.331  44.927  35.365  1.00  0.00    -0.334 N 
ATOM     21  H12 UNL     1      25.319  45.418  34.472  1.00  0.00     0.177 HD
ATOM     22  H11 UNL     1      26.236  45.033  35.823  1.00  0.00     0.177 HD
ENDBRANCH   1  20
TORSDOF 3
ENDMDL
