MODEL 1
REMARK VINA RESULT: -5.952526873      0.000      0.000
REMARK  4 active torsions:
REMARK  status: ('A' for Active; 'I' for Inactive)
REMARK    1  A    between atoms: O1_2  and  N1_3 
REMARK    2  A    between atoms: N1_3  and  C2_4 
REMARK    3  A    between atoms: C2_4  and  C4_6 
REMARK    4  A    between atoms: C12_21  and  O2_22 
ROOT
HETATM    1  C4  UNL     1      22.355  42.941  38.295  1.00  0.00     0.049 A 
HETATM    2  C5  UNL     1      23.753  43.148  38.227  1.00  0.00     0.102 A 
HETATM    3  N2  UNL     1      24.613  43.397  37.124  1.00  0.00    -0.093 NA
HETATM    4  S1  UNL     1      24.295  43.044  39.815  1.00  0.00    -0.075 SA
HETATM    5  C6  UNL     1      22.793  42.742  40.586  1.00  0.00     0.030 A 
HETATM    6  C7  UNL     1      21.897  42.731  39.541  1.00  0.00     0.039 A 
HETATM    7  C8  UNL     1      20.535  42.393  40.014  1.00  0.00     0.107 C 
HETATM    8  N3  UNL     1      19.486  42.293  39.316  1.00  0.00    -0.385 N 
ATOM      9  H31 UNL     1      18.547  42.060  39.642  1.00  0.00     0.157 HD
ATOM     10  H32 UNL     1      19.648  42.481  38.326  1.00  0.00     0.157 HD
HETATM   11  N4  UNL     1      20.307  42.130  41.403  1.00  0.00    -0.365 N 
ATOM     12  H4  UNL     1      19.407  42.342  41.834  1.00  0.00     0.162 HD
HETATM   13  C9  UNL     1      21.380  41.558  42.176  1.00  0.00     0.055 C 
HETATM   14  C10 UNL     1      21.019  41.470  43.646  1.00  0.00     0.041 C 
HETATM   15  C11 UNL     1      21.739  40.222  41.603  1.00  0.00     0.041 C 
HETATM   16  C12 UNL     1      22.483  42.569  42.051  1.00  0.00     0.186 C 
ENDROOT
BRANCH   1  17
HETATM   17  C2  UNL     1      21.693  42.992  36.985  1.00  0.00     0.127 C 
HETATM   18  C3  UNL     1      21.966  43.954  35.887  1.00  0.00     0.089 C 
BRANCH  17  19
HETATM   19  N1  UNL     1      20.840  42.167  36.640  1.00  0.00    -0.286 NA
BRANCH  19  20
HETATM   20  O1  UNL     1      19.994  41.350  36.298  1.00  0.00    -0.214 OA
HETATM   21  C1  UNL     1      18.668  41.424  35.851  1.00  0.00     0.255 C 
ENDBRANCH  19  20
ENDBRANCH  17  19
ENDBRANCH   1  17
BRANCH  16  22
HETATM   22  O2  UNL     1      22.020  43.810  42.480  1.00  0.00    -0.388 OA
ATOM     23  H2  UNL     1      21.762  43.684  43.385  1.00  0.00     0.210 HD
ENDBRANCH  16  22
TORSDOF 4
ENDMDL
MODEL 2
REMARK VINA RESULT: -5.942349456      2.410      3.544
REMARK  4 active torsions:
REMARK  status: ('A' for Active; 'I' for Inactive)
REMARK    1  A    between atoms: O1_2  and  N1_3 
REMARK    2  A    between atoms: N1_3  and  C2_4 
REMARK    3  A    between atoms: C2_4  and  C4_6 
REMARK    4  A    between atoms: C12_21  and  O2_22 
ROOT
HETATM    1  C4  UNL     1      20.973  42.529  38.172  1.00  0.00     0.049 A 
HETATM    2  C5  UNL     1      19.601  42.204  38.047  1.00  0.00     0.102 A 
HETATM    3  N2  UNL     1      18.789  41.978  36.904  1.00  0.00    -0.093 NA
HETATM    4  S1  UNL     1      19.021  42.115  39.623  1.00  0.00    -0.075 SA
HETATM    5  C6  UNL     1      20.473  42.480  40.459  1.00  0.00     0.030 A 
HETATM    6  C7  UNL     1      21.385  42.667  39.445  1.00  0.00     0.039 A 
HETATM    7  C8  UNL     1      22.700  43.082  39.982  1.00  0.00     0.107 C 
HETATM    8  N3  UNL     1      23.750  43.338  39.325  1.00  0.00    -0.385 N 
ATOM      9  H31 UNL     1      24.656  43.624  39.696  1.00  0.00     0.157 HD
ATOM     10  H32 UNL     1      23.625  43.226  38.319  1.00  0.00     0.157 HD
HETATM   11  N4  UNL     1      22.876  43.238  41.395  1.00  0.00    -0.365 N 
ATOM     12  H4  UNL     1      23.783  43.070  41.831  1.00  0.00     0.162 HD
HETATM   13  C9  UNL     1      21.740  43.639  42.185  1.00  0.00     0.055 C 
HETATM   14  C10 UNL     1      22.062  43.626  43.667  1.00  0.00     0.041 C 
HETATM   15  C11 UNL     1      21.270  44.983  41.722  1.00  0.00     0.041 C 
HETATM   16  C12 UNL     1      20.737  42.548  41.941  1.00  0.00     0.186 C 
ENDROOT
BRANCH   1  17
HETATM   17  C2  UNL     1      21.662  42.656  36.882  1.00  0.00     0.127 C 
HETATM   18  C3  UNL     1      21.395  41.872  35.649  1.00  0.00     0.089 C 
BRANCH  17  19
HETATM   19  N1  UNL     1      22.538  43.504  36.677  1.00  0.00    -0.286 NA
BRANCH  19  20
HETATM   20  O1  UNL     1      23.405  44.345  36.475  1.00  0.00    -0.214 OA
HETATM   21  C1  UNL     1      24.403  44.526  35.508  1.00  0.00     0.255 C 
ENDBRANCH  19  20
ENDBRANCH  17  19
ENDBRANCH   1  17
BRANCH  16  22
HETATM   22  O2  UNL     1      21.304  41.320  42.272  1.00  0.00    -0.388 OA
ATOM     23  H2  UNL     1      22.243  41.469  42.278  1.00  0.00     0.210 HD
ENDBRANCH  16  22
TORSDOF 4
ENDMDL
MODEL 3
REMARK VINA RESULT: -5.588006605      2.694      3.907
REMARK  4 active torsions:
REMARK  status: ('A' for Active; 'I' for Inactive)
REMARK    1  A    between atoms: O1_2  and  N1_3 
REMARK    2  A    between atoms: N1_3  and  C2_4 
REMARK    3  A    between atoms: C2_4  and  C4_6 
REMARK    4  A    between atoms: C12_21  and  O2_22 
ROOT
HETATM    1  C4  UNL     1      22.616  42.991  36.679  1.00  0.00     0.049 A 
HETATM    2  C5  UNL     1      21.535  42.336  36.042  1.00  0.00     0.102 A 
HETATM    3  N2  UNL     1      21.088  42.354  34.694  1.00  0.00    -0.093 NA
HETATM    4  S1  UNL     1      20.786  41.439  37.251  1.00  0.00    -0.075 SA
HETATM    5  C6  UNL     1      21.804  41.864  38.564  1.00  0.00     0.030 A 
HETATM    6  C7  UNL     1      22.718  42.721  37.992  1.00  0.00     0.039 A 
HETATM    7  C8  UNL     1      23.643  43.268  39.010  1.00  0.00     0.107 C 
HETATM    8  N3  UNL     1      24.592  44.082  38.824  1.00  0.00    -0.385 N 
ATOM      9  H31 UNL     1      25.229  44.459  39.526  1.00  0.00     0.157 HD
ATOM     10  H32 UNL     1      24.693  44.356  37.846  1.00  0.00     0.157 HD
HETATM   11  N4  UNL     1      23.501  42.883  40.382  1.00  0.00    -0.365 N 
ATOM     12  H4  UNL     1      24.312  42.843  41.000  1.00  0.00     0.162 HD
HETATM   13  C9  UNL     1      22.185  42.553  40.868  1.00  0.00     0.055 C 
HETATM   14  C10 UNL     1      22.232  42.040  42.294  1.00  0.00     0.041 C 
HETATM   15  C11 UNL     1      21.296  43.749  40.728  1.00  0.00     0.041 C 
HETATM   16  C12 UNL     1      21.766  41.403  39.998  1.00  0.00     0.186 C 
ENDROOT
BRANCH   1  17
HETATM   17  C2  UNL     1      23.400  43.839  35.772  1.00  0.00     0.127 C 
HETATM   18  C3  UNL     1      23.053  45.208  35.312  1.00  0.00     0.089 C 
BRANCH  17  19
HETATM   19  N1  UNL     1      24.500  43.495  35.326  1.00  0.00    -0.286 NA
BRANCH  19  20
HETATM   20  O1  UNL     1      25.591  43.156  34.884  1.00  0.00    -0.214 OA
HETATM   21  C1  UNL     1      26.395  43.565  33.812  1.00  0.00     0.255 C 
ENDBRANCH  19  20
ENDBRANCH  17  19
ENDBRANCH   1  17
BRANCH  16  22
HETATM   22  O2  UNL     1      22.718  40.389  40.085  1.00  0.00    -0.388 OA
ATOM     23  H2  UNL     1      23.521  40.820  40.354  1.00  0.00     0.210 HD
ENDBRANCH  16  22
TORSDOF 4
ENDMDL
MODEL 4
REMARK VINA RESULT: -5.543510096      2.083      2.784
REMARK  4 active torsions:
REMARK  status: ('A' for Active; 'I' for Inactive)
REMARK    1  A    between atoms: O1_2  and  N1_3 
REMARK    2  A    between atoms: N1_3  and  C2_4 
REMARK    3  A    between atoms: C2_4  and  C4_6 
REMARK    4  A    between atoms: C12_21  and  O2_22 
ROOT
HETATM    1  C4  UNL     1      20.442  42.076  36.574  1.00  0.00     0.049 A 
HETATM    2  C5  UNL     1      21.508  42.736  35.919  1.00  0.00     0.102 A 
HETATM    3  N2  UNL     1      21.940  42.711  34.567  1.00  0.00    -0.093 NA
HETATM    4  S1  UNL     1      22.262  43.651  37.112  1.00  0.00    -0.075 SA
HETATM    5  C6  UNL     1      21.263  43.227  38.440  1.00  0.00     0.030 A 
HETATM    6  C7  UNL     1      20.351  42.356  37.886  1.00  0.00     0.039 A 
HETATM    7  C8  UNL     1      19.444  41.809  38.920  1.00  0.00     0.107 C 
HETATM    8  N3  UNL     1      18.501  40.983  38.751  1.00  0.00    -0.385 N 
ATOM      9  H31 UNL     1      17.877  40.606  39.463  1.00  0.00     0.157 HD
ATOM     10  H32 UNL     1      18.392  40.700  37.777  1.00  0.00     0.157 HD
HETATM   11  N4  UNL     1      19.598  42.207  40.286  1.00  0.00    -0.365 N 
ATOM     12  H4  UNL     1      18.794  42.244  40.913  1.00  0.00     0.162 HD
HETATM   13  C9  UNL     1      20.915  42.555  40.754  1.00  0.00     0.055 C 
HETATM   14  C10 UNL     1      20.879  43.080  42.177  1.00  0.00     0.041 C 
HETATM   15  C11 UNL     1      21.815  41.366  40.614  1.00  0.00     0.041 C 
HETATM   16  C12 UNL     1      21.313  43.701  39.869  1.00  0.00     0.186 C 
ENDROOT
BRANCH   1  17
HETATM   17  C2  UNL     1      19.656  41.212  35.684  1.00  0.00     0.127 C 
HETATM   18  C3  UNL     1      19.974  39.815  35.291  1.00  0.00     0.089 C 
BRANCH  17  19
HETATM   19  N1  UNL     1      18.578  41.567  35.194  1.00  0.00    -0.286 NA
BRANCH  19  20
HETATM   20  O1  UNL     1      17.510  41.917  34.708  1.00  0.00    -0.214 OA
HETATM   21  C1  UNL     1      16.721  41.484  33.634  1.00  0.00     0.255 C 
ENDBRANCH  19  20
ENDBRANCH  17  19
ENDBRANCH   1  17
BRANCH  16  22
HETATM   22  O2  UNL     1      20.351  44.706  39.959  1.00  0.00    -0.388 OA
ATOM     23  H2  UNL     1      19.657  44.343  40.496  1.00  0.00     0.210 HD
ENDBRANCH  16  22
TORSDOF 4
ENDMDL
MODEL 5
REMARK VINA RESULT: -5.409850564      7.580     11.660
REMARK  4 active torsions:
REMARK  status: ('A' for Active; 'I' for Inactive)
REMARK    1  A    between atoms: O1_2  and  N1_3 
REMARK    2  A    between atoms: N1_3  and  C2_4 
REMARK    3  A    between atoms: C2_4  and  C4_6 
REMARK    4  A    between atoms: C12_21  and  O2_22 
ROOT
HETATM    1  C4  UNL     1      16.331  40.914  31.016  1.00  0.00     0.049 A 
HETATM    2  C5  UNL     1      17.316  41.566  30.237  1.00  0.00     0.102 A 
HETATM    3  N2  UNL     1      17.950  42.828  30.387  1.00  0.00    -0.093 NA
HETATM    4  S1  UNL     1      17.657  40.506  28.977  1.00  0.00    -0.075 SA
HETATM    5  C6  UNL     1      16.582  39.239  29.400  1.00  0.00     0.030 A 
HETATM    6  C7  UNL     1      15.975  39.706  30.544  1.00  0.00     0.039 A 
HETATM    7  C8  UNL     1      14.933  38.766  31.015  1.00  0.00     0.107 C 
HETATM    8  N3  UNL     1      14.188  38.894  32.029  1.00  0.00    -0.385 N 
ATOM      9  H31 UNL     1      13.470  38.246  32.353  1.00  0.00     0.157 HD
ATOM     10  H32 UNL     1      14.369  39.754  32.548  1.00  0.00     0.157 HD
HETATM   11  N4  UNL     1      14.679  37.560  30.287  1.00  0.00    -0.365 N 
ATOM     12  H4  UNL     1      14.350  36.720  30.765  1.00  0.00     0.162 HD
HETATM   13  C9  UNL     1      14.901  37.560  28.864  1.00  0.00     0.055 C 
HETATM   14  C10 UNL     1      14.717  36.176  28.272  1.00  0.00     0.041 C 
HETATM   15  C11 UNL     1      13.999  38.570  28.227  1.00  0.00     0.041 C 
HETATM   16  C12 UNL     1      16.357  37.906  28.733  1.00  0.00     0.186 C 
ENDROOT
BRANCH   1  17
HETATM   17  C2  UNL     1      15.895  41.697  32.179  1.00  0.00     0.127 C 
HETATM   18  C3  UNL     1      14.650  42.500  32.295  1.00  0.00     0.089 C 
BRANCH  17  19
HETATM   19  N1  UNL     1      16.530  41.722  33.240  1.00  0.00    -0.286 NA
BRANCH  19  20
HETATM   20  O1  UNL     1      17.160  41.748  34.289  1.00  0.00    -0.214 OA
HETATM   21  C1  UNL     1      18.275  41.065  34.792  1.00  0.00     0.255 C 
ENDBRANCH  19  20
ENDBRANCH  17  19
ENDBRANCH   1  17
BRANCH  16  22
HETATM   22  O2  UNL     1      17.113  36.994  29.466  1.00  0.00    -0.388 OA
ATOM     23  H2  UNL     1      16.570  36.755  30.208  1.00  0.00     0.210 HD
ENDBRANCH  16  22
TORSDOF 4
ENDMDL
