MODEL 1
REMARK VINA RESULT: -8.119905443      0.000      0.000
REMARK  1 active torsions:
REMARK  status: ('A' for Active; 'I' for Inactive)
REMARK    1  A    between atoms: N1_5  and  N2_7 
ROOT
HETATM    1  C1  UNL     1      21.700  44.693  42.886  1.00  0.00     0.011 C 
HETATM    2  C2  UNL     1      21.086  43.554  42.084  1.00  0.00    -0.009 C 
HETATM    3  C3  UNL     1      20.806  44.069  40.719  1.00  0.00     0.058 C 
HETATM    4  C4  UNL     1      20.656  43.040  39.683  1.00  0.00     0.005 C 
HETATM    5  N1  UNL     1      20.329  43.374  38.503  1.00  0.00    -0.297 N 
ATOM      6  H1  UNL     1      20.179  44.365  38.311  1.00  0.00     0.187 HD
HETATM    7  C7  UNL     1      20.889  41.631  40.027  1.00  0.00     0.063 C 
HETATM    8  C8  UNL     1      22.091  41.550  40.937  1.00  0.00    -0.039 C 
HETATM    9  C9  UNL     1      23.315  42.014  40.196  1.00  0.00     0.015 C 
HETATM   10  C10 UNL     1      22.252  40.085  41.295  1.00  0.00     0.015 C 
HETATM   11  C11 UNL     1      21.932  42.357  42.191  1.00  0.00    -0.007 C 
HETATM   12  C12 UNL     1      21.435  41.419  43.276  1.00  0.00     0.011 C 
ENDROOT
BRANCH   5  13
HETATM   13  N2  UNL     1      20.161  42.471  37.447  1.00  0.00    -0.198 N 
HETATM   14  C5  UNL     1      19.166  41.568  37.314  1.00  0.00     0.231 A 
HETATM   15  N3  UNL     1      18.075  41.341  38.219  1.00  0.00    -0.060 NA
HETATM   16  N4  UNL     1      19.398  40.917  36.160  1.00  0.00    -0.270 N 
HETATM   17  N5  UNL     1      20.489  41.398  35.603  1.00  0.00    -0.272 N 
ATOM     18  H4  UNL     1      18.820  40.169  35.777  1.00  0.00     0.189 HD
HETATM   19  C6  UNL     1      20.976  42.365  36.391  1.00  0.00     0.214 A 
ATOM     20  H5  UNL     1      20.895  41.086  34.721  1.00  0.00     0.189 HD
HETATM   21  S1  UNL     1      22.340  43.221  36.047  1.00  0.00    -0.037 SA
ENDBRANCH   5  13
TORSDOF 1
ENDMDL
MODEL 2
REMARK VINA RESULT: -8.103710371      2.303      3.637
REMARK  1 active torsions:
REMARK  status: ('A' for Active; 'I' for Inactive)
REMARK    1  A    between atoms: N1_5  and  N2_7 
ROOT
HETATM    1  C1  UNL     1      21.532  39.832  42.622  1.00  0.00     0.011 C 
HETATM    2  C2  UNL     1      22.049  41.078  41.917  1.00  0.00    -0.009 C 
HETATM    3  C3  UNL     1      22.404  40.691  40.528  1.00  0.00     0.058 C 
HETATM    4  C4  UNL     1      22.474  41.802  39.571  1.00  0.00     0.005 C 
HETATM    5  N1  UNL     1      22.855  41.586  38.379  1.00  0.00    -0.297 N 
ATOM      6  H1  UNL     1      23.104  40.630  38.123  1.00  0.00     0.187 HD
HETATM    7  C7  UNL     1      22.099  43.154  40.005  1.00  0.00     0.063 C 
HETATM    8  C8  UNL     1      20.877  43.055  40.886  1.00  0.00    -0.039 C 
HETATM    9  C9  UNL     1      19.718  42.530  40.083  1.00  0.00     0.015 C 
HETATM   10  C10 UNL     1      20.567  44.468  41.341  1.00  0.00     0.015 C 
HETATM   11  C11 UNL     1      21.088  42.178  42.086  1.00  0.00    -0.007 C 
HETATM   12  C12 UNL     1      21.471  43.079  43.246  1.00  0.00     0.011 C 
ENDROOT
BRANCH   5  13
HETATM   13  N2  UNL     1      22.956  42.574  37.393  1.00  0.00    -0.198 N 
HETATM   14  C5  UNL     1      23.908  43.527  37.307  1.00  0.00     0.231 A 
HETATM   15  N3  UNL     1      25.013  43.731  38.199  1.00  0.00    -0.060 NA
HETATM   16  N4  UNL     1      23.616  44.255  36.213  1.00  0.00    -0.270 N 
HETATM   17  N5  UNL     1      22.531  43.772  35.648  1.00  0.00    -0.272 N 
ATOM     18  H4  UNL     1      24.152  45.055  35.876  1.00  0.00     0.189 HD
HETATM   19  C6  UNL     1      22.107  42.725  36.370  1.00  0.00     0.214 A 
ATOM     20  H5  UNL     1      22.088  44.132  34.804  1.00  0.00     0.189 HD
HETATM   21  S1  UNL     1      20.771  41.840  35.994  1.00  0.00    -0.037 SA
ENDBRANCH   5  13
TORSDOF 1
ENDMDL
MODEL 3
REMARK VINA RESULT: -7.195255658      1.421      1.998
REMARK  1 active torsions:
REMARK  status: ('A' for Active; 'I' for Inactive)
REMARK    1  A    between atoms: N1_5  and  N2_7 
ROOT
HETATM    1  C1  UNL     1      21.622  44.770  42.872  1.00  0.00     0.011 C 
HETATM    2  C2  UNL     1      21.168  43.656  41.940  1.00  0.00    -0.009 C 
HETATM    3  C3  UNL     1      20.940  44.258  40.601  1.00  0.00     0.058 C 
HETATM    4  C4  UNL     1      20.955  43.309  39.480  1.00  0.00     0.005 C 
HETATM    5  N1  UNL     1      20.683  43.713  38.308  1.00  0.00    -0.297 N 
ATOM      6  H1  UNL     1      20.459  44.700  38.182  1.00  0.00     0.187 HD
HETATM    7  C7  UNL     1      21.286  41.901  39.731  1.00  0.00     0.063 C 
HETATM    8  C8  UNL     1      22.425  41.843  40.723  1.00  0.00    -0.039 C 
HETATM    9  C9  UNL     1      23.652  42.468  40.116  1.00  0.00     0.015 C 
HETATM   10  C10 UNL     1      22.689  40.372  40.978  1.00  0.00     0.015 C 
HETATM   11  C11 UNL     1      22.108  42.527  42.020  1.00  0.00    -0.007 C 
HETATM   12  C12 UNL     1      21.620  41.464  42.987  1.00  0.00     0.011 C 
ENDROOT
BRANCH   5  13
HETATM   13  N2  UNL     1      20.669  42.890  37.176  1.00  0.00    -0.198 N 
HETATM   14  C5  UNL     1      21.571  42.893  36.171  1.00  0.00     0.231 A 
HETATM   15  N3  UNL     1      22.727  43.734  36.046  1.00  0.00    -0.060 NA
HETATM   16  N4  UNL     1      21.169  41.949  35.301  1.00  0.00    -0.270 N 
HETATM   17  N5  UNL     1      20.069  41.385  35.749  1.00  0.00    -0.272 N 
ATOM     18  H4  UNL     1      21.644  41.707  34.431  1.00  0.00     0.189 HD
HETATM   19  C6  UNL     1      19.743  41.960  36.915  1.00  0.00     0.214 A 
ATOM     20  H5  UNL     1      19.551  40.638  35.288  1.00  0.00     0.189 HD
HETATM   21  S1  UNL     1      18.424  41.536  37.803  1.00  0.00    -0.037 SA
ENDBRANCH   5  13
TORSDOF 1
ENDMDL
MODEL 4
REMARK VINA RESULT: -7.185250500      3.029      5.546
REMARK  1 active torsions:
REMARK  status: ('A' for Active; 'I' for Inactive)
REMARK    1  A    between atoms: N1_5  and  N2_7 
ROOT
HETATM    1  C1  UNL     1      19.610  41.625  36.005  1.00  0.00     0.011 C 
HETATM    2  C2  UNL     1      20.332  42.561  36.964  1.00  0.00    -0.009 C 
HETATM    3  C3  UNL     1      19.772  42.332  38.319  1.00  0.00     0.058 C 
HETATM    4  C4  UNL     1      20.624  42.776  39.430  1.00  0.00     0.005 C 
HETATM    5  N1  UNL     1      20.196  42.703  40.623  1.00  0.00    -0.297 N 
ATOM      6  H1  UNL     1      19.258  42.332  40.772  1.00  0.00     0.187 HD
HETATM    7  C7  UNL     1      21.966  43.299  39.144  1.00  0.00     0.063 C 
HETATM    8  C8  UNL     1      22.594  42.449  38.065  1.00  0.00    -0.039 C 
HETATM    9  C9  UNL     1      22.784  41.047  38.575  1.00  0.00     0.015 C 
HETATM   10  C10 UNL     1      23.952  43.063  37.780  1.00  0.00     0.015 C 
HETATM   11  C11 UNL     1      21.786  42.414  36.802  1.00  0.00    -0.007 C 
HETATM   12  C12 UNL     1      22.353  43.470  35.870  1.00  0.00     0.011 C 
ENDROOT
BRANCH   5  13
HETATM   13  N2  UNL     1      20.929  43.100  41.747  1.00  0.00    -0.198 N 
HETATM   14  C5  UNL     1      21.241  44.366  42.096  1.00  0.00     0.231 A 
HETATM   15  N3  UNL     1      20.892  45.569  41.395  1.00  0.00    -0.060 NA
HETATM   16  N4  UNL     1      21.949  44.280  43.237  1.00  0.00    -0.270 N 
HETATM   17  N5  UNL     1      22.069  43.016  43.578  1.00  0.00    -0.272 N 
ATOM     18  H4  UNL     1      22.333  45.071  43.755  1.00  0.00     0.189 HD
HETATM   19  C6  UNL     1      21.440  42.268  42.662  1.00  0.00     0.214 A 
ATOM     20  H5  UNL     1      22.558  42.664  44.401  1.00  0.00     0.189 HD
HETATM   21  S1  UNL     1      21.358  40.625  42.727  1.00  0.00    -0.037 SA
ENDBRANCH   5  13
TORSDOF 1
ENDMDL
MODEL 5
REMARK VINA RESULT: -7.185091973      1.836      3.074
REMARK  1 active torsions:
REMARK  status: ('A' for Active; 'I' for Inactive)
REMARK    1  A    between atoms: N1_5  and  N2_7 
ROOT
HETATM    1  C1  UNL     1      21.594  40.067  42.734  1.00  0.00     0.011 C 
HETATM    2  C2  UNL     1      21.988  41.247  41.856  1.00  0.00    -0.009 C 
HETATM    3  C3  UNL     1      22.281  40.717  40.501  1.00  0.00     0.058 C 
HETATM    4  C4  UNL     1      22.223  41.707  39.418  1.00  0.00     0.005 C 
HETATM    5  N1  UNL     1      22.544  41.371  38.236  1.00  0.00    -0.297 N 
ATOM      6  H1  UNL     1      22.836  40.408  38.077  1.00  0.00     0.187 HD
HETATM    7  C7  UNL     1      21.792  43.079  39.718  1.00  0.00     0.063 C 
HETATM    8  C8  UNL     1      20.634  43.019  40.686  1.00  0.00    -0.039 C 
HETATM    9  C9  UNL     1      19.464  42.339  40.029  1.00  0.00     0.015 C 
HETATM   10  C10 UNL     1      20.265  44.457  40.994  1.00  0.00     0.015 C 
HETATM   11  C11 UNL     1      20.973  42.305  41.961  1.00  0.00    -0.007 C 
HETATM   12  C12 UNL     1      21.369  43.358  42.980  1.00  0.00     0.011 C 
ENDROOT
BRANCH   5  13
HETATM   13  N2  UNL     1      22.522  42.239  37.138  1.00  0.00    -0.198 N 
HETATM   14  C5  UNL     1      21.611  42.251  36.143  1.00  0.00     0.231 A 
HETATM   15  N3  UNL     1      20.477  41.384  35.995  1.00  0.00    -0.060 NA
HETATM   16  N4  UNL     1      21.976  43.241  35.308  1.00  0.00    -0.270 N 
HETATM   17  N5  UNL     1      23.066  43.816  35.768  1.00  0.00    -0.272 N 
ATOM     18  H4  UNL     1      21.486  43.504  34.453  1.00  0.00     0.189 HD
HETATM   19  C6  UNL     1      23.419  43.204  36.907  1.00  0.00     0.214 A 
ATOM     20  H5  UNL     1      23.558  44.596  35.332  1.00  0.00     0.189 HD
HETATM   21  S1  UNL     1      24.736  43.629  37.798  1.00  0.00    -0.037 SA
ENDBRANCH   5  13
TORSDOF 1
ENDMDL
