MODEL 1
REMARK VINA RESULT: -6.255530004      0.000      0.000
REMARK  5 active torsions:
REMARK  status: ('A' for Active; 'I' for Inactive)
REMARK    1  A    between atoms: C2_2  and  O1_5 
REMARK    2  A    between atoms: O1_5  and  C5_6 
REMARK    3  A    between atoms: C5_6  and  N1_8 
REMARK    4  A    between atoms: N1_8  and  N2_10 
REMARK    5  A    between atoms: C11_17  and  O2_18 
ROOT
HETATM    1  N2  UNL     1      23.154  43.614  40.169  1.00  0.00    -0.302 N 
ATOM      2  H2  UNL     1      23.507  44.568  40.251  1.00  0.00     0.186 HD
HETATM    3  C6  UNL     1      22.216  43.324  40.961  1.00  0.00     0.052 C 
HETATM    4  C7  UNL     1      21.722  44.339  41.902  1.00  0.00     0.058 C 
HETATM    5  C8  UNL     1      21.810  43.744  43.300  1.00  0.00     0.006 C 
HETATM    6  C9  UNL     1      21.058  42.433  43.286  1.00  0.00     0.005 C 
HETATM    7  C10 UNL     1      21.751  41.450  42.388  1.00  0.00     0.060 C 
HETATM    8  C11 UNL     1      21.612  41.989  40.953  1.00  0.00     0.186 C 
HETATM    9  C12 UNL     1      20.194  42.090  40.614  1.00  0.00     0.104 C 
HETATM   10  N3  UNL     1      19.087  42.178  40.332  1.00  0.00    -0.194 NA
ENDROOT
BRANCH   8  11
HETATM   11  O2  UNL     1      22.279  41.109  40.095  1.00  0.00    -0.370 OA
ATOM     12  H2  UNL     1      21.978  41.182  39.197  1.00  0.00     0.212 HD
ENDBRANCH   8  11
BRANCH   1  13
HETATM   13  N1  UNL     1      23.775  42.848  39.216  1.00  0.00    -0.270 N 
ATOM     14  H1  UNL     1      24.513  42.216  39.527  1.00  0.00     0.190 HD
BRANCH  13  15
HETATM   15  C5  UNL     1      23.471  42.867  37.835  1.00  0.00     0.230 C 
HETATM   16  S1  UNL     1      24.369  43.876  36.894  1.00  0.00    -0.032 SA
BRANCH  15  17
HETATM   17  O1  UNL     1      22.482  42.083  37.321  1.00  0.00    -0.316 OA
BRANCH  17  18
HETATM   18  C2  UNL     1      21.279  42.503  36.759  1.00  0.00     0.059 C 
HETATM   19  C1  UNL     1      20.779  43.808  37.336  1.00  0.00     0.045 C 
HETATM   20  C3  UNL     1      20.213  41.431  36.991  1.00  0.00     0.045 C 
HETATM   21  C4  UNL     1      21.460  42.608  35.258  1.00  0.00     0.045 C 
ENDBRANCH  17  18
ENDBRANCH  15  17
ENDBRANCH  13  15
ENDBRANCH   1  13
TORSDOF 5
ENDMDL
MODEL 2
REMARK VINA RESULT: -6.240214141      1.964      3.229
REMARK  5 active torsions:
REMARK  status: ('A' for Active; 'I' for Inactive)
REMARK    1  A    between atoms: C2_2  and  O1_5 
REMARK    2  A    between atoms: O1_5  and  C5_6 
REMARK    3  A    between atoms: C5_6  and  N1_8 
REMARK    4  A    between atoms: N1_8  and  N2_10 
REMARK    5  A    between atoms: C11_17  and  O2_18 
ROOT
HETATM    1  N2  UNL     1      19.995  41.520  40.193  1.00  0.00    -0.302 N 
ATOM      2  H2  UNL     1      19.650  40.564  40.286  1.00  0.00     0.186 HD
HETATM    3  C6  UNL     1      20.941  41.822  40.971  1.00  0.00     0.052 C 
HETATM    4  C7  UNL     1      21.453  40.817  41.912  1.00  0.00     0.058 C 
HETATM    5  C8  UNL     1      21.380  41.423  43.307  1.00  0.00     0.006 C 
HETATM    6  C9  UNL     1      22.122  42.739  43.273  1.00  0.00     0.005 C 
HETATM    7  C10 UNL     1      21.411  43.710  42.376  1.00  0.00     0.060 C 
HETATM    8  C11 UNL     1      21.536  43.161  40.945  1.00  0.00     0.186 C 
HETATM    9  C12 UNL     1      22.950  43.067  40.588  1.00  0.00     0.104 C 
HETATM   10  N3  UNL     1      24.054  42.984  40.293  1.00  0.00    -0.194 NA
ENDROOT
BRANCH   8  11
HETATM   11  O2  UNL     1      20.852  44.030  40.089  1.00  0.00    -0.370 OA
ATOM     12  H2  UNL     1      21.257  44.085  39.231  1.00  0.00     0.212 HD
ENDBRANCH   8  11
BRANCH   1  13
HETATM   13  N1  UNL     1      19.357  42.274  39.241  1.00  0.00    -0.270 N 
ATOM     14  H1  UNL     1      18.616  42.901  39.556  1.00  0.00     0.190 HD
BRANCH  13  15
HETATM   15  C5  UNL     1      19.648  42.251  37.857  1.00  0.00     0.230 C 
HETATM   16  S1  UNL     1      18.743  41.238  36.929  1.00  0.00    -0.032 SA
BRANCH  15  17
HETATM   17  O1  UNL     1      20.631  43.036  37.331  1.00  0.00    -0.316 OA
BRANCH  17  18
HETATM   18  C2  UNL     1      21.832  42.616  36.767  1.00  0.00     0.059 C 
HETATM   19  C1  UNL     1      22.365  41.342  37.384  1.00  0.00     0.045 C 
HETATM   20  C3  UNL     1      22.883  43.714  36.943  1.00  0.00     0.045 C 
HETATM   21  C4  UNL     1      21.632  42.452  35.274  1.00  0.00     0.045 C 
ENDBRANCH  17  18
ENDBRANCH  15  17
ENDBRANCH  13  15
ENDBRANCH   1  13
TORSDOF 5
ENDMDL
MODEL 3
REMARK VINA RESULT: -6.217652435      2.208      2.883
REMARK  5 active torsions:
REMARK  status: ('A' for Active; 'I' for Inactive)
REMARK    1  A    between atoms: C2_2  and  O1_5 
REMARK    2  A    between atoms: O1_5  and  C5_6 
REMARK    3  A    between atoms: C5_6  and  N1_8 
REMARK    4  A    between atoms: N1_8  and  N2_10 
REMARK    5  A    between atoms: C11_17  and  O2_18 
ROOT
HETATM    1  N2  UNL     1      20.493  41.677  38.861  1.00  0.00    -0.302 N 
ATOM      2  H2  UNL     1      19.613  42.152  38.661  1.00  0.00     0.186 HD
HETATM    3  C6  UNL     1      20.885  41.765  40.057  1.00  0.00     0.052 C 
HETATM    4  C7  UNL     1      20.078  42.514  41.030  1.00  0.00     0.058 C 
HETATM    5  C8  UNL     1      20.983  43.565  41.658  1.00  0.00     0.006 C 
HETATM    6  C9  UNL     1      22.196  42.851  42.211  1.00  0.00     0.005 C 
HETATM    7  C10 UNL     1      22.996  42.249  41.093  1.00  0.00     0.060 C 
HETATM    8  C11 UNL     1      22.133  41.128  40.487  1.00  0.00     0.186 C 
HETATM    9  C12 UNL     1      21.849  40.131  41.517  1.00  0.00     0.104 C 
HETATM   10  N3  UNL     1      21.615  39.340  42.311  1.00  0.00    -0.194 NA
ENDROOT
BRANCH   8  11
HETATM   11  O2  UNL     1      22.840  40.570  39.418  1.00  0.00    -0.370 OA
ATOM     12  H2  UNL     1      23.752  40.839  39.408  1.00  0.00     0.212 HD
ENDBRANCH   8  11
BRANCH   1  13
HETATM   13  N1  UNL     1      21.065  41.042  37.788  1.00  0.00    -0.270 N 
ATOM     14  H1  UNL     1      21.494  40.131  37.953  1.00  0.00     0.190 HD
BRANCH  13  15
HETATM   15  C5  UNL     1      21.106  41.554  36.470  1.00  0.00     0.230 C 
HETATM   16  S1  UNL     1      19.839  41.176  35.490  1.00  0.00    -0.032 SA
BRANCH  15  17
HETATM   17  O1  UNL     1      22.150  42.321  36.045  1.00  0.00    -0.316 OA
BRANCH  17  18
HETATM   18  C2  UNL     1      22.498  43.592  36.494  1.00  0.00     0.059 C 
HETATM   19  C1  UNL     1      21.317  44.386  37.003  1.00  0.00     0.045 C 
HETATM   20  C3  UNL     1      23.147  44.371  35.348  1.00  0.00     0.045 C 
HETATM   21  C4  UNL     1      23.559  43.449  37.567  1.00  0.00     0.045 C 
ENDBRANCH  17  18
ENDBRANCH  15  17
ENDBRANCH  13  15
ENDBRANCH   1  13
TORSDOF 5
ENDMDL
MODEL 4
REMARK VINA RESULT: -6.217397957      1.907      2.600
REMARK  5 active torsions:
REMARK  status: ('A' for Active; 'I' for Inactive)
REMARK    1  A    between atoms: C2_2  and  O1_5 
REMARK    2  A    between atoms: O1_5  and  C5_6 
REMARK    3  A    between atoms: C5_6  and  N1_8 
REMARK    4  A    between atoms: N1_8  and  N2_10 
REMARK    5  A    between atoms: C11_17  and  O2_18 
ROOT
HETATM    1  N2  UNL     1      22.667  43.483  38.857  1.00  0.00    -0.302 N 
ATOM      2  H2  UNL     1      23.550  43.015  38.655  1.00  0.00     0.186 HD
HETATM    3  C6  UNL     1      22.271  43.383  40.051  1.00  0.00     0.052 C 
HETATM    4  C7  UNL     1      23.080  42.630  41.019  1.00  0.00     0.058 C 
HETATM    5  C8  UNL     1      22.179  41.569  41.636  1.00  0.00     0.006 C 
HETATM    6  C9  UNL     1      20.961  42.271  42.191  1.00  0.00     0.005 C 
HETATM    7  C10 UNL     1      20.161  42.878  41.077  1.00  0.00     0.060 C 
HETATM    8  C11 UNL     1      21.019  44.008  40.482  1.00  0.00     0.186 C 
HETATM    9  C12 UNL     1      21.294  44.999  41.522  1.00  0.00     0.104 C 
HETATM   10  N3  UNL     1      21.521  45.784  42.324  1.00  0.00    -0.194 NA
ENDROOT
BRANCH   8  11
HETATM   11  O2  UNL     1      20.311  44.572  39.416  1.00  0.00    -0.370 OA
ATOM     12  H2  UNL     1      19.376  44.604  39.580  1.00  0.00     0.212 HD
ENDBRANCH   8  11
BRANCH   1  13
HETATM   13  N1  UNL     1      22.094  44.124  37.787  1.00  0.00    -0.270 N 
ATOM     14  H1  UNL     1      21.707  45.054  37.948  1.00  0.00     0.190 HD
BRANCH  13  15
HETATM   15  C5  UNL     1      21.999  43.594  36.479  1.00  0.00     0.230 C 
HETATM   16  S1  UNL     1      23.234  43.943  35.449  1.00  0.00    -0.032 SA
BRANCH  15  17
HETATM   17  O1  UNL     1      20.932  42.833  36.104  1.00  0.00    -0.316 OA
BRANCH  17  18
HETATM   18  C2  UNL     1      20.622  41.546  36.534  1.00  0.00     0.059 C 
HETATM   19  C1  UNL     1      21.831  40.773  37.012  1.00  0.00     0.045 C 
HETATM   20  C3  UNL     1      19.977  40.772  35.382  1.00  0.00     0.045 C 
HETATM   21  C4  UNL     1      19.574  41.642  37.624  1.00  0.00     0.045 C 
ENDBRANCH  17  18
ENDBRANCH  15  17
ENDBRANCH  13  15
ENDBRANCH   1  13
TORSDOF 5
ENDMDL
MODEL 5
REMARK VINA RESULT: -6.183405600      2.213      2.800
REMARK  5 active torsions:
REMARK  status: ('A' for Active; 'I' for Inactive)
REMARK    1  A    between atoms: C2_2  and  O1_5 
REMARK    2  A    between atoms: O1_5  and  C5_6 
REMARK    3  A    between atoms: C5_6  and  N1_8 
REMARK    4  A    between atoms: N1_8  and  N2_10 
REMARK    5  A    between atoms: C11_17  and  O2_18 
ROOT
HETATM    1  N2  UNL     1      20.535  41.676  38.854  1.00  0.00    -0.302 N 
ATOM      2  H2  UNL     1      19.655  42.144  38.639  1.00  0.00     0.186 HD
HETATM    3  C6  UNL     1      20.903  41.761  40.058  1.00  0.00     0.052 C 
HETATM    4  C7  UNL     1      20.070  42.496  41.019  1.00  0.00     0.058 C 
HETATM    5  C8  UNL     1      20.952  43.552  41.670  1.00  0.00     0.006 C 
HETATM    6  C9  UNL     1      22.160  42.847  42.243  1.00  0.00     0.005 C 
HETATM    7  C10 UNL     1      22.987  42.259  41.139  1.00  0.00     0.060 C 
HETATM    8  C11 UNL     1      22.148  41.133  40.509  1.00  0.00     0.186 C 
HETATM    9  C12 UNL     1      21.854  40.127  41.528  1.00  0.00     0.104 C 
HETATM   10  N3  UNL     1      21.612  39.329  42.313  1.00  0.00    -0.194 NA
ENDROOT
BRANCH   8  11
HETATM   11  O2  UNL     1      22.882  40.588  39.451  1.00  0.00    -0.370 OA
ATOM     12  H2  UNL     1      23.362  39.809  39.709  1.00  0.00     0.212 HD
ENDBRANCH   8  11
BRANCH   1  13
HETATM   13  N1  UNL     1      21.135  41.053  37.789  1.00  0.00    -0.270 N 
ATOM     14  H1  UNL     1      21.598  40.161  37.965  1.00  0.00     0.190 HD
BRANCH  13  15
HETATM   15  C5  UNL     1      21.160  41.551  36.465  1.00  0.00     0.230 C 
HETATM   16  S1  UNL     1      19.881  41.162  35.504  1.00  0.00    -0.032 SA
BRANCH  15  17
HETATM   17  O1  UNL     1      22.197  42.317  36.021  1.00  0.00    -0.316 OA
BRANCH  17  18
HETATM   18  C2  UNL     1      22.590  43.563  36.501  1.00  0.00     0.059 C 
HETATM   19  C1  UNL     1      23.565  43.474  37.653  1.00  0.00     0.045 C 
HETATM   20  C3  UNL     1      21.355  44.335  36.970  1.00  0.00     0.045 C 
HETATM   21  C4  UNL     1      23.179  44.357  35.352  1.00  0.00     0.045 C 
ENDBRANCH  17  18
ENDBRANCH  15  17
ENDBRANCH  13  15
ENDBRANCH   1  13
TORSDOF 5
ENDMDL
