MODEL 1
REMARK VINA RESULT: -7.469229989      0.000      0.000
REMARK  2 active torsions:
REMARK  status: ('A' for Active; 'I' for Inactive)
REMARK    1  A    between atoms: C6_6  and  O1_7 
REMARK    2  A    between atoms: C7_10  and  C8_11 
ROOT
HETATM    1  C1  UNL     1      19.096  39.562  36.111  1.00  0.00     0.038 C 
HETATM    2  C2  UNL     1      19.258  41.055  36.495  1.00  0.00     0.028 C 
HETATM    3  C3  UNL     1      18.469  41.775  35.370  1.00  0.00     0.038 C 
HETATM    4  C4  UNL     1      20.694  41.386  36.386  1.00  0.00     0.073 C 
HETATM    5  C5  UNL     1      21.275  42.157  37.558  1.00  0.00    -0.001 A 
HETATM    6  C6  UNL     1      22.570  42.664  37.515  1.00  0.00     0.115 A 
HETATM    7  S1  UNL     1      22.769  43.374  39.034  1.00  0.00    -0.068 SA
HETATM    8  C7  UNL     1      21.243  43.036  39.707  1.00  0.00     0.004 A 
HETATM    9  C13 UNL     1      20.592  42.359  38.706  1.00  0.00     0.028 A 
HETATM   10  C14 UNL     1      19.183  41.871  38.725  1.00  0.00     0.124 C 
HETATM   11  N1  UNL     1      18.419  42.081  39.944  1.00  0.00    -0.082 NA
HETATM   12  N2  UNL     1      18.631  41.300  37.733  1.00  0.00    -0.369 N 
ATOM     13  H2  UNL     1      17.664  40.995  37.841  1.00  0.00     0.161 HD
ENDROOT
BRANCH   8  14
HETATM   14  C8  UNL     1      20.794  43.393  41.097  1.00  0.00     0.027 C 
HETATM   15  C9  UNL     1      21.236  44.852  41.304  1.00  0.00     0.010 C 
HETATM   16  C10 UNL     1      21.659  45.000  42.723  1.00  0.00     0.001 C 
HETATM   17  C11 UNL     1      21.805  43.633  43.305  1.00  0.00     0.001 C 
HETATM   18  C12 UNL     1      21.627  42.686  42.128  1.00  0.00     0.010 C 
ENDBRANCH   8  14
BRANCH   6  19
HETATM   19  O1  UNL     1      23.491  42.593  36.445  1.00  0.00    -0.353 OA
ATOM     20  H1  UNL     1      23.702  41.837  35.910  1.00  0.00     0.218 HD
ENDBRANCH   6  19
TORSDOF 2
ENDMDL
MODEL 2
REMARK VINA RESULT: -7.447006741      1.343      5.446
REMARK  2 active torsions:
REMARK  status: ('A' for Active; 'I' for Inactive)
REMARK    1  A    between atoms: C6_6  and  O1_7 
REMARK    2  A    between atoms: C7_10  and  C8_11 
ROOT
HETATM    1  C1  UNL     1      21.300  45.186  41.957  1.00  0.00     0.038 C 
HETATM    2  C2  UNL     1      21.576  43.764  41.409  1.00  0.00     0.028 C 
HETATM    3  C3  UNL     1      22.199  43.048  42.637  1.00  0.00     0.038 C 
HETATM    4  C4  UNL     1      22.588  43.890  40.340  1.00  0.00     0.073 C 
HETATM    5  C5  UNL     1      22.282  43.133  39.060  1.00  0.00    -0.001 A 
HETATM    6  C6  UNL     1      23.219  43.041  38.036  1.00  0.00     0.115 A 
HETATM    7  S1  UNL     1      22.412  42.170  36.836  1.00  0.00    -0.068 SA
HETATM    8  C7  UNL     1      20.920  41.927  37.617  1.00  0.00     0.004 A 
HETATM    9  C13 UNL     1      21.087  42.546  38.831  1.00  0.00     0.028 A 
HETATM   10  C14 UNL     1      20.108  42.590  39.955  1.00  0.00     0.124 C 
HETATM   11  N1  UNL     1      18.816  41.959  39.742  1.00  0.00    -0.082 NA
HETATM   12  N2  UNL     1      20.358  43.137  41.074  1.00  0.00    -0.369 N 
ATOM     13  H2  UNL     1      19.625  43.122  41.782  1.00  0.00     0.161 HD
ENDROOT
BRANCH   8  14
HETATM   14  C8  UNL     1      19.726  41.221  37.036  1.00  0.00     0.027 C 
HETATM   15  C9  UNL     1      20.283  40.354  35.894  1.00  0.00     0.010 C 
HETATM   16  C10 UNL     1      19.280  40.355  34.795  1.00  0.00     0.001 C 
HETATM   17  C11 UNL     1      18.290  41.436  35.075  1.00  0.00     0.001 C 
HETATM   18  C12 UNL     1      18.853  42.179  36.278  1.00  0.00     0.010 C 
ENDBRANCH   8  14
BRANCH   6  19
HETATM   19  O1  UNL     1      24.533  43.562  38.018  1.00  0.00    -0.353 OA
ATOM     20  H1  UNL     1      25.062  43.779  37.259  1.00  0.00     0.218 HD
ENDBRANCH   6  19
TORSDOF 2
ENDMDL
MODEL 3
REMARK VINA RESULT: -7.445488219      2.998      4.324
REMARK  2 active torsions:
REMARK  status: ('A' for Active; 'I' for Inactive)
REMARK    1  A    between atoms: C6_6  and  O1_7 
REMARK    2  A    between atoms: C7_10  and  C8_11 
ROOT
HETATM    1  C1  UNL     1      24.083  45.535  36.162  1.00  0.00     0.038 C 
HETATM    2  C2  UNL     1      23.896  44.040  36.522  1.00  0.00     0.028 C 
HETATM    3  C3  UNL     1      24.660  43.323  35.379  1.00  0.00     0.038 C 
HETATM    4  C4  UNL     1      22.452  43.739  36.422  1.00  0.00     0.073 C 
HETATM    5  C5  UNL     1      21.866  42.960  37.587  1.00  0.00    -0.001 A 
HETATM    6  C6  UNL     1      20.562  42.480  37.548  1.00  0.00     0.115 A 
HETATM    7  S1  UNL     1      20.363  41.748  39.057  1.00  0.00    -0.068 SA
HETATM    8  C7  UNL     1      21.901  42.046  39.720  1.00  0.00     0.004 A 
HETATM    9  C13 UNL     1      22.556  42.726  38.725  1.00  0.00     0.028 A 
HETATM   10  C14 UNL     1      23.975  43.186  38.738  1.00  0.00     0.124 C 
HETATM   11  N1  UNL     1      24.746  42.940  39.946  1.00  0.00    -0.082 NA
HETATM   12  N2  UNL     1      24.529  43.763  37.751  1.00  0.00    -0.369 N 
ATOM     13  H2  UNL     1      25.503  44.046  37.854  1.00  0.00     0.161 HD
ENDROOT
BRANCH   8  14
HETATM   14  C8  UNL     1      22.356  41.657  41.100  1.00  0.00     0.027 C 
HETATM   15  C9  UNL     1      21.828  40.228  41.314  1.00  0.00     0.010 C 
HETATM   16  C10 UNL     1      21.427  40.101  42.740  1.00  0.00     0.001 C 
HETATM   17  C11 UNL     1      21.378  41.473  43.328  1.00  0.00     0.001 C 
HETATM   18  C12 UNL     1      21.590  42.411  42.149  1.00  0.00     0.010 C 
ENDBRANCH   8  14
BRANCH   6  19
HETATM   19  O1  UNL     1      19.632  42.587  36.488  1.00  0.00    -0.353 OA
ATOM     20  H1  UNL     1      18.842  42.077  36.355  1.00  0.00     0.218 HD
ENDBRANCH   6  19
TORSDOF 2
ENDMDL
MODEL 4
REMARK VINA RESULT: -7.424235670      2.938      5.418
REMARK  2 active torsions:
REMARK  status: ('A' for Active; 'I' for Inactive)
REMARK    1  A    between atoms: C6_6  and  O1_7 
REMARK    2  A    between atoms: C7_10  and  C8_11 
ROOT
HETATM    1  C1  UNL     1      21.875  40.054  41.963  1.00  0.00     0.038 C 
HETATM    2  C2  UNL     1      21.592  41.464  41.386  1.00  0.00     0.028 C 
HETATM    3  C3  UNL     1      20.954  42.197  42.596  1.00  0.00     0.038 C 
HETATM    4  C4  UNL     1      20.589  41.310  40.313  1.00  0.00     0.073 C 
HETATM    5  C5  UNL     1      20.899  42.045  39.020  1.00  0.00    -0.001 A 
HETATM    6  C6  UNL     1      19.969  42.110  37.988  1.00  0.00     0.115 A 
HETATM    7  S1  UNL     1      20.778  42.965  36.778  1.00  0.00    -0.068 SA
HETATM    8  C7  UNL     1      22.262  43.234  37.565  1.00  0.00     0.004 A 
HETATM    9  C13 UNL     1      22.091  42.637  38.789  1.00  0.00     0.028 A 
HETATM   10  C14 UNL     1      23.062  42.622  39.921  1.00  0.00     0.124 C 
HETATM   11  N1  UNL     1      24.351  43.258  39.705  1.00  0.00    -0.082 NA
HETATM   12  N2  UNL     1      22.807  42.094  41.048  1.00  0.00    -0.369 N 
ATOM     13  H2  UNL     1      23.535  42.127  41.761  1.00  0.00     0.161 HD
ENDROOT
BRANCH   8  14
HETATM   14  C8  UNL     1      23.455  43.939  36.980  1.00  0.00     0.027 C 
HETATM   15  C9  UNL     1      22.898  44.791  35.827  1.00  0.00     0.010 C 
HETATM   16  C10 UNL     1      23.904  44.782  34.731  1.00  0.00     0.001 C 
HETATM   17  C11 UNL     1      24.897  43.708  35.025  1.00  0.00     0.001 C 
HETATM   18  C12 UNL     1      24.334  42.976  36.235  1.00  0.00     0.010 C 
ENDBRANCH   8  14
BRANCH   6  19
HETATM   19  O1  UNL     1      18.658  41.579  37.970  1.00  0.00    -0.353 OA
ATOM     20  H1  UNL     1      18.245  41.075  37.279  1.00  0.00     0.218 HD
ENDBRANCH   6  19
TORSDOF 2
ENDMDL
MODEL 5
REMARK VINA RESULT: -6.728641785      3.039      5.642
REMARK  2 active torsions:
REMARK  status: ('A' for Active; 'I' for Inactive)
REMARK    1  A    between atoms: C6_6  and  O1_7 
REMARK    2  A    between atoms: C7_10  and  C8_11 
ROOT
HETATM    1  C1  UNL     1      21.764  41.310  43.434  1.00  0.00     0.038 C 
HETATM    2  C2  UNL     1      21.686  42.465  42.403  1.00  0.00     0.028 C 
HETATM    3  C3  UNL     1      21.411  43.697  43.305  1.00  0.00     0.038 C 
HETATM    4  C4  UNL     1      20.515  42.208  41.540  1.00  0.00     0.073 C 
HETATM    5  C5  UNL     1      20.759  42.361  40.048  1.00  0.00    -0.001 A 
HETATM    6  C6  UNL     1      19.709  42.300  39.138  1.00  0.00     0.115 A 
HETATM    7  S1  UNL     1      20.472  42.467  37.641  1.00  0.00    -0.068 SA
HETATM    8  C7  UNL     1      22.086  42.612  38.161  1.00  0.00     0.004 A 
HETATM    9  C13 UNL     1      21.994  42.527  39.527  1.00  0.00     0.028 A 
HETATM   10  C14 UNL     1      23.109  42.657  40.510  1.00  0.00     0.124 C 
HETATM   11  N1  UNL     1      24.449  42.845  39.979  1.00  0.00    -0.082 NA
HETATM   12  N2  UNL     1      22.934  42.623  41.768  1.00  0.00    -0.369 N 
ATOM     13  H2  UNL     1      23.758  42.715  42.362  1.00  0.00     0.161 HD
ENDROOT
BRANCH   8  14
HETATM   14  C8  UNL     1      23.289  42.759  37.270  1.00  0.00     0.027 C 
HETATM   15  C9  UNL     1      23.810  44.185  37.523  1.00  0.00     0.010 C 
HETATM   16  C10 UNL     1      24.312  44.720  36.230  1.00  0.00     0.001 C 
HETATM   17  C11 UNL     1      23.828  43.822  35.140  1.00  0.00     0.001 C 
HETATM   18  C12 UNL     1      22.881  42.849  35.828  1.00  0.00     0.010 C 
ENDBRANCH   8  14
BRANCH   6  19
HETATM   19  O1  UNL     1      18.333  42.135  39.414  1.00  0.00    -0.353 OA
ATOM     20  H1  UNL     1      17.714  41.568  38.968  1.00  0.00     0.218 HD
ENDBRANCH   6  19
TORSDOF 2
ENDMDL
