MODEL 1
REMARK VINA RESULT: -6.552921205      0.000      0.000
REMARK  2 active torsions:
REMARK  status: ('A' for Active; 'I' for Inactive)
REMARK    1  A    between atoms: C13_16  and  O1_17 
REMARK    2  A    between atoms: O1_17  and  O2_18 
ROOT
HETATM    1  N1  UNL     1      25.266  -3.044   5.347  1.00  0.00    -0.195 NA
HETATM    2  C1  UNL     1      25.626  -3.343   4.288  1.00  0.00     0.084 C 
HETATM    3  C2  UNL     1      26.063  -3.728   2.922  1.00  0.00     0.193 C 
HETATM    4  N2  UNL     1      26.108  -2.552   2.151  1.00  0.00    -0.401 N 
ATOM      5  H2  UNL     1      25.664  -1.689   2.463  1.00  0.00     0.154 HD
HETATM    6  C3  UNL     1      26.816  -2.632   0.893  1.00  0.00     0.080 C 
HETATM    7  C4  UNL     1      26.886  -1.290   0.288  1.00  0.00     0.025 C 
HETATM    8  C5  UNL     1      28.134  -0.504   0.366  1.00  0.00     0.002 C 
HETATM    9  C6  UNL     1      28.396   0.183   1.689  1.00  0.00     0.000 C 
HETATM   10  C7  UNL     1      29.815  -0.008   2.177  1.00  0.00     0.000 C 
HETATM   11  C8  UNL     1      29.941  -0.593   3.538  1.00  0.00     0.000 C 
HETATM   12  C9  UNL     1      30.148  -2.115   3.544  1.00  0.00     0.001 C 
HETATM   13  C10 UNL     1      28.845  -2.816   3.854  1.00  0.00     0.008 C 
HETATM   14  C11 UNL     1      28.631  -4.145   3.289  1.00  0.00     0.034 A 
HETATM   15  C12 UNL     1      27.247  -4.599   2.989  1.00  0.00     0.067 A 
HETATM   16  C13 UNL     1      28.258  -4.441   1.948  1.00  0.00     0.109 A 
HETATM   17  C14 UNL     1      28.078  -3.413   0.926  1.00  0.00     0.067 C 
ENDROOT
BRANCH  16  18
HETATM   18  O1  UNL     1      28.722  -5.691   1.428  1.00  0.00    -0.231 OA
BRANCH  18  19
HETATM   19  O2  UNL     1      28.625  -5.719   0.140  1.00  0.00    -0.250 OA
ATOM     20  H2  UNL     1      27.876  -6.236  -0.132  1.00  0.00     0.253 HD
ENDBRANCH  18  19
ENDBRANCH  16  18
TORSDOF 2
ENDMDL
MODEL 2
REMARK VINA RESULT: -5.530638327      1.876      4.617
REMARK  2 active torsions:
REMARK  status: ('A' for Active; 'I' for Inactive)
REMARK    1  A    between atoms: C13_16  and  O1_17 
REMARK    2  A    between atoms: O1_17  and  O2_18 
ROOT
HETATM    1  N1  UNL     1      28.779  -0.249   4.241  1.00  0.00    -0.195 NA
HETATM    2  C1  UNL     1      28.934  -1.324   3.841  1.00  0.00     0.084 C 
HETATM    3  C2  UNL     1      29.155  -2.705   3.341  1.00  0.00     0.193 C 
HETATM    4  N2  UNL     1      28.704  -3.588   4.338  1.00  0.00    -0.401 N 
ATOM      5  H2  UNL     1      28.519  -3.273   5.290  1.00  0.00     0.154 HD
HETATM    6  C3  UNL     1      28.517  -4.967   3.943  1.00  0.00     0.080 C 
HETATM    7  C4  UNL     1      27.913  -5.715   5.060  1.00  0.00     0.025 C 
HETATM    8  C5  UNL     1      26.472  -6.039   5.044  1.00  0.00     0.002 C 
HETATM    9  C6  UNL     1      25.540  -4.908   5.423  1.00  0.00     0.000 C 
HETATM   10  C7  UNL     1      24.369  -4.772   4.475  1.00  0.00     0.000 C 
HETATM   11  C8  UNL     1      24.210  -3.430   3.857  1.00  0.00     0.000 C 
HETATM   12  C9  UNL     1      24.849  -3.306   2.465  1.00  0.00     0.001 C 
HETATM   13  C10 UNL     1      26.184  -2.605   2.566  1.00  0.00     0.008 C 
HETATM   14  C11 UNL     1      27.214  -2.947   1.588  1.00  0.00     0.034 A 
HETATM   15  C12 UNL     1      28.647  -2.840   1.967  1.00  0.00     0.067 A 
HETATM   16  C13 UNL     1      28.032  -4.112   1.598  1.00  0.00     0.109 A 
HETATM   17  C14 UNL     1      27.907  -5.163   2.604  1.00  0.00     0.067 C 
ENDROOT
BRANCH  16  18
HETATM   18  O1  UNL     1      28.462  -4.589   0.320  1.00  0.00    -0.231 OA
BRANCH  18  19
HETATM   19  O2  UNL     1      28.639  -5.868   0.341  1.00  0.00    -0.250 OA
ATOM     20  H2  UNL     1      29.181  -6.123   1.079  1.00  0.00     0.253 HD
ENDBRANCH  18  19
ENDBRANCH  16  18
TORSDOF 2
ENDMDL
MODEL 3
REMARK VINA RESULT: -5.162283711      2.539      3.931
REMARK  2 active torsions:
REMARK  status: ('A' for Active; 'I' for Inactive)
REMARK    1  A    between atoms: C13_16  and  O1_17 
REMARK    2  A    between atoms: O1_17  and  O2_18 
ROOT
HETATM    1  N1  UNL     1      28.305  -6.309   1.035  1.00  0.00    -0.195 NA
HETATM    2  C1  UNL     1      28.293  -5.657   1.992  1.00  0.00     0.084 C 
HETATM    3  C2  UNL     1      28.297  -4.835   3.229  1.00  0.00     0.193 C 
HETATM    4  N2  UNL     1      29.266  -3.829   3.058  1.00  0.00    -0.401 N 
ATOM      5  H2  UNL     1      29.965  -3.878   2.318  1.00  0.00     0.154 HD
HETATM    6  C3  UNL     1      29.218  -2.723   3.988  1.00  0.00     0.080 C 
HETATM    7  C4  UNL     1      30.202  -1.703   3.582  1.00  0.00     0.025 C 
HETATM    8  C5  UNL     1      29.758  -0.481   2.882  1.00  0.00     0.002 C 
HETATM    9  C6  UNL     1      29.458  -0.641   1.407  1.00  0.00     0.000 C 
HETATM   10  C7  UNL     1      28.155   0.011   1.001  1.00  0.00     0.000 C 
HETATM   11  C8  UNL     1      27.184  -0.889   0.325  1.00  0.00     0.000 C 
HETATM   12  C9  UNL     1      26.135  -1.494   1.270  1.00  0.00     0.001 C 
HETATM   13  C10 UNL     1      26.514  -2.913   1.628  1.00  0.00     0.008 C 
HETATM   14  C11 UNL     1      26.100  -3.425   2.932  1.00  0.00     0.034 A 
HETATM   15  C12 UNL     1      26.923  -4.465   3.603  1.00  0.00     0.067 A 
HETATM   16  C13 UNL     1      26.716  -3.141   4.183  1.00  0.00     0.109 A 
HETATM   17  C14 UNL     1      27.854  -2.236   4.322  1.00  0.00     0.067 C 
ENDROOT
BRANCH  16  18
HETATM   18  O1  UNL     1      25.857  -3.161   5.325  1.00  0.00    -0.231 OA
BRANCH  18  19
HETATM   19  O2  UNL     1      25.216  -4.280   5.401  1.00  0.00    -0.250 OA
ATOM     20  H2  UNL     1      24.526  -4.232   6.052  1.00  0.00     0.253 HD
ENDBRANCH  18  19
ENDBRANCH  16  18
TORSDOF 2
ENDMDL
MODEL 4
REMARK VINA RESULT: -5.106727590      2.685      4.721
REMARK  2 active torsions:
REMARK  status: ('A' for Active; 'I' for Inactive)
REMARK    1  A    between atoms: C13_16  and  O1_17 
REMARK    2  A    between atoms: O1_17  and  O2_18 
ROOT
HETATM    1  N1  UNL     1      30.519   0.626   3.575  1.00  0.00    -0.195 NA
HETATM    2  C1  UNL     1      30.015  -0.010   2.750  1.00  0.00     0.084 C 
HETATM    3  C2  UNL     1      29.391  -0.837   1.686  1.00  0.00     0.193 C 
HETATM    4  N2  UNL     1      29.071  -2.082   2.258  1.00  0.00    -0.401 N 
ATOM      5  H2  UNL     1      29.456  -2.375   3.155  1.00  0.00     0.154 HD
HETATM    6  C3  UNL     1      28.165  -2.923   1.507  1.00  0.00     0.080 C 
HETATM    7  C4  UNL     1      27.830  -4.114   2.309  1.00  0.00     0.025 C 
HETATM    8  C5  UNL     1      26.531  -4.197   3.007  1.00  0.00     0.002 C 
HETATM    9  C6  UNL     1      26.428  -3.415   4.299  1.00  0.00     0.000 C 
HETATM   10  C7  UNL     1      25.151  -2.611   4.396  1.00  0.00     0.000 C 
HETATM   11  C8  UNL     1      25.339  -1.156   4.640  1.00  0.00     0.000 C 
HETATM   12  C9  UNL     1      25.319  -0.304   3.362  1.00  0.00     0.001 C 
HETATM   13  C10 UNL     1      26.730   0.042   2.945  1.00  0.00     0.008 C 
HETATM   14  C11 UNL     1      26.998   0.233   1.522  1.00  0.00     0.034 A 
HETATM   15  C12 UNL     1      28.350  -0.070   0.985  1.00  0.00     0.067 A 
HETATM   16  C13 UNL     1      27.159  -0.793   0.549  1.00  0.00     0.109 A 
HETATM   17  C14 UNL     1      27.031  -2.214   0.863  1.00  0.00     0.067 C 
ENDROOT
BRANCH  16  18
HETATM   18  O1  UNL     1      26.763  -0.463  -0.784  1.00  0.00    -0.231 OA
BRANCH  18  19
HETATM   19  O2  UNL     1      25.779  -1.206  -1.171  1.00  0.00    -0.250 OA
ATOM     20  H2  UNL     1      25.618  -1.097  -2.101  1.00  0.00     0.253 HD
ENDBRANCH  18  19
ENDBRANCH  16  18
TORSDOF 2
ENDMDL
MODEL 5
REMARK VINA RESULT: -5.097960173      2.871      4.169
REMARK  2 active torsions:
REMARK  status: ('A' for Active; 'I' for Inactive)
REMARK    1  A    between atoms: C13_16  and  O1_17 
REMARK    2  A    between atoms: O1_17  and  O2_18 
ROOT
HETATM    1  N1  UNL     1      28.928  -5.014   3.148  1.00  0.00    -0.195 NA
HETATM    2  C1  UNL     1      28.540  -4.260   2.360  1.00  0.00     0.084 C 
HETATM    3  C2  UNL     1      28.043  -3.311   1.331  1.00  0.00     0.193 C 
HETATM    4  N2  UNL     1      26.649  -3.480   1.246  1.00  0.00    -0.401 N 
ATOM      5  H2  UNL     1      26.181  -4.291   1.651  1.00  0.00     0.154 HD
HETATM    6  C3  UNL     1      25.914  -2.444   0.554  1.00  0.00     0.080 C 
HETATM    7  C4  UNL     1      24.469  -2.706   0.681  1.00  0.00     0.025 C 
HETATM    8  C5  UNL     1      23.657  -1.938   1.648  1.00  0.00     0.002 C 
HETATM    9  C6  UNL     1      23.766  -2.379   3.092  1.00  0.00     0.000 C 
HETATM   10  C7  UNL     1      23.953  -1.218   4.045  1.00  0.00     0.000 C 
HETATM   11  C8  UNL     1      25.152  -1.307   4.919  1.00  0.00     0.000 C 
HETATM   12  C9  UNL     1      26.374  -0.551   4.376  1.00  0.00     0.001 C 
HETATM   13  C10 UNL     1      27.336  -1.517   3.723  1.00  0.00     0.008 C 
HETATM   14  C11 UNL     1      28.159  -1.026   2.622  1.00  0.00     0.034 A 
HETATM   15  C12 UNL     1      28.599  -1.969   1.560  1.00  0.00     0.067 A 
HETATM   16  C13 UNL     1      27.737  -0.825   1.278  1.00  0.00     0.109 A 
HETATM   17  C14 UNL     1      26.366  -1.057   0.831  1.00  0.00     0.067 C 
ENDROOT
BRANCH  16  18
HETATM   18  O1  UNL     1      28.407   0.213   0.557  1.00  0.00    -0.231 OA
BRANCH  18  19
HETATM   19  O2  UNL     1      27.699   0.606  -0.449  1.00  0.00    -0.250 OA
ATOM     20  H2  UNL     1      28.168   0.477  -1.265  1.00  0.00     0.253 HD
ENDBRANCH  18  19
ENDBRANCH  16  18
TORSDOF 2
ENDMDL
