MODEL 1
REMARK VINA RESULT: -5.772300413      0.000      0.000
REMARK  1 active torsions:
REMARK  status: ('A' for Active; 'I' for Inactive)
REMARK    1  A    between atoms: C2_2  and  N1_3 
REMARK       I    between atoms: N1_3  and  C3_5 
REMARK       I    between atoms: C3_5  and  N2_7 
ROOT
HETATM    1  N1  UNL     1      22.469  -1.436  -2.079  1.00  0.00    -0.342 N 
ATOM      2  H1  UNL     1      21.672  -0.822  -1.914  1.00  0.00     0.164 HD
HETATM    3  C3  UNL     1      22.862  -1.688  -3.403  1.00  0.00     0.334 C 
HETATM    4  O1  UNL     1      23.871  -2.456  -3.567  1.00  0.00    -0.246 OA
HETATM    5  N2  UNL     1      22.175  -1.118  -4.492  1.00  0.00    -0.214 N 
HETATM    6  S1  UNL     1      22.732  -1.380  -6.171  1.00  0.00    -0.020 SA
HETATM    7  C4  UNL     1      21.769  -0.213  -7.105  1.00  0.00     0.084 C 
HETATM    8  C5  UNL     1      22.526   0.502  -8.181  1.00  0.00     0.034 C 
HETATM    9  C6  UNL     1      21.589   1.546  -8.776  1.00  0.00     0.002 C 
HETATM   10  C7  UNL     1      20.392   0.822  -9.319  1.00  0.00     0.000 C 
HETATM   11  C8  UNL     1      19.623   0.136  -8.207  1.00  0.00     0.002 C 
HETATM   12  C9  UNL     1      20.537  -0.914  -7.620  1.00  0.00     0.034 C 
HETATM   13  S2  UNL     1      21.217   0.928  -5.807  1.00  0.00    -0.070 SA
HETATM   14  C10 UNL     1      21.031  -0.324  -4.493  1.00  0.00     0.156 C 
HETATM   15  N3  UNL     1      19.993  -0.399  -3.786  1.00  0.00    -0.379 N 
ATOM     16  H31 UNL     1      19.154   0.183  -3.786  1.00  0.00     0.158 HD
ATOM     17  H32 UNL     1      19.888  -1.098  -3.051  1.00  0.00     0.158 HD
ENDROOT
BRANCH   1  18
HETATM   18  C2  UNL     1      23.155  -2.016  -0.933  1.00  0.00     0.120 C 
HETATM   19  C1  UNL     1      22.272  -2.014   0.274  1.00  0.00     0.026 C 
ENDBRANCH   1  18
TORSDOF 1
ENDMDL
MODEL 2
REMARK VINA RESULT: -5.748881061      2.819      3.679
REMARK  1 active torsions:
REMARK  status: ('A' for Active; 'I' for Inactive)
REMARK    1  A    between atoms: C2_2  and  N1_3 
REMARK       I    between atoms: N1_3  and  C3_5 
REMARK       I    between atoms: C3_5  and  N2_7 
ROOT
HETATM    1  N1  UNL     1      19.994   1.439  -2.096  1.00  0.00    -0.342 N 
ATOM      2  H1  UNL     1      20.789   0.822  -1.929  1.00  0.00     0.164 HD
HETATM    3  C3  UNL     1      19.606   1.693  -3.421  1.00  0.00     0.334 C 
HETATM    4  O1  UNL     1      18.600   2.464  -3.588  1.00  0.00    -0.246 OA
HETATM    5  N2  UNL     1      20.293   1.121  -4.509  1.00  0.00    -0.214 N 
HETATM    6  S1  UNL     1      19.742   1.385  -6.189  1.00  0.00    -0.020 SA
HETATM    7  C4  UNL     1      20.703   0.214  -7.121  1.00  0.00     0.084 C 
HETATM    8  C5  UNL     1      19.946  -0.498  -8.198  1.00  0.00     0.034 C 
HETATM    9  C6  UNL     1      20.881  -1.545  -8.792  1.00  0.00     0.002 C 
HETATM   10  C7  UNL     1      22.082  -0.826  -9.332  1.00  0.00     0.000 C 
HETATM   11  C8  UNL     1      22.850  -0.142  -8.217  1.00  0.00     0.002 C 
HETATM   12  C9  UNL     1      21.939   0.911  -7.632  1.00  0.00     0.034 C 
HETATM   13  S2  UNL     1      21.248  -0.929  -5.821  1.00  0.00    -0.070 SA
HETATM   14  C10 UNL     1      21.435   0.322  -4.506  1.00  0.00     0.156 C 
HETATM   15  N3  UNL     1      22.472   0.393  -3.797  1.00  0.00    -0.379 N 
ATOM     16  H31 UNL     1      23.308  -0.191  -3.795  1.00  0.00     0.158 HD
ATOM     17  H32 UNL     1      22.576   1.093  -3.062  1.00  0.00     0.158 HD
ENDROOT
BRANCH   1  18
HETATM   18  C2  UNL     1      19.307   2.022  -0.952  1.00  0.00     0.120 C 
HETATM   19  C1  UNL     1      20.194   2.035   0.252  1.00  0.00     0.026 C 
ENDBRANCH   1  18
TORSDOF 1
ENDMDL
MODEL 3
REMARK VINA RESULT: -5.144079420      2.153      2.355
REMARK  1 active torsions:
REMARK  status: ('A' for Active; 'I' for Inactive)
REMARK    1  A    between atoms: C2_2  and  N1_3 
REMARK       I    between atoms: N1_3  and  C3_5 
REMARK       I    between atoms: C3_5  and  N2_7 
ROOT
HETATM    1  N1  UNL     1      20.676   1.011  -1.595  1.00  0.00    -0.342 N 
ATOM      2  H1  UNL     1      20.203   1.784  -2.063  1.00  0.00     0.164 HD
HETATM    3  C3  UNL     1      21.199  -0.031  -2.376  1.00  0.00     0.334 C 
HETATM    4  O1  UNL     1      21.792  -0.976  -1.752  1.00  0.00    -0.246 OA
HETATM    5  N2  UNL     1      21.077  -0.027  -3.779  1.00  0.00    -0.214 N 
HETATM    6  S1  UNL     1      21.818  -1.317  -4.771  1.00  0.00    -0.020 SA
HETATM    7  C4  UNL     1      21.675  -0.688  -6.428  1.00  0.00     0.084 C 
HETATM    8  C5  UNL     1      22.879  -0.916  -7.289  1.00  0.00     0.034 C 
HETATM    9  C6  UNL     1      22.633  -0.200  -8.611  1.00  0.00     0.002 C 
HETATM   10  C7  UNL     1      21.391  -0.783  -9.218  1.00  0.00     0.000 C 
HETATM   11  C8  UNL     1      20.181  -0.508  -8.345  1.00  0.00     0.002 C 
HETATM   12  C9  UNL     1      20.406  -1.229  -7.037  1.00  0.00     0.034 C 
HETATM   13  S2  UNL     1      21.397   1.079  -6.125  1.00  0.00    -0.070 SA
HETATM   14  C10 UNL     1      20.414   0.879  -4.602  1.00  0.00     0.156 C 
HETATM   15  N3  UNL     1      19.317   1.474  -4.435  1.00  0.00    -0.379 N 
ATOM     16  H31 UNL     1      18.831   2.137  -5.038  1.00  0.00     0.158 HD
ATOM     17  H32 UNL     1      18.767   1.362  -3.583  1.00  0.00     0.158 HD
ENDROOT
BRANCH   1  18
HETATM   18  C2  UNL     1      20.781   1.032  -0.142  1.00  0.00     0.120 C 
HETATM   19  C1  UNL     1      20.011   2.179   0.431  1.00  0.00     0.026 C 
ENDBRANCH   1  18
TORSDOF 1
ENDMDL
MODEL 4
REMARK VINA RESULT: -5.119541125      1.686      2.479
REMARK  1 active torsions:
REMARK  status: ('A' for Active; 'I' for Inactive)
REMARK    1  A    between atoms: C2_2  and  N1_3 
REMARK       I    between atoms: N1_3  and  C3_5 
REMARK       I    between atoms: C3_5  and  N2_7 
ROOT
HETATM    1  N1  UNL     1      21.920  -1.141  -1.694  1.00  0.00    -0.342 N 
ATOM      2  H1  UNL     1      22.413  -1.883  -2.191  1.00  0.00     0.164 HD
HETATM    3  C3  UNL     1      21.352  -0.094  -2.436  1.00  0.00     0.334 C 
HETATM    4  O1  UNL     1      20.736   0.811  -1.776  1.00  0.00    -0.246 OA
HETATM    5  N2  UNL     1      21.457  -0.051  -3.840  1.00  0.00    -0.214 N 
HETATM    6  S1  UNL     1      20.662   1.243  -4.783  1.00  0.00    -0.020 SA
HETATM    7  C4  UNL     1      20.804   0.670  -6.460  1.00  0.00     0.084 C 
HETATM    8  C5  UNL     1      19.583   0.884  -7.299  1.00  0.00     0.034 C 
HETATM    9  C6  UNL     1      19.836   0.217  -8.646  1.00  0.00     0.002 C 
HETATM   10  C7  UNL     1      21.050   0.861  -9.248  1.00  0.00     0.000 C 
HETATM   11  C8  UNL     1      22.279   0.600  -8.399  1.00  0.00     0.002 C 
HETATM   12  C9  UNL     1      22.047   1.272  -7.067  1.00  0.00     0.034 C 
HETATM   13  S2  UNL     1      21.145  -1.095  -6.216  1.00  0.00    -0.070 SA
HETATM   14  C10 UNL     1      22.140  -0.908  -4.698  1.00  0.00     0.156 C 
HETATM   15  N3  UNL     1      23.258  -1.471  -4.562  1.00  0.00    -0.379 N 
ATOM     16  H31 UNL     1      23.758  -2.098  -5.191  1.00  0.00     0.158 HD
ATOM     17  H32 UNL     1      23.815  -1.367  -3.714  1.00  0.00     0.158 HD
ENDROOT
BRANCH   1  18
HETATM   18  C2  UNL     1      21.834  -1.210  -0.241  1.00  0.00     0.120 C 
HETATM   19  C1  UNL     1      22.761  -2.253   0.298  1.00  0.00     0.026 C 
ENDBRANCH   1  18
TORSDOF 1
ENDMDL
MODEL 5
REMARK VINA RESULT: -5.079877657      2.535      3.024
REMARK  1 active torsions:
REMARK  status: ('A' for Active; 'I' for Inactive)
REMARK    1  A    between atoms: C2_2  and  N1_3 
REMARK       I    between atoms: N1_3  and  C3_5 
REMARK       I    between atoms: C3_5  and  N2_7 
ROOT
HETATM    1  N1  UNL     1      20.466   0.301  -3.320  1.00  0.00    -0.342 N 
ATOM      2  H1  UNL     1      19.885  -0.499  -3.570  1.00  0.00     0.164 HD
HETATM    3  C3  UNL     1      21.225   0.923  -4.323  1.00  0.00     0.334 C 
HETATM    4  O1  UNL     1      21.934   1.927  -3.971  1.00  0.00    -0.246 OA
HETATM    5  N2  UNL     1      21.200   0.460  -5.654  1.00  0.00    -0.214 N 
HETATM    6  S1  UNL     1      22.106   1.308  -6.941  1.00  0.00    -0.020 SA
HETATM    7  C4  UNL     1      21.490   0.560  -8.432  1.00  0.00     0.084 C 
HETATM    8  C5  UNL     1      21.247   1.517  -9.557  1.00  0.00     0.034 C 
HETATM    9  C6  UNL     1      20.601   0.730 -10.690  1.00  0.00     0.002 C 
HETATM   10  C7  UNL     1      21.550  -0.364 -11.080  1.00  0.00     0.000 C 
HETATM   11  C8  UNL     1      21.752  -1.339  -9.936  1.00  0.00     0.002 C 
HETATM   12  C9  UNL     1      22.409  -0.574  -8.812  1.00  0.00     0.034 C 
HETATM   13  S2  UNL     1      19.945  -0.193  -7.851  1.00  0.00    -0.070 SA
HETATM   14  C10 UNL     1      20.543  -0.645  -6.188  1.00  0.00     0.156 C 
HETATM   15  N3  UNL     1      20.374  -1.797  -5.710  1.00  0.00    -0.379 N 
ATOM     16  H31 UNL     1      19.894  -2.607  -6.102  1.00  0.00     0.158 HD
ATOM     17  H32 UNL     1      20.709  -2.050  -4.780  1.00  0.00     0.158 HD
ENDROOT
BRANCH   1  18
HETATM   18  C2  UNL     1      20.477   0.752  -1.935  1.00  0.00     0.120 C 
HETATM   19  C1  UNL     1      19.420   1.784  -1.703  1.00  0.00     0.026 C 
ENDBRANCH   1  18
TORSDOF 1
ENDMDL
