MODEL 1
REMARK VINA RESULT: -5.641175745      0.000      0.000
REMARK  2 active torsions:
REMARK  status: ('A' for Active; 'I' for Inactive)
REMARK    1  A    between atoms: C3_4  and  N1_5 
REMARK    2  A    between atoms: C9_15  and  N3_16 
ROOT
HETATM    1  C1  UNL     1      23.376  -1.860  -0.665  1.00  0.00     0.057 C 
HETATM    2  C2  UNL     1      22.417  -1.493  -1.775  1.00  0.00    -0.012 A 
HETATM    3  S1  UNL     1      22.270  -2.186  -3.322  1.00  0.00    -0.075 SA
HETATM    4  C3  UNL     1      20.998  -1.230  -3.931  1.00  0.00     0.096 A 
HETATM    5  C10 UNL     1      20.716  -0.379  -2.891  1.00  0.00     0.085 A 
HETATM    6  C11 UNL     1      19.645   0.630  -3.029  1.00  0.00     0.103 C 
HETATM    7  N4  UNL     1      18.797   1.427  -3.148  1.00  0.00    -0.191 NA
HETATM    8  C12 UNL     1      21.459  -0.521  -1.770  1.00  0.00    -0.026 A 
HETATM    9  C13 UNL     1      21.280   0.339  -0.525  1.00  0.00     0.051 C 
ENDROOT
BRANCH   4  10
HETATM   10  N1  UNL     1      20.351  -1.277  -5.228  1.00  0.00    -0.353 N 
HETATM   11  C4  UNL     1      20.846  -0.702  -6.248  1.00  0.00     0.047 C 
HETATM   12  C5  UNL     1      22.092   0.097  -6.378  1.00  0.00     0.094 C 
HETATM   13  C9  UNL     1      20.203  -0.737  -7.586  1.00  0.00     0.426 C 
HETATM   14  C6  UNL     1      22.141   0.529  -7.819  1.00  0.00     0.126 C 
HETATM   15  C7  UNL     1      23.170  -0.251  -8.590  1.00  0.00     0.046 C 
HETATM   16  C8  UNL     1      22.424   2.021  -7.846  1.00  0.00     0.046 C 
HETATM   17  N2  UNL     1      20.839   0.298  -8.376  1.00  0.00    -0.033 N 
ATOM     18  H22 UNL     1      20.279   1.148  -8.442  1.00  0.00     0.281 HD
ATOM     19  H21 UNL     1      20.867   0.078  -9.372  1.00  0.00     0.281 HD
ATOM     20  H1  UNL     1      19.473  -1.788  -5.325  1.00  0.00     0.166 HD
BRANCH  13  21
HETATM   21  N3  UNL     1      20.256  -2.025  -8.209  1.00  0.00    -0.045 N 
ATOM     22  H33 UNL     1      20.428  -2.754  -7.517  1.00  0.00     0.277 HD
ATOM     23  H32 UNL     1      19.330  -2.310  -8.529  1.00  0.00     0.277 HD
ATOM     24  H31 UNL     1      20.933  -2.079  -8.969  1.00  0.00     0.277 HD
ENDBRANCH  13  21
ENDBRANCH   4  10
TORSDOF 2
ENDMDL
MODEL 2
REMARK VINA RESULT: -5.622951580      2.091      3.376
REMARK  2 active torsions:
REMARK  status: ('A' for Active; 'I' for Inactive)
REMARK    1  A    between atoms: C3_4  and  N1_5 
REMARK    2  A    between atoms: C9_15  and  N3_16 
ROOT
HETATM    1  C1  UNL     1      19.279   1.757  -0.559  1.00  0.00     0.057 C 
HETATM    2  C2  UNL     1      20.195   1.406  -1.709  1.00  0.00    -0.012 A 
HETATM    3  S1  UNL     1      20.327   2.160  -3.229  1.00  0.00    -0.075 SA
HETATM    4  C3  UNL     1      21.548   1.188  -3.912  1.00  0.00     0.096 A 
HETATM    5  C10 UNL     1      21.825   0.284  -2.919  1.00  0.00     0.085 A 
HETATM    6  C11 UNL     1      22.856  -0.755  -3.128  1.00  0.00     0.103 C 
HETATM    7  N4  UNL     1      23.671  -1.575  -3.305  1.00  0.00    -0.191 NA
HETATM    8  C12 UNL     1      21.117   0.403  -1.773  1.00  0.00    -0.026 A 
HETATM    9  C13 UNL     1      21.298  -0.517  -0.570  1.00  0.00     0.051 C 
ENDROOT
BRANCH   4  10
HETATM   10  N1  UNL     1      22.162   1.270  -5.224  1.00  0.00    -0.353 N 
HETATM   11  C4  UNL     1      21.651   0.708  -6.242  1.00  0.00     0.047 C 
HETATM   12  C5  UNL     1      20.412  -0.105  -6.359  1.00  0.00     0.094 C 
HETATM   13  C9  UNL     1      22.260   0.778  -7.595  1.00  0.00     0.426 C 
HETATM   14  C6  UNL     1      20.334  -0.509  -7.807  1.00  0.00     0.126 C 
HETATM   15  C7  UNL     1      19.276   0.271  -8.537  1.00  0.00     0.046 C 
HETATM   16  C8  UNL     1      20.071  -2.005  -7.856  1.00  0.00     0.046 C 
HETATM   17  N2  UNL     1      21.618  -0.250  -8.390  1.00  0.00    -0.033 N 
ATOM     18  H22 UNL     1      22.188  -1.091  -8.486  1.00  0.00     0.281 HD
ATOM     19  H21 UNL     1      21.564  -0.011  -9.380  1.00  0.00     0.281 HD
ATOM     20  H1  UNL     1      23.030   1.795  -5.331  1.00  0.00     0.166 HD
BRANCH  13  21
HETATM   21  N3  UNL     1      22.175   2.077  -8.190  1.00  0.00    -0.045 N 
ATOM     22  H33 UNL     1      22.455   2.044  -9.171  1.00  0.00     0.277 HD
ATOM     23  H32 UNL     1      21.201   2.361  -8.303  1.00  0.00     0.277 HD
ATOM     24  H31 UNL     1      22.702   2.790  -7.686  1.00  0.00     0.277 HD
ENDBRANCH  13  21
ENDBRANCH   4  10
TORSDOF 2
ENDMDL
MODEL 3
REMARK VINA RESULT: -5.358143721      7.617     10.987
REMARK  2 active torsions:
REMARK  status: ('A' for Active; 'I' for Inactive)
REMARK    1  A    between atoms: C3_4  and  N1_5 
REMARK    2  A    between atoms: C9_15  and  N3_16 
ROOT
HETATM    1  C1  UNL     1      29.952  -0.170   2.051  1.00  0.00     0.057 C 
HETATM    2  C2  UNL     1      28.663  -0.957   2.110  1.00  0.00    -0.012 A 
HETATM    3  S1  UNL     1      28.094  -1.967   3.356  1.00  0.00    -0.075 SA
HETATM    4  C3  UNL     1      26.618  -2.456   2.660  1.00  0.00     0.096 A 
HETATM    5  C10 UNL     1      26.608  -1.806   1.452  1.00  0.00     0.085 A 
HETATM    6  C11 UNL     1      25.465  -1.975   0.529  1.00  0.00     0.103 C 
HETATM    7  N4  UNL     1      24.559  -2.117  -0.196  1.00  0.00    -0.191 NA
HETATM    8  C12 UNL     1      27.677  -1.026   1.171  1.00  0.00    -0.026 A 
HETATM    9  C13 UNL     1      27.828  -0.236  -0.124  1.00  0.00     0.051 C 
ENDROOT
BRANCH   4  10
HETATM   10  N1  UNL     1      25.600  -3.343   3.190  1.00  0.00    -0.353 N 
HETATM   11  C4  UNL     1      25.821  -4.580   3.383  1.00  0.00     0.047 C 
HETATM   12  C5  UNL     1      27.053  -5.375   3.143  1.00  0.00     0.094 C 
HETATM   13  C9  UNL     1      24.796  -5.507   3.925  1.00  0.00     0.426 C 
HETATM   14  C6  UNL     1      26.704  -6.783   3.548  1.00  0.00     0.126 C 
HETATM   15  C7  UNL     1      27.342  -7.149   4.859  1.00  0.00     0.046 C 
HETATM   16  C8  UNL     1      27.144  -7.709   2.426  1.00  0.00     0.046 C 
HETATM   17  N2  UNL     1      25.277  -6.850   3.665  1.00  0.00    -0.033 N 
ATOM     18  H22 UNL     1      24.831  -7.282   2.855  1.00  0.00     0.281 HD
ATOM     19  H21 UNL     1      24.967  -7.525   4.365  1.00  0.00     0.281 HD
ATOM     20  H1  UNL     1      24.681  -2.963   3.415  1.00  0.00     0.166 HD
BRANCH  13  21
HETATM   21  N3  UNL     1      24.496  -5.281   5.306  1.00  0.00    -0.045 N 
ATOM     22  H33 UNL     1      23.600  -5.700   5.555  1.00  0.00     0.277 HD
ATOM     23  H32 UNL     1      25.112  -5.832   5.905  1.00  0.00     0.277 HD
ATOM     24  H31 UNL     1      24.522  -4.296   5.570  1.00  0.00     0.277 HD
ENDBRANCH  13  21
ENDBRANCH   4  10
TORSDOF 2
ENDMDL
MODEL 4
REMARK VINA RESULT: -5.343511715      9.150     11.514
REMARK  2 active torsions:
REMARK  status: ('A' for Active; 'I' for Inactive)
REMARK    1  A    between atoms: C3_4  and  N1_5 
REMARK    2  A    between atoms: C9_15  and  N3_16 
ROOT
HETATM    1  C1  UNL     1      26.265  -7.409   5.426  1.00  0.00     0.057 C 
HETATM    2  C2  UNL     1      27.104  -6.432   4.635  1.00  0.00    -0.012 A 
HETATM    3  S1  UNL     1      27.859  -5.004   5.173  1.00  0.00    -0.075 SA
HETATM    4  C3  UNL     1      28.580  -4.508   3.712  1.00  0.00     0.096 A 
HETATM    5  C10 UNL     1      28.205  -5.486   2.826  1.00  0.00     0.085 A 
HETATM    6  C11 UNL     1      28.642  -5.416   1.415  1.00  0.00     0.103 C 
HETATM    7  N4  UNL     1      28.990  -5.351   0.301  1.00  0.00    -0.191 NA
HETATM    8  C12 UNL     1      27.437  -6.487   3.313  1.00  0.00    -0.026 A 
HETATM    9  C13 UNL     1      26.933  -7.651   2.469  1.00  0.00     0.051 C 
ENDROOT
BRANCH   4  10
HETATM   10  N1  UNL     1      29.393  -3.339   3.438  1.00  0.00    -0.353 N 
HETATM   11  C4  UNL     1      28.938  -2.335   2.806  1.00  0.00     0.047 C 
HETATM   12  C5  UNL     1      27.586  -2.106   2.231  1.00  0.00     0.094 C 
HETATM   13  C9  UNL     1      29.750  -1.127   2.515  1.00  0.00     0.426 C 
HETATM   14  C6  UNL     1      27.650  -0.744   1.592  1.00  0.00     0.126 C 
HETATM   15  C7  UNL     1      26.911   0.278   2.410  1.00  0.00     0.046 C 
HETATM   16  C8  UNL     1      27.081  -0.865   0.188  1.00  0.00     0.046 C 
HETATM   17  N2  UNL     1      29.034  -0.383   1.497  1.00  0.00    -0.033 N 
ATOM     18  H22 UNL     1      29.417  -0.520   0.562  1.00  0.00     0.281 HD
ATOM     19  H21 UNL     1      29.187   0.624   1.559  1.00  0.00     0.281 HD
ATOM     20  H1  UNL     1      30.360  -3.322   3.763  1.00  0.00     0.166 HD
BRANCH  13  21
HETATM   21  N3  UNL     1      30.040  -0.342   3.676  1.00  0.00    -0.045 N 
ATOM     22  H33 UNL     1      29.327   0.373   3.817  1.00  0.00     0.277 HD
ATOM     23  H32 UNL     1      29.901  -0.890   4.527  1.00  0.00     0.277 HD
ATOM     24  H31 UNL     1      30.972   0.073   3.663  1.00  0.00     0.277 HD
ENDBRANCH  13  21
ENDBRANCH   4  10
TORSDOF 2
ENDMDL
MODEL 5
REMARK VINA RESULT: -5.298463278      1.988      2.995
REMARK  2 active torsions:
REMARK  status: ('A' for Active; 'I' for Inactive)
REMARK    1  A    between atoms: C3_4  and  N1_5 
REMARK    2  A    between atoms: C9_15  and  N3_16 
ROOT
HETATM    1  C1  UNL     1      19.362   1.888  -1.302  1.00  0.00     0.057 C 
HETATM    2  C2  UNL     1      20.238   1.014  -2.171  1.00  0.00    -0.012 A 
HETATM    3  S1  UNL     1      20.281   0.911  -3.869  1.00  0.00    -0.075 SA
HETATM    4  C3  UNL     1      21.500  -0.267  -4.041  1.00  0.00     0.096 A 
HETATM    5  C10 UNL     1      21.848  -0.554  -2.745  1.00  0.00     0.085 A 
HETATM    6  C11 UNL     1      22.900  -1.554  -2.464  1.00  0.00     0.103 C 
HETATM    7  N4  UNL     1      23.731  -2.349  -2.252  1.00  0.00    -0.191 NA
HETATM    8  C12 UNL     1      21.187   0.117  -1.775  1.00  0.00    -0.026 A 
HETATM    9  C13 UNL     1      21.447  -0.079  -0.286  1.00  0.00     0.051 C 
ENDROOT
BRANCH   4  10
HETATM   10  N1  UNL     1      22.054  -0.847  -5.250  1.00  0.00    -0.353 N 
HETATM   11  C4  UNL     1      21.695  -0.461  -6.407  1.00  0.00     0.047 C 
HETATM   12  C5  UNL     1      20.712   0.581  -6.799  1.00  0.00     0.094 C 
HETATM   13  C9  UNL     1      22.248  -1.039  -7.657  1.00  0.00     0.426 C 
HETATM   14  C6  UNL     1      20.706   0.577  -8.305  1.00  0.00     0.126 C 
HETATM   15  C7  UNL     1      21.424   1.776  -8.859  1.00  0.00     0.046 C 
HETATM   16  C8  UNL     1      19.257   0.524  -8.761  1.00  0.00     0.046 C 
HETATM   17  N2  UNL     1      21.365  -0.624  -8.729  1.00  0.00    -0.033 N 
ATOM     18  H22 UNL     1      20.713  -1.355  -9.013  1.00  0.00     0.281 HD
ATOM     19  H21 UNL     1      21.846  -0.518  -9.623  1.00  0.00     0.281 HD
ATOM     20  H1  UNL     1      22.751  -1.587  -5.168  1.00  0.00     0.166 HD
BRANCH  13  21
HETATM   21  N3  UNL     1      23.615  -0.684  -7.893  1.00  0.00    -0.045 N 
ATOM     22  H33 UNL     1      23.902   0.077  -7.277  1.00  0.00     0.277 HD
ATOM     23  H32 UNL     1      24.242  -1.417  -7.560  1.00  0.00     0.277 HD
ATOM     24  H31 UNL     1      23.812  -0.456  -8.868  1.00  0.00     0.277 HD
ENDBRANCH  13  21
ENDBRANCH   4  10
TORSDOF 2
ENDMDL
