MODEL 1
REMARK VINA RESULT: -6.407078247      0.000      0.000
REMARK  2 active torsions:
REMARK  status: ('A' for Active; 'I' for Inactive)
REMARK    1  A    between atoms: C2_2  and  C5_5 
REMARK    2  A    between atoms: C7_8  and  C8_9 
ROOT
HETATM    1  C5  UNL     1      21.895  -0.676  -3.436  1.00  0.00     0.024 A 
HETATM    2  C6  UNL     1      21.145   0.365  -2.941  1.00  0.00     0.077 A 
HETATM    3  S1  UNL     1      20.444   0.982  -4.375  1.00  0.00    -0.085 SA
HETATM    4  C7  UNL     1      21.139  -0.103  -5.483  1.00  0.00     0.074 A 
HETATM    5  N3  UNL     1      21.870  -0.887  -4.716  1.00  0.00    -0.354 N 
ATOM      6  H3  UNL     1      22.411  -1.649  -5.125  1.00  0.00     0.166 HD
ENDROOT
BRANCH   4   7
HETATM    7  C8  UNL     1      20.986  -0.158  -6.986  1.00  0.00     0.141 C 
HETATM    8  C9  UNL     1      21.878   0.903  -7.520  1.00  0.00     0.042 C 
HETATM    9  C10 UNL     1      21.988   1.049  -8.992  1.00  0.00     0.084 C 
HETATM   10  S2  UNL     1      21.105  -0.299  -9.872  1.00  0.00    -0.095 SA
HETATM   11  C11 UNL     1      21.360  -1.723  -8.824  1.00  0.00     0.134 C 
HETATM   12  N1  UNL     1      21.635  -2.859  -9.325  1.00  0.00    -0.380 N 
HETATM   13  N2  UNL     1      21.238  -1.502  -7.444  1.00  0.00    -0.360 N 
ATOM     14  H12 UNL     1      21.725  -3.019 -10.328  1.00  0.00     0.158 HD
ATOM     15  H11 UNL     1      21.781  -3.672  -8.726  1.00  0.00     0.158 HD
ATOM     16  H2  UNL     1      21.324  -2.273  -6.781  1.00  0.00     0.162 HD
ENDBRANCH   4   7
BRANCH   1  17
HETATM   17  C2  UNL     1      22.724  -1.529  -2.490  1.00  0.00    -0.008 C 
HETATM   18  C1  UNL     1      24.184  -1.248  -2.642  1.00  0.00     0.021 C 
HETATM   19  C3  UNL     1      22.268  -1.335  -1.065  1.00  0.00     0.021 C 
HETATM   20  C4  UNL     1      22.482  -2.981  -2.840  1.00  0.00     0.021 C 
ENDBRANCH   1  17
TORSDOF 2
ENDMDL
MODEL 2
REMARK VINA RESULT: -6.406759413      2.156      3.482
REMARK  2 active torsions:
REMARK  status: ('A' for Active; 'I' for Inactive)
REMARK    1  A    between atoms: C2_2  and  C5_5 
REMARK    2  A    between atoms: C7_8  and  C8_9 
ROOT
HETATM    1  C5  UNL     1      20.571   0.668  -3.420  1.00  0.00     0.024 A 
HETATM    2  C6  UNL     1      21.311  -0.379  -2.923  1.00  0.00     0.077 A 
HETATM    3  S1  UNL     1      22.013  -1.000  -4.355  1.00  0.00    -0.085 SA
HETATM    4  C7  UNL     1      21.331   0.093  -5.464  1.00  0.00     0.074 A 
HETATM    5  N3  UNL     1      20.603   0.880  -4.699  1.00  0.00    -0.354 N 
ATOM      6  H3  UNL     1      20.070   1.648  -5.109  1.00  0.00     0.166 HD
ENDROOT
BRANCH   4   7
HETATM    7  C8  UNL     1      21.491   0.149  -6.967  1.00  0.00     0.141 C 
HETATM    8  C9  UNL     1      20.609  -0.920  -7.505  1.00  0.00     0.042 C 
HETATM    9  C10 UNL     1      20.507  -1.066  -8.977  1.00  0.00     0.084 C 
HETATM   10  S2  UNL     1      21.384   0.288  -9.853  1.00  0.00    -0.095 SA
HETATM   11  C11 UNL     1      21.114   1.710  -8.807  1.00  0.00     0.134 C 
HETATM   12  N1  UNL     1      20.833   2.844  -9.309  1.00  0.00    -0.380 N 
HETATM   13  N2  UNL     1      21.231   1.490  -7.426  1.00  0.00    -0.360 N 
ATOM     14  H12 UNL     1      20.747   3.004 -10.312  1.00  0.00     0.158 HD
ATOM     15  H11 UNL     1      20.678   3.656  -8.711  1.00  0.00     0.158 HD
ATOM     16  H2  UNL     1      21.136   2.261  -6.764  1.00  0.00     0.162 HD
ENDBRANCH   4   7
BRANCH   1  17
HETATM   17  C2  UNL     1      19.746   1.526  -2.476  1.00  0.00    -0.008 C 
HETATM   18  C1  UNL     1      18.284   1.255  -2.632  1.00  0.00     0.021 C 
HETATM   19  C3  UNL     1      20.196   1.328  -1.049  1.00  0.00     0.021 C 
HETATM   20  C4  UNL     1      19.998   2.977  -2.825  1.00  0.00     0.021 C 
ENDBRANCH   1  17
TORSDOF 2
ENDMDL
MODEL 3
REMARK VINA RESULT: -6.338887290      1.554      2.819
REMARK  2 active torsions:
REMARK  status: ('A' for Active; 'I' for Inactive)
REMARK    1  A    between atoms: C2_2  and  C5_5 
REMARK    2  A    between atoms: C7_8  and  C8_9 
ROOT
HETATM    1  C5  UNL     1      20.499   0.644  -3.449  1.00  0.00     0.024 A 
HETATM    2  C6  UNL     1      21.397  -0.293  -2.993  1.00  0.00     0.077 A 
HETATM    3  S1  UNL     1      21.928  -0.992  -4.462  1.00  0.00    -0.085 SA
HETATM    4  C7  UNL     1      20.989  -0.065  -5.535  1.00  0.00     0.074 A 
HETATM    5  N3  UNL     1      20.317   0.735  -4.731  1.00  0.00    -0.354 N 
ATOM      6  H3  UNL     1      19.661   1.417  -5.112  1.00  0.00     0.166 HD
ENDROOT
BRANCH   4   7
HETATM    7  C8  UNL     1      20.913  -0.140  -7.043  1.00  0.00     0.141 C 
HETATM    8  C9  UNL     1      21.850   0.899  -7.545  1.00  0.00     0.042 C 
HETATM    9  C10 UNL     1      22.037   1.020  -9.011  1.00  0.00     0.084 C 
HETATM   10  S2  UNL     1      21.178  -0.326  -9.917  1.00  0.00    -0.095 SA
HETATM   11  C11 UNL     1      21.353  -1.738  -8.837  1.00  0.00     0.134 C 
HETATM   12  N1  UNL     1      21.634  -2.886  -9.306  1.00  0.00    -0.380 N 
HETATM   13  N2  UNL     1      21.164  -1.494  -7.468  1.00  0.00    -0.360 N 
ATOM     14  H12 UNL     1      21.772  -3.063 -10.301  1.00  0.00     0.158 HD
ATOM     15  H11 UNL     1      21.734  -3.692  -8.690  1.00  0.00     0.158 HD
ATOM     16  H2  UNL     1      21.203  -2.257  -6.791  1.00  0.00     0.162 HD
ENDBRANCH   4   7
BRANCH   1  17
HETATM   17  C2  UNL     1      19.753   1.522  -2.460  1.00  0.00    -0.008 C 
HETATM   18  C1  UNL     1      18.275   1.323  -2.563  1.00  0.00     0.021 C 
HETATM   19  C3  UNL     1      20.248   1.277  -1.055  1.00  0.00     0.021 C 
HETATM   20  C4  UNL     1      20.061   2.965  -2.794  1.00  0.00     0.021 C 
ENDBRANCH   1  17
TORSDOF 2
ENDMDL
MODEL 4
REMARK VINA RESULT: -6.337377630      1.527      2.059
REMARK  2 active torsions:
REMARK  status: ('A' for Active; 'I' for Inactive)
REMARK    1  A    between atoms: C2_2  and  C5_5 
REMARK    2  A    between atoms: C7_8  and  C8_9 
ROOT
HETATM    1  C5  UNL     1      21.958  -0.618  -3.490  1.00  0.00     0.024 A 
HETATM    2  C6  UNL     1      21.054   0.314  -3.037  1.00  0.00     0.077 A 
HETATM    3  S1  UNL     1      20.526   1.010  -4.508  1.00  0.00    -0.085 SA
HETATM    4  C7  UNL     1      21.472   0.087  -5.577  1.00  0.00     0.074 A 
HETATM    5  N3  UNL     1      22.145  -0.708  -4.771  1.00  0.00    -0.354 N 
ATOM      6  H3  UNL     1      22.806  -1.387  -5.149  1.00  0.00     0.166 HD
ENDROOT
BRANCH   4   7
HETATM    7  C8  UNL     1      21.554   0.162  -7.085  1.00  0.00     0.141 C 
HETATM    8  C9  UNL     1      20.620  -0.877  -7.591  1.00  0.00     0.042 C 
HETATM    9  C10 UNL     1      20.438  -0.999  -9.057  1.00  0.00     0.084 C 
HETATM   10  S2  UNL     1      21.299   0.348  -9.960  1.00  0.00    -0.095 SA
HETATM   11  C11 UNL     1      21.119   1.760  -8.881  1.00  0.00     0.134 C 
HETATM   12  N1  UNL     1      20.839   2.908  -9.351  1.00  0.00    -0.380 N 
HETATM   13  N2  UNL     1      21.304   1.517  -7.512  1.00  0.00    -0.360 N 
ATOM     14  H12 UNL     1      20.705   3.085 -10.347  1.00  0.00     0.158 HD
ATOM     15  H11 UNL     1      20.736   3.714  -8.735  1.00  0.00     0.158 HD
ATOM     16  H2  UNL     1      21.261   2.279  -6.834  1.00  0.00     0.162 HD
ENDBRANCH   4   7
BRANCH   1  17
HETATM   17  C2  UNL     1      22.705  -1.492  -2.497  1.00  0.00    -0.008 C 
HETATM   18  C1  UNL     1      24.183  -1.286  -2.595  1.00  0.00     0.021 C 
HETATM   19  C3  UNL     1      22.204  -1.249  -1.095  1.00  0.00     0.021 C 
HETATM   20  C4  UNL     1      22.406  -2.937  -2.832  1.00  0.00     0.021 C 
ENDBRANCH   1  17
TORSDOF 2
ENDMDL
MODEL 5
REMARK VINA RESULT: -5.781314502      3.083      6.509
REMARK  2 active torsions:
REMARK  status: ('A' for Active; 'I' for Inactive)
REMARK    1  A    between atoms: C2_2  and  C5_5 
REMARK    2  A    between atoms: C7_8  and  C8_9 
ROOT
HETATM    1  C5  UNL     1      21.252   0.252  -6.036  1.00  0.00     0.024 A 
HETATM    2  C6  UNL     1      21.728  -0.965  -5.610  1.00  0.00     0.077 A 
HETATM    3  S1  UNL     1      21.387  -0.891  -3.935  1.00  0.00    -0.085 SA
HETATM    4  C7  UNL     1      20.677   0.653  -3.892  1.00  0.00     0.074 A 
HETATM    5  N3  UNL     1      20.729   1.042  -5.149  1.00  0.00    -0.354 N 
ATOM      6  H3  UNL     1      20.362   1.954  -5.422  1.00  0.00     0.166 HD
ENDROOT
BRANCH   4   7
HETATM    7  C8  UNL     1      20.134   1.419  -2.706  1.00  0.00     0.141 C 
HETATM    8  C9  UNL     1      18.659   1.244  -2.755  1.00  0.00     0.042 C 
HETATM    9  C10 UNL     1      17.848   1.840  -1.666  1.00  0.00     0.084 C 
HETATM   10  S2  UNL     1      18.907   2.531  -0.336  1.00  0.00    -0.095 SA
HETATM   11  C11 UNL     1      20.289   1.402  -0.269  1.00  0.00     0.134 C 
HETATM   12  N1  UNL     1      20.767   1.023   0.847  1.00  0.00    -0.380 N 
HETATM   13  N2  UNL     1      20.796   0.974  -1.505  1.00  0.00    -0.360 N 
ATOM     14  H12 UNL     1      20.398   1.333   1.746  1.00  0.00     0.158 HD
ATOM     15  H11 UNL     1      21.556   0.378   0.885  1.00  0.00     0.158 HD
ATOM     16  H2  UNL     1      21.612   0.364  -1.553  1.00  0.00     0.162 HD
ENDBRANCH   4   7
BRANCH   1  17
HETATM   17  C2  UNL     1      21.357   0.636  -7.502  1.00  0.00    -0.008 C 
HETATM   18  C1  UNL     1      20.014   0.942  -8.082  1.00  0.00     0.021 C 
HETATM   19  C3  UNL     1      22.313   1.792  -7.680  1.00  0.00     0.021 C 
HETATM   20  C4  UNL     1      21.940  -0.542  -8.251  1.00  0.00     0.021 C 
ENDBRANCH   1  17
TORSDOF 2
ENDMDL
