MODEL 1
REMARK VINA RESULT: -5.504598874      0.000      0.000
REMARK  1 active torsions:
REMARK  status: ('A' for Active; 'I' for Inactive)
REMARK    1  A    between atoms: N1_2  and  N2_4 
ROOT
HETATM    1  N2  UNL     1      26.376  -5.898   2.804  1.00  0.00    -0.304 N 
ATOM      2  H2  UNL     1      25.363  -6.020   2.820  1.00  0.00     0.186 HD
HETATM    3  C2  UNL     1      26.892  -4.719   2.878  1.00  0.00     0.093 C 
HETATM    4  C3  UNL     1      28.360  -4.615   2.846  1.00  0.00     0.064 C 
HETATM    5  C4  UNL     1      28.944  -4.632   4.231  1.00  0.00     0.006 C 
HETATM    6  C5  UNL     1      29.109  -3.254   4.820  1.00  0.00     0.000 C 
HETATM    7  C6  UNL     1      30.120  -2.409   4.108  1.00  0.00     0.000 C 
HETATM    8  C7  UNL     1      29.695  -0.949   4.221  1.00  0.00     0.000 C 
HETATM    9  C8  UNL     1      30.519  -0.024   3.409  1.00  0.00     0.000 C 
HETATM   10  C9  UNL     1      29.989   0.314   2.059  1.00  0.00     0.000 C 
HETATM   11  C10 UNL     1      29.201  -0.752   1.398  1.00  0.00     0.000 C 
HETATM   12  C11 UNL     1      28.267  -0.294   0.335  1.00  0.00     0.002 C 
HETATM   13  C12 UNL     1      26.822  -0.542   0.764  1.00  0.00     0.020 C 
HETATM   14  C13 UNL     1      26.583  -2.013   1.014  1.00  0.00     0.123 C 
HETATM   15  N3  UNL     1      26.249  -2.281   2.406  1.00  0.00    -0.356 N 
ATOM     16  H3  UNL     1      26.167  -1.469   3.019  1.00  0.00     0.162 HD
HETATM   17  C14 UNL     1      26.028  -3.521   2.990  1.00  0.00     0.265 C 
HETATM   18  O1  UNL     1      24.998  -3.693   3.698  1.00  0.00    -0.266 OA
ENDROOT
BRANCH   1  19
HETATM   19  N1  UNL     1      27.216  -6.998   2.701  1.00  0.00    -0.341 N 
HETATM   20  C1  UNL     1      26.769  -8.349   2.424  1.00  0.00     0.167 C 
ATOM     21  H1  UNL     1      28.216  -6.846   2.829  1.00  0.00     0.179 HD
ENDBRANCH   1  19
TORSDOF 1
ENDMDL
MODEL 2
REMARK VINA RESULT: -5.095747051      1.763      3.724
REMARK  1 active torsions:
REMARK  status: ('A' for Active; 'I' for Inactive)
REMARK    1  A    between atoms: N1_2  and  N2_4 
ROOT
HETATM    1  N2  UNL     1      25.634  -5.702   3.671  1.00  0.00    -0.304 N 
ATOM      2  H2  UNL     1      25.985  -6.655   3.769  1.00  0.00     0.186 HD
HETATM    3  C2  UNL     1      26.393  -4.773   3.200  1.00  0.00     0.093 C 
HETATM    4  C3  UNL     1      25.824  -3.420   3.088  1.00  0.00     0.064 C 
HETATM    5  C4  UNL     1      25.209  -3.191   1.736  1.00  0.00     0.006 C 
HETATM    6  C5  UNL     1      26.172  -2.596   0.741  1.00  0.00     0.000 C 
HETATM    7  C6  UNL     1      26.610  -1.205   1.080  1.00  0.00     0.000 C 
HETATM    8  C7  UNL     1      28.028  -1.003   0.556  1.00  0.00     0.000 C 
HETATM    9  C8  UNL     1      28.644   0.275   0.979  1.00  0.00     0.000 C 
HETATM   10  C9  UNL     1      29.501   0.219   2.196  1.00  0.00     0.000 C 
HETATM   11  C10 UNL     1      29.105  -0.785   3.210  1.00  0.00     0.000 C 
HETATM   12  C11 UNL     1      30.179  -1.209   4.147  1.00  0.00     0.002 C 
HETATM   13  C12 UNL     1      30.518  -2.682   3.925  1.00  0.00     0.020 C 
HETATM   14  C13 UNL     1      29.304  -3.551   4.158  1.00  0.00     0.123 C 
HETATM   15  N3  UNL     1      28.890  -4.243   2.945  1.00  0.00    -0.356 N 
ATOM     16  H3  UNL     1      29.474  -4.105   2.121  1.00  0.00     0.162 HD
HETATM   17  C14 UNL     1      27.785  -5.070   2.790  1.00  0.00     0.265 C 
HETATM   18  O1  UNL     1      27.934  -6.199   2.248  1.00  0.00    -0.266 OA
ENDROOT
BRANCH   1  19
HETATM   19  N1  UNL     1      24.335  -5.390   4.044  1.00  0.00    -0.341 N 
HETATM   20  C1  UNL     1      23.869  -5.316   5.415  1.00  0.00     0.167 C 
ATOM     21  H1  UNL     1      23.661  -5.198   3.303  1.00  0.00     0.179 HD
ENDBRANCH   1  19
TORSDOF 1
ENDMDL
MODEL 3
REMARK VINA RESULT: -5.034348488      2.723      5.710
REMARK  1 active torsions:
REMARK  status: ('A' for Active; 'I' for Inactive)
REMARK    1  A    between atoms: N1_2  and  N2_4 
ROOT
HETATM    1  N2  UNL     1      24.442   0.651   3.590  1.00  0.00    -0.304 N 
ATOM      2  H2  UNL     1      23.428   0.770   3.585  1.00  0.00     0.186 HD
HETATM    3  C2  UNL     1      24.972  -0.443   3.162  1.00  0.00     0.093 C 
HETATM    4  C3  UNL     1      26.440  -0.549   3.199  1.00  0.00     0.064 C 
HETATM    5  C4  UNL     1      27.058  -0.095   1.907  1.00  0.00     0.006 C 
HETATM    6  C5  UNL     1      27.253  -1.216   0.919  1.00  0.00     0.000 C 
HETATM    7  C6  UNL     1      28.255  -2.241   1.355  1.00  0.00     0.000 C 
HETATM    8  C7  UNL     1      27.848  -3.591   0.776  1.00  0.00     0.000 C 
HETATM    9  C8  UNL     1      28.661  -4.724   1.277  1.00  0.00     0.000 C 
HETATM   10  C9  UNL     1      28.101  -5.471   2.437  1.00  0.00     0.000 C 
HETATM   11  C10 UNL     1      27.285  -4.669   3.379  1.00  0.00     0.000 C 
HETATM   12  C11 UNL     1      26.329  -5.442   4.218  1.00  0.00     0.002 C 
HETATM   13  C12 UNL     1      24.893  -5.074   3.850  1.00  0.00     0.020 C 
HETATM   14  C13 UNL     1      24.645  -3.599   4.069  1.00  0.00     0.123 C 
HETATM   15  N3  UNL     1      24.343  -2.908   2.824  1.00  0.00    -0.356 N 
ATOM     16  H3  UNL     1      24.286  -3.485   1.985  1.00  0.00     0.162 HD
HETATM   17  C14 UNL     1      24.123  -1.547   2.655  1.00  0.00     0.265 C 
HETATM   18  O1  UNL     1      23.110  -1.163   2.009  1.00  0.00    -0.266 OA
ENDROOT
BRANCH   1  19
HETATM   19  N1  UNL     1      25.267   1.664   4.057  1.00  0.00    -0.341 N 
HETATM   20  C1  UNL     1      25.288   2.140   5.426  1.00  0.00     0.167 C 
ATOM     21  H1  UNL     1      25.902   2.104   3.391  1.00  0.00     0.179 HD
ENDBRANCH   1  19
TORSDOF 1
ENDMDL
MODEL 4
REMARK VINA RESULT: -4.951365415      1.735      2.806
REMARK  1 active torsions:
REMARK  status: ('A' for Active; 'I' for Inactive)
REMARK    1  A    between atoms: N1_2  and  N2_4 
ROOT
HETATM    1  N2  UNL     1      26.499  -4.946   4.704  1.00  0.00    -0.304 N 
ATOM      2  H2  UNL     1      25.713  -5.073   5.342  1.00  0.00     0.186 HD
HETATM    3  C2  UNL     1      26.502  -3.973   3.859  1.00  0.00     0.093 C 
HETATM    4  C3  UNL     1      27.666  -3.849   2.966  1.00  0.00     0.064 C 
HETATM    5  C4  UNL     1      28.718  -2.951   3.552  1.00  0.00     0.006 C 
HETATM    6  C5  UNL     1      28.563  -1.510   3.137  1.00  0.00     0.000 C 
HETATM    7  C6  UNL     1      28.786  -1.274   1.675  1.00  0.00     0.000 C 
HETATM    8  C7  UNL     1      27.918  -0.100   1.237  1.00  0.00     0.000 C 
HETATM    9  C8  UNL     1      27.914   0.126  -0.227  1.00  0.00     0.000 C 
HETATM   10  C9  UNL     1      26.797  -0.503  -0.985  1.00  0.00     0.000 C 
HETATM   11  C10 UNL     1      26.287  -1.778  -0.430  1.00  0.00     0.000 C 
HETATM   12  C11 UNL     1      24.904  -2.147  -0.837  1.00  0.00     0.002 C 
HETATM   13  C12 UNL     1      23.976  -2.125   0.377  1.00  0.00     0.020 C 
HETATM   14  C13 UNL     1      24.447  -3.104   1.428  1.00  0.00     0.123 C 
HETATM   15  N3  UNL     1      24.838  -2.432   2.659  1.00  0.00    -0.356 N 
ATOM     16  H3  UNL     1      24.706  -1.421   2.688  1.00  0.00     0.162 HD
HETATM   17  C14 UNL     1      25.369  -3.019   3.800  1.00  0.00     0.265 C 
HETATM   18  O1  UNL     1      24.870  -2.742   4.925  1.00  0.00    -0.266 OA
ENDROOT
BRANCH   1  19
HETATM   19  N1  UNL     1      27.577  -5.819   4.733  1.00  0.00    -0.341 N 
HETATM   20  C1  UNL     1      27.496  -7.233   4.423  1.00  0.00     0.167 C 
ATOM     21  H1  UNL     1      28.488  -5.441   4.989  1.00  0.00     0.179 HD
ENDBRANCH   1  19
TORSDOF 1
ENDMDL
MODEL 5
REMARK VINA RESULT: -4.895850002      3.004      5.772
REMARK  1 active torsions:
REMARK  status: ('A' for Active; 'I' for Inactive)
REMARK    1  A    between atoms: N1_2  and  N2_4 
ROOT
HETATM    1  N2  UNL     1      25.322  -1.597  -1.338  1.00  0.00    -0.304 N 
ATOM      2  H2  UNL     1      25.986  -0.982  -1.808  1.00  0.00     0.186 HD
HETATM    3  C2  UNL     1      25.524  -1.968  -0.120  1.00  0.00     0.093 C 
HETATM    4  C3  UNL     1      24.527  -2.858   0.497  1.00  0.00     0.064 C 
HETATM    5  C4  UNL     1      23.469  -2.078   1.225  1.00  0.00     0.006 C 
HETATM    6  C5  UNL     1      23.796  -1.851   2.679  1.00  0.00     0.000 C 
HETATM    7  C6  UNL     1      23.821  -3.106   3.496  1.00  0.00     0.000 C 
HETATM    8  C7  UNL     1      24.835  -2.930   4.621  1.00  0.00     0.000 C 
HETATM    9  C8  UNL     1      25.084  -4.165   5.399  1.00  0.00     0.000 C 
HETATM   10  C9  UNL     1      26.253  -4.984   4.976  1.00  0.00     0.000 C 
HETATM   11  C10 UNL     1      26.572  -4.941   3.530  1.00  0.00     0.000 C 
HETATM   12  C11 UNL     1      27.968  -5.307   3.169  1.00  0.00     0.002 C 
HETATM   13  C12 UNL     1      28.695  -4.094   2.590  1.00  0.00     0.020 C 
HETATM   14  C13 UNL     1      27.993  -3.591   1.350  1.00  0.00     0.123 C 
HETATM   15  N3  UNL     1      27.468  -2.245   1.531  1.00  0.00    -0.356 N 
ATOM     16  H3  UNL     1      27.671  -1.793   2.423  1.00  0.00     0.162 HD
HETATM   17  C14 UNL     1      26.722  -1.508   0.620  1.00  0.00     0.265 C 
HETATM   18  O1  UNL     1      27.061  -0.320   0.366  1.00  0.00    -0.266 OA
ENDROOT
BRANCH   1  19
HETATM   19  N1  UNL     1      24.189  -2.046  -2.001  1.00  0.00    -0.341 N 
HETATM   20  C1  UNL     1      23.367  -1.226  -2.869  1.00  0.00     0.167 C 
ATOM     21  H1  UNL     1      23.915  -3.019  -1.869  1.00  0.00     0.179 HD
ENDBRANCH   1  19
TORSDOF 1
ENDMDL
