MODEL 1
REMARK VINA RESULT: -6.047969962      0.000      0.000
REMARK  4 active torsions:
REMARK  status: ('A' for Active; 'I' for Inactive)
REMARK    1  A    between atoms: N1_2  and  C2_4 
REMARK    2  A    between atoms: C3_6  and  N2_7 
REMARK    3  A    between atoms: C4_12  and  C5_13 
REMARK    4  A    between atoms: N4_20  and  N5_21 
ROOT
HETATM    1  C5  UNL     1      22.203  -0.311  -7.473  1.00  0.00     0.103 C 
HETATM    2  C6  UNL     1      22.001   0.847  -8.378  1.00  0.00    -0.017 A 
HETATM    3  C7  UNL     1      22.133   2.199  -8.264  1.00  0.00     0.010 A 
HETATM    4  C8  UNL     1      21.888   3.060  -9.315  1.00  0.00     0.001 A 
HETATM    5  C9  UNL     1      21.493   2.566 -10.538  1.00  0.00     0.002 A 
HETATM    6  C10 UNL     1      21.353   1.208 -10.671  1.00  0.00     0.032 A 
HETATM    7  C11 UNL     1      21.602   0.334  -9.607  1.00  0.00     0.058 A 
HETATM    8  N4  UNL     1      21.503  -1.061  -9.516  1.00  0.00    -0.288 N 
HETATM    9  C12 UNL     1      21.676  -1.509  -8.125  1.00  0.00     0.059 C 
HETATM   10  C13 UNL     1      22.800  -2.580  -8.262  1.00  0.00     0.041 C 
HETATM   11  C14 UNL     1      20.476  -2.174  -7.567  1.00  0.00     0.041 C 
ENDROOT
BRANCH   1  12
HETATM   12  C4  UNL     1      21.755  -0.031  -6.058  1.00  0.00     0.056 A 
HETATM   13  C2  UNL     1      22.350  -0.619  -4.990  1.00  0.00     0.096 A 
HETATM   14  S1  UNL     1      21.476   0.103  -3.666  1.00  0.00    -0.035 SA
HETATM   15  C3  UNL     1      20.433   1.085  -4.563  1.00  0.00     0.144 A 
HETATM   16  N3  UNL     1      20.778   0.836  -5.818  1.00  0.00    -0.337 N 
ATOM     17  H3  UNL     1      20.299   1.304  -6.589  1.00  0.00     0.168 HD
BRANCH  13  18
HETATM   18  N1  UNL     1      23.396  -1.589  -4.847  1.00  0.00    -0.387 N 
HETATM   19  C1  UNL     1      23.932  -1.873  -3.532  1.00  0.00     0.147 C 
ATOM     20  H1  UNL     1      23.760  -2.076  -5.666  1.00  0.00     0.159 HD
ENDBRANCH  13  18
BRANCH  15  21
HETATM   21  N2  UNL     1      19.494   1.907  -4.138  1.00  0.00    -0.380 N 
ATOM     22  H22 UNL     1      19.257   2.130  -3.172  1.00  0.00     0.158 HD
ATOM     23  H21 UNL     1      18.837   2.468  -4.680  1.00  0.00     0.158 HD
ENDBRANCH  15  21
ENDBRANCH   1  12
BRANCH   8  24
HETATM   24  N5  UNL     1      21.272  -1.956 -10.572  1.00  0.00    -0.342 N 
ATOM     25  H52 UNL     1      20.356  -2.370 -10.748  1.00  0.00     0.177 HD
ATOM     26  H51 UNL     1      21.956  -2.285 -11.253  1.00  0.00     0.177 HD
ENDBRANCH   8  24
TORSDOF 4
ENDMDL
MODEL 2
REMARK VINA RESULT: -6.045090216      1.484      3.824
REMARK  4 active torsions:
REMARK  status: ('A' for Active; 'I' for Inactive)
REMARK    1  A    between atoms: N1_2  and  C2_4 
REMARK    2  A    between atoms: C3_6  and  N2_7 
REMARK    3  A    between atoms: C4_12  and  C5_13 
REMARK    4  A    between atoms: N4_20  and  N5_21 
ROOT
HETATM    1  C5  UNL     1      21.122   0.312  -7.477  1.00  0.00     0.103 C 
HETATM    2  C6  UNL     1      21.325  -0.846  -8.381  1.00  0.00    -0.017 A 
HETATM    3  C7  UNL     1      21.193  -2.198  -8.266  1.00  0.00     0.010 A 
HETATM    4  C8  UNL     1      21.439  -3.059  -9.317  1.00  0.00     0.001 A 
HETATM    5  C9  UNL     1      21.835  -2.566 -10.540  1.00  0.00     0.002 A 
HETATM    6  C10 UNL     1      21.974  -1.208 -10.674  1.00  0.00     0.032 A 
HETATM    7  C11 UNL     1      21.724  -0.334  -9.610  1.00  0.00     0.058 A 
HETATM    8  N4  UNL     1      21.823   1.061  -9.520  1.00  0.00    -0.288 N 
HETATM    9  C12 UNL     1      21.649   1.510  -8.129  1.00  0.00     0.059 C 
HETATM   10  C13 UNL     1      20.525   2.581  -8.267  1.00  0.00     0.041 C 
HETATM   11  C14 UNL     1      22.849   2.176  -7.571  1.00  0.00     0.041 C 
ENDROOT
BRANCH   1  12
HETATM   12  C4  UNL     1      21.569   0.033  -6.062  1.00  0.00     0.056 A 
HETATM   13  C2  UNL     1      20.974   0.622  -4.994  1.00  0.00     0.096 A 
HETATM   14  S1  UNL     1      21.847  -0.099  -3.669  1.00  0.00    -0.035 SA
HETATM   15  C3  UNL     1      22.890  -1.082  -4.565  1.00  0.00     0.144 A 
HETATM   16  N3  UNL     1      22.546  -0.834  -5.821  1.00  0.00    -0.337 N 
ATOM     17  H3  UNL     1      23.024  -1.303  -6.591  1.00  0.00     0.168 HD
BRANCH  13  18
HETATM   18  N1  UNL     1      19.928   1.593  -4.853  1.00  0.00    -0.387 N 
HETATM   19  C1  UNL     1      19.338   1.821  -3.550  1.00  0.00     0.147 C 
ATOM     20  H1  UNL     1      19.604   2.119  -5.663  1.00  0.00     0.159 HD
ENDBRANCH  13  18
BRANCH  15  21
HETATM   21  N2  UNL     1      23.828  -1.905  -4.139  1.00  0.00    -0.380 N 
ATOM     22  H22 UNL     1      24.562  -1.709  -3.459  1.00  0.00     0.158 HD
ATOM     23  H21 UNL     1      23.999  -2.876  -4.400  1.00  0.00     0.158 HD
ENDBRANCH  15  21
ENDBRANCH   1  12
BRANCH   8  24
HETATM   24  N5  UNL     1      22.055   1.956 -10.576  1.00  0.00    -0.342 N 
ATOM     25  H52 UNL     1      21.987   2.968 -10.460  1.00  0.00     0.177 HD
ATOM     26  H51 UNL     1      22.304   1.716 -11.535  1.00  0.00     0.177 HD
ENDBRANCH   8  24
TORSDOF 4
ENDMDL
MODEL 3
REMARK VINA RESULT: -6.026735786      8.091     10.950
REMARK  4 active torsions:
REMARK  status: ('A' for Active; 'I' for Inactive)
REMARK    1  A    between atoms: N1_2  and  C2_4 
REMARK    2  A    between atoms: C3_6  and  N2_7 
REMARK    3  A    between atoms: C4_12  and  C5_13 
REMARK    4  A    between atoms: N4_20  and  N5_21 
ROOT
HETATM    1  C5  UNL     1      27.584  -1.765   1.103  1.00  0.00     0.103 C 
HETATM    2  C6  UNL     1      26.603  -1.921   0.002  1.00  0.00    -0.017 A 
HETATM    3  C7  UNL     1      25.612  -2.809  -0.292  1.00  0.00     0.010 A 
HETATM    4  C8  UNL     1      24.817  -2.689  -1.414  1.00  0.00     0.001 A 
HETATM    5  C9  UNL     1      25.005  -1.643  -2.289  1.00  0.00     0.002 A 
HETATM    6  C10 UNL     1      25.998  -0.739  -2.010  1.00  0.00     0.032 A 
HETATM    7  C11 UNL     1      26.805  -0.859  -0.872  1.00  0.00     0.058 A 
HETATM    8  N4  UNL     1      27.873  -0.077  -0.412  1.00  0.00    -0.288 N 
HETATM    9  C12 UNL     1      28.538  -0.721   0.732  1.00  0.00     0.059 C 
HETATM   10  C13 UNL     1      28.529   0.414   1.800  1.00  0.00     0.041 C 
HETATM   11  C14 UNL     1      29.949  -1.085   0.464  1.00  0.00     0.041 C 
ENDROOT
BRANCH   1  12
HETATM   12  C4  UNL     1      28.142  -3.085   1.578  1.00  0.00     0.056 A 
HETATM   13  C2  UNL     1      28.073  -3.465   2.879  1.00  0.00     0.096 A 
HETATM   14  S1  UNL     1      28.806  -5.045   2.818  1.00  0.00    -0.035 SA
HETATM   15  C3  UNL     1      29.140  -5.100   1.163  1.00  0.00     0.144 A 
HETATM   16  N3  UNL     1      28.691  -3.936   0.718  1.00  0.00    -0.337 N 
ATOM     17  H3  UNL     1      28.766  -3.695  -0.271  1.00  0.00     0.168 HD
BRANCH  13  18
HETATM   18  N1  UNL     1      27.583  -2.835   4.071  1.00  0.00    -0.387 N 
HETATM   19  C1  UNL     1      28.431  -1.906   4.787  1.00  0.00     0.147 C 
ATOM     20  H1  UNL     1      26.644  -3.041   4.410  1.00  0.00     0.159 HD
ENDBRANCH  13  18
BRANCH  15  21
HETATM   21  N2  UNL     1      29.710  -6.060   0.461  1.00  0.00    -0.380 N 
ATOM     22  H22 UNL     1      30.414  -6.726   0.779  1.00  0.00     0.158 HD
ATOM     23  H21 UNL     1      29.561  -6.319  -0.514  1.00  0.00     0.158 HD
ENDBRANCH  15  21
ENDBRANCH   1  12
BRANCH   8  24
HETATM   24  N5  UNL     1      28.294   1.157  -0.930  1.00  0.00    -0.342 N 
ATOM     25  H52 UNL     1      28.305   2.010  -0.371  1.00  0.00     0.177 HD
ATOM     26  H51 UNL     1      28.623   1.340  -1.878  1.00  0.00     0.177 HD
ENDBRANCH   8  24
TORSDOF 4
ENDMDL
MODEL 4
REMARK VINA RESULT: -6.025584595      7.931     10.595
REMARK  4 active torsions:
REMARK  status: ('A' for Active; 'I' for Inactive)
REMARK    1  A    between atoms: N1_2  and  C2_4 
REMARK    2  A    between atoms: C3_6  and  N2_7 
REMARK    3  A    between atoms: C4_12  and  C5_13 
REMARK    4  A    between atoms: N4_20  and  N5_21 
ROOT
HETATM    1  C5  UNL     1      15.759   1.759   1.083  1.00  0.00     0.103 C 
HETATM    2  C6  UNL     1      16.732   1.913  -0.025  1.00  0.00    -0.017 A 
HETATM    3  C7  UNL     1      17.722   2.800  -0.328  1.00  0.00     0.010 A 
HETATM    4  C8  UNL     1      18.509   2.678  -1.456  1.00  0.00     0.001 A 
HETATM    5  C9  UNL     1      18.312   1.631  -2.329  1.00  0.00     0.002 A 
HETATM    6  C10 UNL     1      17.320   0.728  -2.040  1.00  0.00     0.032 A 
HETATM    7  C11 UNL     1      16.522   0.851  -0.897  1.00  0.00     0.058 A 
HETATM    8  N4  UNL     1      15.457   0.071  -0.428  1.00  0.00    -0.288 N 
HETATM    9  C12 UNL     1      14.800   0.717   0.720  1.00  0.00     0.059 C 
HETATM   10  C13 UNL     1      14.816  -0.418   1.789  1.00  0.00     0.041 C 
HETATM   11  C14 UNL     1      13.389   1.082   0.463  1.00  0.00     0.041 C 
ENDROOT
BRANCH   1  12
HETATM   12  C4  UNL     1      15.206   3.081   1.562  1.00  0.00     0.056 A 
HETATM   13  C2  UNL     1      15.298   3.468   2.859  1.00  0.00     0.096 A 
HETATM   14  S1  UNL     1      14.561   5.046   2.803  1.00  0.00    -0.035 SA
HETATM   15  C3  UNL     1      14.196   5.091   1.154  1.00  0.00     0.144 A 
HETATM   16  N3  UNL     1      14.639   3.925   0.707  1.00  0.00    -0.337 N 
ATOM     17  H3  UNL     1      14.547   3.680  -0.279  1.00  0.00     0.168 HD
BRANCH  13  18
HETATM   18  N1  UNL     1      15.812   2.846   4.045  1.00  0.00    -0.387 N 
HETATM   19  C1  UNL     1      14.993   1.890   4.761  1.00  0.00     0.147 C 
ATOM     20  H1  UNL     1      16.747   3.076   4.380  1.00  0.00     0.159 HD
ENDBRANCH  13  18
BRANCH  15  21
HETATM   21  N2  UNL     1      13.611   6.046   0.457  1.00  0.00    -0.380 N 
ATOM     22  H22 UNL     1      12.737   5.986  -0.065  1.00  0.00     0.158 HD
ATOM     23  H21 UNL     1      13.912   7.010   0.308  1.00  0.00     0.158 HD
ENDBRANCH  15  21
ENDBRANCH   1  12
BRANCH   8  24
HETATM   24  N5  UNL     1      15.030  -1.163  -0.941  1.00  0.00    -0.342 N 
ATOM     25  H52 UNL     1      14.426  -1.235  -1.761  1.00  0.00     0.177 HD
ATOM     26  H51 UNL     1      15.259  -2.088  -0.577  1.00  0.00     0.177 HD
ENDBRANCH   8  24
TORSDOF 4
ENDMDL
MODEL 5
REMARK VINA RESULT: -5.681829250      7.373     10.217
REMARK  4 active torsions:
REMARK  status: ('A' for Active; 'I' for Inactive)
REMARK    1  A    between atoms: N1_2  and  C2_4 
REMARK    2  A    between atoms: C3_6  and  N2_7 
REMARK    3  A    between atoms: C4_12  and  C5_13 
REMARK    4  A    between atoms: N4_20  and  N5_21 
ROOT
HETATM    1  C5  UNL     1      17.404   2.905   0.710  1.00  0.00     0.103 C 
HETATM    2  C6  UNL     1      18.014   2.391  -0.541  1.00  0.00    -0.017 A 
HETATM    3  C7  UNL     1      17.556   2.096  -1.790  1.00  0.00     0.010 A 
HETATM    4  C8  UNL     1      18.384   1.639  -2.795  1.00  0.00     0.001 A 
HETATM    5  C9  UNL     1      19.730   1.464  -2.560  1.00  0.00     0.002 A 
HETATM    6  C10 UNL     1      20.209   1.756  -1.308  1.00  0.00     0.032 A 
HETATM    7  C11 UNL     1      19.370   2.219  -0.288  1.00  0.00     0.058 A 
HETATM    8  N4  UNL     1      19.637   2.552   1.047  1.00  0.00    -0.288 N 
HETATM    9  C12 UNL     1      18.389   2.799   1.785  1.00  0.00     0.059 C 
HETATM   10  C13 UNL     1      18.649   4.203   2.410  1.00  0.00     0.041 C 
HETATM   11  C14 UNL     1      18.159   1.842   2.892  1.00  0.00     0.041 C 
ENDROOT
BRANCH   1  12
HETATM   12  C4  UNL     1      16.028   2.337   0.964  1.00  0.00     0.056 A 
HETATM   13  C2  UNL     1      14.989   3.121   1.349  1.00  0.00     0.096 A 
HETATM   14  S1  UNL     1      13.692   1.961   1.434  1.00  0.00    -0.035 SA
HETATM   15  C3  UNL     1      14.559   0.584   0.979  1.00  0.00     0.144 A 
HETATM   16  N3  UNL     1      15.786   1.044   0.781  1.00  0.00    -0.337 N 
ATOM     17  H3  UNL     1      16.535   0.413   0.491  1.00  0.00     0.168 HD
BRANCH  13  18
HETATM   18  N1  UNL     1      14.862   4.517   1.654  1.00  0.00    -0.387 N 
HETATM   19  C1  UNL     1      15.060   4.970   3.015  1.00  0.00     0.147 C 
ATOM     20  H1  UNL     1      14.633   5.184   0.918  1.00  0.00     0.159 HD
ENDBRANCH  13  18
BRANCH  15  21
HETATM   21  N2  UNL     1      14.138  -0.658   0.847  1.00  0.00    -0.380 N 
ATOM     22  H22 UNL     1      13.797  -1.278   1.582  1.00  0.00     0.158 HD
ATOM     23  H21 UNL     1      14.072  -1.229   0.005  1.00  0.00     0.158 HD
ENDBRANCH  15  21
ENDBRANCH   1  12
BRANCH   8  24
HETATM   24  N5  UNL     1      20.900   2.650   1.651  1.00  0.00    -0.342 N 
ATOM     25  H52 UNL     1      21.602   1.914   1.573  1.00  0.00     0.177 HD
ATOM     26  H51 UNL     1      21.250   3.429   2.210  1.00  0.00     0.177 HD
ENDBRANCH   8  24
TORSDOF 4
ENDMDL
