MODEL 1
REMARK VINA RESULT: -5.153367187      0.000      0.000
REMARK  2 active torsions:
REMARK  status: ('A' for Active; 'I' for Inactive)
REMARK    1  A    between atoms: N1_1  and  C1_4 
REMARK    2  A    between atoms: C5_15  and  C6_16 
ROOT
HETATM    1  C1  UNL     1      22.841  -1.073  -2.625  1.00  0.00     0.144 A 
HETATM    2  N2  UNL     1      21.848  -0.183  -2.526  1.00  0.00    -0.326 N 
ATOM      3  H2  UNL     1      21.576   0.060  -1.574  1.00  0.00     0.169 HD
HETATM    4  C2  UNL     1      21.168   0.428  -3.476  1.00  0.00     0.131 A 
HETATM    5  S1  UNL     1      19.983   1.491  -3.007  1.00  0.00    -0.058 SA
HETATM    6  C3  UNL     1      21.341   0.274  -4.851  1.00  0.00     0.091 A 
HETATM    7  N3  UNL     1      20.722   0.829  -5.911  1.00  0.00    -0.338 N 
ATOM      8  H3  UNL     1      19.964   1.509  -5.849  1.00  0.00     0.167 HD
HETATM    9  C4  UNL     1      21.252   0.355  -7.089  1.00  0.00     0.125 A 
HETATM   10  N4  UNL     1      21.046   0.539  -8.360  1.00  0.00    -0.330 N 
ATOM     11  H4  UNL     1      20.321   1.188  -8.667  1.00  0.00     0.168 HD
HETATM   12  C5  UNL     1      21.764  -0.105  -9.253  1.00  0.00     0.154 A 
HETATM   13  S2  UNL     1      22.809  -1.042  -8.256  1.00  0.00    -0.060 SA
HETATM   14  C7  UNL     1      22.235  -0.528  -6.734  1.00  0.00     0.070 A 
HETATM   15  C8  UNL     1      22.289  -0.576  -5.359  1.00  0.00     0.059 A 
HETATM   16  S3  UNL     1      23.247  -1.438  -4.266  1.00  0.00    -0.051 SA
ENDROOT
BRANCH   1  17
HETATM   17  N1  UNL     1      23.432  -1.604  -1.622  1.00  0.00    -0.380 N 
ATOM     18  H12 UNL     1      23.387  -1.218  -0.679  1.00  0.00     0.158 HD
ATOM     19  H11 UNL     1      23.998  -2.451  -1.673  1.00  0.00     0.158 HD
ENDBRANCH   1  17
BRANCH  12  20
HETATM   20  C6  UNL     1      21.692  -0.040 -10.728  1.00  0.00     0.234 C 
HETATM   21  O1  UNL     1      21.847  -1.067 -11.406  1.00  0.00    -0.642 OA
HETATM   22  O2  UNL     1      21.453   1.168 -11.324  1.00  0.00    -0.642 OA
ENDBRANCH  12  20
TORSDOF 2
ENDMDL
MODEL 2
REMARK VINA RESULT: -5.093193731      1.621      2.534
REMARK  2 active torsions:
REMARK  status: ('A' for Active; 'I' for Inactive)
REMARK    1  A    between atoms: N1_1  and  C1_4 
REMARK    2  A    between atoms: C5_15  and  C6_16 
ROOT
HETATM    1  C1  UNL     1      20.302   1.275  -3.208  1.00  0.00     0.144 A 
HETATM    2  N2  UNL     1      21.267   0.398  -2.910  1.00  0.00    -0.326 N 
ATOM      3  H2  UNL     1      21.457   0.285  -1.914  1.00  0.00     0.169 HD
HETATM    4  C2  UNL     1      22.007  -0.342  -3.709  1.00  0.00     0.131 A 
HETATM    5  S1  UNL     1      23.131  -1.341  -3.007  1.00  0.00    -0.058 SA
HETATM    6  C3  UNL     1      21.947  -0.375  -5.102  1.00  0.00     0.091 A 
HETATM    7  N3  UNL     1      22.638  -1.075  -6.023  1.00  0.00    -0.338 N 
ATOM      8  H3  UNL     1      23.375  -1.746  -5.808  1.00  0.00     0.167 HD
HETATM    9  C4  UNL     1      22.213  -0.762  -7.294  1.00  0.00     0.125 A 
HETATM   10  N4  UNL     1      22.516  -1.119  -8.508  1.00  0.00    -0.330 N 
ATOM     11  H4  UNL     1      23.250  -1.810  -8.663  1.00  0.00     0.168 HD
HETATM   12  C5  UNL     1      21.883  -0.597  -9.535  1.00  0.00     0.154 A 
HETATM   13  S2  UNL     1      20.781   0.476  -8.762  1.00  0.00    -0.060 SA
HETATM   14  C7  UNL     1      21.222   0.170  -7.143  1.00  0.00     0.070 A 
HETATM   15  C8  UNL     1      21.060   0.405  -5.796  1.00  0.00     0.059 A 
HETATM   16  S3  UNL     1      20.034   1.416  -4.911  1.00  0.00    -0.051 SA
ENDROOT
BRANCH   1  17
HETATM   17  N1  UNL     1      19.643   1.943  -2.338  1.00  0.00    -0.380 N 
ATOM     18  H12 UNL     1      19.481   1.612  -1.387  1.00  0.00     0.158 HD
ATOM     19  H11 UNL     1      19.224   2.856  -2.514  1.00  0.00     0.158 HD
ENDBRANCH   1  17
BRANCH  12  20
HETATM   20  C6  UNL     1      22.071  -0.863 -10.976  1.00  0.00     0.234 C 
HETATM   21  O1  UNL     1      22.641  -1.900 -11.351  1.00  0.00    -0.642 OA
HETATM   22  O2  UNL     1      21.608   0.051 -11.883  1.00  0.00    -0.642 OA
ENDBRANCH  12  20
TORSDOF 2
ENDMDL
MODEL 3
REMARK VINA RESULT: -5.016087871      3.882      6.212
REMARK  2 active torsions:
REMARK  status: ('A' for Active; 'I' for Inactive)
REMARK    1  A    between atoms: N1_1  and  C1_4 
REMARK    2  A    between atoms: C5_15  and  C6_16 
ROOT
HETATM    1  C1  UNL     1      21.929  -2.307 -10.030  1.00  0.00     0.144 A 
HETATM    2  N2  UNL     1      21.751  -1.074 -10.517  1.00  0.00    -0.326 N 
ATOM      3  H2  UNL     1      21.852  -0.989 -11.528  1.00  0.00     0.169 HD
HETATM    4  C2  UNL     1      21.464   0.046  -9.886  1.00  0.00     0.131 A 
HETATM    5  S1  UNL     1      21.308   1.422 -10.799  1.00  0.00    -0.058 SA
HETATM    6  C3  UNL     1      21.277   0.200  -8.512  1.00  0.00     0.091 A 
HETATM    7  N3  UNL     1      20.986   1.274  -7.751  1.00  0.00    -0.338 N 
ATOM      8  H3  UNL     1      20.848   2.219  -8.111  1.00  0.00     0.167 HD
HETATM    9  C4  UNL     1      20.900   0.923  -6.424  1.00  0.00     0.125 A 
HETATM   10  N4  UNL     1      20.655   1.529  -5.299  1.00  0.00    -0.330 N 
ATOM     11  H4  UNL     1      20.465   2.531  -5.295  1.00  0.00     0.168 HD
HETATM   12  C5  UNL     1      20.652   0.860  -4.167  1.00  0.00     0.154 A 
HETATM   13  S2  UNL     1      21.017  -0.736  -4.700  1.00  0.00    -0.060 SA
HETATM   14  C7  UNL     1      21.150  -0.422  -6.371  1.00  0.00     0.070 A 
HETATM   15  C8  UNL     1      21.381  -0.863  -7.654  1.00  0.00     0.059 A 
HETATM   16  S3  UNL     1      21.745  -2.377  -8.311  1.00  0.00    -0.051 SA
ENDROOT
BRANCH   1  17
HETATM   17  N1  UNL     1      22.206  -3.330 -10.747  1.00  0.00    -0.380 N 
ATOM     18  H12 UNL     1      21.495  -3.895 -11.211  1.00  0.00     0.158 HD
ATOM     19  H11 UNL     1      23.152  -3.671 -10.917  1.00  0.00     0.158 HD
ENDBRANCH   1  17
BRANCH  12  20
HETATM   20  C6  UNL     1      20.401   1.353  -2.797  1.00  0.00     0.234 C 
HETATM   21  O1  UNL     1      20.823   0.718  -1.818  1.00  0.00    -0.642 OA
HETATM   22  O2  UNL     1      19.698   2.514  -2.631  1.00  0.00    -0.642 OA
ENDBRANCH  12  20
TORSDOF 2
ENDMDL
MODEL 4
REMARK VINA RESULT: -5.013147560      3.824      6.602
REMARK  2 active torsions:
REMARK  status: ('A' for Active; 'I' for Inactive)
REMARK    1  A    between atoms: N1_1  and  C1_4 
REMARK    2  A    between atoms: C5_15  and  C6_16 
ROOT
HETATM    1  C1  UNL     1      21.439   2.408  -9.945  1.00  0.00     0.144 A 
HETATM    2  N2  UNL     1      21.584   1.178 -10.450  1.00  0.00    -0.326 N 
ATOM      3  H2  UNL     1      21.471   1.109 -11.462  1.00  0.00     0.169 HD
HETATM    4  C2  UNL     1      21.852   0.044  -9.837  1.00  0.00     0.131 A 
HETATM    5  S1  UNL     1      21.968  -1.323 -10.771  1.00  0.00    -0.058 SA
HETATM    6  C3  UNL     1      22.050  -0.133  -8.468  1.00  0.00     0.091 A 
HETATM    7  N3  UNL     1      22.326  -1.223  -7.725  1.00  0.00    -0.338 N 
ATOM      8  H3  UNL     1      22.438  -2.166  -8.098  1.00  0.00     0.167 HD
HETATM    9  C4  UNL     1      22.433  -0.892  -6.394  1.00  0.00     0.125 A 
HETATM   10  N4  UNL     1      22.676  -1.519  -5.280  1.00  0.00    -0.330 N 
ATOM     11  H4  UNL     1      22.843  -2.525  -5.291  1.00  0.00     0.168 HD
HETATM   12  C5  UNL     1      22.706  -0.866  -4.139  1.00  0.00     0.154 A 
HETATM   13  S2  UNL     1      22.372   0.745  -4.646  1.00  0.00    -0.060 SA
HETATM   14  C7  UNL     1      22.214   0.457  -6.320  1.00  0.00     0.070 A 
HETATM   15  C8  UNL     1      21.980   0.920  -7.595  1.00  0.00     0.059 A 
HETATM   16  S3  UNL     1      21.643   2.451  -8.228  1.00  0.00    -0.051 SA
ENDROOT
BRANCH   1  17
HETATM   17  N1  UNL     1      21.178   3.447 -10.646  1.00  0.00    -0.380 N 
ATOM     18  H12 UNL     1      20.318   3.554 -11.184  1.00  0.00     0.158 HD
ATOM     19  H11 UNL     1      21.798   4.253 -10.729  1.00  0.00     0.158 HD
ENDBRANCH   1  17
BRANCH  12  20
HETATM   20  C6  UNL     1      22.960  -1.382  -2.778  1.00  0.00     0.234 C 
HETATM   21  O1  UNL     1      22.529  -0.771  -1.788  1.00  0.00    -0.642 OA
HETATM   22  O2  UNL     1      23.676  -2.538  -2.634  1.00  0.00    -0.642 OA
ENDBRANCH  12  20
TORSDOF 2
ENDMDL
MODEL 5
REMARK VINA RESULT: -5.003735342      9.028     11.431
REMARK  2 active torsions:
REMARK  status: ('A' for Active; 'I' for Inactive)
REMARK    1  A    between atoms: N1_1  and  C1_4 
REMARK    2  A    between atoms: C5_15  and  C6_16 
ROOT
HETATM    1  C1  UNL     1      22.721  -2.016   0.957  1.00  0.00     0.144 A 
HETATM    2  N2  UNL     1      23.553  -1.700  -0.041  1.00  0.00    -0.326 N 
ATOM      3  H2  UNL     1      23.145  -1.131  -0.783  1.00  0.00     0.169 HD
HETATM    4  C2  UNL     1      24.822  -2.013  -0.210  1.00  0.00     0.131 A 
HETATM    5  S1  UNL     1      25.574  -1.453  -1.579  1.00  0.00    -0.058 SA
HETATM    6  C3  UNL     1      25.610  -2.777   0.651  1.00  0.00     0.091 A 
HETATM    7  N3  UNL     1      26.899  -3.165   0.596  1.00  0.00    -0.338 N 
ATOM      8  H3  UNL     1      27.543  -2.931  -0.159  1.00  0.00     0.167 HD
HETATM    9  C4  UNL     1      27.229  -3.921   1.697  1.00  0.00     0.125 A 
HETATM   10  N4  UNL     1      28.288  -4.530   2.144  1.00  0.00    -0.330 N 
ATOM     11  H4  UNL     1      29.155  -4.497   1.607  1.00  0.00     0.168 HD
HETATM   12  C5  UNL     1      28.250  -5.188   3.282  1.00  0.00     0.154 A 
HETATM   13  S2  UNL     1      26.619  -4.946   3.775  1.00  0.00    -0.060 SA
HETATM   14  C7  UNL     1      26.093  -3.999   2.457  1.00  0.00     0.070 A 
HETATM   15  C8  UNL     1      25.101  -3.295   1.813  1.00  0.00     0.059 A 
HETATM   16  S3  UNL     1      23.480  -2.982   2.176  1.00  0.00    -0.051 SA
ENDROOT
BRANCH   1  17
HETATM   17  N1  UNL     1      21.497  -1.651   1.015  1.00  0.00    -0.380 N 
ATOM     18  H12 UNL     1      20.786  -1.974   0.357  1.00  0.00     0.158 HD
ATOM     19  H11 UNL     1      21.122  -1.010   1.715  1.00  0.00     0.158 HD
ENDBRANCH   1  17
BRANCH  12  20
HETATM   20  C6  UNL     1      29.329  -5.938   3.959  1.00  0.00     0.234 C 
HETATM   21  O1  UNL     1      30.506  -5.556   3.870  1.00  0.00    -0.642 OA
HETATM   22  O2  UNL     1      29.004  -7.054   4.679  1.00  0.00    -0.642 OA
ENDBRANCH  12  20
TORSDOF 2
ENDMDL
