MODEL 1
REMARK VINA RESULT: -5.423420039      0.000      0.000
REMARK  4 active torsions:
REMARK  status: ('A' for Active; 'I' for Inactive)
REMARK    1  A    between atoms: C2_2  and  O1_5 
REMARK    2  A    between atoms: O1_5  and  C5_6 
REMARK    3  A    between atoms: C5_6  and  C6_8 
REMARK    4  A    between atoms: C9_11  and  N1_12 
ROOT
HETATM    1  C6  UNL     1      21.662   0.211  -5.810  1.00  0.00     0.083 A 
HETATM    2  C7  UNL     1      20.644   1.053  -5.445  1.00  0.00     0.043 A 
HETATM    3  C8  UNL     1      20.387   1.181  -4.124  1.00  0.00     0.043 A 
HETATM    4  C9  UNL     1      19.398   1.982  -3.528  1.00  0.00     0.114 A 
HETATM    5  N2  UNL     1      19.265   2.004  -2.212  1.00  0.00    -0.319 N 
ATOM      6  H2  UNL     1      18.535   2.598  -1.822  1.00  0.00     0.170 HD
HETATM    7  C10 UNL     1      20.015   1.307  -1.358  1.00  0.00     0.178 A 
HETATM    8  S1  UNL     1      19.775   1.401   0.250  1.00  0.00    -0.040 SA
HETATM    9  N3  UNL     1      20.969   0.533  -1.905  1.00  0.00    -0.327 N 
ATOM     10  H3  UNL     1      21.569  -0.020  -1.294  1.00  0.00     0.169 HD
HETATM   11  C11 UNL     1      21.156   0.466  -3.261  1.00  0.00     0.091 A 
HETATM   12  S2  UNL     1      22.222  -0.370  -4.294  1.00  0.00    -0.065 SA
ENDROOT
BRANCH   1  13
HETATM   13  C5  UNL     1      22.152  -0.113  -7.150  1.00  0.00     0.301 C 
HETATM   14  O2  UNL     1      22.450  -1.286  -7.416  1.00  0.00    -0.259 OA
BRANCH  13  15
HETATM   15  O1  UNL     1      22.267   0.880  -8.067  1.00  0.00    -0.307 OA
BRANCH  15  16
HETATM   16  C2  UNL     1      21.420   1.054  -9.185  1.00  0.00     0.060 C 
HETATM   17  C1  UNL     1      21.902   0.356 -10.413  1.00  0.00     0.046 C 
HETATM   18  C3  UNL     1      21.422   2.558  -9.485  1.00  0.00     0.046 C 
HETATM   19  C4  UNL     1      19.984   0.690  -8.883  1.00  0.00     0.046 C 
ENDBRANCH  15  16
ENDBRANCH  13  15
ENDBRANCH   1  13
BRANCH   4  20
HETATM   20  N1  UNL     1      18.592   2.716  -4.226  1.00  0.00    -0.385 N 
ATOM     21  H12 UNL     1      18.866   3.682  -4.405  1.00  0.00     0.157 HD
ATOM     22  H11 UNL     1      17.709   2.358  -4.591  1.00  0.00     0.157 HD
ENDBRANCH   4  20
TORSDOF 4
ENDMDL
MODEL 2
REMARK VINA RESULT: -5.422114611      2.766      3.909
REMARK  4 active torsions:
REMARK  status: ('A' for Active; 'I' for Inactive)
REMARK    1  A    between atoms: C2_2  and  O1_5 
REMARK    2  A    between atoms: O1_5  and  C5_6 
REMARK    3  A    between atoms: C5_6  and  C6_8 
REMARK    4  A    between atoms: C9_11  and  N1_12 
ROOT
HETATM    1  C6  UNL     1      21.714  -0.250  -5.756  1.00  0.00     0.083 A 
HETATM    2  C7  UNL     1      22.717  -1.109  -5.391  1.00  0.00     0.043 A 
HETATM    3  C8  UNL     1      22.977  -1.237  -4.071  1.00  0.00     0.043 A 
HETATM    4  C9  UNL     1      23.953  -2.053  -3.475  1.00  0.00     0.114 A 
HETATM    5  N2  UNL     1      24.089  -2.072  -2.159  1.00  0.00    -0.319 N 
ATOM      6  H2  UNL     1      24.809  -2.679  -1.769  1.00  0.00     0.170 HD
HETATM    7  C10 UNL     1      23.355  -1.358  -1.306  1.00  0.00     0.178 A 
HETATM    8  S1  UNL     1      23.599  -1.450   0.302  1.00  0.00    -0.040 SA
HETATM    9  N3  UNL     1      22.414  -0.568  -1.853  1.00  0.00    -0.327 N 
ATOM     10  H3  UNL     1      21.826  -0.002  -1.242  1.00  0.00     0.169 HD
HETATM   11  C11 UNL     1      22.224  -0.504  -3.208  1.00  0.00     0.091 A 
HETATM   12  S2  UNL     1      21.170   0.348  -4.241  1.00  0.00    -0.065 SA
ENDROOT
BRANCH   1  13
HETATM   13  C5  UNL     1      21.226   0.078  -7.097  1.00  0.00     0.301 C 
HETATM   14  O2  UNL     1      20.945   1.255  -7.365  1.00  0.00    -0.259 OA
BRANCH  13  15
HETATM   15  O1  UNL     1      21.093  -0.916  -8.010  1.00  0.00    -0.307 OA
BRANCH  15  16
HETATM   16  C2  UNL     1      21.917  -1.090  -9.145  1.00  0.00     0.060 C 
HETATM   17  C1  UNL     1      21.403  -0.404 -10.366  1.00  0.00     0.046 C 
HETATM   18  C3  UNL     1      21.921  -2.596  -9.436  1.00  0.00     0.046 C 
HETATM   19  C4  UNL     1      23.356  -0.712  -8.876  1.00  0.00     0.046 C 
ENDBRANCH  15  16
ENDBRANCH  13  15
ENDBRANCH   1  13
BRANCH   4  20
HETATM   20  N1  UNL     1      24.742  -2.805  -4.172  1.00  0.00    -0.385 N 
ATOM     21  H12 UNL     1      24.413  -3.120  -5.085  1.00  0.00     0.157 HD
ATOM     22  H11 UNL     1      25.664  -3.084  -3.837  1.00  0.00     0.157 HD
ENDBRANCH   4  20
TORSDOF 4
ENDMDL
MODEL 3
REMARK VINA RESULT: -5.235041025      1.091      1.829
REMARK  4 active torsions:
REMARK  status: ('A' for Active; 'I' for Inactive)
REMARK    1  A    between atoms: C2_2  and  O1_5 
REMARK    2  A    between atoms: O1_5  and  C5_6 
REMARK    3  A    between atoms: C5_6  and  C6_8 
REMARK    4  A    between atoms: C9_11  and  N1_12 
ROOT
HETATM    1  C6  UNL     1      21.580   0.645  -5.767  1.00  0.00     0.083 A 
HETATM    2  C7  UNL     1      20.519   1.431  -5.400  1.00  0.00     0.043 A 
HETATM    3  C8  UNL     1      20.193   1.464  -4.089  1.00  0.00     0.043 A 
HETATM    4  C9  UNL     1      19.151   2.194  -3.493  1.00  0.00     0.114 A 
HETATM    5  N2  UNL     1      18.955   2.125  -2.186  1.00  0.00    -0.319 N 
ATOM      6  H2  UNL     1      18.187   2.671  -1.795  1.00  0.00     0.170 HD
HETATM    7  C10 UNL     1      19.684   1.395  -1.343  1.00  0.00     0.178 A 
HETATM    8  S1  UNL     1      19.364   1.375   0.254  1.00  0.00    -0.040 SA
HETATM    9  N3  UNL     1      20.688   0.687  -1.890  1.00  0.00    -0.327 N 
ATOM     10  H3  UNL     1      21.276   0.112  -1.287  1.00  0.00     0.169 HD
HETATM   11  C11 UNL     1      20.942   0.716  -3.236  1.00  0.00     0.091 A 
HETATM   12  S2  UNL     1      22.084  -0.019  -4.266  1.00  0.00    -0.065 SA
ENDROOT
BRANCH   1  13
HETATM   13  C5  UNL     1      22.144   0.425  -7.100  1.00  0.00     0.301 C 
HETATM   14  O2  UNL     1      22.727   1.358  -7.670  1.00  0.00    -0.259 OA
BRANCH  13  15
HETATM   15  O1  UNL     1      22.013  -0.796  -7.676  1.00  0.00    -0.307 OA
BRANCH  15  16
HETATM   16  C2  UNL     1      21.013  -1.147  -8.612  1.00  0.00     0.060 C 
HETATM   17  C1  UNL     1      19.996  -0.077  -8.828  1.00  0.00     0.046 C 
HETATM   18  C3  UNL     1      20.282  -2.356  -8.014  1.00  0.00     0.046 C 
HETATM   19  C4  UNL     1      21.593  -1.617  -9.927  1.00  0.00     0.046 C 
ENDBRANCH  15  16
ENDBRANCH  13  15
ENDBRANCH   1  13
BRANCH   4  20
HETATM   20  N1  UNL     1      18.357   2.949  -4.181  1.00  0.00    -0.385 N 
ATOM     21  H12 UNL     1      18.505   2.998  -5.189  1.00  0.00     0.157 HD
ATOM     22  H11 UNL     1      17.605   3.485  -3.748  1.00  0.00     0.157 HD
ENDBRANCH   4  20
TORSDOF 4
ENDMDL
MODEL 4
REMARK VINA RESULT: -5.233413586      2.826      3.781
REMARK  4 active torsions:
REMARK  status: ('A' for Active; 'I' for Inactive)
REMARK    1  A    between atoms: C2_2  and  O1_5 
REMARK    2  A    between atoms: O1_5  and  C5_6 
REMARK    3  A    between atoms: C5_6  and  C6_8 
REMARK    4  A    between atoms: C9_11  and  N1_12 
ROOT
HETATM    1  C6  UNL     1      21.731  -0.584  -5.784  1.00  0.00     0.083 A 
HETATM    2  C7  UNL     1      22.795  -1.373  -5.435  1.00  0.00     0.043 A 
HETATM    3  C8  UNL     1      23.124  -1.431  -4.126  1.00  0.00     0.043 A 
HETATM    4  C9  UNL     1      24.170  -2.170  -3.547  1.00  0.00     0.114 A 
HETATM    5  N2  UNL     1      24.370  -2.126  -2.240  1.00  0.00    -0.319 N 
ATOM      6  H2  UNL     1      25.140  -2.677  -1.862  1.00  0.00     0.170 HD
HETATM    7  C10 UNL     1      23.641  -1.415  -1.380  1.00  0.00     0.178 A 
HETATM    8  S1  UNL     1      23.966  -1.425   0.215  1.00  0.00    -0.040 SA
HETATM    9  N3  UNL     1      22.634  -0.699  -1.911  1.00  0.00    -0.327 N 
ATOM     10  H3  UNL     1      22.046  -0.138  -1.294  1.00  0.00     0.169 HD
HETATM   11  C11 UNL     1      22.375  -0.702  -3.256  1.00  0.00     0.091 A 
HETATM   12  S2  UNL     1      21.229   0.050  -4.268  1.00  0.00    -0.065 SA
ENDROOT
BRANCH   1  13
HETATM   13  C5  UNL     1      21.162  -0.338  -7.110  1.00  0.00     0.301 C 
HETATM   14  O2  UNL     1      20.573  -1.260  -7.693  1.00  0.00    -0.259 OA
BRANCH  13  15
HETATM   15  O1  UNL     1      21.296   0.891  -7.667  1.00  0.00    -0.307 OA
BRANCH  15  16
HETATM   16  C2  UNL     1      22.311   1.263  -8.577  1.00  0.00     0.060 C 
HETATM   17  C1  UNL     1      23.268   0.160  -8.886  1.00  0.00     0.046 C 
HETATM   18  C3  UNL     1      23.108   2.378  -7.888  1.00  0.00     0.046 C 
HETATM   19  C4  UNL     1      21.755   1.869  -9.845  1.00  0.00     0.046 C 
ENDBRANCH  15  16
ENDBRANCH  13  15
ENDBRANCH   1  13
BRANCH   4  20
HETATM   20  N1  UNL     1      24.964  -2.909  -4.253  1.00  0.00    -0.385 N 
ATOM     21  H12 UNL     1      25.229  -2.571  -5.178  1.00  0.00     0.157 HD
ATOM     22  H11 UNL     1      25.322  -3.802  -3.912  1.00  0.00     0.157 HD
ENDBRANCH   4  20
TORSDOF 4
ENDMDL
MODEL 5
REMARK VINA RESULT: -5.118465291      2.185      3.155
REMARK  4 active torsions:
REMARK  status: ('A' for Active; 'I' for Inactive)
REMARK    1  A    between atoms: C2_2  and  O1_5 
REMARK    2  A    between atoms: O1_5  and  C5_6 
REMARK    3  A    between atoms: C5_6  and  C6_8 
REMARK    4  A    between atoms: C9_11  and  N1_12 
ROOT
HETATM    1  C6  UNL     1      20.309   1.376  -4.060  1.00  0.00     0.083 A 
HETATM    2  C7  UNL     1      20.502   1.141  -2.724  1.00  0.00     0.043 A 
HETATM    3  C8  UNL     1      19.503   1.486  -1.881  1.00  0.00     0.043 A 
HETATM    4  C9  UNL     1      19.484   1.337  -0.484  1.00  0.00     0.114 A 
HETATM    5  N2  UNL     1      18.427   1.724   0.211  1.00  0.00    -0.319 N 
ATOM      6  H2  UNL     1      18.456   1.598   1.222  1.00  0.00     0.170 HD
HETATM    7  C10 UNL     1      17.328   2.266  -0.312  1.00  0.00     0.178 A 
HETATM    8  S1  UNL     1      16.075   2.712   0.629  1.00  0.00    -0.040 SA
HETATM    9  N3  UNL     1      17.322   2.419  -1.648  1.00  0.00    -0.327 N 
ATOM     10  H3  UNL     1      16.503   2.829  -2.096  1.00  0.00     0.169 HD
HETATM   11  C11 UNL     1      18.386   2.039  -2.423  1.00  0.00     0.091 A 
HETATM   12  S2  UNL     1      18.738   2.071  -4.090  1.00  0.00    -0.065 SA
ENDROOT
BRANCH   1  13
HETATM   13  C5  UNL     1      21.210   1.106  -5.182  1.00  0.00     0.301 C 
HETATM   14  O2  UNL     1      22.395   0.828  -4.949  1.00  0.00    -0.259 OA
BRANCH  13  15
HETATM   15  O1  UNL     1      20.724   1.168  -6.446  1.00  0.00    -0.307 OA
BRANCH  15  16
HETATM   16  C2  UNL     1      21.122   0.326  -7.510  1.00  0.00     0.060 C 
HETATM   17  C1  UNL     1      22.385   0.764  -8.175  1.00  0.00     0.046 C 
HETATM   18  C3  UNL     1      20.004   0.411  -8.557  1.00  0.00     0.046 C 
HETATM   19  C4  UNL     1      21.200  -1.126  -7.099  1.00  0.00     0.046 C 
ENDBRANCH  15  16
ENDBRANCH  13  15
ENDBRANCH   1  13
BRANCH   4  20
HETATM   20  N1  UNL     1      20.479   0.826   0.168  1.00  0.00    -0.385 N 
ATOM     21  H12 UNL     1      20.509   0.972   1.177  1.00  0.00     0.157 HD
ATOM     22  H11 UNL     1      21.215   0.293  -0.295  1.00  0.00     0.157 HD
ENDBRANCH   4  20
TORSDOF 4
ENDMDL
