MODEL 1
REMARK VINA RESULT: -5.705795304      0.000      0.000
REMARK  2 active torsions:
REMARK  status: ('A' for Active; 'I' for Inactive)
REMARK    1  A    between atoms: O1_1  and  C1_3 
REMARK    2  A    between atoms: C2_4  and  N1_5 
ROOT
HETATM    1  C1  UNL     1      22.599  43.298  41.004  1.00  0.00     0.127 A 
HETATM    2  C2  UNL     1      21.931  42.624  40.028  1.00  0.00     0.108 A 
HETATM    3  S1  UNL     1      20.899  41.596  40.875  1.00  0.00    -0.071 SA
HETATM    4  C8  UNL     1      21.338  42.046  42.493  1.00  0.00     0.019 A 
HETATM    5  C9  UNL     1      22.291  42.997  42.290  1.00  0.00     0.083 A 
HETATM    6  N2  UNL     1      22.876  43.589  43.481  1.00  0.00    -0.338 N 
ATOM      7  H2  UNL     1      23.594  44.308  43.393  1.00  0.00     0.167 HD
HETATM    8  C10 UNL     1      22.452  43.173  44.756  1.00  0.00     0.128 A 
HETATM    9  N3  UNL     1      22.859  43.587  45.999  1.00  0.00    -0.285 N 
ATOM     10  H3  UNL     1      23.567  44.296  46.190  1.00  0.00     0.188 HD
HETATM   11  N4  UNL     1      22.187  42.919  46.894  1.00  0.00    -0.310 N 
ATOM     12  H4  UNL     1      22.300  43.038  47.901  1.00  0.00     0.186 HD
HETATM   13  C11 UNL     1      21.331  42.061  46.331  1.00  0.00     0.118 A 
HETATM   14  C12 UNL     1      21.499  42.221  44.952  1.00  0.00     0.009 A 
HETATM   15  C13 UNL     1      20.847  41.562  43.826  1.00  0.00     0.092 A 
ENDROOT
BRANCH   2  16
HETATM   16  N1  UNL     1      22.049  42.733  38.604  1.00  0.00    -0.373 N 
HETATM   17  C3  UNL     1      22.939  41.933  37.824  1.00  0.00     0.123 C 
HETATM   18  C4  UNL     1      22.976  42.497  36.421  1.00  0.00     0.020 C 
HETATM   19  C5  UNL     1      21.598  42.522  35.782  1.00  0.00     0.003 C 
HETATM   20  C6  UNL     1      20.535  43.015  36.731  1.00  0.00     0.020 C 
HETATM   21  C7  UNL     1      21.220  43.715  37.894  1.00  0.00     0.123 C 
ENDBRANCH   2  16
BRANCH   1  22
HETATM   22  O1  UNL     1      23.576  44.271  40.621  1.00  0.00    -0.356 OA
ATOM     23  H1  UNL     1      24.091  44.692  41.300  1.00  0.00     0.218 HD
ENDBRANCH   1  22
TORSDOF 2
ENDMDL
MODEL 2
REMARK VINA RESULT: -5.681423645      1.680      2.267
REMARK  2 active torsions:
REMARK  status: ('A' for Active; 'I' for Inactive)
REMARK    1  A    between atoms: O1_1  and  C1_3 
REMARK    2  A    between atoms: C2_4  and  N1_5 
ROOT
HETATM    1  C1  UNL     1      21.082  41.867  40.865  1.00  0.00     0.127 A 
HETATM    2  C2  UNL     1      21.811  42.501  39.905  1.00  0.00     0.108 A 
HETATM    3  S1  UNL     1      22.886  43.462  40.775  1.00  0.00    -0.071 SA
HETATM    4  C8  UNL     1      22.387  43.038  42.382  1.00  0.00     0.019 A 
HETATM    5  C9  UNL     1      21.382  42.147  42.158  1.00  0.00     0.083 A 
HETATM    6  N2  UNL     1      20.738  41.591  43.336  1.00  0.00    -0.338 N 
ATOM      7  H2  UNL     1      19.979  40.918  43.231  1.00  0.00     0.167 HD
HETATM    8  C10 UNL     1      21.161  41.979  44.619  1.00  0.00     0.128 A 
HETATM    9  N3  UNL     1      20.704  41.589  45.853  1.00  0.00    -0.285 N 
ATOM     10  H3  UNL     1      19.950  40.924  46.028  1.00  0.00     0.188 HD
HETATM   11  N4  UNL     1      21.397  42.212  46.763  1.00  0.00    -0.310 N 
ATOM     12  H4  UNL     1      21.257  42.099  47.767  1.00  0.00     0.186 HD
HETATM   13  C11 UNL     1      22.315  43.018  46.220  1.00  0.00     0.118 A 
HETATM   14  C12 UNL     1      22.167  42.870  44.837  1.00  0.00     0.009 A 
HETATM   15  C13 UNL     1      22.880  43.489  43.726  1.00  0.00     0.092 A 
ENDROOT
BRANCH   2  16
HETATM   16  N1  UNL     1      21.714  42.401  38.478  1.00  0.00    -0.373 N 
HETATM   17  C3  UNL     1      20.802  43.172  37.694  1.00  0.00     0.123 C 
HETATM   18  C4  UNL     1      20.806  42.621  36.286  1.00  0.00     0.020 C 
HETATM   19  C5  UNL     1      22.191  42.659  35.664  1.00  0.00     0.003 C 
HETATM   20  C6  UNL     1      23.263  42.201  36.622  1.00  0.00     0.020 C 
HETATM   21  C7  UNL     1      22.592  41.461  37.769  1.00  0.00     0.123 C 
ENDBRANCH   2  16
BRANCH   1  22
HETATM   22  O1  UNL     1      20.056  40.957  40.460  1.00  0.00    -0.356 OA
ATOM     23  H1  UNL     1      20.308  40.126  40.074  1.00  0.00     0.218 HD
ENDBRANCH   1  22
TORSDOF 2
ENDMDL
MODEL 3
REMARK VINA RESULT: -5.567639536      0.534      1.251
REMARK  2 active torsions:
REMARK  status: ('A' for Active; 'I' for Inactive)
REMARK    1  A    between atoms: O1_1  and  C1_3 
REMARK    2  A    between atoms: C2_4  and  N1_5 
ROOT
HETATM    1  C1  UNL     1      22.394  43.091  40.673  1.00  0.00     0.127 A 
HETATM    2  C2  UNL     1      21.669  42.292  39.843  1.00  0.00     0.108 A 
HETATM    3  S1  UNL     1      20.782  41.313  40.888  1.00  0.00    -0.071 SA
HETATM    4  C8  UNL     1      21.355  41.945  42.400  1.00  0.00     0.019 A 
HETATM    5  C9  UNL     1      22.231  42.911  42.007  1.00  0.00     0.083 A 
HETATM    6  N2  UNL     1      22.898  43.646  43.069  1.00  0.00    -0.338 N 
ATOM      7  H2  UNL     1      23.565  44.382  42.836  1.00  0.00     0.167 HD
HETATM    8  C10 UNL     1      22.625  43.345  44.414  1.00  0.00     0.128 A 
HETATM    9  N3  UNL     1      23.130  43.901  45.562  1.00  0.00    -0.285 N 
ATOM     10  H3  UNL     1      23.815  44.656  45.609  1.00  0.00     0.188 HD
HETATM   11  N4  UNL     1      22.586  43.301  46.583  1.00  0.00    -0.310 N 
ATOM     12  H4  UNL     1      22.792  43.528  47.556  1.00  0.00     0.186 HD
HETATM   13  C11 UNL     1      21.726  42.353  46.199  1.00  0.00     0.118 A 
HETATM   14  C12 UNL     1      21.748  42.378  44.800  1.00  0.00     0.009 A 
HETATM   15  C13 UNL     1      21.023  41.580  43.818  1.00  0.00     0.092 A 
ENDROOT
BRANCH   2  16
HETATM   16  N1  UNL     1      21.641  42.259  38.410  1.00  0.00    -0.373 N 
HETATM   17  C3  UNL     1      20.738  43.037  37.622  1.00  0.00     0.123 C 
HETATM   18  C4  UNL     1      20.825  42.557  36.191  1.00  0.00     0.020 C 
HETATM   19  C5  UNL     1      22.235  42.673  35.637  1.00  0.00     0.003 C 
HETATM   20  C6  UNL     1      23.277  42.203  36.621  1.00  0.00     0.020 C 
HETATM   21  C7  UNL     1      22.583  41.386  37.699  1.00  0.00     0.123 C 
ENDBRANCH   2  16
BRANCH   1  22
HETATM   22  O1  UNL     1      23.276  44.060  40.098  1.00  0.00    -0.356 OA
ATOM     23  H1  UNL     1      22.912  44.882  39.790  1.00  0.00     0.218 HD
ENDBRANCH   1  22
TORSDOF 2
ENDMDL
MODEL 4
REMARK VINA RESULT: -5.340952977      2.221      3.039
REMARK  2 active torsions:
REMARK  status: ('A' for Active; 'I' for Inactive)
REMARK    1  A    between atoms: O1_1  and  C1_3 
REMARK    2  A    between atoms: C2_4  and  N1_5 
ROOT
HETATM    1  C1  UNL     1      20.882  43.098  38.875  1.00  0.00     0.127 A 
HETATM    2  C2  UNL     1      20.384  41.870  38.561  1.00  0.00     0.108 A 
HETATM    3  S1  UNL     1      20.413  41.031  40.021  1.00  0.00    -0.071 SA
HETATM    4  C8  UNL     1      21.071  42.277  41.035  1.00  0.00     0.019 A 
HETATM    5  C9  UNL     1      21.241  43.310  40.166  1.00  0.00     0.083 A 
HETATM    6  N2  UNL     1      21.791  44.536  40.721  1.00  0.00    -0.338 N 
ATOM      7  H2  UNL     1      21.940  45.345  40.118  1.00  0.00     0.167 HD
HETATM    8  C10 UNL     1      22.117  44.607  42.086  1.00  0.00     0.128 A 
HETATM    9  N3  UNL     1      22.640  45.646  42.815  1.00  0.00    -0.285 N 
ATOM     10  H3  UNL     1      22.882  46.568  42.452  1.00  0.00     0.188 HD
HETATM   11  N4  UNL     1      22.775  45.253  44.050  1.00  0.00    -0.310 N 
ATOM     12  H4  UNL     1      23.145  45.838  44.799  1.00  0.00     0.186 HD
HETATM   13  C11 UNL     1      22.370  43.990  44.215  1.00  0.00     0.118 A 
HETATM   14  C12 UNL     1      21.944  43.569  42.951  1.00  0.00     0.009 A 
HETATM   15  C13 UNL     1      21.399  42.294  42.500  1.00  0.00     0.092 A 
ENDROOT
BRANCH   2  16
HETATM   16  N1  UNL     1      19.932  41.370  37.296  1.00  0.00    -0.373 N 
HETATM   17  C3  UNL     1      19.008  40.288  37.161  1.00  0.00     0.123 C 
HETATM   18  C4  UNL     1      18.967  39.882  35.705  1.00  0.00     0.020 C 
HETATM   19  C5  UNL     1      18.559  41.033  34.804  1.00  0.00     0.003 C 
HETATM   20  C6  UNL     1      19.249  42.323  35.173  1.00  0.00     0.020 C 
HETATM   21  C7  UNL     1      20.435  41.991  36.064  1.00  0.00     0.123 C 
ENDBRANCH   2  16
BRANCH   1  22
HETATM   22  O1  UNL     1      20.998  44.078  37.840  1.00  0.00    -0.356 OA
ATOM     23  H1  UNL     1      20.238  44.605  37.623  1.00  0.00     0.218 HD
ENDBRANCH   1  22
TORSDOF 2
ENDMDL
MODEL 5
REMARK VINA RESULT: -5.334061777      2.605      3.430
REMARK  2 active torsions:
REMARK  status: ('A' for Active; 'I' for Inactive)
REMARK    1  A    between atoms: O1_1  and  C1_3 
REMARK    2  A    between atoms: C2_4  and  N1_5 
ROOT
HETATM    1  C1  UNL     1      22.854  42.094  38.848  1.00  0.00     0.127 A 
HETATM    2  C2  UNL     1      23.371  43.316  38.540  1.00  0.00     0.108 A 
HETATM    3  S1  UNL     1      23.367  44.144  40.006  1.00  0.00    -0.071 SA
HETATM    4  C8  UNL     1      22.695  42.902  41.016  1.00  0.00     0.019 A 
HETATM    5  C9  UNL     1      22.501  41.878  40.139  1.00  0.00     0.083 A 
HETATM    6  N2  UNL     1      21.933  40.658  40.689  1.00  0.00    -0.338 N 
ATOM      7  H2  UNL     1      21.766  39.856  40.082  1.00  0.00     0.167 HD
HETATM    8  C10 UNL     1      21.616  40.582  42.056  1.00  0.00     0.128 A 
HETATM    9  N3  UNL     1      21.080  39.547  42.781  1.00  0.00    -0.285 N 
ATOM     10  H3  UNL     1      20.820  38.633  42.413  1.00  0.00     0.188 HD
HETATM   11  N4  UNL     1      20.960  39.933  44.020  1.00  0.00    -0.310 N 
ATOM     12  H4  UNL     1      20.586  39.348  44.767  1.00  0.00     0.186 HD
HETATM   13  C11 UNL     1      21.388  41.187  44.191  1.00  0.00     0.118 A 
HETATM   14  C12 UNL     1      21.813  41.610  42.927  1.00  0.00     0.009 A 
HETATM   15  C13 UNL     1      22.376  42.879  42.482  1.00  0.00     0.092 A 
ENDROOT
BRANCH   2  16
HETATM   16  N1  UNL     1      23.823  43.817  37.275  1.00  0.00    -0.373 N 
HETATM   17  C3  UNL     1      24.730  44.913  37.141  1.00  0.00     0.123 C 
HETATM   18  C4  UNL     1      24.773  45.314  35.683  1.00  0.00     0.020 C 
HETATM   19  C5  UNL     1      25.206  44.165  34.790  1.00  0.00     0.003 C 
HETATM   20  C6  UNL     1      24.536  42.866  35.161  1.00  0.00     0.020 C 
HETATM   21  C7  UNL     1      23.338  43.182  36.043  1.00  0.00     0.123 C 
ENDBRANCH   2  16
BRANCH   1  22
HETATM   22  O1  UNL     1      22.714  41.124  37.806  1.00  0.00    -0.356 OA
ATOM     23  H1  UNL     1      21.840  40.872  37.532  1.00  0.00     0.218 HD
ENDBRANCH   1  22
TORSDOF 2
ENDMDL
