MODEL 1
REMARK VINA RESULT: -7.156808355      0.000      0.000
REMARK  2 active torsions:
REMARK  status: ('A' for Active; 'I' for Inactive)
REMARK    1  A    between atoms: C2_2  and  C5_5 
REMARK    2  A    between atoms: C8_12  and  C9_13 
ROOT
HETATM    1  C5  UNL     1      22.114  42.591  40.378  1.00  0.00     0.091 A 
HETATM    2  N1  UNL     1      21.658  41.431  40.829  1.00  0.00    -0.330 N 
ATOM      3  H1  UNL     1      21.422  40.638  40.232  1.00  0.00     0.168 HD
HETATM    4  C6  UNL     1      21.542  41.426  42.178  1.00  0.00     0.133 A 
HETATM    5  N2  UNL     1      21.135  40.510  43.096  1.00  0.00    -0.349 N 
ATOM      6  H2  UNL     1      20.829  39.594  42.768  1.00  0.00     0.166 HD
HETATM    7  C7  UNL     1      21.118  40.759  44.420  1.00  0.00     0.104 A 
HETATM    8  C8  UNL     1      21.531  41.985  44.826  1.00  0.00     0.017 A 
HETATM    9  C11 UNL     1      21.951  42.947  43.939  1.00  0.00     0.049 A 
HETATM   10  C12 UNL     1      21.955  42.663  42.582  1.00  0.00     0.079 A 
HETATM   11  N6  UNL     1      22.298  43.359  41.491  1.00  0.00    -0.342 N 
ATOM     12  H6  UNL     1      22.643  44.318  41.491  1.00  0.00     0.167 HD
ENDROOT
BRANCH   8  13
HETATM   13  C9  UNL     1      21.518  42.264  46.281  1.00  0.00     0.103 A 
HETATM   14  N3  UNL     1      22.503  42.717  47.046  1.00  0.00    -0.291 N 
HETATM   15  N4  UNL     1      22.302  42.889  48.288  1.00  0.00    -0.279 N 
ATOM     16  H3  UNL     1      23.415  42.925  46.640  1.00  0.00     0.187 HD
HETATM   17  C10 UNL     1      21.105  42.614  48.817  1.00  0.00     0.159 A 
ATOM     18  H4  UNL     1      23.054  43.237  48.883  1.00  0.00     0.189 HD
HETATM   19  N5  UNL     1      20.706  42.737  50.053  1.00  0.00    -0.379 N 
HETATM   20  S1  UNL     1      20.255  42.079  47.419  1.00  0.00    -0.033 SA
ATOM     21  H52 UNL     1      21.209  43.054  50.881  1.00  0.00     0.158 HD
ATOM     22  H51 UNL     1      19.793  42.527  50.457  1.00  0.00     0.158 HD
ENDBRANCH   8  13
BRANCH   1  23
HETATM   23  C2  UNL     1      22.351  42.938  38.933  1.00  0.00     0.007 C 
HETATM   24  C1  UNL     1      21.112  43.611  38.357  1.00  0.00     0.022 C 
HETATM   25  C3  UNL     1      23.572  43.793  38.859  1.00  0.00     0.022 C 
HETATM   26  C4  UNL     1      22.605  41.660  38.156  1.00  0.00     0.022 C 
ENDBRANCH   1  23
TORSDOF 2
ENDMDL
MODEL 2
REMARK VINA RESULT: -7.148779233      1.474      2.352
REMARK  2 active torsions:
REMARK  status: ('A' for Active; 'I' for Inactive)
REMARK    1  A    between atoms: C2_2  and  C5_5 
REMARK    2  A    between atoms: C8_12  and  C9_13 
ROOT
HETATM    1  C5  UNL     1      21.677  42.639  40.234  1.00  0.00     0.091 A 
HETATM    2  N1  UNL     1      22.138  43.790  40.700  1.00  0.00    -0.330 N 
ATOM      3  H1  UNL     1      22.393  44.585  40.113  1.00  0.00     0.168 HD
HETATM    4  C6  UNL     1      22.230  43.786  42.051  1.00  0.00     0.133 A 
HETATM    5  N2  UNL     1      22.631  44.692  42.982  1.00  0.00    -0.349 N 
ATOM      6  H2  UNL     1      22.952  45.606  42.665  1.00  0.00     0.166 HD
HETATM    7  C7  UNL     1      22.622  44.434  44.304  1.00  0.00     0.104 A 
HETATM    8  C8  UNL     1      22.189  43.211  44.695  1.00  0.00     0.017 A 
HETATM    9  C11 UNL     1      21.774  42.259  43.795  1.00  0.00     0.049 A 
HETATM   10  C12 UNL     1      21.797  42.552  42.440  1.00  0.00     0.079 A 
HETATM   11  N6  UNL     1      21.466  41.866  41.339  1.00  0.00    -0.342 N 
ATOM     12  H6  UNL     1      21.110  40.911  41.327  1.00  0.00     0.167 HD
ENDROOT
BRANCH   8  13
HETATM   13  C9  UNL     1      22.173  42.923  46.149  1.00  0.00     0.103 A 
HETATM   14  N3  UNL     1      21.181  42.441  46.886  1.00  0.00    -0.291 N 
HETATM   15  N4  UNL     1      21.356  42.266  48.132  1.00  0.00    -0.279 N 
ATOM     16  H3  UNL     1      20.285  42.214  46.457  1.00  0.00     0.187 HD
HETATM   17  C10 UNL     1      22.533  42.566  48.692  1.00  0.00     0.159 A 
ATOM     18  H4  UNL     1      20.598  41.896  48.707  1.00  0.00     0.189 HD
HETATM   19  N5  UNL     1      22.905  42.445  49.936  1.00  0.00    -0.379 N 
HETATM   20  S1  UNL     1      23.403  43.131  47.318  1.00  0.00    -0.033 SA
ATOM     21  H52 UNL     1      22.389  42.110  50.750  1.00  0.00     0.158 HD
ATOM     22  H51 UNL     1      23.802  42.674  50.363  1.00  0.00     0.158 HD
ENDBRANCH   8  13
BRANCH   1  23
HETATM   23  C2  UNL     1      21.462  42.304  38.783  1.00  0.00     0.007 C 
HETATM   24  C1  UNL     1      22.722  41.666  38.211  1.00  0.00     0.022 C 
HETATM   25  C3  UNL     1      20.263  41.420  38.687  1.00  0.00     0.022 C 
HETATM   26  C4  UNL     1      21.185  43.584  38.018  1.00  0.00     0.022 C 
ENDBRANCH   1  23
TORSDOF 2
ENDMDL
MODEL 3
REMARK VINA RESULT: -7.038920227      1.552      2.203
REMARK  2 active torsions:
REMARK  status: ('A' for Active; 'I' for Inactive)
REMARK    1  A    between atoms: C2_2  and  C5_5 
REMARK    2  A    between atoms: C8_12  and  C9_13 
ROOT
HETATM    1  C5  UNL     1      21.625  42.627  40.046  1.00  0.00     0.091 A 
HETATM    2  N1  UNL     1      22.075  43.790  40.496  1.00  0.00    -0.330 N 
ATOM      3  H1  UNL     1      22.309  44.582  39.898  1.00  0.00     0.168 HD
HETATM    4  C6  UNL     1      22.188  43.798  41.845  1.00  0.00     0.133 A 
HETATM    5  N2  UNL     1      22.589  44.718  42.762  1.00  0.00    -0.349 N 
ATOM      6  H2  UNL     1      22.892  45.634  42.433  1.00  0.00     0.166 HD
HETATM    7  C7  UNL     1      22.604  44.471  44.087  1.00  0.00     0.104 A 
HETATM    8  C8  UNL     1      22.196  43.244  44.494  1.00  0.00     0.017 A 
HETATM    9  C11 UNL     1      21.782  42.279  43.609  1.00  0.00     0.049 A 
HETATM   10  C12 UNL     1      21.779  42.561  42.251  1.00  0.00     0.079 A 
HETATM   11  N6  UNL     1      21.442  41.861  41.161  1.00  0.00    -0.342 N 
ATOM     12  H6  UNL     1      21.101  40.900  41.162  1.00  0.00     0.167 HD
ENDROOT
BRANCH   8  13
HETATM   13  C9  UNL     1      22.207  42.969  45.950  1.00  0.00     0.103 A 
HETATM   14  N3  UNL     1      21.238  42.467  46.705  1.00  0.00    -0.291 N 
HETATM   15  N4  UNL     1      21.434  42.308  47.950  1.00  0.00    -0.279 N 
ATOM     16  H3  UNL     1      20.342  42.213  46.289  1.00  0.00     0.187 HD
HETATM   17  C10 UNL     1      22.609  42.643  48.491  1.00  0.00     0.159 A 
ATOM     18  H4  UNL     1      20.693  41.922  48.537  1.00  0.00     0.189 HD
HETATM   19  N5  UNL     1      23.000  42.543  49.732  1.00  0.00    -0.379 N 
HETATM   20  S1  UNL     1      23.446  43.219  47.101  1.00  0.00    -0.033 SA
ATOM     21  H52 UNL     1      22.504  42.201  50.555  1.00  0.00     0.158 HD
ATOM     22  H51 UNL     1      23.897  42.799  50.145  1.00  0.00     0.158 HD
ENDBRANCH   8  13
BRANCH   1  23
HETATM   23  C2  UNL     1      21.393  42.276  38.602  1.00  0.00     0.007 C 
HETATM   24  C1  UNL     1      20.231  41.299  38.490  1.00  0.00     0.022 C 
HETATM   25  C3  UNL     1      21.165  43.546  37.850  1.00  0.00     0.022 C 
HETATM   26  C4  UNL     1      22.637  41.604  38.054  1.00  0.00     0.022 C 
ENDBRANCH   1  23
TORSDOF 2
ENDMDL
MODEL 4
REMARK VINA RESULT: -6.518512562      1.270      1.363
REMARK  2 active torsions:
REMARK  status: ('A' for Active; 'I' for Inactive)
REMARK    1  A    between atoms: C2_2  and  C5_5 
REMARK    2  A    between atoms: C8_12  and  C9_13 
ROOT
HETATM    1  C5  UNL     1      22.106  42.624  39.878  1.00  0.00     0.091 A 
HETATM    2  N1  UNL     1      21.357  41.683  40.433  1.00  0.00    -0.330 N 
ATOM      3  H1  UNL     1      20.792  41.017  39.906  1.00  0.00     0.168 HD
HETATM    4  C6  UNL     1      21.431  41.711  41.785  1.00  0.00     0.133 A 
HETATM    5  N2  UNL     1      20.872  40.981  42.786  1.00  0.00    -0.349 N 
ATOM      6  H2  UNL     1      20.238  40.222  42.539  1.00  0.00     0.166 HD
HETATM    7  C7  UNL     1      21.120  41.217  44.089  1.00  0.00     0.104 A 
HETATM    8  C8  UNL     1      21.968  42.232  44.386  1.00  0.00     0.017 A 
HETATM    9  C11 UNL     1      22.559  43.001  43.412  1.00  0.00     0.049 A 
HETATM   10  C12 UNL     1      22.283  42.737  42.079  1.00  0.00     0.079 A 
HETATM   11  N6  UNL     1      22.685  43.282  40.924  1.00  0.00    -0.342 N 
ATOM     12  H6  UNL     1      23.326  44.070  40.839  1.00  0.00     0.167 HD
ENDROOT
BRANCH   8  13
HETATM   13  C9  UNL     1      22.247  42.494  45.817  1.00  0.00     0.103 A 
HETATM   14  N3  UNL     1      21.431  42.370  46.855  1.00  0.00    -0.291 N 
HETATM   15  N4  UNL     1      21.853  42.650  48.020  1.00  0.00    -0.279 N 
ATOM     16  H3  UNL     1      20.471  42.052  46.720  1.00  0.00     0.187 HD
HETATM   17  C10 UNL     1      23.111  43.067  48.194  1.00  0.00     0.159 A 
ATOM     18  H4  UNL     1      21.231  42.557  48.824  1.00  0.00     0.189 HD
HETATM   19  N5  UNL     1      23.725  43.386  49.300  1.00  0.00    -0.379 N 
HETATM   20  S1  UNL     1      23.681  43.044  46.569  1.00  0.00    -0.033 SA
ATOM     21  H52 UNL     1      23.388  43.399  50.262  1.00  0.00     0.158 HD
ATOM     22  H51 UNL     1      24.685  43.704  49.433  1.00  0.00     0.158 HD
ENDBRANCH   8  13
BRANCH   1  23
HETATM   23  C2  UNL     1      22.245  42.877  38.402  1.00  0.00     0.007 C 
HETATM   24  C1  UNL     1      20.932  43.414  37.846  1.00  0.00     0.022 C 
HETATM   25  C3  UNL     1      23.392  43.811  38.200  1.00  0.00     0.022 C 
HETATM   26  C4  UNL     1      22.558  41.566  37.705  1.00  0.00     0.022 C 
ENDBRANCH   1  23
TORSDOF 2
ENDMDL
MODEL 5
REMARK VINA RESULT: -6.516047456      5.427      7.635
REMARK  2 active torsions:
REMARK  status: ('A' for Active; 'I' for Inactive)
REMARK    1  A    between atoms: C2_2  and  C5_5 
REMARK    2  A    between atoms: C8_12  and  C9_13 
ROOT
HETATM    1  C5  UNL     1      18.539  42.270  48.653  1.00  0.00     0.091 A 
HETATM    2  N1  UNL     1      19.162  42.306  47.484  1.00  0.00    -0.330 N 
ATOM      3  H1  UNL     1      18.689  42.243  46.582  1.00  0.00     0.168 HD
HETATM    4  C6  UNL     1      20.501  42.438  47.630  1.00  0.00     0.133 A 
HETATM    5  N2  UNL     1      21.550  42.523  46.770  1.00  0.00    -0.349 N 
ATOM      6  H2  UNL     1      21.363  42.482  45.768  1.00  0.00     0.166 HD
HETATM    7  C7  UNL     1      22.825  42.659  47.182  1.00  0.00     0.104 A 
HETATM    8  C8  UNL     1      23.043  42.711  48.520  1.00  0.00     0.017 A 
HETATM    9  C11 UNL     1      22.018  42.629  49.432  1.00  0.00     0.049 A 
HETATM   10  C12 UNL     1      20.716  42.487  48.977  1.00  0.00     0.079 A 
HETATM   11  N6  UNL     1      19.528  42.384  49.587  1.00  0.00    -0.342 N 
ATOM     12  H6  UNL     1      19.384  42.389  50.596  1.00  0.00     0.167 HD
ENDROOT
BRANCH   8  13
HETATM   13  C9  UNL     1      24.443  42.864  48.980  1.00  0.00     0.103 A 
HETATM   14  N3  UNL     1      25.428  41.977  48.939  1.00  0.00    -0.291 N 
HETATM   15  N4  UNL     1      26.573  42.292  49.392  1.00  0.00    -0.279 N 
ATOM     16  H3  UNL     1      25.269  41.048  48.548  1.00  0.00     0.187 HD
HETATM   17  C10 UNL     1      26.778  43.509  49.905  1.00  0.00     0.159 A 
ATOM     18  H4  UNL     1      27.336  41.614  49.365  1.00  0.00     0.189 HD
HETATM   19  N5  UNL     1      27.872  44.017  50.401  1.00  0.00    -0.379 N 
HETATM   20  S1  UNL     1      25.215  44.203  49.709  1.00  0.00    -0.033 SA
ATOM     21  H52 UNL     1      28.798  43.606  50.516  1.00  0.00     0.158 HD
ATOM     22  H51 UNL     1      28.029  44.946  50.792  1.00  0.00     0.158 HD
ENDBRANCH   8  13
BRANCH   1  23
HETATM   23  C2  UNL     1      17.056  42.120  48.852  1.00  0.00     0.007 C 
HETATM   24  C1  UNL     1      16.326  42.472  47.563  1.00  0.00     0.022 C 
HETATM   25  C3  UNL     1      16.791  40.726  49.314  1.00  0.00     0.022 C 
HETATM   26  C4  UNL     1      16.606  43.084  49.934  1.00  0.00     0.022 C 
ENDBRANCH   1  23
TORSDOF 2
ENDMDL
