MODEL 1
REMARK VINA RESULT: -6.014812176      0.000      0.000
REMARK  6 active torsions:
REMARK  status: ('A' for Active; 'I' for Inactive)
REMARK    1  A    between atoms: O1_2  and  C2_3 
REMARK    2  A    between atoms: C3_4  and  O2_5 
REMARK    3  A    between atoms: N1_16  and  O3_18 
REMARK    4  A    between atoms: C13_20  and  C14_21 
REMARK    5  A    between atoms: C14_21  and  O4_22 
REMARK    6  A    between atoms: N2_24  and  O5_26 
ROOT
HETATM    1  C2  UNL     1      17.395  40.518  30.403  1.00  0.00     0.183 C 
HETATM    2  C3  UNL     1      16.834  39.394  31.213  1.00  0.00     0.181 C 
HETATM    3  C4  UNL     1      15.348  39.415  31.231  1.00  0.00    -0.035 C 
HETATM    4  C5  UNL     1      14.643  40.529  31.487  1.00  0.00    -0.019 C 
HETATM    5  C6  UNL     1      15.195  41.904  31.779  1.00  0.00     0.036 C 
HETATM    6  C7  UNL     1      15.771  42.437  30.460  1.00  0.00     0.016 C 
HETATM    7  C8  UNL     1      16.768  43.503  30.855  1.00  0.00     0.015 C 
HETATM    8  C9  UNL     1      16.378  41.336  29.640  1.00  0.00    -0.048 C 
HETATM    9  C10 UNL     1      15.539  40.585  28.705  1.00  0.00    -0.015 C 
HETATM   10  C11 UNL     1      14.094  40.398  28.890  1.00  0.00     0.083 C 
HETATM   11  C12 UNL     1      13.690  39.157  29.606  1.00  0.00     0.029 C 
HETATM   12  N1  UNL     1      12.800  38.425  29.030  1.00  0.00    -0.276 N 
ATOM     13  H1  UNL     1      12.499  37.567  29.492  1.00  0.00     0.193 HD
HETATM   14  C13 UNL     1      14.157  38.592  30.931  1.00  0.00     0.141 C 
ENDROOT
BRANCH  14  15
HETATM   15  C14 UNL     1      14.343  37.160  30.892  1.00  0.00     0.149 C 
HETATM   16  N2  UNL     1      13.797  36.408  31.797  1.00  0.00    -0.250 N 
ATOM     17  H2  UNL     1      13.931  35.398  31.765  1.00  0.00     0.196 HD
BRANCH  15  18
HETATM   18  O4  UNL     1      15.081  36.465  29.942  1.00  0.00    -0.347 OA
ATOM     19  H4  UNL     1      14.728  35.853  29.307  1.00  0.00     0.219 HD
ENDBRANCH  15  18
BRANCH  16  20
HETATM   20  O5  UNL     1      13.049  36.956  32.783  1.00  0.00    -0.288 OA
ATOM     21  H5  UNL     1      12.372  36.447  33.212  1.00  0.00     0.244 HD
ENDBRANCH  16  20
ENDBRANCH  14  15
BRANCH   2  22
HETATM   22  O2  UNL     1      17.359  38.158  30.872  1.00  0.00    -0.388 OA
ATOM     23  H2  UNL     1      18.308  38.155  30.821  1.00  0.00     0.210 HD
ENDBRANCH   2  22
BRANCH  12  24
HETATM   24  O3  UNL     1      12.249  38.746  27.840  1.00  0.00    -0.290 OA
ATOM     25  H3  UNL     1      12.288  38.172  27.084  1.00  0.00     0.244 HD
ENDBRANCH  12  24
BRANCH   1  26
HETATM   26  O1  UNL     1      18.253  39.962  29.463  1.00  0.00    -0.383 OA
HETATM   27  C1  UNL     1      19.335  40.779  29.183  1.00  0.00     0.202 C 
ENDBRANCH   1  26
TORSDOF 6
ENDMDL
MODEL 2
REMARK VINA RESULT: -5.314979696      2.268      3.080
REMARK  6 active torsions:
REMARK  status: ('A' for Active; 'I' for Inactive)
REMARK    1  A    between atoms: O1_2  and  C2_3 
REMARK    2  A    between atoms: C3_4  and  O2_5 
REMARK    3  A    between atoms: N1_16  and  O3_18 
REMARK    4  A    between atoms: C13_20  and  C14_21 
REMARK    5  A    between atoms: C14_21  and  O4_22 
REMARK    6  A    between atoms: N2_24  and  O5_26 
ROOT
HETATM    1  C2  UNL     1      18.752  39.815  30.073  1.00  0.00     0.183 C 
HETATM    2  C3  UNL     1      17.693  38.826  30.440  1.00  0.00     0.181 C 
HETATM    3  C4  UNL     1      16.854  39.309  31.567  1.00  0.00    -0.035 C 
HETATM    4  C5  UNL     1      17.377  39.821  32.692  1.00  0.00    -0.019 C 
HETATM    5  C6  UNL     1      18.843  40.006  33.007  1.00  0.00     0.036 C 
HETATM    6  C7  UNL     1      19.344  41.153  32.118  1.00  0.00     0.016 C 
HETATM    7  C8  UNL     1      20.842  40.967  32.025  1.00  0.00     0.015 C 
HETATM    8  C9  UNL     1      18.665  41.148  30.779  1.00  0.00    -0.048 C 
HETATM    9  C10 UNL     1      17.404  41.871  30.607  1.00  0.00    -0.015 C 
HETATM   10  C11 UNL     1      16.455  42.109  31.703  1.00  0.00     0.083 C 
HETATM   11  C12 UNL     1      15.376  41.096  31.856  1.00  0.00     0.029 C 
HETATM   12  N1  UNL     1      14.170  41.544  31.915  1.00  0.00    -0.276 N 
ATOM     13  H1  UNL     1      13.405  40.878  32.019  1.00  0.00     0.193 HD
HETATM   14  C13 UNL     1      15.454  39.587  31.955  1.00  0.00     0.141 C 
ENDROOT
BRANCH  14  15
HETATM   15  C14 UNL     1      14.419  38.923  31.197  1.00  0.00     0.149 C 
HETATM   16  N2  UNL     1      13.800  37.900  31.698  1.00  0.00    -0.250 N 
ATOM     17  H2  UNL     1      13.070  37.435  31.158  1.00  0.00     0.196 HD
BRANCH  15  18
HETATM   18  O4  UNL     1      13.993  39.281  29.924  1.00  0.00    -0.347 OA
ATOM     19  H4  UNL     1      13.671  40.138  29.669  1.00  0.00     0.219 HD
ENDBRANCH  15  18
BRANCH  16  20
HETATM   20  O5  UNL     1      14.116  37.445  32.932  1.00  0.00    -0.288 OA
ATOM     21  H5  UNL     1      14.987  37.115  33.115  1.00  0.00     0.244 HD
ENDBRANCH  16  20
ENDBRANCH  14  15
BRANCH   2  22
HETATM   22  O2  UNL     1      16.951  38.390  29.354  1.00  0.00    -0.388 OA
ATOM     23  H2  UNL     1      16.773  37.457  29.372  1.00  0.00     0.210 HD
ENDBRANCH   2  22
BRANCH  12  24
HETATM   24  O3  UNL     1      13.876  42.860  31.845  1.00  0.00    -0.290 OA
ATOM     25  H3  UNL     1      14.168  43.414  31.131  1.00  0.00     0.244 HD
ENDBRANCH  12  24
BRANCH   1  26
HETATM   26  O1  UNL     1      18.626  40.070  28.714  1.00  0.00    -0.383 OA
HETATM   27  C1  UNL     1      19.833  40.405  28.123  1.00  0.00     0.202 C 
ENDBRANCH   1  26
TORSDOF 6
ENDMDL
MODEL 3
REMARK VINA RESULT: -5.313936292     10.274     13.214
REMARK  6 active torsions:
REMARK  status: ('A' for Active; 'I' for Inactive)
REMARK    1  A    between atoms: O1_2  and  C2_3 
REMARK    2  A    between atoms: C3_4  and  O2_5 
REMARK    3  A    between atoms: N1_16  and  O3_18 
REMARK    4  A    between atoms: C13_20  and  C14_21 
REMARK    5  A    between atoms: C14_21  and  O4_22 
REMARK    6  A    between atoms: N2_24  and  O5_26 
ROOT
HETATM    1  C2  UNL     1      24.516  44.957  30.061  1.00  0.00     0.183 C 
HETATM    2  C3  UNL     1      25.577  45.945  30.427  1.00  0.00     0.181 C 
HETATM    3  C4  UNL     1      26.405  45.469  31.565  1.00  0.00    -0.035 C 
HETATM    4  C5  UNL     1      25.870  44.970  32.691  1.00  0.00    -0.019 C 
HETATM    5  C6  UNL     1      24.401  44.795  32.997  1.00  0.00     0.036 C 
HETATM    6  C7  UNL     1      23.902  43.642  32.115  1.00  0.00     0.016 C 
HETATM    7  C8  UNL     1      22.406  43.834  32.008  1.00  0.00     0.015 C 
HETATM    8  C9  UNL     1      24.591  43.630  30.781  1.00  0.00    -0.048 C 
HETATM    9  C10 UNL     1      25.850  42.900  30.626  1.00  0.00    -0.015 C 
HETATM   10  C11 UNL     1      26.789  42.668  31.731  1.00  0.00     0.083 C 
HETATM   11  C12 UNL     1      27.872  43.678  31.882  1.00  0.00     0.029 C 
HETATM   12  N1  UNL     1      29.075  43.225  31.955  1.00  0.00    -0.276 N 
ATOM     13  H1  UNL     1      29.843  43.888  32.058  1.00  0.00     0.193 HD
HETATM   14  C13 UNL     1      27.800  45.189  31.967  1.00  0.00     0.141 C 
ENDROOT
BRANCH  14  15
HETATM   15  C14 UNL     1      28.844  45.840  31.210  1.00  0.00     0.149 C 
HETATM   16  N2  UNL     1      29.463  46.866  31.705  1.00  0.00    -0.250 N 
ATOM     17  H2  UNL     1      30.199  47.322  31.166  1.00  0.00     0.196 HD
BRANCH  15  18
HETATM   18  O4  UNL     1      29.279  45.466  29.944  1.00  0.00    -0.347 OA
ATOM     19  H4  UNL     1      29.814  44.707  29.745  1.00  0.00     0.219 HD
ENDBRANCH  15  18
BRANCH  16  20
HETATM   20  O5  UNL     1      29.139  47.336  32.932  1.00  0.00    -0.288 OA
ATOM     21  H5  UNL     1      28.230  47.469  33.171  1.00  0.00     0.244 HD
ENDBRANCH  16  20
ENDBRANCH  14  15
BRANCH   2  22
HETATM   22  O2  UNL     1      26.329  46.367  29.342  1.00  0.00    -0.388 OA
ATOM     23  H2  UNL     1      26.683  47.242  29.449  1.00  0.00     0.210 HD
ENDBRANCH   2  22
BRANCH  12  24
HETATM   24  O3  UNL     1      29.363  41.907  31.900  1.00  0.00    -0.290 OA
ATOM     25  H3  UNL     1      28.693  41.234  31.889  1.00  0.00     0.244 HD
ENDBRANCH  12  24
BRANCH   1  26
HETATM   26  O1  UNL     1      24.651  44.689  28.706  1.00  0.00    -0.383 OA
HETATM   27  C1  UNL     1      23.446  44.358  28.107  1.00  0.00     0.202 C 
ENDBRANCH   1  26
TORSDOF 6
ENDMDL
MODEL 4
REMARK VINA RESULT: -5.310036237      2.481      3.677
REMARK  6 active torsions:
REMARK  status: ('A' for Active; 'I' for Inactive)
REMARK    1  A    between atoms: O1_2  and  C2_3 
REMARK    2  A    between atoms: C3_4  and  O2_5 
REMARK    3  A    between atoms: N1_16  and  O3_18 
REMARK    4  A    between atoms: C13_20  and  C14_21 
REMARK    5  A    between atoms: C14_21  and  O4_22 
REMARK    6  A    between atoms: N2_24  and  O5_26 
ROOT
HETATM    1  C2  UNL     1      15.165  42.236  29.091  1.00  0.00     0.183 C 
HETATM    2  C3  UNL     1      15.851  42.305  30.417  1.00  0.00     0.181 C 
HETATM    3  C4  UNL     1      15.101  41.564  31.465  1.00  0.00    -0.035 C 
HETATM    4  C5  UNL     1      13.780  41.712  31.652  1.00  0.00    -0.019 C 
HETATM    5  C6  UNL     1      12.848  42.605  30.867  1.00  0.00     0.036 C 
HETATM    6  C7  UNL     1      12.694  41.970  29.478  1.00  0.00     0.016 C 
HETATM    7  C8  UNL     1      12.249  43.091  28.567  1.00  0.00     0.015 C 
HETATM    8  C9  UNL     1      13.968  41.314  29.028  1.00  0.00    -0.048 C 
HETATM    9  C10 UNL     1      14.228  39.919  29.386  1.00  0.00    -0.015 C 
HETATM   10  C11 UNL     1      13.676  39.279  30.588  1.00  0.00     0.083 C 
HETATM   11  C12 UNL     1      14.543  39.319  31.797  1.00  0.00     0.029 C 
HETATM   12  N1  UNL     1      14.754  38.196  32.391  1.00  0.00    -0.276 N 
ATOM     13  H1  UNL     1      15.344  38.186  33.223  1.00  0.00     0.193 HD
HETATM   14  C13 UNL     1      15.238  40.486  32.468  1.00  0.00     0.141 C 
ENDROOT
BRANCH  14  15
HETATM   15  C14 UNL     1      16.577  40.162  32.904  1.00  0.00     0.149 C 
HETATM   16  N2  UNL     1      17.088  40.758  33.936  1.00  0.00    -0.250 N 
ATOM     17  H2  UNL     1      18.033  40.526  34.239  1.00  0.00     0.196 HD
BRANCH  15  18
HETATM   18  O4  UNL     1      17.419  39.232  32.306  1.00  0.00    -0.347 OA
ATOM     19  H4  UNL     1      18.060  39.421  31.632  1.00  0.00     0.219 HD
ENDBRANCH  15  18
BRANCH  16  20
HETATM   20  O5  UNL     1      16.375  41.687  34.613  1.00  0.00    -0.288 OA
ATOM     21  H5  UNL     1      15.426  41.701  34.556  1.00  0.00     0.244 HD
ENDBRANCH  16  20
ENDBRANCH  14  15
BRANCH   2  22
HETATM   22  O2  UNL     1      17.192  41.961  30.358  1.00  0.00    -0.388 OA
ATOM     23  H2  UNL     1      17.706  42.333  31.065  1.00  0.00     0.210 HD
ENDBRANCH   2  22
BRANCH  12  24
HETATM   24  O3  UNL     1      14.228  37.031  31.958  1.00  0.00    -0.290 OA
ATOM     25  H3  UNL     1      14.547  36.578  31.187  1.00  0.00     0.244 HD
ENDBRANCH  12  24
BRANCH   1  26
HETATM   26  O1  UNL     1      16.089  41.759  28.172  1.00  0.00    -0.383 OA
HETATM   27  C1  UNL     1      16.283  42.630  27.113  1.00  0.00     0.202 C 
ENDBRANCH   1  26
TORSDOF 6
ENDMDL
MODEL 5
REMARK VINA RESULT: -5.217955774      2.953      5.110
REMARK  6 active torsions:
REMARK  status: ('A' for Active; 'I' for Inactive)
REMARK    1  A    between atoms: O1_2  and  C2_3 
REMARK    2  A    between atoms: C3_4  and  O2_5 
REMARK    3  A    between atoms: N1_16  and  O3_18 
REMARK    4  A    between atoms: C13_20  and  C14_21 
REMARK    5  A    between atoms: C14_21  and  O4_22 
REMARK    6  A    between atoms: N2_24  and  O5_26 
ROOT
HETATM    1  C2  UNL     1      14.959  38.745  29.763  1.00  0.00     0.183 C 
HETATM    2  C3  UNL     1      16.184  39.580  29.565  1.00  0.00     0.181 C 
HETATM    3  C4  UNL     1      15.925  41.015  29.854  1.00  0.00    -0.035 C 
HETATM    4  C5  UNL     1      14.866  41.673  29.357  1.00  0.00    -0.019 C 
HETATM    5  C6  UNL     1      13.784  41.110  28.466  1.00  0.00     0.036 C 
HETATM    6  C7  UNL     1      12.936  40.176  29.339  1.00  0.00     0.016 C 
HETATM    7  C8  UNL     1      12.249  39.234  28.376  1.00  0.00     0.015 C 
HETATM    8  C9  UNL     1      13.774  39.466  30.362  1.00  0.00    -0.048 C 
HETATM    9  C10 UNL     1      14.011  40.093  31.664  1.00  0.00    -0.015 C 
HETATM   10  C11 UNL     1      14.009  41.548  31.869  1.00  0.00     0.083 C 
HETATM   11  C12 UNL     1      15.334  42.216  31.768  1.00  0.00     0.029 C 
HETATM   12  N1  UNL     1      15.668  42.983  32.748  1.00  0.00    -0.276 N 
ATOM     13  H1  UNL     1      16.570  43.458  32.713  1.00  0.00     0.193 HD
HETATM   14  C13 UNL     1      16.388  42.149  30.682  1.00  0.00     0.141 C 
ENDROOT
BRANCH  14  15
HETATM   15  C14 UNL     1      17.730  42.071  31.210  1.00  0.00     0.149 C 
HETATM   16  N2  UNL     1      18.706  42.663  30.595  1.00  0.00    -0.250 N 
ATOM     17  H2  UNL     1      19.652  42.605  30.972  1.00  0.00     0.196 HD
BRANCH  15  18
HETATM   18  O4  UNL     1      18.107  41.396  32.364  1.00  0.00    -0.347 OA
ATOM     19  H4  UNL     1      17.636  41.405  33.188  1.00  0.00     0.219 HD
ENDBRANCH  15  18
BRANCH  16  20
HETATM   20  O5  UNL     1      18.479  43.359  29.457  1.00  0.00    -0.288 OA
ATOM     21  H5  UNL     1      18.072  42.937  28.709  1.00  0.00     0.244 HD
ENDBRANCH  16  20
ENDBRANCH  14  15
BRANCH   2  22
HETATM   22  O2  UNL     1      17.297  39.082  30.223  1.00  0.00    -0.388 OA
ATOM     23  H2  UNL     1      18.079  39.073  29.682  1.00  0.00     0.210 HD
ENDBRANCH   2  22
BRANCH  12  24
HETATM   24  O3  UNL     1      14.874  43.185  33.821  1.00  0.00    -0.290 OA
ATOM     25  H3  UNL     1      15.114  43.761  34.537  1.00  0.00     0.244 HD
ENDBRANCH  12  24
BRANCH   1  26
HETATM   26  O1  UNL     1      15.295  37.721  30.638  1.00  0.00    -0.383 OA
HETATM   27  C1  UNL     1      14.498  36.600  30.474  1.00  0.00     0.202 C 
ENDBRANCH   1  26
TORSDOF 6
ENDMDL
