MODEL 1
REMARK VINA RESULT: -5.704942105      0.000      0.000
REMARK  3 active torsions:
REMARK  status: ('A' for Active; 'I' for Inactive)
REMARK       I    between atoms: N2_3  and  C2_5 
REMARK       I    between atoms: C2_5  and  N4_9 
REMARK    1  A    between atoms: N4_9  and  O1_10 
REMARK    2  A    between atoms: N4_9  and  C3_12 
REMARK    3  A    between atoms: C5_14  and  C6_15 
ROOT
HETATM    1  N1  UNL     1      15.941  33.617  30.678  1.00  0.00    -0.171 NA
HETATM    2  C1  UNL     1      15.953  34.287  29.747  1.00  0.00     0.196 C 
HETATM    3  N2  UNL     1      15.957  35.113  28.619  1.00  0.00    -0.124 N 
ATOM      4  H2  UNL     1      15.267  34.937  27.890  1.00  0.00     0.197 HD
HETATM    5  C2  UNL     1      16.868  36.184  28.433  1.00  0.00     0.708 C 
HETATM    6  N3  UNL     1      17.719  36.109  27.474  1.00  0.00    -0.232 N 
ATOM      7  H31 UNL     1      18.375  36.880  27.340  1.00  0.00     0.174 HD
ATOM      8  H32 UNL     1      17.743  35.299  26.855  1.00  0.00     0.174 HD
HETATM    9  N4  UNL     1      16.835  37.331  29.309  1.00  0.00    -0.071 N 
ENDROOT
BRANCH   9  10
HETATM   10  O1  UNL     1      17.536  37.316  30.453  1.00  0.00    -0.273 OA
ATOM     11  H1  UNL     1      17.080  37.307  31.286  1.00  0.00     0.245 HD
ENDBRANCH   9  10
BRANCH   9  12
HETATM   12  C3  UNL     1      16.030  38.453  28.893  1.00  0.00     0.228 C 
HETATM   13  C4  UNL     1      16.373  39.655  29.686  1.00  0.00     0.045 C 
HETATM   14  C5  UNL     1      15.570  40.541  30.211  1.00  0.00     0.059 C 
HETATM   15  O2  UNL     1      14.190  40.537  30.132  1.00  0.00    -0.292 OA
HETATM   16  C12 UNL     1      13.464  39.580  29.475  1.00  0.00     0.183 C 
HETATM   17  N5  UNL     1      12.249  39.760  29.175  1.00  0.00    -0.374 N 
HETATM   18  S1  UNL     1      14.273  38.053  29.047  1.00  0.00    -0.054 SA
ATOM     19  H52 UNL     1      11.785  40.635  29.421  1.00  0.00     0.158 HD
ATOM     20  H51 UNL     1      11.708  39.047  28.685  1.00  0.00     0.158 HD
BRANCH  14  21
HETATM   21  C6  UNL     1      16.124  41.719  31.001  1.00  0.00     0.043 C 
HETATM   22  C7  UNL     1      14.983  42.539  31.500  1.00  0.00     0.011 C 
HETATM   23  C8  UNL     1      14.526  42.245  32.872  1.00  0.00     0.001 C 
HETATM   24  C9  UNL     1      15.629  41.951  33.852  1.00  0.00     0.000 C 
HETATM   25  C10 UNL     1      16.395  40.757  33.312  1.00  0.00     0.001 C 
HETATM   26  C11 UNL     1      17.024  41.163  32.030  1.00  0.00     0.011 C 
ENDBRANCH  14  21
ENDBRANCH   9  12
TORSDOF 3
ENDMDL
MODEL 2
REMARK VINA RESULT: -5.556558704      1.836      2.524
REMARK  3 active torsions:
REMARK  status: ('A' for Active; 'I' for Inactive)
REMARK       I    between atoms: N2_3  and  C2_5 
REMARK       I    between atoms: C2_5  and  N4_9 
REMARK    1  A    between atoms: N4_9  and  O1_10 
REMARK    2  A    between atoms: N4_9  and  C3_12 
REMARK    3  A    between atoms: C5_14  and  C6_15 
ROOT
HETATM    1  N1  UNL     1      18.514  35.100  28.175  1.00  0.00    -0.171 NA
HETATM    2  C1  UNL     1      17.869  35.725  28.888  1.00  0.00     0.196 C 
HETATM    3  N2  UNL     1      17.086  36.500  29.749  1.00  0.00    -0.124 N 
ATOM      4  H2  UNL     1      17.538  36.928  30.557  1.00  0.00     0.197 HD
HETATM    5  C2  UNL     1      15.699  36.725  29.561  1.00  0.00     0.708 C 
HETATM    6  N3  UNL     1      14.875  36.253  30.426  1.00  0.00    -0.232 N 
ATOM      7  H31 UNL     1      13.877  36.415  30.291  1.00  0.00     0.174 HD
ATOM      8  H32 UNL     1      15.208  35.727  31.235  1.00  0.00     0.174 HD
HETATM    9  N4  UNL     1      15.229  37.470  28.417  1.00  0.00    -0.071 N 
ENDROOT
BRANCH   9  10
HETATM   10  O1  UNL     1      14.986  36.832  27.261  1.00  0.00    -0.273 OA
ATOM     11  H1  UNL     1      14.492  36.021  27.265  1.00  0.00     0.245 HD
ENDBRANCH   9  10
BRANCH   9  12
HETATM   12  C3  UNL     1      15.043  38.890  28.587  1.00  0.00     0.228 C 
HETATM   13  C4  UNL     1      14.864  39.219  30.019  1.00  0.00     0.045 C 
HETATM   14  C5  UNL     1      14.011  40.044  30.564  1.00  0.00     0.059 C 
HETATM   15  O2  UNL     1      13.069  40.802  29.894  1.00  0.00    -0.292 OA
HETATM   16  C12 UNL     1      12.902  40.789  28.535  1.00  0.00     0.183 C 
HETATM   17  N5  UNL     1      12.249  41.694  27.940  1.00  0.00    -0.374 N 
HETATM   18  S1  UNL     1      13.631  39.456  27.608  1.00  0.00    -0.054 SA
ATOM     19  H52 UNL     1      11.832  42.458  28.471  1.00  0.00     0.158 HD
ATOM     20  H51 UNL     1      12.125  41.684  26.928  1.00  0.00     0.158 HD
BRANCH  14  21
HETATM   21  C6  UNL     1      13.984  40.247  32.073  1.00  0.00     0.043 C 
HETATM   22  C7  UNL     1      15.040  39.394  32.690  1.00  0.00     0.011 C 
HETATM   23  C8  UNL     1      16.336  40.052  32.945  1.00  0.00     0.001 C 
HETATM   24  C9  UNL     1      16.236  41.469  33.440  1.00  0.00     0.000 C 
HETATM   25  C10 UNL     1      15.474  42.253  32.386  1.00  0.00     0.001 C 
HETATM   26  C11 UNL     1      14.099  41.699  32.314  1.00  0.00     0.011 C 
ENDBRANCH  14  21
ENDBRANCH   9  12
TORSDOF 3
ENDMDL
MODEL 3
REMARK VINA RESULT: -5.525951263      2.636      3.636
REMARK  3 active torsions:
REMARK  status: ('A' for Active; 'I' for Inactive)
REMARK       I    between atoms: N2_3  and  C2_5 
REMARK       I    between atoms: C2_5  and  N4_9 
REMARK    1  A    between atoms: N4_9  and  O1_10 
REMARK    2  A    between atoms: N4_9  and  C3_12 
REMARK    3  A    between atoms: C5_14  and  C6_15 
ROOT
HETATM    1  N1  UNL     1      18.624  35.108  27.154  1.00  0.00    -0.171 NA
HETATM    2  C1  UNL     1      18.261  35.532  28.156  1.00  0.00     0.196 C 
HETATM    3  N2  UNL     1      17.832  36.057  29.379  1.00  0.00    -0.124 N 
ATOM      4  H2  UNL     1      18.061  35.544  30.230  1.00  0.00     0.197 HD
HETATM    5  C2  UNL     1      17.095  37.263  29.501  1.00  0.00     0.708 C 
HETATM    6  N3  UNL     1      15.889  37.206  29.940  1.00  0.00    -0.232 N 
ATOM      7  H31 UNL     1      15.359  38.073  30.028  1.00  0.00     0.174 HD
ATOM      8  H32 UNL     1      15.465  36.314  30.196  1.00  0.00     0.174 HD
HETATM    9  N4  UNL     1      17.695  38.524  29.138  1.00  0.00    -0.071 N 
ENDROOT
BRANCH   9  10
HETATM   10  O1  UNL     1      17.628  38.953  27.868  1.00  0.00    -0.273 OA
ATOM     11  H1  UNL     1      17.056  39.678  27.645  1.00  0.00     0.245 HD
ENDBRANCH   9  10
BRANCH   9  12
HETATM   12  C3  UNL     1      18.348  39.269  30.187  1.00  0.00     0.228 C 
HETATM   13  C4  UNL     1      17.390  39.579  31.272  1.00  0.00     0.045 C 
HETATM   14  C5  UNL     1      17.238  40.697  31.929  1.00  0.00     0.059 C 
HETATM   15  O2  UNL     1      17.963  41.859  31.738  1.00  0.00    -0.292 OA
HETATM   16  C12 UNL     1      18.963  41.993  30.813  1.00  0.00     0.183 C 
HETATM   17  N5  UNL     1      19.788  42.950  30.864  1.00  0.00    -0.374 N 
HETATM   18  S1  UNL     1      19.081  40.780  29.516  1.00  0.00    -0.054 SA
ATOM     19  H52 UNL     1      19.720  43.646  31.607  1.00  0.00     0.158 HD
ATOM     20  H51 UNL     1      20.533  43.050  30.174  1.00  0.00     0.158 HD
BRANCH  14  21
HETATM   21  C6  UNL     1      16.186  40.818  33.023  1.00  0.00     0.043 C 
HETATM   22  C7  UNL     1      15.720  42.233  33.085  1.00  0.00     0.011 C 
HETATM   23  C8  UNL     1      14.500  42.547  32.318  1.00  0.00     0.001 C 
HETATM   24  C9  UNL     1      13.438  41.483  32.362  1.00  0.00     0.000 C 
HETATM   25  C10 UNL     1      14.061  40.212  31.814  1.00  0.00     0.001 C 
HETATM   26  C11 UNL     1      15.150  39.806  32.737  1.00  0.00     0.011 C 
ENDBRANCH  14  21
ENDBRANCH   9  12
TORSDOF 3
ENDMDL
MODEL 4
REMARK VINA RESULT: -5.453471359      2.608      3.476
REMARK  3 active torsions:
REMARK  status: ('A' for Active; 'I' for Inactive)
REMARK       I    between atoms: N2_3  and  C2_5 
REMARK       I    between atoms: C2_5  and  N4_9 
REMARK    1  A    between atoms: N4_9  and  O1_10 
REMARK    2  A    between atoms: N4_9  and  C3_12 
REMARK    3  A    between atoms: C5_14  and  C6_15 
ROOT
HETATM    1  N1  UNL     1      16.385  34.594  29.470  1.00  0.00    -0.171 NA
HETATM    2  C1  UNL     1      16.210  35.700  29.717  1.00  0.00     0.196 C 
HETATM    3  N2  UNL     1      16.009  37.048  30.027  1.00  0.00    -0.124 N 
ATOM      4  H2  UNL     1      15.384  37.277  30.800  1.00  0.00     0.197 HD
HETATM    5  C2  UNL     1      16.626  38.116  29.326  1.00  0.00     0.708 C 
HETATM    6  N3  UNL     1      15.885  38.920  28.652  1.00  0.00    -0.232 N 
ATOM      7  H31 UNL     1      16.329  39.689  28.148  1.00  0.00     0.174 HD
ATOM      8  H32 UNL     1      14.873  38.798  28.618  1.00  0.00     0.174 HD
HETATM    9  N4  UNL     1      18.058  38.289  29.375  1.00  0.00    -0.071 N 
ENDROOT
BRANCH   9  10
HETATM   10  O1  UNL     1      18.837  37.644  28.492  1.00  0.00    -0.273 OA
ATOM     11  H1  UNL     1      19.779  37.758  28.524  1.00  0.00     0.245 HD
ENDBRANCH   9  10
BRANCH   9  12
HETATM   12  C3  UNL     1      18.582  39.166  30.393  1.00  0.00     0.228 C 
HETATM   13  C4  UNL     1      17.538  39.473  31.396  1.00  0.00     0.045 C 
HETATM   14  C5  UNL     1      17.254  40.620  31.951  1.00  0.00     0.059 C 
HETATM   15  O2  UNL     1      17.891  41.822  31.707  1.00  0.00    -0.292 OA
HETATM   16  C12 UNL     1      18.930  41.973  30.829  1.00  0.00     0.183 C 
HETATM   17  N5  UNL     1      19.669  42.999  30.847  1.00  0.00    -0.374 N 
HETATM   18  S1  UNL     1      19.227  40.679  29.643  1.00  0.00    -0.054 SA
ATOM     19  H52 UNL     1      19.499  43.741  31.527  1.00  0.00     0.158 HD
ATOM     20  H51 UNL     1      20.444  43.112  30.193  1.00  0.00     0.158 HD
BRANCH  14  21
HETATM   21  C6  UNL     1      16.130  40.731  32.973  1.00  0.00     0.043 C 
HETATM   22  C7  UNL     1      15.654  42.144  33.009  1.00  0.00     0.011 C 
HETATM   23  C8  UNL     1      14.486  42.455  32.163  1.00  0.00     0.001 C 
HETATM   24  C9  UNL     1      13.429  41.385  32.133  1.00  0.00     0.000 C 
HETATM   25  C10 UNL     1      14.094  40.119  31.624  1.00  0.00     0.001 C 
HETATM   26  C11 UNL     1      15.121  39.715  32.616  1.00  0.00     0.011 C 
ENDBRANCH  14  21
ENDBRANCH   9  12
TORSDOF 3
ENDMDL
MODEL 5
REMARK VINA RESULT: -5.378921357      1.833      2.361
REMARK  3 active torsions:
REMARK  status: ('A' for Active; 'I' for Inactive)
REMARK       I    between atoms: N2_3  and  C2_5 
REMARK       I    between atoms: C2_5  and  N4_9 
REMARK    1  A    between atoms: N4_9  and  O1_10 
REMARK    2  A    between atoms: N4_9  and  C3_12 
REMARK    3  A    between atoms: C5_14  and  C6_15 
ROOT
HETATM    1  N1  UNL     1      17.615  35.304  28.680  1.00  0.00    -0.171 NA
HETATM    2  C1  UNL     1      17.184  36.147  29.327  1.00  0.00     0.196 C 
HETATM    3  N2  UNL     1      16.660  37.184  30.105  1.00  0.00    -0.124 N 
ATOM      4  H2  UNL     1      17.301  37.717  30.692  1.00  0.00     0.197 HD
HETATM    5  C2  UNL     1      15.286  37.536  30.122  1.00  0.00     0.708 C 
HETATM    6  N3  UNL     1      14.621  37.373  31.209  1.00  0.00    -0.232 N 
ATOM      7  H31 UNL     1      13.633  37.627  31.222  1.00  0.00     0.174 HD
ATOM      8  H32 UNL     1      15.068  36.998  32.046  1.00  0.00     0.174 HD
HETATM    9  N4  UNL     1      14.654  38.067  28.938  1.00  0.00    -0.071 N 
ENDROOT
BRANCH   9  10
HETATM   10  O1  UNL     1      14.129  37.228  28.031  1.00  0.00    -0.273 OA
ATOM     11  H1  UNL     1      13.199  37.263  27.840  1.00  0.00     0.245 HD
ENDBRANCH   9  10
BRANCH   9  12
HETATM   12  C3  UNL     1      14.623  39.501  28.794  1.00  0.00     0.228 C 
HETATM   13  C4  UNL     1      15.593  40.133  29.716  1.00  0.00     0.045 C 
HETATM   14  C5  UNL     1      15.438  41.195  30.459  1.00  0.00     0.059 C 
HETATM   15  O2  UNL     1      14.297  41.973  30.539  1.00  0.00    -0.292 OA
HETATM   16  C12 UNL     1      13.151  41.725  29.833  1.00  0.00     0.183 C 
HETATM   17  N5  UNL     1      12.249  42.603  29.705  1.00  0.00    -0.374 N 
HETATM   18  S1  UNL     1      12.950  40.122  29.086  1.00  0.00    -0.054 SA
ATOM     19  H52 UNL     1      12.364  43.522  30.133  1.00  0.00     0.158 HD
ATOM     20  H51 UNL     1      11.395  42.419  29.179  1.00  0.00     0.158 HD
BRANCH  14  21
HETATM   21  C6  UNL     1      16.568  41.692  31.350  1.00  0.00     0.043 C 
HETATM   22  C7  UNL     1      15.989  42.549  32.425  1.00  0.00     0.011 C 
HETATM   23  C8  UNL     1      15.704  41.874  33.706  1.00  0.00     0.001 C 
HETATM   24  C9  UNL     1      16.735  40.863  34.127  1.00  0.00     0.000 C 
HETATM   25  C10 UNL     1      16.815  39.826  33.021  1.00  0.00     0.001 C 
HETATM   26  C11 UNL     1      17.317  40.503  31.800  1.00  0.00     0.011 C 
ENDBRANCH  14  21
ENDBRANCH   9  12
TORSDOF 3
ENDMDL
