MODEL 1
REMARK VINA RESULT: -5.506788128      0.000      0.000
REMARK  3 active torsions:
REMARK  status: ('A' for Active; 'I' for Inactive)
REMARK    1  A    between atoms: C5_6  and  N1_7 
REMARK    2  A    between atoms: C6_12  and  O1_13 
REMARK    3  A    between atoms: N4_19  and  C9_20 
ROOT
HETATM    1  C1  UNL     1      19.065  41.709  29.086  1.00  0.00     0.021 C 
HETATM    2  C2  UNL     1      18.795  40.967  30.112  1.00  0.00    -0.032 C 
HETATM    3  C3  UNL     1      17.631  40.070  30.083  1.00  0.00     0.041 A 
HETATM    4  S1  UNL     1      16.795  39.307  28.823  1.00  0.00    -0.081 SA
HETATM    5  C4  UNL     1      15.605  38.483  29.741  1.00  0.00     0.078 A 
HETATM    6  C5  UNL     1      14.541  37.632  29.405  1.00  0.00     0.121 A 
HETATM    7  N2  UNL     1      13.745  37.111  30.353  1.00  0.00    -0.307 N 
ATOM      8  H2  UNL     1      12.964  36.491  30.139  1.00  0.00     0.171 HD
HETATM    9  C6  UNL     1      14.062  37.475  31.605  1.00  0.00     0.223 A 
HETATM   10  N3  UNL     1      15.049  38.267  31.941  1.00  0.00    -0.319 N 
ATOM     11  H3  UNL     1      15.192  38.473  32.930  1.00  0.00     0.169 HD
HETATM   12  C7  UNL     1      15.908  38.839  31.022  1.00  0.00     0.084 A 
HETATM   13  C8  UNL     1      16.969  39.672  31.213  1.00  0.00     0.076 A 
HETATM   14  N4  UNL     1      17.536  40.228  32.431  1.00  0.00    -0.377 N 
HETATM   15  C11 UNL     1      18.695  41.041  32.475  1.00  0.00     0.144 C 
HETATM   16  C12 UNL     1      19.653  41.007  31.357  1.00  0.00     0.110 C 
HETATM   17  S2  UNL     1      20.763  42.399  31.258  1.00  0.00    -0.086 SA
ENDROOT
BRANCH   6  18
HETATM   18  N1  UNL     1      14.373  37.384  28.158  1.00  0.00    -0.384 N 
ATOM     19  H12 UNL     1      14.764  37.978  27.428  1.00  0.00     0.157 HD
ATOM     20  H11 UNL     1      13.826  36.555  27.925  1.00  0.00     0.157 HD
ENDBRANCH   6  18
BRANCH   9  21
HETATM   21  O1  UNL     1      13.235  36.937  32.620  1.00  0.00    -0.332 OA
ATOM     22  H1  UNL     1      12.982  37.546  33.303  1.00  0.00     0.220 HD
ENDBRANCH   9  21
BRANCH  14  23
HETATM   23  C9  UNL     1      16.913  39.984  33.714  1.00  0.00     0.118 C 
HETATM   24  C10 UNL     1      17.832  40.493  34.829  1.00  0.00     0.026 C 
ENDBRANCH  14  23
TORSDOF 3
ENDMDL
MODEL 2
REMARK VINA RESULT: -5.454368525      2.530      2.627
REMARK  3 active torsions:
REMARK  status: ('A' for Active; 'I' for Inactive)
REMARK    1  A    between atoms: C5_6  and  N1_7 
REMARK    2  A    between atoms: C6_12  and  O1_13 
REMARK    3  A    between atoms: N4_19  and  C9_20 
ROOT
HETATM    1  C1  UNL     1      17.302  41.145  27.237  1.00  0.00     0.021 C 
HETATM    2  C2  UNL     1      16.906  41.107  28.470  1.00  0.00    -0.032 C 
HETATM    3  C3  UNL     1      16.365  39.861  29.029  1.00  0.00     0.041 A 
HETATM    4  S1  UNL     1      16.604  38.227  28.650  1.00  0.00    -0.081 SA
HETATM    5  C4  UNL     1      15.568  37.519  29.817  1.00  0.00     0.078 A 
HETATM    6  C5  UNL     1      15.230  36.194  30.134  1.00  0.00     0.121 A 
HETATM    7  N2  UNL     1      14.368  35.917  31.126  1.00  0.00    -0.307 N 
ATOM      8  H2  UNL     1      14.104  34.965  31.379  1.00  0.00     0.171 HD
HETATM    9  C6  UNL     1      13.885  36.998  31.758  1.00  0.00     0.223 A 
HETATM   10  N3  UNL     1      14.186  38.242  31.479  1.00  0.00    -0.319 N 
ATOM     11  H3  UNL     1      13.752  38.982  32.030  1.00  0.00     0.169 HD
HETATM   12  C7  UNL     1      15.063  38.601  30.474  1.00  0.00     0.084 A 
HETATM   13  C8  UNL     1      15.474  39.836  30.068  1.00  0.00     0.076 A 
HETATM   14  N4  UNL     1      15.126  41.162  30.552  1.00  0.00    -0.377 N 
HETATM   15  C11 UNL     1      15.690  42.365  30.063  1.00  0.00     0.144 C 
HETATM   16  C12 UNL     1      16.982  42.330  29.355  1.00  0.00     0.110 C 
HETATM   17  S2  UNL     1      17.343  43.759  28.351  1.00  0.00    -0.086 SA
ENDROOT
BRANCH   6  18
HETATM   18  N1  UNL     1      15.782  35.274  29.431  1.00  0.00    -0.384 N 
ATOM     19  H12 UNL     1      16.321  35.481  28.591  1.00  0.00     0.157 HD
ATOM     20  H11 UNL     1      15.658  34.314  29.753  1.00  0.00     0.157 HD
ENDBRANCH   6  18
BRANCH   9  21
HETATM   21  O1  UNL     1      12.975  36.729  32.808  1.00  0.00    -0.332 OA
ATOM     22  H1  UNL     1      12.967  37.367  33.511  1.00  0.00     0.220 HD
ENDBRANCH   9  21
BRANCH  14  23
HETATM   23  C9  UNL     1      14.132  41.332  31.589  1.00  0.00     0.118 C 
HETATM   24  C10 UNL     1      14.682  42.270  32.669  1.00  0.00     0.026 C 
ENDBRANCH  14  23
TORSDOF 3
ENDMDL
MODEL 3
REMARK VINA RESULT: -5.291529901      3.633      5.136
REMARK  3 active torsions:
REMARK  status: ('A' for Active; 'I' for Inactive)
REMARK    1  A    between atoms: C5_6  and  N1_7 
REMARK    2  A    between atoms: C6_12  and  O1_13 
REMARK    3  A    between atoms: N4_19  and  C9_20 
ROOT
HETATM    1  C1  UNL     1      15.254  36.212  29.201  1.00  0.00     0.021 C 
HETATM    2  C2  UNL     1      16.209  37.029  29.514  1.00  0.00    -0.032 C 
HETATM    3  C3  UNL     1      15.891  38.353  30.065  1.00  0.00     0.041 A 
HETATM    4  S1  UNL     1      14.570  38.950  30.942  1.00  0.00    -0.081 SA
HETATM    5  C4  UNL     1      15.080  40.574  31.137  1.00  0.00     0.078 A 
HETATM    6  C5  UNL     1      14.516  41.697  31.763  1.00  0.00     0.121 A 
HETATM    7  N2  UNL     1      15.152  42.880  31.766  1.00  0.00    -0.307 N 
ATOM      8  H2  UNL     1      14.766  43.713  32.212  1.00  0.00     0.171 HD
HETATM    9  C6  UNL     1      16.336  42.876  31.134  1.00  0.00     0.223 A 
HETATM   10  N3  UNL     1      16.880  41.841  30.544  1.00  0.00    -0.319 N 
ATOM     11  H3  UNL     1      17.787  41.960  30.094  1.00  0.00     0.169 HD
HETATM   12  C7  UNL     1      16.285  40.595  30.501  1.00  0.00     0.084 A 
HETATM   13  C8  UNL     1      16.721  39.434  29.934  1.00  0.00     0.076 A 
HETATM   14  N4  UNL     1      17.937  39.132  29.196  1.00  0.00    -0.377 N 
HETATM   15  C11 UNL     1      18.282  37.846  28.716  1.00  0.00     0.144 C 
HETATM   16  C12 UNL     1      17.660  36.652  29.314  1.00  0.00     0.110 C 
HETATM   17  S2  UNL     1      17.750  35.168  28.331  1.00  0.00    -0.086 SA
ENDROOT
BRANCH   6  18
HETATM   18  N1  UNL     1      13.374  41.533  32.322  1.00  0.00    -0.384 N 
ATOM     19  H12 UNL     1      13.108  40.655  32.768  1.00  0.00     0.157 HD
ATOM     20  H11 UNL     1      12.736  42.328  32.304  1.00  0.00     0.157 HD
ENDBRANCH   6  18
BRANCH   9  21
HETATM   21  O1  UNL     1      17.023  44.113  31.126  1.00  0.00    -0.332 OA
ATOM     22  H1  UNL     1      16.726  44.737  30.475  1.00  0.00     0.220 HD
ENDBRANCH   9  21
BRANCH  14  23
HETATM   23  C9  UNL     1      18.890  40.175  28.886  1.00  0.00     0.118 C 
HETATM   24  C10 UNL     1      20.092  40.060  29.830  1.00  0.00     0.026 C 
ENDBRANCH  14  23
TORSDOF 3
ENDMDL
MODEL 4
REMARK VINA RESULT: -5.170403841      2.997      3.835
REMARK  3 active torsions:
REMARK  status: ('A' for Active; 'I' for Inactive)
REMARK    1  A    between atoms: C5_6  and  N1_7 
REMARK    2  A    between atoms: C6_12  and  O1_13 
REMARK    3  A    between atoms: N4_19  and  C9_20 
ROOT
HETATM    1  C1  UNL     1      15.973  42.554  30.926  1.00  0.00     0.021 C 
HETATM    2  C2  UNL     1      15.995  41.659  29.990  1.00  0.00    -0.032 C 
HETATM    3  C3  UNL     1      15.595  40.277  30.286  1.00  0.00     0.041 A 
HETATM    4  S1  UNL     1      14.560  39.599  31.444  1.00  0.00    -0.081 SA
HETATM    5  C4  UNL     1      14.724  37.945  31.025  1.00  0.00     0.078 A 
HETATM    6  C5  UNL     1      14.170  36.759  31.532  1.00  0.00     0.121 A 
HETATM    7  N2  UNL     1      14.480  35.567  30.997  1.00  0.00    -0.307 N 
ATOM      8  H2  UNL     1      14.094  34.688  31.344  1.00  0.00     0.171 HD
HETATM    9  C6  UNL     1      15.340  35.626  29.968  1.00  0.00     0.223 A 
HETATM   10  N3  UNL     1      15.868  36.721  29.480  1.00  0.00    -0.319 N 
ATOM     11  H3  UNL     1      16.512  36.640  28.693  1.00  0.00     0.169 HD
HETATM   12  C7  UNL     1      15.596  37.980  29.978  1.00  0.00     0.084 A 
HETATM   13  C8  UNL     1      16.060  39.199  29.581  1.00  0.00     0.076 A 
HETATM   14  N4  UNL     1      16.984  39.568  28.521  1.00  0.00    -0.377 N 
HETATM   15  C11 UNL     1      17.326  40.901  28.187  1.00  0.00     0.144 C 
HETATM   16  C12 UNL     1      16.437  42.005  28.585  1.00  0.00     0.110 C 
HETATM   17  S2  UNL     1      17.182  43.625  28.587  1.00  0.00    -0.086 SA
ENDROOT
BRANCH   6  18
HETATM   18  N1  UNL     1      13.364  36.876  32.522  1.00  0.00    -0.384 N 
ATOM     19  H12 UNL     1      12.766  36.110  32.830  1.00  0.00     0.157 HD
ATOM     20  H11 UNL     1      13.347  37.779  32.995  1.00  0.00     0.157 HD
ENDBRANCH   6  18
BRANCH   9  21
HETATM   21  O1  UNL     1      15.679  34.380  29.389  1.00  0.00    -0.332 OA
ATOM     22  H1  UNL     1      16.066  34.427  28.523  1.00  0.00     0.220 HD
ENDBRANCH   9  21
BRANCH  14  23
HETATM   23  C9  UNL     1      17.641  38.552  27.729  1.00  0.00     0.118 C 
HETATM   24  C10 UNL     1      19.027  38.266  28.319  1.00  0.00     0.026 C 
ENDBRANCH  14  23
TORSDOF 3
ENDMDL
MODEL 5
REMARK VINA RESULT: -4.945702591      1.500      1.598
REMARK  3 active torsions:
REMARK  status: ('A' for Active; 'I' for Inactive)
REMARK    1  A    between atoms: C5_6  and  N1_7 
REMARK    2  A    between atoms: C6_12  and  O1_13 
REMARK    3  A    between atoms: N4_19  and  C9_20 
ROOT
HETATM    1  C1  UNL     1      19.971  40.237  28.159  1.00  0.00     0.021 C 
HETATM    2  C2  UNL     1      19.360  40.041  29.283  1.00  0.00    -0.032 C 
HETATM    3  C3  UNL     1      18.308  39.020  29.379  1.00  0.00     0.041 A 
HETATM    4  S1  UNL     1      18.009  37.589  28.523  1.00  0.00    -0.081 SA
HETATM    5  C4  UNL     1      16.584  37.080  29.327  1.00  0.00     0.078 A 
HETATM    6  C5  UNL     1      15.736  35.970  29.183  1.00  0.00     0.121 A 
HETATM    7  N2  UNL     1      14.659  35.815  29.971  1.00  0.00    -0.307 N 
ATOM      8  H2  UNL     1      14.025  35.020  29.890  1.00  0.00     0.171 HD
HETATM    9  C6  UNL     1      14.487  36.793  30.874  1.00  0.00     0.223 A 
HETATM   10  N3  UNL     1      15.265  37.836  31.025  1.00  0.00    -0.319 N 
ATOM     11  H3  UNL     1      15.031  38.516  31.748  1.00  0.00     0.169 HD
HETATM   12  C7  UNL     1      16.388  38.060  30.252  1.00  0.00     0.084 A 
HETATM   13  C8  UNL     1      17.287  39.084  30.289  1.00  0.00     0.076 A 
HETATM   14  N4  UNL     1      17.356  40.262  31.139  1.00  0.00    -0.377 N 
HETATM   15  C11 UNL     1      18.400  41.218  31.098  1.00  0.00     0.144 C 
HETATM   16  C12 UNL     1      19.701  40.853  30.513  1.00  0.00     0.110 C 
HETATM   17  S2  UNL     1      20.739  42.223  30.041  1.00  0.00    -0.086 SA
ENDROOT
BRANCH   6  18
HETATM   18  N1  UNL     1      16.041  35.125  28.269  1.00  0.00    -0.384 N 
ATOM     19  H12 UNL     1      15.424  34.356  28.011  1.00  0.00     0.157 HD
ATOM     20  H11 UNL     1      16.939  35.257  27.804  1.00  0.00     0.157 HD
ENDBRANCH   6  18
BRANCH   9  21
HETATM   21  O1  UNL     1      13.358  36.649  31.715  1.00  0.00    -0.332 OA
ATOM     22  H1  UNL     1      13.518  36.194  32.534  1.00  0.00     0.220 HD
ENDBRANCH   9  21
BRANCH  14  23
HETATM   23  C9  UNL     1      16.312  40.540  32.101  1.00  0.00     0.118 C 
HETATM   24  C10 UNL     1      16.753  40.051  33.485  1.00  0.00     0.026 C 
ENDBRANCH  14  23
TORSDOF 3
ENDMDL
