MODEL 1
REMARK VINA RESULT: -6.754979736      0.000      0.000
REMARK  4 active torsions:
REMARK  status: ('A' for Active; 'I' for Inactive)
REMARK    1  A    between atoms: C2_2  and  C3_4 
REMARK    2  A    between atoms: C5_6  and  C6_7 
REMARK       I    between atoms: N3_15  and  C9_16 
REMARK    3  A    between atoms: C9_16  and  O3_18 
REMARK    4  A    between atoms: O3_18  and  C10_19 
ROOT
HETATM    1  C3  UNL     1      12.012  42.983  58.131  1.00  0.00     0.008 C 
HETATM    2  C4  UNL     1      12.547  43.881  57.351  1.00  0.00     0.017 C 
HETATM    3  C5  UNL     1      12.039  43.748  55.986  1.00  0.00     0.157 C 
HETATM    4  N3  UNL     1      11.395  42.464  55.951  1.00  0.00    -0.307 N 
HETATM    5  C9  UNL     1      11.110  41.646  54.847  1.00  0.00     0.364 C 
HETATM    6  O2  UNL     1      10.532  40.533  54.983  1.00  0.00    -0.238 OA
HETATM    7  C13 UNL     1      11.076  42.149  57.327  1.00  0.00     0.123 C 
HETATM    8  C14 UNL     1       9.679  42.556  57.708  1.00  0.00     0.038 C 
ENDROOT
BRANCH   3   9
HETATM    9  C6  UNL     1      13.080  43.903  54.932  1.00  0.00     0.051 A 
HETATM   10  S1  UNL     1      14.497  42.968  54.658  1.00  0.00     0.001 SA
HETATM   11  N1  UNL     1      15.088  43.789  53.314  1.00  0.00    -0.269 N 
HETATM   12  N2  UNL     1      14.205  44.720  53.129  1.00  0.00    -0.298 N 
ATOM     13  H1  UNL     1      15.934  43.600  52.776  1.00  0.00     0.195 HD
HETATM   14  C7  UNL     1      13.182  44.819  53.914  1.00  0.00     0.039 A 
ATOM     15  H2  UNL     1      14.319  45.380  52.360  1.00  0.00     0.187 HD
HETATM   16  C8  UNL     1      12.121  45.889  53.745  1.00  0.00     0.071 C 
ENDBRANCH   3   9
BRANCH   1  17
HETATM   17  C2  UNL     1      12.266  42.795  59.555  1.00  0.00     0.153 C 
HETATM   18  C1  UNL     1      12.168  41.464  60.208  1.00  0.00     0.096 C 
HETATM   19  O1  UNL     1      12.583  43.760  60.298  1.00  0.00    -0.293 OA
ENDBRANCH   1  17
BRANCH   5  20
HETATM   20  O3  UNL     1      11.478  42.082  53.579  1.00  0.00    -0.299 OA
BRANCH  20  21
HETATM   21  C10 UNL     1      10.480  42.305  52.602  1.00  0.00     0.125 C 
HETATM   22  C11 UNL     1      11.178  42.961  51.413  1.00  0.00     0.040 C 
HETATM   23  C12 UNL     1       9.432  43.290  53.122  1.00  0.00     0.040 C 
ENDBRANCH  20  21
ENDBRANCH   5  20
TORSDOF 4
ENDMDL
MODEL 2
REMARK VINA RESULT: -6.734408953      2.761      5.315
REMARK  4 active torsions:
REMARK  status: ('A' for Active; 'I' for Inactive)
REMARK    1  A    between atoms: C2_2  and  C3_4 
REMARK    2  A    between atoms: C5_6  and  C6_7 
REMARK       I    between atoms: N3_15  and  C9_16 
REMARK    3  A    between atoms: C9_16  and  O3_18 
REMARK    4  A    between atoms: O3_18  and  C10_19 
ROOT
HETATM    1  C3  UNL     1      13.270  44.948  55.758  1.00  0.00     0.008 C 
HETATM    2  C4  UNL     1      13.803  44.217  56.698  1.00  0.00     0.017 C 
HETATM    3  C5  UNL     1      13.102  42.940  56.822  1.00  0.00     0.157 C 
HETATM    4  N3  UNL     1      11.879  43.114  56.085  1.00  0.00    -0.307 N 
HETATM    5  C9  UNL     1      10.670  42.411  56.199  1.00  0.00     0.364 C 
HETATM    6  O2  UNL     1       9.677  42.687  55.472  1.00  0.00    -0.238 OA
HETATM    7  C13 UNL     1      12.131  44.198  55.160  1.00  0.00     0.123 C 
HETATM    8  C14 UNL     1      12.578  43.715  53.807  1.00  0.00     0.038 C 
ENDROOT
BRANCH   3   9
HETATM    9  C6  UNL     1      12.875  42.505  58.228  1.00  0.00     0.051 A 
HETATM   10  S1  UNL     1      12.275  43.408  59.562  1.00  0.00     0.001 SA
HETATM   11  N1  UNL     1      12.330  42.201  60.732  1.00  0.00    -0.269 N 
HETATM   12  N2  UNL     1      12.792  41.181  60.078  1.00  0.00    -0.298 N 
ATOM     13  H1  UNL     1      12.065  42.258  61.715  1.00  0.00     0.195 HD
HETATM   14  C7  UNL     1      13.080  41.284  58.821  1.00  0.00     0.039 A 
ATOM     15  H2  UNL     1      12.928  40.291  60.558  1.00  0.00     0.187 HD
HETATM   16  C8  UNL     1      13.624  40.125  58.009  1.00  0.00     0.071 C 
ENDBRANCH   3   9
BRANCH   1  17
HETATM   17  C2  UNL     1      13.688  46.281  55.339  1.00  0.00     0.153 C 
HETATM   18  C1  UNL     1      13.352  46.833  54.001  1.00  0.00     0.096 C 
HETATM   19  O1  UNL     1      14.358  47.027  56.099  1.00  0.00    -0.293 OA
ENDBRANCH   1  17
BRANCH   5  20
HETATM   20  O3  UNL     1      10.575  41.391  57.138  1.00  0.00    -0.299 OA
BRANCH  20  21
HETATM   21  C10 UNL     1       9.300  40.965  57.579  1.00  0.00     0.125 C 
HETATM   22  C11 UNL     1       8.973  41.793  58.819  1.00  0.00     0.040 C 
HETATM   23  C12 UNL     1       9.342  39.496  58.002  1.00  0.00     0.040 C 
ENDBRANCH  20  21
ENDBRANCH   5  20
TORSDOF 4
ENDMDL
MODEL 3
REMARK VINA RESULT: -6.715842463      2.892      3.898
REMARK  4 active torsions:
REMARK  status: ('A' for Active; 'I' for Inactive)
REMARK    1  A    between atoms: C2_2  and  C3_4 
REMARK    2  A    between atoms: C5_6  and  C6_7 
REMARK       I    between atoms: N3_15  and  C9_16 
REMARK    3  A    between atoms: C9_16  and  O3_18 
REMARK    4  A    between atoms: O3_18  and  C10_19 
ROOT
HETATM    1  C3  UNL     1      10.312  39.838  60.388  1.00  0.00     0.008 C 
HETATM    2  C4  UNL     1      11.236  40.739  60.205  1.00  0.00     0.017 C 
HETATM    3  C5  UNL     1      11.243  41.198  58.816  1.00  0.00     0.157 C 
HETATM    4  N3  UNL     1      10.448  40.236  58.102  1.00  0.00    -0.307 N 
HETATM    5  C9  UNL     1      10.448  39.929  56.734  1.00  0.00     0.364 C 
HETATM    6  O2  UNL     1       9.682  39.049  56.256  1.00  0.00    -0.238 OA
HETATM    7  C13 UNL     1       9.604  39.610  59.098  1.00  0.00     0.123 C 
HETATM    8  C14 UNL     1       8.254  40.264  59.210  1.00  0.00     0.038 C 
ENDROOT
BRANCH   3   9
HETATM    9  C6  UNL     1      12.605  41.367  58.238  1.00  0.00     0.051 A 
HETATM   10  S1  UNL     1      13.891  40.232  58.137  1.00  0.00     0.001 SA
HETATM   11  N1  UNL     1      15.029  41.203  57.367  1.00  0.00    -0.269 N 
HETATM   12  N2  UNL     1      14.400  42.328  57.219  1.00  0.00    -0.298 N 
ATOM     13  H1  UNL     1      15.979  40.965  57.085  1.00  0.00     0.195 HD
HETATM   14  C7  UNL     1      13.184  42.459  57.640  1.00  0.00     0.039 A 
ATOM     15  H2  UNL     1      14.868  43.114  56.769  1.00  0.00     0.187 HD
HETATM   16  C8  UNL     1      12.403  43.751  57.496  1.00  0.00     0.071 C 
ENDBRANCH   3   9
BRANCH   1  17
HETATM   17  C2  UNL     1       9.997  39.145  61.633  1.00  0.00     0.153 C 
HETATM   18  C1  UNL     1       9.624  37.707  61.666  1.00  0.00     0.096 C 
HETATM   19  O1  UNL     1      10.029  39.739  62.741  1.00  0.00    -0.293 OA
ENDBRANCH   1  17
BRANCH   5  20
HETATM   20  O3  UNL     1      11.318  40.615  55.894  1.00  0.00    -0.299 OA
BRANCH  20  21
HETATM   21  C10 UNL     1      10.803  41.315  54.778  1.00  0.00     0.125 C 
HETATM   22  C11 UNL     1      11.998  41.971  54.090  1.00  0.00     0.040 C 
HETATM   23  C12 UNL     1       9.863  42.432  55.233  1.00  0.00     0.040 C 
ENDBRANCH  20  21
ENDBRANCH   5  20
TORSDOF 4
ENDMDL
MODEL 4
REMARK VINA RESULT: -6.699115350      2.591      3.643
REMARK  4 active torsions:
REMARK  status: ('A' for Active; 'I' for Inactive)
REMARK    1  A    between atoms: C2_2  and  C3_4 
REMARK    2  A    between atoms: C5_6  and  C6_7 
REMARK       I    between atoms: N3_15  and  C9_16 
REMARK    3  A    between atoms: C9_16  and  O3_18 
REMARK    4  A    between atoms: O3_18  and  C10_19 
ROOT
HETATM    1  C3  UNL     1      10.337  40.760  59.908  1.00  0.00     0.008 C 
HETATM    2  C4  UNL     1      11.362  41.565  59.968  1.00  0.00     0.017 C 
HETATM    3  C5  UNL     1      11.370  42.479  58.825  1.00  0.00     0.157 C 
HETATM    4  N3  UNL     1      10.428  41.919  57.894  1.00  0.00    -0.307 N 
HETATM    5  C9  UNL     1      10.332  42.113  56.509  1.00  0.00     0.364 C 
HETATM    6  O2  UNL     1       9.439  41.543  55.824  1.00  0.00    -0.238 OA
HETATM    7  C13 UNL     1       9.553  41.077  58.682  1.00  0.00     0.123 C 
HETATM    8  C14 UNL     1       8.304  41.790  59.124  1.00  0.00     0.038 C 
ENDROOT
BRANCH   3   9
HETATM    9  C6  UNL     1      12.717  42.694  58.229  1.00  0.00     0.051 A 
HETATM   10  S1  UNL     1      13.585  44.160  58.004  1.00  0.00     0.001 SA
HETATM   11  N1  UNL     1      14.971  43.530  57.290  1.00  0.00    -0.269 N 
HETATM   12  N2  UNL     1      14.726  42.257  57.251  1.00  0.00    -0.298 N 
ATOM     13  H1  UNL     1      15.801  44.027  56.967  1.00  0.00     0.195 HD
HETATM   14  C7  UNL     1      13.611  41.790  57.709  1.00  0.00     0.039 A 
ATOM     15  H2  UNL     1      15.418  41.620  56.857  1.00  0.00     0.187 HD
HETATM   16  C8  UNL     1      13.272  40.312  57.687  1.00  0.00     0.071 C 
ENDBRANCH   3   9
BRANCH   1  17
HETATM   17  C2  UNL     1       9.988  39.713  60.860  1.00  0.00     0.153 C 
HETATM   18  C1  UNL     1       9.237  38.495  60.459  1.00  0.00     0.096 C 
HETATM   19  O1  UNL     1      10.310  39.795  62.074  1.00  0.00    -0.293 OA
ENDBRANCH   1  17
BRANCH   5  20
HETATM   20  O3  UNL     1      11.248  42.954  55.885  1.00  0.00    -0.299 OA
BRANCH  20  21
HETATM   21  C10 UNL     1      11.384  42.915  54.478  1.00  0.00     0.125 C 
HETATM   22  C11 UNL     1      12.628  42.078  54.187  1.00  0.00     0.040 C 
HETATM   23  C12 UNL     1      11.634  44.319  53.925  1.00  0.00     0.040 C 
ENDBRANCH  20  21
ENDBRANCH   5  20
TORSDOF 4
ENDMDL
MODEL 5
REMARK VINA RESULT: -6.447625508      1.829      2.161
REMARK  4 active torsions:
REMARK  status: ('A' for Active; 'I' for Inactive)
REMARK    1  A    between atoms: C2_2  and  C3_4 
REMARK    2  A    between atoms: C5_6  and  C6_7 
REMARK       I    between atoms: N3_15  and  C9_16 
REMARK    3  A    between atoms: C9_16  and  O3_18 
REMARK    4  A    between atoms: O3_18  and  C10_19 
ROOT
HETATM    1  C3  UNL     1      10.939  41.712  58.800  1.00  0.00     0.008 C 
HETATM    2  C4  UNL     1      11.970  42.501  58.665  1.00  0.00     0.017 C 
HETATM    3  C5  UNL     1      11.798  43.381  57.510  1.00  0.00     0.157 C 
HETATM    4  N3  UNL     1      10.708  42.811  56.765  1.00  0.00    -0.307 N 
HETATM    5  C9  UNL     1      10.385  42.968  55.409  1.00  0.00     0.364 C 
HETATM    6  O2  UNL     1       9.384  42.394  54.900  1.00  0.00    -0.238 OA
HETATM    7  C13 UNL     1       9.966  42.007  57.713  1.00  0.00     0.123 C 
HETATM    8  C14 UNL     1       8.817  42.753  58.334  1.00  0.00     0.038 C 
ENDROOT
BRANCH   3   9
HETATM    9  C6  UNL     1      13.030  43.556  56.691  1.00  0.00     0.051 A 
HETATM   10  S1  UNL     1      14.131  42.368  56.116  1.00  0.00     0.001 SA
HETATM   11  N1  UNL     1      15.199  43.382  55.303  1.00  0.00    -0.269 N 
HETATM   12  N2  UNL     1      14.688  44.558  55.494  1.00  0.00    -0.298 N 
ATOM     13  H1  UNL     1      16.041  43.133  54.785  1.00  0.00     0.195 HD
HETATM   14  C7  UNL     1      13.602  44.697  56.184  1.00  0.00     0.039 A 
ATOM     15  H2  UNL     1      15.145  45.380  55.099  1.00  0.00     0.187 HD
HETATM   16  C8  UNL     1      12.962  46.048  56.441  1.00  0.00     0.071 C 
ENDBRANCH   3   9
BRANCH   1  17
HETATM   17  C2  UNL     1      10.741  40.698  59.830  1.00  0.00     0.153 C 
HETATM   18  C1  UNL     1       9.979  39.448  59.574  1.00  0.00     0.096 C 
HETATM   19  O1  UNL     1      11.212  40.838  60.988  1.00  0.00    -0.293 OA
ENDBRANCH   1  17
BRANCH   5  20
HETATM   20  O3  UNL     1      11.194  43.775  54.617  1.00  0.00    -0.299 OA
BRANCH  20  21
HETATM   21  C10 UNL     1      11.366  43.460  53.249  1.00  0.00     0.125 C 
HETATM   22  C11 UNL     1      12.122  42.134  53.201  1.00  0.00     0.040 C 
HETATM   23  C12 UNL     1      12.239  44.513  52.563  1.00  0.00     0.040 C 
ENDBRANCH  20  21
ENDBRANCH   5  20
TORSDOF 4
ENDMDL
