MODEL 1
REMARK VINA RESULT: -7.334112647      0.000      0.000
REMARK  5 active torsions:
REMARK  status: ('A' for Active; 'I' for Inactive)
REMARK    1  A    between atoms: C2_2  and  C3_3 
REMARK    2  A    between atoms: C5_7  and  C6_8 
REMARK    3  A    between atoms: N2_10  and  C8_11 
REMARK    4  A    between atoms: N4_19  and  N5_20 
REMARK    5  A    between atoms: N5_20  and  O1_22 
ROOT
HETATM    1  C3  UNL     1       7.989  37.688  60.825  1.00  0.00     0.121 C 
HETATM    2  N1  UNL     1       8.177  38.251  59.700  1.00  0.00    -0.325 N 
ATOM      3  H1  UNL     1       7.613  37.929  58.914  1.00  0.00     0.169 HD
HETATM    4  C4  UNL     1       9.119  39.301  59.452  1.00  0.00     0.129 C 
HETATM    5  C5  UNL     1       9.205  39.846  58.268  1.00  0.00     0.065 C 
HETATM    6  N4  UNL     1       9.880  39.717  60.579  1.00  0.00    -0.228 N 
HETATM    7  C14 UNL     1      10.024  38.792  61.704  1.00  0.00     0.251 C 
HETATM    8  C15 UNL     1      10.462  39.450  62.965  1.00  0.00     0.065 C 
HETATM    9  O2  UNL     1       8.767  38.123  61.911  1.00  0.00    -0.312 OA
ENDROOT
BRANCH   5  10
HETATM   10  C6  UNL     1      10.078  40.891  57.815  1.00  0.00     0.008 A 
HETATM   11  C7  UNL     1      11.377  40.781  57.302  1.00  0.00     0.124 A 
HETATM   12  N2  UNL     1      11.871  42.003  57.060  1.00  0.00    -0.294 N 
HETATM   13  N3  UNL     1      10.950  42.885  57.395  1.00  0.00    -0.302 N 
HETATM   14  C12 UNL     1       9.846  42.239  57.862  1.00  0.00     0.034 A 
ATOM     15  H3  UNL     1      11.050  43.897  57.317  1.00  0.00     0.186 HD
HETATM   16  C13 UNL     1       8.674  42.973  58.343  1.00  0.00     0.070 C 
BRANCH  12  17
HETATM   17  C8  UNL     1      13.169  42.380  56.527  1.00  0.00     0.042 C 
HETATM   18  C9  UNL     1      13.559  43.770  56.983  1.00  0.00     0.039 C 
HETATM   19  C10 UNL     1      13.173  42.267  55.019  1.00  0.00     0.039 C 
HETATM   20  C11 UNL     1      14.185  41.414  57.093  1.00  0.00     0.039 C 
ENDBRANCH  12  17
ENDBRANCH   5  10
BRANCH   6  21
HETATM   21  N5  UNL     1      10.460  40.963  60.696  1.00  0.00    -0.204 N 
ATOM     22  H5  UNL     1       9.892  41.811  60.676  1.00  0.00     0.216 HD
BRANCH  21  23
HETATM   23  O1  UNL     1      11.720  41.025  60.829  1.00  0.00    -0.274 OA
ATOM     24  H1  UNL     1      12.163  41.810  60.530  1.00  0.00     0.246 HD
ENDBRANCH  21  23
ENDBRANCH   6  21
BRANCH   1  25
HETATM   25  C2  UNL     1       6.980  36.597  61.001  1.00  0.00     0.080 C 
HETATM   26  C1  UNL     1       6.216  36.888  62.267  1.00  0.00     0.013 C 
ENDBRANCH   1  25
TORSDOF 5
ENDMDL
MODEL 2
REMARK VINA RESULT: -7.087725435      1.921      2.656
REMARK  5 active torsions:
REMARK  status: ('A' for Active; 'I' for Inactive)
REMARK    1  A    between atoms: C2_2  and  C3_3 
REMARK    2  A    between atoms: C5_7  and  C6_8 
REMARK    3  A    between atoms: N2_10  and  C8_11 
REMARK    4  A    between atoms: N4_19  and  N5_20 
REMARK    5  A    between atoms: N5_20  and  O1_22 
ROOT
HETATM    1  C3  UNL     1       7.467  37.347  60.412  1.00  0.00     0.121 C 
HETATM    2  N1  UNL     1       8.360  38.244  60.537  1.00  0.00    -0.325 N 
ATOM      3  H1  UNL     1       8.798  38.347  61.452  1.00  0.00     0.169 HD
HETATM    4  C4  UNL     1       8.800  39.120  59.492  1.00  0.00     0.129 C 
HETATM    5  C5  UNL     1       9.758  39.979  59.710  1.00  0.00     0.065 C 
HETATM    6  N4  UNL     1       8.163  38.936  58.234  1.00  0.00    -0.228 N 
HETATM    7  C14 UNL     1       6.853  38.283  58.202  1.00  0.00     0.251 C 
HETATM    8  C15 UNL     1       6.474  37.772  56.858  1.00  0.00     0.065 C 
HETATM    9  O2  UNL     1       6.857  37.204  59.154  1.00  0.00    -0.312 OA
ENDROOT
BRANCH   5  10
HETATM   10  C6  UNL     1      10.331  40.941  58.812  1.00  0.00     0.008 A 
HETATM   11  C7  UNL     1      11.606  40.941  58.230  1.00  0.00     0.124 A 
HETATM   12  N2  UNL     1      11.771  42.056  57.505  1.00  0.00    -0.294 N 
HETATM   13  N3  UNL     1      10.663  42.765  57.597  1.00  0.00    -0.302 N 
HETATM   14  C12 UNL     1       9.766  42.114  58.388  1.00  0.00     0.034 A 
ATOM     15  H3  UNL     1      10.503  43.665  57.144  1.00  0.00     0.186 HD
HETATM   16  C13 UNL     1       8.456  42.689  58.696  1.00  0.00     0.070 C 
BRANCH  12  17
HETATM   17  C8  UNL     1      12.922  42.484  56.729  1.00  0.00     0.042 C 
HETATM   18  C9  UNL     1      13.346  43.884  57.118  1.00  0.00     0.039 C 
HETATM   19  C10 UNL     1      12.627  42.382  55.249  1.00  0.00     0.039 C 
HETATM   20  C11 UNL     1      14.064  41.552  57.066  1.00  0.00     0.039 C 
ENDBRANCH  12  17
ENDBRANCH   5  10
BRANCH   6  21
HETATM   21  N5  UNL     1       8.726  39.300  57.028  1.00  0.00    -0.204 N 
ATOM     22  H5  UNL     1       8.393  40.119  56.519  1.00  0.00     0.216 HD
BRANCH  21  23
HETATM   23  O1  UNL     1       9.670  38.587  56.571  1.00  0.00    -0.274 OA
ATOM     24  H1  UNL     1       9.590  38.256  55.684  1.00  0.00     0.246 HD
ENDBRANCH  21  23
ENDBRANCH   6  21
BRANCH   1  25
HETATM   25  C2  UNL     1       7.067  36.469  61.556  1.00  0.00     0.080 C 
HETATM   26  C1  UNL     1       6.269  37.314  62.516  1.00  0.00     0.013 C 
ENDBRANCH   1  25
TORSDOF 5
ENDMDL
MODEL 3
REMARK VINA RESULT: -7.019263935      3.313      7.889
REMARK  5 active torsions:
REMARK  status: ('A' for Active; 'I' for Inactive)
REMARK    1  A    between atoms: C2_2  and  C3_3 
REMARK    2  A    between atoms: C5_7  and  C6_8 
REMARK    3  A    between atoms: N2_10  and  C8_11 
REMARK    4  A    between atoms: N4_19  and  N5_20 
REMARK    5  A    between atoms: N5_20  and  O1_22 
ROOT
HETATM    1  C3  UNL     1      12.685  43.725  52.313  1.00  0.00     0.121 C 
HETATM    2  N1  UNL     1      12.666  42.655  53.000  1.00  0.00    -0.325 N 
ATOM      3  H1  UNL     1      13.055  41.815  52.573  1.00  0.00     0.169 HD
HETATM    4  C4  UNL     1      12.139  42.538  54.328  1.00  0.00     0.129 C 
HETATM    5  C5  UNL     1      12.207  41.402  54.968  1.00  0.00     0.065 C 
HETATM    6  N4  UNL     1      11.610  43.736  54.881  1.00  0.00    -0.228 N 
HETATM    7  C14 UNL     1      11.193  44.803  53.970  1.00  0.00     0.251 C 
HETATM    8  C15 UNL     1      11.054  46.130  54.627  1.00  0.00     0.065 C 
HETATM    9  O2  UNL     1      12.145  44.884  52.894  1.00  0.00    -0.312 OA
ENDROOT
BRANCH   5  10
HETATM   10  C6  UNL     1      11.736  41.077  56.284  1.00  0.00     0.008 A 
HETATM   11  C7  UNL     1      10.414  40.974  56.738  1.00  0.00     0.124 A 
HETATM   12  N2  UNL     1      10.408  40.717  58.052  1.00  0.00    -0.294 N 
HETATM   13  N3  UNL     1      11.660  40.652  58.458  1.00  0.00    -0.302 N 
HETATM   14  C12 UNL     1      12.495  40.868  57.404  1.00  0.00     0.034 A 
ATOM     15  H3  UNL     1      11.959  40.466  59.416  1.00  0.00     0.186 HD
HETATM   16  C13 UNL     1      13.949  40.890  57.569  1.00  0.00     0.070 C 
BRANCH  12  17
HETATM   17  C8  UNL     1       9.277  40.529  58.945  1.00  0.00     0.042 C 
HETATM   18  C9  UNL     1       9.741  40.123  60.328  1.00  0.00     0.039 C 
HETATM   19  C10 UNL     1       8.309  39.522  58.365  1.00  0.00     0.039 C 
HETATM   20  C11 UNL     1       8.578  41.864  59.073  1.00  0.00     0.039 C 
ENDBRANCH  12  17
ENDBRANCH   5  10
BRANCH   6  21
HETATM   21  N5  UNL     1      11.504  43.974  56.236  1.00  0.00    -0.204 N 
ATOM     22  H5  UNL     1      10.619  43.835  56.726  1.00  0.00     0.216 HD
BRANCH  21  23
HETATM   23  O1  UNL     1      12.537  44.370  56.855  1.00  0.00    -0.274 OA
ATOM     24  H1  UNL     1      12.696  45.305  56.907  1.00  0.00     0.246 HD
ENDBRANCH  21  23
ENDBRANCH   6  21
BRANCH   1  25
HETATM   25  C2  UNL     1      13.258  43.763  50.931  1.00  0.00     0.080 C 
HETATM   26  C1  UNL     1      12.105  43.715  49.962  1.00  0.00     0.013 C 
ENDBRANCH   1  25
TORSDOF 5
ENDMDL
MODEL 4
REMARK VINA RESULT: -6.841477450      2.453      3.811
REMARK  5 active torsions:
REMARK  status: ('A' for Active; 'I' for Inactive)
REMARK    1  A    between atoms: C2_2  and  C3_3 
REMARK    2  A    between atoms: C5_7  and  C6_8 
REMARK    3  A    between atoms: N2_10  and  C8_11 
REMARK    4  A    between atoms: N4_19  and  N5_20 
REMARK    5  A    between atoms: N5_20  and  O1_22 
ROOT
HETATM    1  C3  UNL     1       9.854  39.712  60.765  1.00  0.00     0.121 C 
HETATM    2  N1  UNL     1      10.602  40.651  60.345  1.00  0.00    -0.325 N 
ATOM      3  H1  UNL     1      11.234  41.085  61.018  1.00  0.00     0.169 HD
HETATM    4  C4  UNL     1      10.626  41.147  59.001  1.00  0.00     0.129 C 
HETATM    5  C5  UNL     1      11.465  42.087  58.659  1.00  0.00     0.065 C 
HETATM    6  N4  UNL     1       9.730  40.509  58.100  1.00  0.00    -0.228 N 
HETATM    7  C14 UNL     1       8.570  39.805  58.649  1.00  0.00     0.251 C 
HETATM    8  C15 UNL     1       7.948  38.847  57.696  1.00  0.00     0.065 C 
HETATM    9  O2  UNL     1       8.978  39.114  59.844  1.00  0.00    -0.312 OA
ENDROOT
BRANCH   5  10
HETATM   10  C6  UNL     1      11.640  42.721  57.383  1.00  0.00     0.008 A 
HETATM   11  C7  UNL     1      10.720  43.486  56.655  1.00  0.00     0.124 A 
HETATM   12  N2  UNL     1      11.257  43.839  55.479  1.00  0.00    -0.294 N 
HETATM   13  N3  UNL     1      12.474  43.334  55.423  1.00  0.00    -0.302 N 
HETATM   14  C12 UNL     1      12.738  42.645  56.567  1.00  0.00     0.034 A 
ATOM     15  H3  UNL     1      13.119  43.443  54.641  1.00  0.00     0.186 HD
HETATM   16  C13 UNL     1      14.007  41.946  56.766  1.00  0.00     0.070 C 
BRANCH  12  17
HETATM   17  C8  UNL     1      10.679  44.629  54.406  1.00  0.00     0.042 C 
HETATM   18  C9  UNL     1      10.513  46.074  54.826  1.00  0.00     0.039 C 
HETATM   19  C10 UNL     1       9.367  44.026  53.956  1.00  0.00     0.039 C 
HETATM   20  C11 UNL     1      11.653  44.600  53.250  1.00  0.00     0.039 C 
ENDBRANCH  12  17
ENDBRANCH   5  10
BRANCH   6  21
HETATM   21  N5  UNL     1       9.910  40.478  56.732  1.00  0.00    -0.204 N 
ATOM     22  H5  UNL     1       9.374  41.091  56.118  1.00  0.00     0.216 HD
BRANCH  21  23
HETATM   23  O1  UNL     1      10.762  39.665  56.261  1.00  0.00    -0.274 OA
ATOM     24  H1  UNL     1      10.608  38.735  56.386  1.00  0.00     0.246 HD
ENDBRANCH  21  23
ENDBRANCH   6  21
BRANCH   1  25
HETATM   25  C2  UNL     1       9.893  39.250  62.188  1.00  0.00     0.080 C 
HETATM   26  C1  UNL     1       9.837  37.744  62.176  1.00  0.00     0.013 C 
ENDBRANCH   1  25
TORSDOF 5
ENDMDL
MODEL 5
REMARK VINA RESULT: -6.827113679      2.157      3.406
REMARK  5 active torsions:
REMARK  status: ('A' for Active; 'I' for Inactive)
REMARK    1  A    between atoms: C2_2  and  C3_3 
REMARK    2  A    between atoms: C5_7  and  C6_8 
REMARK    3  A    between atoms: N2_10  and  C8_11 
REMARK    4  A    between atoms: N4_19  and  N5_20 
REMARK    5  A    between atoms: N5_20  and  O1_22 
ROOT
HETATM    1  C3  UNL     1       8.968  38.572  60.194  1.00  0.00     0.121 C 
HETATM    2  N1  UNL     1       9.903  39.433  60.214  1.00  0.00    -0.325 N 
ATOM      3  H1  UNL     1      10.328  39.646  61.116  1.00  0.00     0.169 HD
HETATM    4  C4  UNL     1      10.408  40.127  59.066  1.00  0.00     0.129 C 
HETATM    5  C5  UNL     1      11.404  40.962  59.184  1.00  0.00     0.065 C 
HETATM    6  N4  UNL     1       9.786  39.795  57.831  1.00  0.00    -0.228 N 
HETATM    7  C14 UNL     1       8.446  39.208  57.858  1.00  0.00     0.251 C 
HETATM    8  C15 UNL     1       8.066  38.527  56.592  1.00  0.00     0.065 C 
HETATM    9  O2  UNL     1       8.376  38.278  58.955  1.00  0.00    -0.312 OA
ENDROOT
BRANCH   5  10
HETATM   10  C6  UNL     1      12.043  41.755  58.173  1.00  0.00     0.008 A 
HETATM   11  C7  UNL     1      11.569  42.913  57.542  1.00  0.00     0.124 A 
HETATM   12  N2  UNL     1      12.443  43.307  56.607  1.00  0.00    -0.294 N 
HETATM   13  N3  UNL     1      13.451  42.457  56.611  1.00  0.00    -0.302 N 
HETATM   14  C12 UNL     1      13.237  41.498  57.553  1.00  0.00     0.034 A 
ATOM     15  H3  UNL     1      14.267  42.510  56.001  1.00  0.00     0.186 HD
HETATM   16  C13 UNL     1      14.180  40.397  57.755  1.00  0.00     0.070 C 
BRANCH  12  17
HETATM   17  C8  UNL     1      12.375  44.448  55.709  1.00  0.00     0.042 C 
HETATM   18  C9  UNL     1      13.060  45.655  56.315  1.00  0.00     0.039 C 
HETATM   19  C10 UNL     1      10.939  44.747  55.345  1.00  0.00     0.039 C 
HETATM   20  C11 UNL     1      13.132  44.078  54.453  1.00  0.00     0.039 C 
ENDBRANCH  12  17
ENDBRANCH   5  10
BRANCH   6  21
HETATM   21  N5  UNL     1      10.390  39.954  56.601  1.00  0.00    -0.204 N 
ATOM     22  H5  UNL     1      11.229  39.427  56.356  1.00  0.00     0.216 HD
BRANCH  21  23
HETATM   23  O1  UNL     1       9.872  40.773  55.783  1.00  0.00    -0.274 OA
ATOM     24  H1  UNL     1      10.150  40.734  54.875  1.00  0.00     0.246 HD
ENDBRANCH  21  23
ENDBRANCH   6  21
BRANCH   1  25
HETATM   25  C2  UNL     1       8.501  37.888  61.442  1.00  0.00     0.080 C 
HETATM   26  C1  UNL     1       7.285  37.075  61.083  1.00  0.00     0.013 C 
ENDBRANCH   1  25
TORSDOF 5
ENDMDL
