MODEL 1
REMARK VINA RESULT: -7.587167257      0.000      0.000
REMARK  6 active torsions:
REMARK  status: ('A' for Active; 'I' for Inactive)
REMARK    1  A    between atoms: C2_2  and  O1_3 
REMARK    2  A    between atoms: C2_2  and  C12_15 
REMARK    3  A    between atoms: O1_3  and  C3_4 
REMARK       I    between atoms: C3_4  and  N1_6 
REMARK    4  A    between atoms: N1_6  and  C5_8 
REMARK    5  A    between atoms: C5_8  and  C8_11 
REMARK    6  A    between atoms: C13_18  and  N3_19 
ROOT
HETATM    1  O1  UNL     1      12.612  43.606  58.456  1.00  0.00    -0.291 OA
ENDROOT
BRANCH   1   2
HETATM    2  C2  UNL     1      13.731  43.514  57.612  1.00  0.00     0.204 C 
HETATM    3  C1  UNL     1      14.023  42.127  57.151  1.00  0.00     0.049 C 
BRANCH   2   4
HETATM    4  C12 UNL     1      13.686  44.432  56.473  1.00  0.00     0.154 A 
HETATM    5  N2  UNL     1      13.718  44.037  55.190  1.00  0.00    -0.318 N 
HETATM    6  C13 UNL     1      13.662  45.086  54.383  1.00  0.00     0.198 A 
ATOM      7  H2  UNL     1      13.776  43.068  54.880  1.00  0.00     0.169 HD
HETATM    8  C14 UNL     1      13.593  46.190  55.206  1.00  0.00     0.199 A 
HETATM    9  O5  UNL     1      13.610  45.743  56.438  1.00  0.00    -0.303 OA
BRANCH   6  10
HETATM   10  N3  UNL     1      13.675  45.029  52.965  1.00  0.00    -0.096 N 
HETATM   11  O3  UNL     1      12.857  45.666  52.264  1.00  0.00    -0.530 OA
HETATM   12  O4  UNL     1      14.603  44.260  52.310  1.00  0.00    -0.530 OA
ENDBRANCH   6  10
ENDBRANCH   2   4
ENDBRANCH   1   2
BRANCH   1  13
HETATM   13  C3  UNL     1      11.451  42.841  58.286  1.00  0.00     0.363 C 
HETATM   14  O2  UNL     1      10.777  43.175  57.278  1.00  0.00    -0.238 OA
HETATM   15  N1  UNL     1      11.102  41.804  59.174  1.00  0.00    -0.323 N 
HETATM   16  C4  UNL     1      12.021  41.531  60.263  1.00  0.00     0.156 C 
BRANCH  15  17
HETATM   17  C5  UNL     1       9.900  41.068  59.052  1.00  0.00     0.036 C 
HETATM   18  C6  UNL     1       9.404  40.534  60.402  1.00  0.00     0.039 C 
HETATM   19  C7  UNL     1       8.803  42.149  58.729  1.00  0.00     0.039 C 
BRANCH  17  20
HETATM   20  C8  UNL     1       9.800  40.002  58.045  1.00  0.00    -0.026 C 
HETATM   21  C9  UNL     1       9.119  40.438  56.757  1.00  0.00     0.017 C 
HETATM   22  C10 UNL     1      11.027  39.248  57.672  1.00  0.00     0.017 C 
HETATM   23  C11 UNL     1       8.832  38.941  58.629  1.00  0.00     0.017 C 
ENDBRANCH  17  20
ENDBRANCH  15  17
ENDBRANCH   1  13
TORSDOF 6
ENDMDL
MODEL 2
REMARK VINA RESULT: -7.363974926      1.281      1.918
REMARK  6 active torsions:
REMARK  status: ('A' for Active; 'I' for Inactive)
REMARK    1  A    between atoms: C2_2  and  O1_3 
REMARK    2  A    between atoms: C2_2  and  C12_15 
REMARK    3  A    between atoms: O1_3  and  C3_4 
REMARK       I    between atoms: C3_4  and  N1_6 
REMARK    4  A    between atoms: N1_6  and  C5_8 
REMARK    5  A    between atoms: C5_8  and  C8_11 
REMARK    6  A    between atoms: C13_18  and  N3_19 
ROOT
HETATM    1  O1  UNL     1      12.301  44.468  57.064  1.00  0.00    -0.291 OA
ENDROOT
BRANCH   1   2
HETATM    2  C2  UNL     1      13.549  44.723  56.474  1.00  0.00     0.204 C 
HETATM    3  C1  UNL     1      14.522  43.603  56.620  1.00  0.00     0.049 C 
BRANCH   2   4
HETATM    4  C12 UNL     1      13.465  45.149  55.077  1.00  0.00     0.154 A 
HETATM    5  N2  UNL     1      13.395  44.301  54.038  1.00  0.00    -0.318 N 
HETATM    6  C13 UNL     1      13.327  44.973  52.899  1.00  0.00     0.198 A 
ATOM      7  H2  UNL     1      13.394  43.285  54.115  1.00  0.00     0.169 HD
HETATM    8  C14 UNL     1      13.356  46.307  53.246  1.00  0.00     0.199 A 
HETATM    9  O5  UNL     1      13.438  46.353  54.553  1.00  0.00    -0.303 OA
BRANCH   6  10
HETATM   10  N3  UNL     1      13.243  44.388  51.608  1.00  0.00    -0.096 N 
HETATM   11  O3  UNL     1      12.192  44.421  50.928  1.00  0.00    -0.530 OA
HETATM   12  O4  UNL     1      14.330  43.759  51.060  1.00  0.00    -0.530 OA
ENDBRANCH   6  10
ENDBRANCH   2   4
ENDBRANCH   1   2
BRANCH   1  13
HETATM   13  C3  UNL     1      11.765  43.182  57.213  1.00  0.00     0.363 C 
HETATM   14  O2  UNL     1      11.350  42.687  56.134  1.00  0.00    -0.238 OA
HETATM   15  N1  UNL     1      11.713  42.533  58.464  1.00  0.00    -0.323 N 
HETATM   16  C4  UNL     1      12.276  43.242  59.597  1.00  0.00     0.156 C 
BRANCH  15  17
HETATM   17  C5  UNL     1      11.115  41.263  58.639  1.00  0.00     0.036 C 
HETATM   18  C6  UNL     1      11.815  40.173  57.817  1.00  0.00     0.039 C 
HETATM   19  C7  UNL     1      11.503  40.839  60.103  1.00  0.00     0.039 C 
BRANCH  17  20
HETATM   20  C8  UNL     1       9.660  41.119  58.492  1.00  0.00    -0.026 C 
HETATM   21  C9  UNL     1       8.905  42.437  58.555  1.00  0.00     0.017 C 
HETATM   22  C10 UNL     1       9.127  40.350  57.336  1.00  0.00     0.017 C 
HETATM   23  C11 UNL     1       9.169  40.357  59.749  1.00  0.00     0.017 C 
ENDBRANCH  17  20
ENDBRANCH  15  17
ENDBRANCH   1  13
TORSDOF 6
ENDMDL
MODEL 3
REMARK VINA RESULT: -7.275254443      2.805      7.608
REMARK  6 active torsions:
REMARK  status: ('A' for Active; 'I' for Inactive)
REMARK    1  A    between atoms: C2_2  and  O1_3 
REMARK    2  A    between atoms: C2_2  and  C12_15 
REMARK    3  A    between atoms: O1_3  and  C3_4 
REMARK       I    between atoms: C3_4  and  N1_6 
REMARK    4  A    between atoms: N1_6  and  C5_8 
REMARK    5  A    between atoms: C5_8  and  C8_11 
REMARK    6  A    between atoms: C13_18  and  N3_19 
ROOT
HETATM    1  O1  UNL     1      10.836  42.080  57.351  1.00  0.00    -0.291 OA
ENDROOT
BRANCH   1   2
HETATM    2  C2  UNL     1      10.072  42.238  58.518  1.00  0.00     0.204 C 
HETATM    3  C1  UNL     1       8.813  43.011  58.312  1.00  0.00     0.049 C 
BRANCH   2   4
HETATM    4  C12 UNL     1       9.793  40.981  59.214  1.00  0.00     0.154 A 
HETATM    5  N2  UNL     1      10.170  40.723  60.476  1.00  0.00    -0.318 N 
HETATM    6  C13 UNL     1       9.779  39.510  60.836  1.00  0.00     0.198 A 
ATOM      7  H2  UNL     1      10.686  41.369  61.073  1.00  0.00     0.169 HD
HETATM    8  C14 UNL     1       9.124  38.986  59.742  1.00  0.00     0.199 A 
HETATM    9  O5  UNL     1       9.161  39.904  58.806  1.00  0.00    -0.303 OA
BRANCH   6  10
HETATM   10  N3  UNL     1      10.013  38.917  62.104  1.00  0.00    -0.096 N 
HETATM   11  O3  UNL     1      10.026  37.676  62.268  1.00  0.00    -0.530 OA
HETATM   12  O4  UNL     1      10.234  39.702  63.206  1.00  0.00    -0.530 OA
ENDBRANCH   6  10
ENDBRANCH   2   4
ENDBRANCH   1   2
BRANCH   1  13
HETATM   13  C3  UNL     1      11.842  42.973  56.960  1.00  0.00     0.363 C 
HETATM   14  O2  UNL     1      12.212  43.743  57.882  1.00  0.00    -0.238 OA
HETATM   15  N1  UNL     1      12.368  42.980  55.651  1.00  0.00    -0.323 N 
HETATM   16  C4  UNL     1      11.848  41.992  54.726  1.00  0.00     0.156 C 
BRANCH  15  17
HETATM   17  C5  UNL     1      13.336  43.920  55.225  1.00  0.00     0.036 C 
HETATM   18  C6  UNL     1      14.485  44.068  56.231  1.00  0.00     0.039 C 
HETATM   19  C7  UNL     1      14.070  43.218  54.023  1.00  0.00     0.039 C 
BRANCH  17  20
HETATM   20  C8  UNL     1      12.908  45.254  54.782  1.00  0.00    -0.026 C 
HETATM   21  C9  UNL     1      13.279  45.569  53.340  1.00  0.00     0.017 C 
HETATM   22  C10 UNL     1      11.490  45.656  54.980  1.00  0.00     0.017 C 
HETATM   23  C11 UNL     1      13.738  46.273  55.603  1.00  0.00     0.017 C 
ENDBRANCH  17  20
ENDBRANCH  15  17
ENDBRANCH   1  13
TORSDOF 6
ENDMDL
MODEL 4
REMARK VINA RESULT: -7.248405912      1.092      2.104
REMARK  6 active torsions:
REMARK  status: ('A' for Active; 'I' for Inactive)
REMARK    1  A    between atoms: C2_2  and  O1_3 
REMARK    2  A    between atoms: C2_2  and  C12_15 
REMARK    3  A    between atoms: O1_3  and  C3_4 
REMARK       I    between atoms: C3_4  and  N1_6 
REMARK    4  A    between atoms: N1_6  and  C5_8 
REMARK    5  A    between atoms: C5_8  and  C8_11 
REMARK    6  A    between atoms: C13_18  and  N3_19 
ROOT
HETATM    1  O1  UNL     1      12.412  43.205  58.361  1.00  0.00    -0.291 OA
ENDROOT
BRANCH   1   2
HETATM    2  C2  UNL     1      13.577  43.381  57.597  1.00  0.00     0.204 C 
HETATM    3  C1  UNL     1      14.018  42.150  56.882  1.00  0.00     0.049 C 
BRANCH   2   4
HETATM    4  C12 UNL     1      13.509  44.513  56.672  1.00  0.00     0.154 A 
HETATM    5  N2  UNL     1      13.615  44.399  55.338  1.00  0.00    -0.318 N 
HETATM    6  C13 UNL     1      13.514  45.588  54.764  1.00  0.00     0.198 A 
ATOM      7  H2  UNL     1      13.753  43.521  54.838  1.00  0.00     0.169 HD
HETATM    8  C14 UNL     1      13.337  46.489  55.792  1.00  0.00     0.199 A 
HETATM    9  O5  UNL     1      13.341  45.795  56.904  1.00  0.00    -0.303 OA
BRANCH   6  10
HETATM   10  N3  UNL     1      13.583  45.830  53.367  1.00  0.00    -0.096 N 
HETATM   11  O3  UNL     1      13.268  46.933  52.865  1.00  0.00    -0.530 OA
HETATM   12  O4  UNL     1      14.004  44.844  52.512  1.00  0.00    -0.530 OA
ENDBRANCH   6  10
ENDBRANCH   2   4
ENDBRANCH   1   2
BRANCH   1  13
HETATM   13  C3  UNL     1      11.762  41.972  58.504  1.00  0.00     0.363 C 
HETATM   14  O2  UNL     1      12.210  41.280  59.453  1.00  0.00    -0.238 OA
HETATM   15  N1  UNL     1      10.709  41.578  57.653  1.00  0.00    -0.323 N 
HETATM   16  C4  UNL     1      10.297  42.524  56.634  1.00  0.00     0.156 C 
BRANCH  15  17
HETATM   17  C5  UNL     1      10.089  40.310  57.745  1.00  0.00     0.036 C 
HETATM   18  C6  UNL     1       9.388  39.909  56.441  1.00  0.00     0.039 C 
HETATM   19  C7  UNL     1      11.282  39.285  57.779  1.00  0.00     0.039 C 
BRANCH  17  20
HETATM   20  C8  UNL     1       9.202  40.016  58.879  1.00  0.00    -0.026 C 
HETATM   21  C9  UNL     1       9.759  38.975  59.839  1.00  0.00     0.017 C 
HETATM   22  C10 UNL     1       8.680  41.145  59.694  1.00  0.00     0.017 C 
HETATM   23  C11 UNL     1       7.947  39.328  58.284  1.00  0.00     0.017 C 
ENDBRANCH  17  20
ENDBRANCH  15  17
ENDBRANCH   1  13
TORSDOF 6
ENDMDL
MODEL 5
REMARK VINA RESULT: -7.198811637      2.312      3.910
REMARK  6 active torsions:
REMARK  status: ('A' for Active; 'I' for Inactive)
REMARK    1  A    between atoms: C2_2  and  O1_3 
REMARK    2  A    between atoms: C2_2  and  C12_15 
REMARK    3  A    between atoms: O1_3  and  C3_4 
REMARK       I    between atoms: C3_4  and  N1_6 
REMARK    4  A    between atoms: N1_6  and  C5_8 
REMARK    5  A    between atoms: C5_8  and  C8_11 
REMARK    6  A    between atoms: C13_18  and  N3_19 
ROOT
HETATM    1  O1  UNL     1      11.744  42.756  52.956  1.00  0.00    -0.291 OA
ENDROOT
BRANCH   1   2
HETATM    2  C2  UNL     1      12.785  43.487  52.362  1.00  0.00     0.204 C 
HETATM    3  C1  UNL     1      12.613  43.694  50.896  1.00  0.00     0.049 C 
BRANCH   2   4
HETATM    4  C12 UNL     1      13.067  44.759  53.029  1.00  0.00     0.154 A 
HETATM    5  N2  UNL     1      13.370  44.871  54.332  1.00  0.00    -0.318 N 
HETATM    6  C13 UNL     1      13.575  46.140  54.650  1.00  0.00     0.198 A 
ATOM      7  H2  UNL     1      13.434  44.090  54.984  1.00  0.00     0.169 HD
HETATM    8  C14 UNL     1      13.390  46.855  53.486  1.00  0.00     0.199 A 
HETATM    9  O5  UNL     1      13.090  45.984  52.554  1.00  0.00    -0.303 OA
BRANCH   6  10
HETATM   10  N3  UNL     1      13.914  46.615  55.944  1.00  0.00    -0.096 N 
HETATM   11  O3  UNL     1      13.346  46.196  56.978  1.00  0.00    -0.530 OA
HETATM   12  O4  UNL     1      14.893  47.563  56.101  1.00  0.00    -0.530 OA
ENDBRANCH   6  10
ENDBRANCH   2   4
ENDBRANCH   1   2
BRANCH   1  13
HETATM   13  C3  UNL     1      11.759  42.337  54.293  1.00  0.00     0.363 C 
HETATM   14  O2  UNL     1      12.797  41.701  54.604  1.00  0.00    -0.238 OA
HETATM   15  N1  UNL     1      10.697  42.620  55.177  1.00  0.00    -0.323 N 
HETATM   16  C4  UNL     1       9.594  43.402  54.653  1.00  0.00     0.156 C 
BRANCH  15  17
HETATM   17  C5  UNL     1      10.670  42.147  56.510  1.00  0.00     0.036 C 
HETATM   18  C6  UNL     1      11.956  42.485  57.274  1.00  0.00     0.039 C 
HETATM   19  C7  UNL     1       9.628  43.072  57.239  1.00  0.00     0.039 C 
BRANCH  17  20
HETATM   20  C8  UNL     1      10.304  40.748  56.776  1.00  0.00    -0.026 C 
HETATM   21  C9  UNL     1       9.239  40.588  57.850  1.00  0.00     0.017 C 
HETATM   22  C10 UNL     1       9.927  39.874  55.634  1.00  0.00     0.017 C 
HETATM   23  C11 UNL     1      11.556  40.083  57.402  1.00  0.00     0.017 C 
ENDBRANCH  17  20
ENDBRANCH  15  17
ENDBRANCH   1  13
TORSDOF 6
ENDMDL
