MODEL 1
REMARK VINA RESULT: -9.015682908      0.000      0.000
REMARK  3 active torsions:
REMARK  status: ('A' for Active; 'I' for Inactive)
REMARK    1  A    between atoms: C2_2  and  C3_3 
REMARK    2  A    between atoms: C3_3  and  C4_4 
REMARK    3  A    between atoms: C5_10  and  C6_11 
ROOT
HETATM    1  C6  UNL     1      12.067  42.953  57.604  1.00  0.00     0.046 C 
HETATM    2  N3  UNL     1      11.081  42.740  56.811  1.00  0.00    -0.364 N 
ATOM      3  H3  UNL     1      10.389  42.154  57.278  1.00  0.00     0.162 HD
HETATM    4  C7  UNL     1      10.638  43.046  55.513  1.00  0.00     0.223 C 
HETATM    5  C8  UNL     1       9.813  44.340  55.468  1.00  0.00     0.080 C 
HETATM    6  C9  UNL     1      10.669  45.495  54.968  1.00  0.00     0.172 C 
HETATM    7  O2  UNL     1      11.716  45.800  55.734  1.00  0.00    -0.385 OA
HETATM    8  C10 UNL     1      12.982  45.462  55.455  1.00  0.00     0.132 C 
HETATM    9  C11 UNL     1      13.548  45.837  54.112  1.00  0.00     0.011 C 
HETATM   10  C12 UNL     1      13.083  47.168  53.622  1.00  0.00     0.012 C 
HETATM   11  C13 UNL     1      13.431  44.800  53.053  1.00  0.00     0.009 C 
HETATM   12  C14 UNL     1      13.580  43.380  53.468  1.00  0.00     0.033 C 
HETATM   13  C15 UNL     1      12.861  43.052  54.793  1.00  0.00     0.131 C 
HETATM   14  O3  UNL     1      11.541  43.107  54.501  1.00  0.00    -0.361 OA
HETATM   15  C16 UNL     1      13.381  44.025  55.761  1.00  0.00     0.050 C 
HETATM   16  C17 UNL     1      13.266  43.697  57.230  1.00  0.00     0.069 C 
ENDROOT
BRANCH   1  17
HETATM   17  C5  UNL     1      11.930  42.328  58.895  1.00  0.00     0.146 A 
HETATM   18  C4  UNL     1      11.328  41.167  59.285  1.00  0.00     0.065 A 
HETATM   19  N1  UNL     1      11.492  41.078  60.648  1.00  0.00    -0.282 N 
HETATM   20  N2  UNL     1      12.160  42.129  61.042  1.00  0.00    -0.201 N 
ATOM     21  H1  UNL     1      11.152  40.325  61.245  1.00  0.00     0.188 HD
HETATM   22  O1  UNL     1      12.420  42.855  60.046  1.00  0.00    -0.218 OA
ATOM     23  H2  UNL     1      12.430  42.330  62.005  1.00  0.00     0.216 HD
BRANCH  18  24
HETATM   24  C3  UNL     1      10.696  40.097  58.523  1.00  0.00     0.061 C 
BRANCH  24  25
HETATM   25  C2  UNL     1       9.181  40.154  58.778  1.00  0.00     0.002 C 
HETATM   26  C1  UNL     1       8.679  38.901  59.408  1.00  0.00     0.005 C 
ENDBRANCH  24  25
ENDBRANCH  18  24
ENDBRANCH   1  17
TORSDOF 3
ENDMDL
MODEL 2
REMARK VINA RESULT: -8.754870173      2.295      6.055
REMARK  3 active torsions:
REMARK  status: ('A' for Active; 'I' for Inactive)
REMARK    1  A    between atoms: C2_2  and  C3_3 
REMARK    2  A    between atoms: C3_3  and  C4_4 
REMARK    3  A    between atoms: C5_10  and  C6_11 
ROOT
HETATM    1  C6  UNL     1      12.519  44.140  55.842  1.00  0.00     0.046 C 
HETATM    2  N3  UNL     1      13.286  43.169  56.180  1.00  0.00    -0.364 N 
ATOM      3  H3  UNL     1      14.252  43.402  55.947  1.00  0.00     0.162 HD
HETATM    4  C7  UNL     1      13.239  41.892  56.763  1.00  0.00     0.223 C 
HETATM    5  C8  UNL     1      13.379  41.943  58.292  1.00  0.00     0.080 C 
HETATM    6  C9  UNL     1      12.014  41.807  58.951  1.00  0.00     0.172 C 
HETATM    7  O2  UNL     1      11.146  42.778  58.669  1.00  0.00    -0.385 OA
HETATM    8  C10 UNL     1      10.130  42.658  57.804  1.00  0.00     0.132 C 
HETATM    9  C11 UNL     1       9.165  41.517  57.981  1.00  0.00     0.011 C 
HETATM   10  C12 UNL     1       8.873  41.203  59.411  1.00  0.00     0.012 C 
HETATM   11  C13 UNL     1       9.477  40.285  57.210  1.00  0.00     0.009 C 
HETATM   12  C14 UNL     1      10.065  40.458  55.856  1.00  0.00     0.033 C 
HETATM   13  C15 UNL     1      11.139  41.564  55.791  1.00  0.00     0.131 C 
HETATM   14  O3  UNL     1      12.194  41.071  56.480  1.00  0.00    -0.361 OA
HETATM   15  C16 UNL     1      10.483  42.764  56.327  1.00  0.00     0.050 C 
HETATM   16  C17 UNL     1      11.065  44.110  55.969  1.00  0.00     0.069 C 
ENDROOT
BRANCH   1  17
HETATM   17  C5  UNL     1      13.208  45.257  55.249  1.00  0.00     0.146 A 
HETATM   18  C4  UNL     1      13.446  45.594  53.948  1.00  0.00     0.065 A 
HETATM   19  N1  UNL     1      14.171  46.763  53.971  1.00  0.00    -0.282 N 
HETATM   20  N2  UNL     1      14.349  47.102  55.220  1.00  0.00    -0.201 N 
ATOM     21  H1  UNL     1      14.509  47.275  53.157  1.00  0.00     0.188 HD
HETATM   22  O1  UNL     1      13.800  46.247  55.965  1.00  0.00    -0.218 OA
ATOM     23  H2  UNL     1      14.852  47.929  55.541  1.00  0.00     0.216 HD
BRANCH  18  24
HETATM   24  C3  UNL     1      13.002  44.998  52.694  1.00  0.00     0.061 C 
BRANCH  24  25
HETATM   25  C2  UNL     1      13.939  43.826  52.359  1.00  0.00     0.002 C 
HETATM   26  C1  UNL     1      13.286  42.509  52.599  1.00  0.00     0.005 C 
ENDBRANCH  24  25
ENDBRANCH  18  24
ENDBRANCH   1  17
TORSDOF 3
ENDMDL
MODEL 3
REMARK VINA RESULT: -8.625723701      2.909      4.605
REMARK  3 active torsions:
REMARK  status: ('A' for Active; 'I' for Inactive)
REMARK    1  A    between atoms: C2_2  and  C3_3 
REMARK    2  A    between atoms: C3_3  and  C4_4 
REMARK    3  A    between atoms: C5_10  and  C6_11 
ROOT
HETATM    1  C6  UNL     1      10.338  40.322  59.936  1.00  0.00     0.046 C 
HETATM    2  N3  UNL     1      11.302  41.169  59.936  1.00  0.00    -0.364 N 
ATOM      3  H3  UNL     1      11.755  41.168  60.850  1.00  0.00     0.162 HD
HETATM    4  C7  UNL     1      11.941  42.097  59.097  1.00  0.00     0.223 C 
HETATM    5  C8  UNL     1      13.091  41.466  58.297  1.00  0.00     0.080 C 
HETATM    6  C9  UNL     1      12.640  41.161  56.876  1.00  0.00     0.172 C 
HETATM    7  O2  UNL     1      11.645  40.280  56.771  1.00  0.00    -0.385 OA
HETATM    8  C10 UNL     1      10.371  40.605  56.520  1.00  0.00     0.132 C 
HETATM    9  C11 UNL     1      10.067  41.454  55.315  1.00  0.00     0.011 C 
HETATM   10  C12 UNL     1      10.928  41.141  54.136  1.00  0.00     0.012 C 
HETATM   11  C13 UNL     1      10.001  42.919  55.562  1.00  0.00     0.009 C 
HETATM   12  C14 UNL     1       9.426  43.367  56.858  1.00  0.00     0.033 C 
HETATM   13  C15 UNL     1       9.889  42.518  58.059  1.00  0.00     0.131 C 
HETATM   14  O3  UNL     1      11.196  42.827  58.226  1.00  0.00    -0.361 OA
HETATM   15  C16 UNL     1       9.562  41.133  57.696  1.00  0.00     0.050 C 
HETATM   16  C17 UNL     1       9.434  40.120  58.808  1.00  0.00     0.069 C 
ENDROOT
BRANCH   1  17
HETATM   17  C5  UNL     1      10.167  39.624  61.184  1.00  0.00     0.146 A 
HETATM   18  C4  UNL     1       9.499  38.477  61.502  1.00  0.00     0.065 A 
HETATM   19  N1  UNL     1       9.661  38.291  62.855  1.00  0.00    -0.282 N 
HETATM   20  N2  UNL     1      10.390  39.273  63.313  1.00  0.00    -0.201 N 
ATOM     21  H1  UNL     1       9.279  37.521  63.404  1.00  0.00     0.188 HD
HETATM   22  O1  UNL     1      10.689  40.046  62.364  1.00  0.00    -0.218 OA
ATOM     23  H2  UNL     1      10.673  39.395  64.285  1.00  0.00     0.216 HD
BRANCH  18  24
HETATM   24  C3  UNL     1       8.805  37.497  60.675  1.00  0.00     0.061 C 
BRANCH  24  25
HETATM   25  C2  UNL     1       7.292  37.720  60.833  1.00  0.00     0.002 C 
HETATM   26  C1  UNL     1       6.638  38.015  59.527  1.00  0.00     0.005 C 
ENDBRANCH  24  25
ENDBRANCH  18  24
ENDBRANCH   1  17
TORSDOF 3
ENDMDL
MODEL 4
REMARK VINA RESULT: -8.592649017      2.449      4.428
REMARK  3 active torsions:
REMARK  status: ('A' for Active; 'I' for Inactive)
REMARK    1  A    between atoms: C2_2  and  C3_3 
REMARK    2  A    between atoms: C3_3  and  C4_4 
REMARK    3  A    between atoms: C5_10  and  C6_11 
ROOT
HETATM    1  C6  UNL     1       9.892  40.002  59.007  1.00  0.00     0.046 C 
HETATM    2  N3  UNL     1      10.110  41.114  59.609  1.00  0.00    -0.364 N 
ATOM      3  H3  UNL     1       9.792  41.045  60.576  1.00  0.00     0.162 HD
HETATM    4  C7  UNL     1      10.639  42.395  59.379  1.00  0.00     0.223 C 
HETATM    5  C8  UNL     1      12.147  42.462  59.664  1.00  0.00     0.080 C 
HETATM    6  C9  UNL     1      12.934  42.389  58.363  1.00  0.00     0.172 C 
HETATM    7  O2  UNL     1      12.781  41.263  57.667  1.00  0.00    -0.385 OA
HETATM    8  C10 UNL     1      12.018  41.146  56.573  1.00  0.00     0.132 C 
HETATM    9  C11 UNL     1      12.242  42.102  55.433  1.00  0.00     0.011 C 
HETATM   10  C12 UNL     1      13.679  42.445  55.219  1.00  0.00     0.012 C 
HETATM   11  C13 UNL     1      11.391  43.322  55.442  1.00  0.00     0.009 C 
HETATM   12  C14 UNL     1       9.993  43.176  55.927  1.00  0.00     0.033 C 
HETATM   13  C15 UNL     1       9.870  42.279  57.176  1.00  0.00     0.131 C 
HETATM   14  O3  UNL     1      10.427  42.995  58.179  1.00  0.00    -0.361 OA
HETATM   15  C16 UNL     1      10.519  41.016  56.804  1.00  0.00     0.050 C 
HETATM   16  C17 UNL     1      10.163  39.777  57.591  1.00  0.00     0.069 C 
ENDROOT
BRANCH   1  17
HETATM   17  C5  UNL     1       9.281  38.994  59.835  1.00  0.00     0.146 A 
HETATM   18  C4  UNL     1       8.033  38.442  59.827  1.00  0.00     0.065 A 
HETATM   19  N1  UNL     1       7.998  37.534  60.859  1.00  0.00    -0.282 N 
HETATM   20  N2  UNL     1       9.166  37.545  61.445  1.00  0.00    -0.201 N 
ATOM     21  H1  UNL     1       7.202  36.954  61.122  1.00  0.00     0.188 HD
HETATM   22  O1  UNL     1       9.913  38.378  60.866  1.00  0.00    -0.218 OA
ATOM     23  H2  UNL     1       9.431  36.969  62.244  1.00  0.00     0.216 HD
BRANCH  18  24
HETATM   24  C3  UNL     1       6.906  38.603  58.916  1.00  0.00     0.061 C 
BRANCH  24  25
HETATM   25  C2  UNL     1       7.214  37.823  57.627  1.00  0.00     0.002 C 
HETATM   26  C1  UNL     1       6.015  37.097  57.121  1.00  0.00     0.005 C 
ENDBRANCH  24  25
ENDBRANCH  18  24
ENDBRANCH   1  17
TORSDOF 3
ENDMDL
MODEL 5
REMARK VINA RESULT: -8.493780550      1.467      2.015
REMARK  3 active torsions:
REMARK  status: ('A' for Active; 'I' for Inactive)
REMARK    1  A    between atoms: C2_2  and  C3_3 
REMARK    2  A    between atoms: C3_3  and  C4_4 
REMARK    3  A    between atoms: C5_10  and  C6_11 
ROOT
HETATM    1  C6  UNL     1      12.496  43.274  57.377  1.00  0.00     0.046 C 
HETATM    2  N3  UNL     1      11.486  42.998  56.635  1.00  0.00    -0.364 N 
ATOM      3  H3  UNL     1      10.861  42.365  57.133  1.00  0.00     0.162 HD
HETATM    4  C7  UNL     1      10.956  43.278  55.365  1.00  0.00     0.223 C 
HETATM    5  C8  UNL     1      10.043  44.514  55.373  1.00  0.00     0.080 C 
HETATM    6  C9  UNL     1      10.792  45.726  54.838  1.00  0.00     0.172 C 
HETATM    7  O2  UNL     1      11.855  46.098  55.549  1.00  0.00    -0.385 OA
HETATM    8  C10 UNL     1      13.124  45.847  55.202  1.00  0.00     0.132 C 
HETATM    9  C11 UNL     1      13.592  46.265  53.834  1.00  0.00     0.011 C 
HETATM   10  C12 UNL     1      13.013  47.564  53.379  1.00  0.00     0.012 C 
HETATM   11  C13 UNL     1      13.489  45.227  52.774  1.00  0.00     0.009 C 
HETATM   12  C14 UNL     1      13.756  43.819  53.171  1.00  0.00     0.033 C 
HETATM   13  C15 UNL     1      13.132  43.437  54.529  1.00  0.00     0.131 C 
HETATM   14  O3  UNL     1      11.798  43.405  54.307  1.00  0.00    -0.361 OA
HETATM   15  C16 UNL     1      13.636  44.440  55.476  1.00  0.00     0.050 C 
HETATM   16  C17 UNL     1      13.620  44.099  56.946  1.00  0.00     0.069 C 
ENDROOT
BRANCH   1  17
HETATM   17  C5  UNL     1      12.470  42.636  58.668  1.00  0.00     0.146 A 
HETATM   18  C4  UNL     1      12.695  41.346  59.051  1.00  0.00     0.065 A 
HETATM   19  N1  UNL     1      12.517  41.304  60.415  1.00  0.00    -0.282 N 
HETATM   20  N2  UNL     1      12.206  42.507  60.817  1.00  0.00    -0.201 N 
ATOM     21  H1  UNL     1      12.610  40.479  61.007  1.00  0.00     0.188 HD
HETATM   22  O1  UNL     1      12.177  43.283  59.825  1.00  0.00    -0.218 OA
ATOM     23  H2  UNL     1      12.018  42.777  61.783  1.00  0.00     0.216 HD
BRANCH  18  24
HETATM   24  C3  UNL     1      13.140  40.175  58.306  1.00  0.00     0.061 C 
BRANCH  24  25
HETATM   25  C2  UNL     1      14.469  40.521  57.614  1.00  0.00     0.002 C 
HETATM   26  C1  UNL     1      15.614  39.784  58.217  1.00  0.00     0.005 C 
ENDBRANCH  24  25
ENDBRANCH  18  24
ENDBRANCH   1  17
TORSDOF 3
ENDMDL
