MODEL 1
REMARK VINA RESULT: -9.630094852      0.000      0.000
REMARK  13 active torsions:
REMARK  status: ('A' for Active; 'I' for Inactive)
REMARK    1  A    between atoms: C4_6  and  N2_7 
REMARK    2  A    between atoms: C9_13  and  C10_14 
REMARK    3  A    between atoms: C10_14  and  N3_15 
REMARK    4  A    between atoms: N3_15  and  C11_17 
REMARK    5  A    between atoms: C11_17  and  C12_18 
REMARK    6  A    between atoms: C11_17  and  C22_33 
REMARK    7  A    between atoms: C12_18  and  C13_19 
REMARK    8  A    between atoms: C13_19  and  C14_20 
REMARK    9  A    between atoms: C14_20  and  C15_21 
REMARK   10  A    between atoms: C15_21  and  C16_22 
REMARK       I    between atoms: C22_33  and  N6_35 
REMARK   11  A    between atoms: N6_35  and  C23_37 
REMARK   12  A    between atoms: N7_40  and  C26_41 
REMARK   13  A    between atoms: C26_41  and  C27_42 
ROOT
HETATM    1  C11 UNL     1      16.994  22.279  19.204  1.00  0.00     0.173 C 
ENDROOT
BRANCH   1   2
HETATM    2  N3  UNL     1      15.677  22.730  19.331  1.00  0.00    -0.385 N 
ATOM      3  H3  UNL     1      15.380  23.150  20.212  1.00  0.00     0.159 HD
BRANCH   2   4
HETATM    4  C10 UNL     1      14.748  22.622  18.281  1.00  0.00     0.099 C 
BRANCH   4   5
HETATM    5  C9  UNL     1      14.356  21.167  18.147  1.00  0.00     0.023 A 
HETATM    6  C4  UNL     1      14.107  20.663  16.887  1.00  0.00     0.115 A 
HETATM    7  N1  UNL     1      13.747  19.344  16.836  1.00  0.00    -0.351 N 
HETATM    8  C3  UNL     1      13.637  18.572  17.926  1.00  0.00     0.096 A 
ATOM      9  H1  UNL     1      13.554  18.930  15.924  1.00  0.00     0.166 HD
HETATM   10  C2  UNL     1      13.885  19.074  19.189  1.00  0.00    -0.046 A 
HETATM   11  C1  UNL     1      13.761  18.210  20.411  1.00  0.00     0.049 C 
HETATM   12  C34 UNL     1      14.250  20.400  19.282  1.00  0.00     0.024 A 
BRANCH   6  13
HETATM   13  N2  UNL     1      14.222  21.437  15.730  1.00  0.00    -0.362 N 
HETATM   14  C5  UNL     1      13.264  22.442  15.351  1.00  0.00     0.150 C 
HETATM   15  C6  UNL     1      12.904  22.311  13.873  1.00  0.00     0.187 C 
HETATM   16  O1  UNL     1      14.082  22.177  13.110  1.00  0.00    -0.388 OA
HETATM   17  C7  UNL     1      14.760  21.034  13.455  1.00  0.00     0.187 C 
HETATM   18  C8  UNL     1      15.352  21.240  14.848  1.00  0.00     0.150 C 
ENDBRANCH   6  13
ENDBRANCH   4   5
ENDBRANCH   2   4
ENDBRANCH   1   2
BRANCH   1  19
HETATM   19  C12 UNL     1      17.856  22.674  20.373  1.00  0.00     0.035 C 
BRANCH  19  20
HETATM   20  C13 UNL     1      18.708  21.658  20.999  1.00  0.00     0.002 C 
BRANCH  20  21
HETATM   21  C14 UNL     1      20.159  21.948  21.158  1.00  0.00     0.001 C 
BRANCH  21  22
HETATM   22  C15 UNL     1      20.704  22.574  19.862  1.00  0.00     0.007 C 
BRANCH  22  23
HETATM   23  C16 UNL     1      21.970  23.305  20.040  1.00  0.00     0.011 C 
HETATM   24  C17 UNL     1      22.315  23.513  21.522  1.00  0.00     0.026 C 
HETATM   25  C18 UNL     1      23.533  24.410  21.337  1.00  0.00     0.126 C 
HETATM   26  N4  UNL     1      23.057  25.352  20.328  1.00  0.00    -0.356 N 
HETATM   27  C19 UNL     1      23.221  26.691  19.877  1.00  0.00     0.136 C 
HETATM   28  C21 UNL     1      22.048  24.685  19.476  1.00  0.00     0.100 C 
HETATM   29  N5  UNL     1      24.275  27.416  19.824  1.00  0.00    -0.380 N 
HETATM   30  S1  UNL     1      21.542  27.173  19.374  1.00  0.00    -0.092 SA
ATOM     31  H52 UNL     1      25.217  27.145  20.107  1.00  0.00     0.158 HD
ATOM     32  H51 UNL     1      24.391  28.376  19.500  1.00  0.00     0.158 HD
HETATM   33  C20 UNL     1      20.780  25.519  19.718  1.00  0.00     0.108 C 
ENDBRANCH  22  23
ENDBRANCH  21  22
ENDBRANCH  20  21
ENDBRANCH  19  20
ENDBRANCH   1  19
BRANCH   1  34
HETATM   34  C22 UNL     1      17.636  22.737  17.939  1.00  0.00     0.240 C 
HETATM   35  O2  UNL     1      17.794  21.962  16.981  1.00  0.00    -0.271 OA
HETATM   36  N6  UNL     1      18.081  24.105  17.825  1.00  0.00    -0.355 N 
ATOM     37  H6  UNL     1      17.966  24.759  18.599  1.00  0.00     0.162 HD
BRANCH  36  38
HETATM   38  C23 UNL     1      18.689  24.520  16.596  1.00  0.00     0.087 C 
HETATM   39  C24 UNL     1      20.155  24.008  16.530  1.00  0.00     0.055 C 
HETATM   40  C25 UNL     1      20.548  24.194  15.087  1.00  0.00     0.274 C 
HETATM   41  N7  UNL     1      20.623  25.617  14.810  1.00  0.00     0.088 N 
HETATM   42  C32 UNL     1      20.087  26.451  15.836  1.00  0.00     0.274 C 
HETATM   43  C33 UNL     1      18.755  25.999  16.397  1.00  0.00     0.055 C 
BRANCH  41  44
HETATM   44  C26 UNL     1      22.042  25.912  14.664  1.00  0.00     0.277 C 
BRANCH  44  45
HETATM   45  C27 UNL     1      22.466  27.011  15.598  1.00  0.00     0.018 C 
HETATM   46  C28 UNL     1      23.720  26.540  16.343  1.00  0.00     0.032 C 
HETATM   47  C29 UNL     1      24.892  27.273  15.731  1.00  0.00     0.168 C 
HETATM   48  O3  UNL     1      24.806  28.614  16.104  1.00  0.00    -0.391 OA
HETATM   49  C30 UNL     1      23.630  29.170  15.657  1.00  0.00     0.168 C 
HETATM   50  C31 UNL     1      22.816  28.239  14.778  1.00  0.00     0.032 C 
ENDBRANCH  44  45
ENDBRANCH  41  44
ENDBRANCH  36  38
ENDBRANCH   1  34
TORSDOF 13
ENDMDL
MODEL 2
REMARK VINA RESULT: -9.376937425      1.086      1.580
REMARK  13 active torsions:
REMARK  status: ('A' for Active; 'I' for Inactive)
REMARK    1  A    between atoms: C4_6  and  N2_7 
REMARK    2  A    between atoms: C9_13  and  C10_14 
REMARK    3  A    between atoms: C10_14  and  N3_15 
REMARK    4  A    between atoms: N3_15  and  C11_17 
REMARK    5  A    between atoms: C11_17  and  C12_18 
REMARK    6  A    between atoms: C11_17  and  C22_33 
REMARK    7  A    between atoms: C12_18  and  C13_19 
REMARK    8  A    between atoms: C13_19  and  C14_20 
REMARK    9  A    between atoms: C14_20  and  C15_21 
REMARK   10  A    between atoms: C15_21  and  C16_22 
REMARK       I    between atoms: C22_33  and  N6_35 
REMARK   11  A    between atoms: N6_35  and  C23_37 
REMARK   12  A    between atoms: N7_40  and  C26_41 
REMARK   13  A    between atoms: C26_41  and  C27_42 
ROOT
HETATM    1  C11 UNL     1      16.898  22.229  19.305  1.00  0.00     0.173 C 
ENDROOT
BRANCH   1   2
HETATM    2  N3  UNL     1      15.529  22.434  19.498  1.00  0.00    -0.385 N 
ATOM      3  H3  UNL     1      15.183  22.609  20.442  1.00  0.00     0.159 HD
BRANCH   2   4
HETATM    4  C10 UNL     1      14.614  22.407  18.431  1.00  0.00     0.099 C 
BRANCH   4   5
HETATM    5  C9  UNL     1      14.172  20.975  18.226  1.00  0.00     0.023 A 
HETATM    6  C4  UNL     1      13.938  20.533  16.940  1.00  0.00     0.115 A 
HETATM    7  N1  UNL     1      13.531  19.233  16.823  1.00  0.00    -0.351 N 
HETATM    8  C3  UNL     1      13.365  18.420  17.876  1.00  0.00     0.096 A 
ATOM      9  H1  UNL     1      13.346  18.864  15.890  1.00  0.00     0.166 HD
HETATM   10  C2  UNL     1      13.600  18.859  19.165  1.00  0.00    -0.046 A 
HETATM   11  C1  UNL     1      13.415  17.949  20.346  1.00  0.00     0.049 C 
HETATM   12  C34 UNL     1      14.010  20.165  19.324  1.00  0.00     0.024 A 
BRANCH   6  13
HETATM   13  N2  UNL     1      14.110  21.351  15.820  1.00  0.00    -0.362 N 
HETATM   14  C5  UNL     1      13.103  22.261  15.342  1.00  0.00     0.150 C 
HETATM   15  C6  UNL     1      12.943  22.140  13.828  1.00  0.00     0.187 C 
HETATM   16  O1  UNL     1      14.213  22.152  13.216  1.00  0.00    -0.388 OA
HETATM   17  C7  UNL     1      14.961  21.076  13.623  1.00  0.00     0.187 C 
HETATM   18  C8  UNL     1      15.353  21.299  15.083  1.00  0.00     0.150 C 
ENDBRANCH   6  13
ENDBRANCH   4   5
ENDBRANCH   2   4
ENDBRANCH   1   2
BRANCH   1  19
HETATM   19  C12 UNL     1      17.691  22.394  20.574  1.00  0.00     0.035 C 
BRANCH  19  20
HETATM   20  C13 UNL     1      18.956  21.664  20.718  1.00  0.00     0.002 C 
BRANCH  20  21
HETATM   21  C14 UNL     1      20.153  22.170  19.992  1.00  0.00     0.001 C 
BRANCH  21  22
HETATM   22  C15 UNL     1      21.172  22.723  21.003  1.00  0.00     0.007 C 
BRANCH  22  23
HETATM   23  C16 UNL     1      21.450  24.160  20.842  1.00  0.00     0.011 C 
HETATM   24  C17 UNL     1      20.829  24.730  19.558  1.00  0.00     0.026 C 
HETATM   25  C18 UNL     1      21.435  26.126  19.624  1.00  0.00     0.126 C 
HETATM   26  N4  UNL     1      22.825  25.830  19.960  1.00  0.00    -0.356 N 
HETATM   27  C19 UNL     1      24.149  26.325  19.799  1.00  0.00     0.136 C 
HETATM   28  C21 UNL     1      22.882  24.573  20.738  1.00  0.00     0.100 C 
HETATM   29  N5  UNL     1      24.578  27.531  19.786  1.00  0.00    -0.380 N 
HETATM   30  S1  UNL     1      25.141  24.815  19.603  1.00  0.00    -0.092 SA
ATOM     31  H52 UNL     1      24.021  28.379  19.896  1.00  0.00     0.158 HD
ATOM     32  H51 UNL     1      25.527  27.886  19.671  1.00  0.00     0.158 HD
HETATM   33  C20 UNL     1      23.723  23.647  19.847  1.00  0.00     0.108 C 
ENDBRANCH  22  23
ENDBRANCH  21  22
ENDBRANCH  20  21
ENDBRANCH  19  20
ENDBRANCH   1  19
BRANCH   1  34
HETATM   34  C22 UNL     1      17.466  23.112  18.248  1.00  0.00     0.240 C 
HETATM   35  O2  UNL     1      17.508  24.345  18.395  1.00  0.00    -0.271 OA
HETATM   36  N6  UNL     1      17.976  22.526  17.032  1.00  0.00    -0.355 N 
ATOM     37  H6  UNL     1      17.949  21.517  16.886  1.00  0.00     0.162 HD
BRANCH  36  38
HETATM   38  C23 UNL     1      18.521  23.397  16.035  1.00  0.00     0.087 C 
HETATM   39  C24 UNL     1      19.803  24.088  16.578  1.00  0.00     0.055 C 
HETATM   40  C25 UNL     1      20.456  24.674  15.352  1.00  0.00     0.274 C 
HETATM   41  N7  UNL     1      19.618  25.751  14.856  1.00  0.00     0.088 N 
HETATM   42  C32 UNL     1      18.325  25.824  15.456  1.00  0.00     0.274 C 
HETATM   43  C33 UNL     1      17.610  24.497  15.596  1.00  0.00     0.055 C 
BRANCH  41  44
HETATM   44  C26 UNL     1      20.342  26.980  15.157  1.00  0.00     0.277 C 
BRANCH  44  45
HETATM   45  C27 UNL     1      21.799  26.847  14.814  1.00  0.00     0.018 C 
HETATM   46  C28 UNL     1      22.244  28.147  14.133  1.00  0.00     0.032 C 
HETATM   47  C29 UNL     1      23.055  28.917  15.152  1.00  0.00     0.168 C 
HETATM   48  O3  UNL     1      24.263  28.246  15.340  1.00  0.00    -0.391 OA
HETATM   49  C30 UNL     1      24.045  26.967  15.795  1.00  0.00     0.168 C 
HETATM   50  C31 UNL     1      22.588  26.673  16.098  1.00  0.00     0.032 C 
ENDBRANCH  44  45
ENDBRANCH  41  44
ENDBRANCH  36  38
ENDBRANCH   1  34
TORSDOF 13
ENDMDL
MODEL 3
REMARK VINA RESULT: -9.261463699      1.773      3.369
REMARK  13 active torsions:
REMARK  status: ('A' for Active; 'I' for Inactive)
REMARK    1  A    between atoms: C4_6  and  N2_7 
REMARK    2  A    between atoms: C9_13  and  C10_14 
REMARK    3  A    between atoms: C10_14  and  N3_15 
REMARK    4  A    between atoms: N3_15  and  C11_17 
REMARK    5  A    between atoms: C11_17  and  C12_18 
REMARK    6  A    between atoms: C11_17  and  C22_33 
REMARK    7  A    between atoms: C12_18  and  C13_19 
REMARK    8  A    between atoms: C13_19  and  C14_20 
REMARK    9  A    between atoms: C14_20  and  C15_21 
REMARK   10  A    between atoms: C15_21  and  C16_22 
REMARK       I    between atoms: C22_33  and  N6_35 
REMARK   11  A    between atoms: N6_35  and  C23_37 
REMARK   12  A    between atoms: N7_40  and  C26_41 
REMARK   13  A    between atoms: C26_41  and  C27_42 
ROOT
HETATM    1  C11 UNL     1      17.057  20.681  18.237  1.00  0.00     0.173 C 
ENDROOT
BRANCH   1   2
HETATM    2  N3  UNL     1      15.816  20.207  17.799  1.00  0.00    -0.385 N 
ATOM      3  H3  UNL     1      15.786  19.397  17.181  1.00  0.00     0.159 HD
BRANCH   2   4
HETATM    4  C10 UNL     1      14.609  20.814  18.187  1.00  0.00     0.099 C 
BRANCH   4   5
HETATM    5  C9  UNL     1      13.677  20.810  16.995  1.00  0.00     0.023 A 
HETATM    6  C4  UNL     1      12.708  19.831  16.916  1.00  0.00     0.115 A 
HETATM    7  N1  UNL     1      11.906  19.876  15.809  1.00  0.00    -0.351 N 
HETATM    8  C3  UNL     1      12.033  20.804  14.850  1.00  0.00     0.096 A 
ATOM      9  H1  UNL     1      11.176  19.171  15.710  1.00  0.00     0.166 HD
HETATM   10  C2  UNL     1      13.002  21.787  14.927  1.00  0.00    -0.046 A 
HETATM   11  C1  UNL     1      13.145  22.827  13.853  1.00  0.00     0.049 C 
HETATM   12  C34 UNL     1      13.831  21.773  16.027  1.00  0.00     0.024 A 
BRANCH   6  13
HETATM   13  N2  UNL     1      12.542  18.854  17.902  1.00  0.00    -0.362 N 
HETATM   14  C5  UNL     1      11.588  18.965  18.973  1.00  0.00     0.150 C 
HETATM   15  C6  UNL     1      12.232  18.597  20.308  1.00  0.00     0.187 C 
HETATM   16  O1  UNL     1      12.955  17.395  20.167  1.00  0.00    -0.388 OA
HETATM   17  C7  UNL     1      13.977  17.544  19.262  1.00  0.00     0.187 C 
HETATM   18  C8  UNL     1      13.359  17.661  17.870  1.00  0.00     0.150 C 
ENDBRANCH   6  13
ENDBRANCH   4   5
ENDBRANCH   2   4
ENDBRANCH   1   2
BRANCH   1  19
HETATM   19  C12 UNL     1      16.955  21.476  19.511  1.00  0.00     0.035 C 
BRANCH  19  20
HETATM   20  C13 UNL     1      18.170  21.706  20.300  1.00  0.00     0.002 C 
BRANCH  20  21
HETATM   21  C14 UNL     1      18.614  23.109  20.527  1.00  0.00     0.001 C 
BRANCH  21  22
HETATM   22  C15 UNL     1      20.147  23.150  20.646  1.00  0.00     0.007 C 
BRANCH  22  23
HETATM   23  C16 UNL     1      20.711  24.510  20.601  1.00  0.00     0.011 C 
HETATM   24  C17 UNL     1      20.408  25.218  19.272  1.00  0.00     0.026 C 
HETATM   25  C18 UNL     1      21.248  26.469  19.497  1.00  0.00     0.126 C 
HETATM   26  N4  UNL     1      22.492  25.903  20.013  1.00  0.00    -0.356 N 
HETATM   27  C19 UNL     1      23.894  26.137  20.068  1.00  0.00     0.136 C 
HETATM   28  C21 UNL     1      22.194  24.641  20.725  1.00  0.00     0.100 C 
HETATM   29  N5  UNL     1      24.538  27.237  20.180  1.00  0.00    -0.380 N 
HETATM   30  S1  UNL     1      24.603  24.469  19.939  1.00  0.00    -0.092 SA
ATOM     31  H52 UNL     1      24.140  28.174  20.252  1.00  0.00     0.158 HD
ATOM     32  H51 UNL     1      25.544  27.404  20.220  1.00  0.00     0.158 HD
HETATM   33  C20 UNL     1      22.971  23.591  19.917  1.00  0.00     0.108 C 
ENDBRANCH  22  23
ENDBRANCH  21  22
ENDBRANCH  20  21
ENDBRANCH  19  20
ENDBRANCH   1  19
BRANCH   1  34
HETATM   34  C22 UNL     1      17.756  21.494  17.201  1.00  0.00     0.240 C 
HETATM   35  O2  UNL     1      18.659  21.005  16.501  1.00  0.00    -0.271 OA
HETATM   36  N6  UNL     1      17.379  22.873  17.008  1.00  0.00    -0.355 N 
ATOM     37  H6  UNL     1      16.644  23.299  17.573  1.00  0.00     0.162 HD
BRANCH  36  38
HETATM   38  C23 UNL     1      18.062  23.630  16.003  1.00  0.00     0.087 C 
HETATM   39  C24 UNL     1      19.325  24.300  16.611  1.00  0.00     0.055 C 
HETATM   40  C25 UNL     1      20.121  24.748  15.411  1.00  0.00     0.274 C 
HETATM   41  N7  UNL     1      19.395  25.818  14.751  1.00  0.00     0.088 N 
HETATM   42  C32 UNL     1      18.059  26.005  15.216  1.00  0.00     0.274 C 
HETATM   43  C33 UNL     1      17.260  24.731  15.391  1.00  0.00     0.055 C 
BRANCH  41  44
HETATM   44  C26 UNL     1      20.156  27.031  15.022  1.00  0.00     0.277 C 
BRANCH  44  45
HETATM   45  C27 UNL     1      21.615  26.835  14.715  1.00  0.00     0.018 C 
HETATM   46  C28 UNL     1      22.141  28.125  14.075  1.00  0.00     0.032 C 
HETATM   47  C29 UNL     1      22.959  28.834  15.132  1.00  0.00     0.168 C 
HETATM   48  O3  UNL     1      24.128  28.101  15.337  1.00  0.00    -0.391 OA
HETATM   49  C30 UNL     1      23.835  26.826  15.759  1.00  0.00     0.168 C 
HETATM   50  C31 UNL     1      22.359  26.596  16.017  1.00  0.00     0.032 C 
ENDBRANCH  44  45
ENDBRANCH  41  44
ENDBRANCH  36  38
ENDBRANCH   1  34
TORSDOF 13
ENDMDL
MODEL 4
REMARK VINA RESULT: -9.248029040      1.835      3.299
REMARK  13 active torsions:
REMARK  status: ('A' for Active; 'I' for Inactive)
REMARK    1  A    between atoms: C4_6  and  N2_7 
REMARK    2  A    between atoms: C9_13  and  C10_14 
REMARK    3  A    between atoms: C10_14  and  N3_15 
REMARK    4  A    between atoms: N3_15  and  C11_17 
REMARK    5  A    between atoms: C11_17  and  C12_18 
REMARK    6  A    between atoms: C11_17  and  C22_33 
REMARK    7  A    between atoms: C12_18  and  C13_19 
REMARK    8  A    between atoms: C13_19  and  C14_20 
REMARK    9  A    between atoms: C14_20  and  C15_21 
REMARK   10  A    between atoms: C15_21  and  C16_22 
REMARK       I    between atoms: C22_33  and  N6_35 
REMARK   11  A    between atoms: N6_35  and  C23_37 
REMARK   12  A    between atoms: N7_40  and  C26_41 
REMARK   13  A    between atoms: C26_41  and  C27_42 
ROOT
HETATM    1  C11 UNL     1      17.265  20.836  18.257  1.00  0.00     0.173 C 
ENDROOT
BRANCH   1   2
HETATM    2  N3  UNL     1      16.043  20.318  17.817  1.00  0.00    -0.385 N 
ATOM      3  H3  UNL     1      15.936  19.307  17.730  1.00  0.00     0.159 HD
BRANCH   2   4
HETATM    4  C10 UNL     1      14.956  21.148  17.491  1.00  0.00     0.099 C 
BRANCH   4   5
HETATM    5  C9  UNL     1      14.477  20.773  16.106  1.00  0.00     0.023 A 
HETATM    6  C4  UNL     1      13.475  19.833  15.985  1.00  0.00     0.115 A 
HETATM    7  N1  UNL     1      13.095  19.530  14.707  1.00  0.00    -0.351 N 
HETATM    8  C3  UNL     1      13.646  20.098  13.625  1.00  0.00     0.096 A 
ATOM      9  H1  UNL     1      12.357  18.839  14.570  1.00  0.00     0.166 HD
HETATM   10  C2  UNL     1      14.650  21.040  13.742  1.00  0.00    -0.046 A 
HETATM   11  C1  UNL     1      15.268  21.677  12.531  1.00  0.00     0.049 C 
HETATM   12  C34 UNL     1      15.061  21.371  15.015  1.00  0.00     0.024 A 
BRANCH   6  13
HETATM   13  N2  UNL     1      12.872  19.228  17.092  1.00  0.00    -0.362 N 
HETATM   14  C5  UNL     1      13.418  18.077  17.760  1.00  0.00     0.150 C 
HETATM   15  C6  UNL     1      12.329  17.038  18.016  1.00  0.00     0.187 C 
HETATM   16  O1  UNL     1      11.196  17.668  18.570  1.00  0.00    -0.388 OA
HETATM   17  C7  UNL     1      10.670  18.584  17.693  1.00  0.00     0.187 C 
HETATM   18  C8  UNL     1      11.635  19.766  17.613  1.00  0.00     0.150 C 
ENDBRANCH   6  13
ENDBRANCH   4   5
ENDBRANCH   2   4
ENDBRANCH   1   2
BRANCH   1  19
HETATM   19  C12 UNL     1      17.124  21.671  19.502  1.00  0.00     0.035 C 
BRANCH  19  20
HETATM   20  C13 UNL     1      18.281  21.816  20.391  1.00  0.00     0.002 C 
BRANCH  20  21
HETATM   21  C14 UNL     1      18.827  23.180  20.629  1.00  0.00     0.001 C 
BRANCH  21  22
HETATM   22  C15 UNL     1      20.364  23.121  20.658  1.00  0.00     0.007 C 
BRANCH  22  23
HETATM   23  C16 UNL     1      21.010  24.444  20.686  1.00  0.00     0.011 C 
HETATM   24  C17 UNL     1      20.705  25.264  19.423  1.00  0.00     0.026 C 
HETATM   25  C18 UNL     1      21.630  26.443  19.701  1.00  0.00     0.126 C 
HETATM   26  N4  UNL     1      22.852  25.767  20.126  1.00  0.00    -0.356 N 
HETATM   27  C19 UNL     1      24.268  25.912  20.142  1.00  0.00     0.136 C 
HETATM   28  C21 UNL     1      22.502  24.477  20.759  1.00  0.00     0.100 C 
HETATM   29  N5  UNL     1      24.984  26.960  20.304  1.00  0.00    -0.380 N 
HETATM   30  S1  UNL     1      24.866  24.218  19.868  1.00  0.00    -0.092 SA
ATOM     31  H52 UNL     1      24.647  27.911  20.458  1.00  0.00     0.158 HD
ATOM     32  H51 UNL     1      25.998  27.064  20.316  1.00  0.00     0.158 HD
HETATM   33  C20 UNL     1      23.182  23.443  19.849  1.00  0.00     0.108 C 
ENDBRANCH  22  23
ENDBRANCH  21  22
ENDBRANCH  20  21
ENDBRANCH  19  20
ENDBRANCH   1  19
BRANCH   1  34
HETATM   34  C22 UNL     1      17.962  21.628  17.206  1.00  0.00     0.240 C 
HETATM   35  O2  UNL     1      18.750  21.089  16.410  1.00  0.00    -0.271 OA
HETATM   36  N6  UNL     1      17.719  23.048  17.109  1.00  0.00    -0.355 N 
ATOM     37  H6  UNL     1      17.081  23.514  17.753  1.00  0.00     0.162 HD
BRANCH  36  38
HETATM   38  C23 UNL     1      18.398  23.785  16.086  1.00  0.00     0.087 C 
HETATM   39  C24 UNL     1      19.657  24.477  16.677  1.00  0.00     0.055 C 
HETATM   40  C25 UNL     1      20.449  24.902  15.467  1.00  0.00     0.274 C 
HETATM   41  N7  UNL     1      19.717  25.952  14.783  1.00  0.00     0.088 N 
HETATM   42  C32 UNL     1      18.379  26.140  15.243  1.00  0.00     0.274 C 
HETATM   43  C33 UNL     1      17.589  24.866  15.449  1.00  0.00     0.055 C 
BRANCH  41  44
HETATM   44  C26 UNL     1      20.470  27.175  15.025  1.00  0.00     0.277 C 
BRANCH  44  45
HETATM   45  C27 UNL     1      21.930  26.980  14.727  1.00  0.00     0.018 C 
HETATM   46  C28 UNL     1      22.476  28.294  14.156  1.00  0.00     0.032 C 
HETATM   47  C29 UNL     1      23.288  28.943  15.255  1.00  0.00     0.168 C 
HETATM   48  O3  UNL     1      24.447  28.190  15.440  1.00  0.00    -0.391 OA
HETATM   49  C30 UNL     1      24.137  26.898  15.797  1.00  0.00     0.168 C 
HETATM   50  C31 UNL     1      22.655  26.672  16.025  1.00  0.00     0.032 C 
ENDBRANCH  44  45
ENDBRANCH  41  44
ENDBRANCH  36  38
ENDBRANCH   1  34
TORSDOF 13
ENDMDL
MODEL 5
REMARK VINA RESULT: -9.187361175      2.664      8.960
REMARK  13 active torsions:
REMARK  status: ('A' for Active; 'I' for Inactive)
REMARK    1  A    between atoms: C4_6  and  N2_7 
REMARK    2  A    between atoms: C9_13  and  C10_14 
REMARK    3  A    between atoms: C10_14  and  N3_15 
REMARK    4  A    between atoms: N3_15  and  C11_17 
REMARK    5  A    between atoms: C11_17  and  C12_18 
REMARK    6  A    between atoms: C11_17  and  C22_33 
REMARK    7  A    between atoms: C12_18  and  C13_19 
REMARK    8  A    between atoms: C13_19  and  C14_20 
REMARK    9  A    between atoms: C14_20  and  C15_21 
REMARK   10  A    between atoms: C15_21  and  C16_22 
REMARK       I    between atoms: C22_33  and  N6_35 
REMARK   11  A    between atoms: N6_35  and  C23_37 
REMARK   12  A    between atoms: N7_40  and  C26_41 
REMARK   13  A    between atoms: C26_41  and  C27_42 
ROOT
HETATM    1  C11 UNL     1      19.823  24.819  15.935  1.00  0.00     0.173 C 
ENDROOT
BRANCH   1   2
HETATM    2  N3  UNL     1      20.315  24.371  17.165  1.00  0.00    -0.385 N 
ATOM      3  H3  UNL     1      20.848  23.502  17.198  1.00  0.00     0.159 HD
BRANCH   2   4
HETATM    4  C10 UNL     1      20.097  25.082  18.358  1.00  0.00     0.099 C 
BRANCH   4   5
HETATM    5  C9  UNL     1      21.257  24.805  19.289  1.00  0.00     0.023 A 
HETATM    6  C4  UNL     1      21.097  23.863  20.283  1.00  0.00     0.115 A 
HETATM    7  N1  UNL     1      22.178  23.667  21.097  1.00  0.00    -0.351 N 
HETATM    8  C3  UNL     1      23.331  24.336  20.956  1.00  0.00     0.096 A 
ATOM      9  H1  UNL     1      22.103  22.980  21.847  1.00  0.00     0.166 HD
HETATM   10  C2  UNL     1      23.496  25.280  19.961  1.00  0.00    -0.046 A 
HETATM   11  C1  UNL     1      24.787  26.030  19.801  1.00  0.00     0.049 C 
HETATM   12  C34 UNL     1      22.427  25.506  19.120  1.00  0.00     0.024 A 
BRANCH   6  13
HETATM   13  N2  UNL     1      19.912  23.141  20.453  1.00  0.00    -0.362 N 
HETATM   14  C5  UNL     1      19.758  21.767  20.054  1.00  0.00     0.150 C 
HETATM   15  C6  UNL     1      18.446  21.570  19.298  1.00  0.00     0.187 C 
HETATM   16  O1  UNL     1      17.396  22.193  20.004  1.00  0.00    -0.388 OA
HETATM   17  C7  UNL     1      17.603  23.547  20.092  1.00  0.00     0.187 C 
HETATM   18  C8  UNL     1      18.765  23.784  21.055  1.00  0.00     0.150 C 
ENDBRANCH   6  13
ENDBRANCH   4   5
ENDBRANCH   2   4
ENDBRANCH   1   2
BRANCH   1  19
HETATM   19  C12 UNL     1      20.083  26.284  15.708  1.00  0.00     0.035 C 
BRANCH  19  20
HETATM   20  C13 UNL     1      20.834  26.693  14.516  1.00  0.00     0.002 C 
BRANCH  20  21
HETATM   21  C14 UNL     1      21.243  28.119  14.389  1.00  0.00     0.001 C 
BRANCH  21  22
HETATM   22  C15 UNL     1      22.292  28.450  15.465  1.00  0.00     0.007 C 
BRANCH  22  23
HETATM   23  C16 UNL     1      23.629  27.902  15.182  1.00  0.00     0.011 C 
HETATM   24  C17 UNL     1      24.137  27.000  16.316  1.00  0.00     0.026 C 
HETATM   25  C18 UNL     1      25.547  26.763  15.790  1.00  0.00     0.126 C 
HETATM   26  N4  UNL     1      25.946  28.111  15.391  1.00  0.00    -0.356 N 
HETATM   27  C19 UNL     1      27.087  28.949  15.252  1.00  0.00     0.136 C 
HETATM   28  C21 UNL     1      24.744  28.878  14.998  1.00  0.00     0.100 C 
HETATM   29  N5  UNL     1      28.276  28.660  14.875  1.00  0.00    -0.380 N 
HETATM   30  S1  UNL     1      26.470  30.584  15.749  1.00  0.00    -0.092 SA
ATOM     31  H52 UNL     1      28.622  27.741  14.596  1.00  0.00     0.158 HD
ATOM     32  H51 UNL     1      29.094  29.261  14.775  1.00  0.00     0.158 HD
HETATM   33  C20 UNL     1      24.720  30.034  16.010  1.00  0.00     0.108 C 
ENDBRANCH  22  23
ENDBRANCH  21  22
ENDBRANCH  20  21
ENDBRANCH  19  20
ENDBRANCH   1  19
BRANCH   1  34
HETATM   34  C22 UNL     1      18.369  24.542  15.765  1.00  0.00     0.240 C 
HETATM   35  O2  UNL     1      17.553  25.465  15.603  1.00  0.00    -0.271 OA
HETATM   36  N6  UNL     1      17.899  23.178  15.790  1.00  0.00    -0.355 N 
ATOM     37  H6  UNL     1      18.548  22.403  15.926  1.00  0.00     0.162 HD
BRANCH  36  38
HETATM   38  C23 UNL     1      16.497  22.940  15.619  1.00  0.00     0.087 C 
HETATM   39  C24 UNL     1      15.989  21.956  16.709  1.00  0.00     0.055 C 
HETATM   40  C25 UNL     1      14.487  22.070  16.642  1.00  0.00     0.274 C 
HETATM   41  N7  UNL     1      14.040  21.512  15.378  1.00  0.00     0.088 N 
HETATM   42  C32 UNL     1      15.084  21.241  14.445  1.00  0.00     0.274 C 
HETATM   43  C33 UNL     1      16.117  22.338  14.305  1.00  0.00     0.055 C 
BRANCH  41  44
HETATM   44  C26 UNL     1      13.380  20.258  15.717  1.00  0.00     0.277 C 
BRANCH  44  45
HETATM   45  C27 UNL     1      12.128  20.068  14.907  1.00  0.00     0.018 C 
HETATM   46  C28 UNL     1      11.242  19.053  15.638  1.00  0.00     0.032 C 
HETATM   47  C29 UNL     1      10.121  19.838  16.284  1.00  0.00     0.168 C 
HETATM   48  O3  UNL     1       9.279  20.301  15.274  1.00  0.00    -0.391 OA
HETATM   49  C30 UNL     1       9.966  21.112  14.400  1.00  0.00     0.168 C 
HETATM   50  C31 UNL     1      11.393  21.394  14.830  1.00  0.00     0.032 C 
ENDBRANCH  44  45
ENDBRANCH  41  44
ENDBRANCH  36  38
ENDBRANCH   1  34
TORSDOF 13
ENDMDL
