MODEL 1
REMARK VINA RESULT: -9.015065299      0.000      0.000
REMARK  13 active torsions:
REMARK  status: ('A' for Active; 'I' for Inactive)
REMARK       I    between atoms: C2_2  and  N1_4 
REMARK    1  A    between atoms: N1_4  and  C3_6 
REMARK    2  A    between atoms: C3_6  and  C4_7 
REMARK    3  A    between atoms: C4_7  and  C5_8 
REMARK    4  A    between atoms: C5_8  and  C6_9 
REMARK    5  A    between atoms: C6_9  and  C7_11 
REMARK    6  A    between atoms: C7_11  and  C8_12 
REMARK    7  A    between atoms: C8_12  and  C9_13 
REMARK    8  A    between atoms: C9_13  and  C10_14 
REMARK    9  A    between atoms: C10_14  and  N2_15 
REMARK       I    between atoms: N2_15  and  C11_17 
REMARK   10  A    between atoms: C11_17  and  C12_19 
REMARK   11  A    between atoms: N3_24  and  C17_25 
REMARK   12  A    between atoms: C26_37  and  C27_38 
REMARK   13  A    between atoms: C27_38  and  C28_39 
ROOT
HETATM    1  C12 UNL     1      18.104  25.178  17.315  1.00  0.00     0.106 C 
HETATM    2  C13 UNL     1      17.986  24.617  15.919  1.00  0.00     0.016 C 
HETATM    3  C14 UNL     1      18.138  25.767  14.945  1.00  0.00     0.003 C 
HETATM    4  C15 UNL     1      19.592  26.156  14.970  1.00  0.00     0.030 C 
HETATM    5  C16 UNL     1      20.071  26.648  16.301  1.00  0.00     0.273 C 
HETATM    6  N3  UNL     1      20.475  25.607  17.214  1.00  0.00     0.101 N 
HETATM    7  C30 UNL     1      19.435  24.984  17.953  1.00  0.00     0.287 C 
ENDROOT
BRANCH   6   8
HETATM    8  C17 UNL     1      21.624  26.028  18.011  1.00  0.00     0.292 C 
HETATM    9  C18 UNL     1      21.922  27.457  17.681  1.00  0.00     0.044 C 
HETATM   10  C19 UNL     1      23.259  27.695  17.026  1.00  0.00     0.011 C 
HETATM   11  C20 UNL     1      24.406  26.990  17.699  1.00  0.00     0.091 C 
HETATM   12  C21 UNL     1      25.248  26.229  16.780  1.00  0.00     0.186 C 
HETATM   13  O4  UNL     1      24.880  25.987  15.656  1.00  0.00    -0.286 OA
HETATM   14  S1  UNL     1      26.843  25.649  17.314  1.00  0.00    -0.092 SA
HETATM   15  C22 UNL     1      26.720  24.226  18.449  1.00  0.00     0.092 C 
HETATM   16  C23 UNL     1      26.808  24.682  19.866  1.00  0.00     0.084 C 
HETATM   17  S2  UNL     1      25.606  23.905  20.970  1.00  0.00    -0.168 SA
HETATM   18  C24 UNL     1      23.991  23.702  20.167  1.00  0.00     0.075 C 
HETATM   19  C25 UNL     1      22.965  24.521  20.902  1.00  0.00     0.023 C 
HETATM   20  C26 UNL     1      21.638  24.639  20.237  1.00  0.00     0.067 C 
HETATM   21  C29 UNL     1      21.439  25.881  19.454  1.00  0.00     0.164 C 
HETATM   22  O6  UNL     1      21.084  26.879  20.090  1.00  0.00    -0.295 OA
BRANCH  20  23
HETATM   23  C27 UNL     1      21.229  23.403  19.471  1.00  0.00     0.111 C 
BRANCH  23  24
HETATM   24  C28 UNL     1      20.206  22.589  20.142  1.00  0.00     0.231 C 
HETATM   25  N4  UNL     1      19.212  23.147  20.984  1.00  0.00    -0.062 NA
HETATM   26  O5  UNL     1      20.198  21.345  19.970  1.00  0.00    -0.277 OA
ENDBRANCH  23  24
ENDBRANCH  20  23
ENDBRANCH   6   8
BRANCH   1  27
HETATM   27  C11 UNL     1      17.013  24.494  18.122  1.00  0.00     0.227 C 
HETATM   28  N2  UNL     1      17.090  23.128  18.426  1.00  0.00    -0.340 N 
ATOM     29  H2  UNL     1      17.917  22.659  18.056  1.00  0.00     0.167 HD
HETATM   30  O3  UNL     1      16.048  25.191  18.499  1.00  0.00    -0.273 OA
BRANCH  28  31
HETATM   31  C10 UNL     1      16.221  22.294  19.155  1.00  0.00     0.064 C 
BRANCH  31  32
HETATM   32  C9  UNL     1      14.844  22.018  18.732  1.00  0.00     0.045 C 
BRANCH  32  33
HETATM   33  C8  UNL     1      14.580  21.281  17.472  1.00  0.00     0.012 C 
BRANCH  33  34
HETATM   34  C7  UNL     1      14.617  22.258  16.283  1.00  0.00     0.078 C 
BRANCH  34  35
HETATM   35  C6  UNL     1      15.669  21.813  15.301  1.00  0.00     0.127 C 
HETATM   36  O2  UNL     1      16.709  21.381  15.742  1.00  0.00    -0.298 OA
BRANCH  35  37
HETATM   37  C5  UNL     1      15.320  21.954  13.871  1.00  0.00     0.080 C 
BRANCH  37  38
HETATM   38  C4  UNL     1      15.034  20.674  13.153  1.00  0.00     0.027 C 
BRANCH  38  39
HETATM   39  C3  UNL     1      13.579  20.388  13.018  1.00  0.00     0.123 C 
BRANCH  39  40
HETATM   40  N1  UNL     1      13.089  19.615  14.164  1.00  0.00    -0.361 N 
HETATM   41  C2  UNL     1      12.037  20.099  14.975  1.00  0.00     0.213 C 
HETATM   42  C1  UNL     1      11.591  19.248  16.127  1.00  0.00     0.117 C 
HETATM   43  O1  UNL     1      11.520  21.206  14.707  1.00  0.00    -0.274 OA
ATOM     44  H1  UNL     1      13.515  18.714  14.380  1.00  0.00     0.162 HD
ENDBRANCH  39  40
ENDBRANCH  38  39
ENDBRANCH  37  38
ENDBRANCH  35  37
ENDBRANCH  34  35
ENDBRANCH  33  34
ENDBRANCH  32  33
ENDBRANCH  31  32
ENDBRANCH  28  31
ENDBRANCH   1  27
TORSDOF 13
ENDMDL
MODEL 2
REMARK VINA RESULT: -9.013810470      2.266      2.892
REMARK  13 active torsions:
REMARK  status: ('A' for Active; 'I' for Inactive)
REMARK       I    between atoms: C2_2  and  N1_4 
REMARK    1  A    between atoms: N1_4  and  C3_6 
REMARK    2  A    between atoms: C3_6  and  C4_7 
REMARK    3  A    between atoms: C4_7  and  C5_8 
REMARK    4  A    between atoms: C5_8  and  C6_9 
REMARK    5  A    between atoms: C6_9  and  C7_11 
REMARK    6  A    between atoms: C7_11  and  C8_12 
REMARK    7  A    between atoms: C8_12  and  C9_13 
REMARK    8  A    between atoms: C9_13  and  C10_14 
REMARK    9  A    between atoms: C10_14  and  N2_15 
REMARK       I    between atoms: N2_15  and  C11_17 
REMARK   10  A    between atoms: C11_17  and  C12_19 
REMARK   11  A    between atoms: N3_24  and  C17_25 
REMARK   12  A    between atoms: C26_37  and  C27_38 
REMARK   13  A    between atoms: C27_38  and  C28_39 
ROOT
HETATM    1  C12 UNL     1      18.106  25.124  17.307  1.00  0.00     0.106 C 
HETATM    2  C13 UNL     1      17.989  24.570  15.907  1.00  0.00     0.016 C 
HETATM    3  C14 UNL     1      18.120  25.727  14.940  1.00  0.00     0.003 C 
HETATM    4  C15 UNL     1      19.568  26.136  14.959  1.00  0.00     0.030 C 
HETATM    5  C16 UNL     1      20.048  26.626  16.291  1.00  0.00     0.273 C 
HETATM    6  N3  UNL     1      20.470  25.586  17.196  1.00  0.00     0.101 N 
HETATM    7  C30 UNL     1      19.443  24.944  17.937  1.00  0.00     0.287 C 
ENDROOT
BRANCH   6   8
HETATM    8  C17 UNL     1      21.618  26.017  17.989  1.00  0.00     0.292 C 
HETATM    9  C18 UNL     1      21.912  27.444  17.646  1.00  0.00     0.044 C 
HETATM   10  C19 UNL     1      23.249  27.679  16.990  1.00  0.00     0.011 C 
HETATM   11  C20 UNL     1      24.397  26.984  17.671  1.00  0.00     0.091 C 
HETATM   12  C21 UNL     1      25.242  26.218  16.760  1.00  0.00     0.186 C 
HETATM   13  O4  UNL     1      24.875  25.964  15.638  1.00  0.00    -0.286 OA
HETATM   14  S1  UNL     1      26.838  25.646  17.299  1.00  0.00    -0.092 SA
HETATM   15  C22 UNL     1      26.718  24.234  18.448  1.00  0.00     0.092 C 
HETATM   16  C23 UNL     1      26.804  24.704  19.861  1.00  0.00     0.084 C 
HETATM   17  S2  UNL     1      25.604  23.934  20.971  1.00  0.00    -0.168 SA
HETATM   18  C24 UNL     1      23.990  23.719  20.169  1.00  0.00     0.075 C 
HETATM   19  C25 UNL     1      22.961  24.541  20.895  1.00  0.00     0.023 C 
HETATM   20  C26 UNL     1      21.634  24.650  20.229  1.00  0.00     0.067 C 
HETATM   21  C29 UNL     1      21.432  25.884  19.434  1.00  0.00     0.164 C 
HETATM   22  O6  UNL     1      21.074  26.887  20.060  1.00  0.00    -0.295 OA
BRANCH  20  23
HETATM   23  C27 UNL     1      21.229  23.405  19.474  1.00  0.00     0.111 C 
BRANCH  23  24
HETATM   24  C28 UNL     1      20.199  22.601  20.146  1.00  0.00     0.231 C 
HETATM   25  N4  UNL     1      19.233  23.164  21.016  1.00  0.00    -0.062 NA
HETATM   26  O5  UNL     1      20.159  21.361  19.949  1.00  0.00    -0.277 OA
ENDBRANCH  23  24
ENDBRANCH  20  23
ENDBRANCH   6   8
BRANCH   1  27
HETATM   27  C11 UNL     1      17.028  24.421  18.115  1.00  0.00     0.227 C 
HETATM   28  N2  UNL     1      17.141  23.062  18.437  1.00  0.00    -0.340 N 
ATOM     29  H2  UNL     1      17.983  22.611  18.079  1.00  0.00     0.167 HD
HETATM   30  O3  UNL     1      16.042  25.096  18.475  1.00  0.00    -0.273 OA
BRANCH  28  31
HETATM   31  C10 UNL     1      16.290  22.213  19.172  1.00  0.00     0.064 C 
BRANCH  31  32
HETATM   32  C9  UNL     1      14.893  21.974  18.797  1.00  0.00     0.045 C 
BRANCH  32  33
HETATM   33  C8  UNL     1      14.232  20.691  19.142  1.00  0.00     0.012 C 
BRANCH  33  34
HETATM   34  C7  UNL     1      14.861  19.549  18.323  1.00  0.00     0.078 C 
BRANCH  34  35
HETATM   35  C6  UNL     1      14.457  18.225  18.916  1.00  0.00     0.127 C 
HETATM   36  O2  UNL     1      14.769  17.219  18.322  1.00  0.00    -0.298 OA
BRANCH  35  37
HETATM   37  C5  UNL     1      13.705  18.289  20.188  1.00  0.00     0.080 C 
BRANCH  37  38
HETATM   38  C4  UNL     1      12.359  17.639  20.168  1.00  0.00     0.027 C 
BRANCH  38  39
HETATM   39  C3  UNL     1      11.480  18.140  19.077  1.00  0.00     0.123 C 
BRANCH  39  40
HETATM   40  N1  UNL     1      10.462  17.143  18.726  1.00  0.00    -0.361 N 
HETATM   41  C2  UNL     1      10.723  16.141  17.763  1.00  0.00     0.213 C 
HETATM   42  C1  UNL     1       9.632  15.157  17.462  1.00  0.00     0.117 C 
HETATM   43  O1  UNL     1      11.841  16.111  17.202  1.00  0.00    -0.274 OA
ATOM     44  H1  UNL     1       9.551  17.173  19.184  1.00  0.00     0.162 HD
ENDBRANCH  39  40
ENDBRANCH  38  39
ENDBRANCH  37  38
ENDBRANCH  35  37
ENDBRANCH  34  35
ENDBRANCH  33  34
ENDBRANCH  32  33
ENDBRANCH  31  32
ENDBRANCH  28  31
ENDBRANCH   1  27
TORSDOF 13
ENDMDL
MODEL 3
REMARK VINA RESULT: -8.964946180      0.985      1.106
REMARK  13 active torsions:
REMARK  status: ('A' for Active; 'I' for Inactive)
REMARK       I    between atoms: C2_2  and  N1_4 
REMARK    1  A    between atoms: N1_4  and  C3_6 
REMARK    2  A    between atoms: C3_6  and  C4_7 
REMARK    3  A    between atoms: C4_7  and  C5_8 
REMARK    4  A    between atoms: C5_8  and  C6_9 
REMARK    5  A    between atoms: C6_9  and  C7_11 
REMARK    6  A    between atoms: C7_11  and  C8_12 
REMARK    7  A    between atoms: C8_12  and  C9_13 
REMARK    8  A    between atoms: C9_13  and  C10_14 
REMARK    9  A    between atoms: C10_14  and  N2_15 
REMARK       I    between atoms: N2_15  and  C11_17 
REMARK   10  A    between atoms: C11_17  and  C12_19 
REMARK   11  A    between atoms: N3_24  and  C17_25 
REMARK   12  A    between atoms: C26_37  and  C27_38 
REMARK   13  A    between atoms: C27_38  and  C28_39 
ROOT
HETATM    1  C12 UNL     1      18.217  25.175  17.396  1.00  0.00     0.106 C 
HETATM    2  C13 UNL     1      18.079  24.600  16.006  1.00  0.00     0.016 C 
HETATM    3  C14 UNL     1      18.193  25.744  15.021  1.00  0.00     0.003 C 
HETATM    4  C15 UNL     1      19.641  26.156  15.012  1.00  0.00     0.030 C 
HETATM    5  C16 UNL     1      20.140  26.666  16.329  1.00  0.00     0.273 C 
HETATM    6  N3  UNL     1      20.578  25.639  17.241  1.00  0.00     0.101 N 
HETATM    7  C30 UNL     1      19.564  25.007  18.007  1.00  0.00     0.287 C 
ENDROOT
BRANCH   6   8
HETATM    8  C17 UNL     1      21.737  26.084  18.011  1.00  0.00     0.292 C 
HETATM    9  C18 UNL     1      22.033  27.502  17.631  1.00  0.00     0.044 C 
HETATM   10  C19 UNL     1      23.362  27.716  16.953  1.00  0.00     0.011 C 
HETATM   11  C20 UNL     1      24.516  27.032  17.636  1.00  0.00     0.091 C 
HETATM   12  C21 UNL     1      25.347  26.241  16.732  1.00  0.00     0.186 C 
HETATM   13  O4  UNL     1      24.965  25.963  15.621  1.00  0.00    -0.286 OA
HETATM   14  S1  UNL     1      26.947  25.676  17.266  1.00  0.00    -0.092 SA
HETATM   15  C22 UNL     1      26.836  24.292  18.447  1.00  0.00     0.092 C 
HETATM   16  C23 UNL     1      26.942  24.793  19.848  1.00  0.00     0.084 C 
HETATM   17  S2  UNL     1      25.752  24.054  20.990  1.00  0.00    -0.168 SA
HETATM   18  C24 UNL     1      24.128  23.827  20.214  1.00  0.00     0.075 C 
HETATM   19  C25 UNL     1      23.111  24.670  20.933  1.00  0.00     0.023 C 
HETATM   20  C26 UNL     1      21.776  24.768  20.281  1.00  0.00     0.067 C 
HETATM   21  C29 UNL     1      21.569  25.985  19.461  1.00  0.00     0.164 C 
HETATM   22  O6  UNL     1      21.223  27.003  20.068  1.00  0.00    -0.295 OA
BRANCH  20  23
HETATM   23  C27 UNL     1      21.357  23.509  19.560  1.00  0.00     0.111 C 
BRANCH  23  24
HETATM   24  C28 UNL     1      20.291  22.754  20.234  1.00  0.00     0.231 C 
HETATM   25  N4  UNL     1      20.034  21.387  19.968  1.00  0.00    -0.062 NA
HETATM   26  O5  UNL     1      19.572  23.331  21.086  1.00  0.00    -0.277 OA
ENDBRANCH  23  24
ENDBRANCH  20  23
ENDBRANCH   6   8
BRANCH   1  27
HETATM   27  C11 UNL     1      17.153  24.481  18.231  1.00  0.00     0.227 C 
HETATM   28  N2  UNL     1      17.384  23.213  18.781  1.00  0.00    -0.340 N 
ATOM     29  H2  UNL     1      18.298  22.817  18.564  1.00  0.00     0.167 HD
HETATM   30  O3  UNL     1      16.072  25.080  18.403  1.00  0.00    -0.273 OA
BRANCH  28  31
HETATM   31  C10 UNL     1      16.567  22.393  19.583  1.00  0.00     0.064 C 
BRANCH  31  32
HETATM   32  C9  UNL     1      15.397  21.682  19.058  1.00  0.00     0.045 C 
BRANCH  32  33
HETATM   33  C8  UNL     1      15.569  20.457  18.239  1.00  0.00     0.012 C 
BRANCH  33  34
HETATM   34  C7  UNL     1      15.012  20.698  16.824  1.00  0.00     0.078 C 
BRANCH  34  35
HETATM   35  C6  UNL     1      16.031  21.445  16.005  1.00  0.00     0.127 C 
HETATM   36  O2  UNL     1      17.201  21.229  16.221  1.00  0.00    -0.298 OA
BRANCH  35  37
HETATM   37  C5  UNL     1      15.489  22.385  15.000  1.00  0.00     0.080 C 
BRANCH  37  38
HETATM   38  C4  UNL     1      14.197  23.042  15.369  1.00  0.00     0.027 C 
BRANCH  38  39
HETATM   39  C3  UNL     1      13.106  22.783  14.391  1.00  0.00     0.123 C 
BRANCH  39  40
HETATM   40  N1  UNL     1      12.108  21.866  14.953  1.00  0.00    -0.361 N 
HETATM   41  C2  UNL     1      12.069  20.505  14.570  1.00  0.00     0.213 C 
HETATM   42  C1  UNL     1      11.020  19.631  15.191  1.00  0.00     0.117 C 
HETATM   43  O1  UNL     1      12.900  20.082  13.736  1.00  0.00    -0.274 OA
ATOM     44  H1  UNL     1      11.430  22.215  15.630  1.00  0.00     0.162 HD
ENDBRANCH  39  40
ENDBRANCH  38  39
ENDBRANCH  37  38
ENDBRANCH  35  37
ENDBRANCH  34  35
ENDBRANCH  33  34
ENDBRANCH  32  33
ENDBRANCH  31  32
ENDBRANCH  28  31
ENDBRANCH   1  27
TORSDOF 13
ENDMDL
MODEL 4
REMARK VINA RESULT: -8.926746003      1.666      2.243
REMARK  13 active torsions:
REMARK  status: ('A' for Active; 'I' for Inactive)
REMARK       I    between atoms: C2_2  and  N1_4 
REMARK    1  A    between atoms: N1_4  and  C3_6 
REMARK    2  A    between atoms: C3_6  and  C4_7 
REMARK    3  A    between atoms: C4_7  and  C5_8 
REMARK    4  A    between atoms: C5_8  and  C6_9 
REMARK    5  A    between atoms: C6_9  and  C7_11 
REMARK    6  A    between atoms: C7_11  and  C8_12 
REMARK    7  A    between atoms: C8_12  and  C9_13 
REMARK    8  A    between atoms: C9_13  and  C10_14 
REMARK    9  A    between atoms: C10_14  and  N2_15 
REMARK       I    between atoms: N2_15  and  C11_17 
REMARK   10  A    between atoms: C11_17  and  C12_19 
REMARK   11  A    between atoms: N3_24  and  C17_25 
REMARK   12  A    between atoms: C26_37  and  C27_38 
REMARK   13  A    between atoms: C27_38  and  C28_39 
ROOT
HETATM    1  C12 UNL     1      18.172  25.131  17.399  1.00  0.00     0.106 C 
HETATM    2  C13 UNL     1      18.038  24.558  16.009  1.00  0.00     0.016 C 
HETATM    3  C14 UNL     1      18.147  25.704  15.025  1.00  0.00     0.003 C 
HETATM    4  C15 UNL     1      19.592  26.124  15.018  1.00  0.00     0.030 C 
HETATM    5  C16 UNL     1      20.087  26.635  16.337  1.00  0.00     0.273 C 
HETATM    6  N3  UNL     1      20.531  25.608  17.247  1.00  0.00     0.101 N 
HETATM    7  C30 UNL     1      19.520  24.969  18.011  1.00  0.00     0.287 C 
ENDROOT
BRANCH   6   8
HETATM    8  C17 UNL     1      21.687  26.058  18.018  1.00  0.00     0.292 C 
HETATM    9  C18 UNL     1      21.973  27.479  17.644  1.00  0.00     0.044 C 
HETATM   10  C19 UNL     1      23.301  27.704  16.967  1.00  0.00     0.011 C 
HETATM   11  C20 UNL     1      24.459  27.025  17.647  1.00  0.00     0.091 C 
HETATM   12  C21 UNL     1      25.296  26.243  16.741  1.00  0.00     0.186 C 
HETATM   13  O4  UNL     1      24.916  25.966  15.628  1.00  0.00    -0.286 OA
HETATM   14  S1  UNL     1      26.899  25.687  17.272  1.00  0.00    -0.092 SA
HETATM   15  C22 UNL     1      26.797  24.297  18.449  1.00  0.00     0.092 C 
HETATM   16  C23 UNL     1      26.900  24.794  19.852  1.00  0.00     0.084 C 
HETATM   17  S2  UNL     1      25.715  24.043  20.991  1.00  0.00    -0.168 SA
HETATM   18  C24 UNL     1      24.092  23.809  20.214  1.00  0.00     0.075 C 
HETATM   19  C25 UNL     1      23.069  24.643  20.936  1.00  0.00     0.023 C 
HETATM   20  C26 UNL     1      21.734  24.735  20.284  1.00  0.00     0.067 C 
HETATM   21  C29 UNL     1      21.519  25.953  19.468  1.00  0.00     0.164 C 
HETATM   22  O6  UNL     1      21.166  26.967  20.078  1.00  0.00    -0.295 OA
BRANCH  20  23
HETATM   23  C27 UNL     1      21.323  23.475  19.559  1.00  0.00     0.111 C 
BRANCH  23  24
HETATM   24  C28 UNL     1      20.236  22.732  20.210  1.00  0.00     0.231 C 
HETATM   25  N4  UNL     1      19.967  21.368  19.935  1.00  0.00    -0.062 NA
HETATM   26  O5  UNL     1      19.507  23.315  21.050  1.00  0.00    -0.277 OA
ENDBRANCH  23  24
ENDBRANCH  20  23
ENDBRANCH   6   8
BRANCH   1  27
HETATM   27  C11 UNL     1      17.112  24.430  18.232  1.00  0.00     0.227 C 
HETATM   28  N2  UNL     1      17.308  23.121  18.694  1.00  0.00    -0.340 N 
ATOM     29  H2  UNL     1      18.196  22.703  18.416  1.00  0.00     0.167 HD
HETATM   30  O3  UNL     1      16.064  25.060  18.485  1.00  0.00    -0.273 OA
BRANCH  28  31
HETATM   31  C10 UNL     1      16.487  22.286  19.477  1.00  0.00     0.064 C 
BRANCH  31  32
HETATM   32  C9  UNL     1      15.477  21.395  18.896  1.00  0.00     0.045 C 
BRANCH  32  33
HETATM   33  C8  UNL     1      14.323  21.955  18.150  1.00  0.00     0.012 C 
BRANCH  33  34
HETATM   34  C7  UNL     1      14.628  21.943  16.641  1.00  0.00     0.078 C 
BRANCH  34  35
HETATM   35  C6  UNL     1      13.429  21.426  15.891  1.00  0.00     0.127 C 
HETATM   36  O2  UNL     1      12.879  22.175  15.117  1.00  0.00    -0.298 OA
BRANCH  35  37
HETATM   37  C5  UNL     1      13.036  20.031  16.183  1.00  0.00     0.080 C 
BRANCH  37  38
HETATM   38  C4  UNL     1      11.570  19.806  16.374  1.00  0.00     0.027 C 
BRANCH  38  39
HETATM   39  C3  UNL     1      11.214  19.396  17.760  1.00  0.00     0.123 C 
BRANCH  39  40
HETATM   40  N1  UNL     1      12.417  19.066  18.533  1.00  0.00    -0.361 N 
HETATM   41  C2  UNL     1      12.329  18.672  19.888  1.00  0.00     0.213 C 
HETATM   42  C1  UNL     1      13.604  18.349  20.609  1.00  0.00     0.117 C 
HETATM   43  O1  UNL     1      11.204  18.609  20.433  1.00  0.00    -0.274 OA
ATOM     44  H1  UNL     1      13.332  19.122  18.086  1.00  0.00     0.162 HD
ENDBRANCH  39  40
ENDBRANCH  38  39
ENDBRANCH  37  38
ENDBRANCH  35  37
ENDBRANCH  34  35
ENDBRANCH  33  34
ENDBRANCH  32  33
ENDBRANCH  31  32
ENDBRANCH  28  31
ENDBRANCH   1  27
TORSDOF 13
ENDMDL
MODEL 5
REMARK VINA RESULT: -8.896373584      1.333      2.253
REMARK  13 active torsions:
REMARK  status: ('A' for Active; 'I' for Inactive)
REMARK       I    between atoms: C2_2  and  N1_4 
REMARK    1  A    between atoms: N1_4  and  C3_6 
REMARK    2  A    between atoms: C3_6  and  C4_7 
REMARK    3  A    between atoms: C4_7  and  C5_8 
REMARK    4  A    between atoms: C5_8  and  C6_9 
REMARK    5  A    between atoms: C6_9  and  C7_11 
REMARK    6  A    between atoms: C7_11  and  C8_12 
REMARK    7  A    between atoms: C8_12  and  C9_13 
REMARK    8  A    between atoms: C9_13  and  C10_14 
REMARK    9  A    between atoms: C10_14  and  N2_15 
REMARK       I    between atoms: N2_15  and  C11_17 
REMARK   10  A    between atoms: C11_17  and  C12_19 
REMARK   11  A    between atoms: N3_24  and  C17_25 
REMARK   12  A    between atoms: C26_37  and  C27_38 
REMARK   13  A    between atoms: C27_38  and  C28_39 
ROOT
HETATM    1  C12 UNL     1      18.105  25.133  17.287  1.00  0.00     0.106 C 
HETATM    2  C13 UNL     1      17.993  24.600  15.879  1.00  0.00     0.016 C 
HETATM    3  C14 UNL     1      18.119  25.773  14.930  1.00  0.00     0.003 C 
HETATM    4  C15 UNL     1      19.564  26.190  14.958  1.00  0.00     0.030 C 
HETATM    5  C16 UNL     1      20.039  26.663  16.299  1.00  0.00     0.273 C 
HETATM    6  N3  UNL     1      20.467  25.610  17.187  1.00  0.00     0.101 N 
HETATM    7  C30 UNL     1      19.442  24.951  17.916  1.00  0.00     0.287 C 
ENDROOT
BRANCH   6   8
HETATM    8  C17 UNL     1      21.610  26.036  17.989  1.00  0.00     0.292 C 
HETATM    9  C18 UNL     1      21.909  27.464  17.654  1.00  0.00     0.044 C 
HETATM   10  C19 UNL     1      23.250  27.700  17.006  1.00  0.00     0.011 C 
HETATM   11  C20 UNL     1      24.393  26.999  17.690  1.00  0.00     0.091 C 
HETATM   12  C21 UNL     1      25.242  26.236  16.780  1.00  0.00     0.186 C 
HETATM   13  O4  UNL     1      24.881  25.988  15.654  1.00  0.00    -0.286 OA
HETATM   14  S1  UNL     1      26.834  25.659  17.325  1.00  0.00    -0.092 SA
HETATM   15  C22 UNL     1      26.705  24.242  18.466  1.00  0.00     0.092 C 
HETATM   16  C23 UNL     1      26.785  24.704  19.882  1.00  0.00     0.084 C 
HETATM   17  S2  UNL     1      25.577  23.931  20.982  1.00  0.00    -0.168 SA
HETATM   18  C24 UNL     1      23.967  23.723  20.171  1.00  0.00     0.075 C 
HETATM   19  C25 UNL     1      22.935  24.544  20.895  1.00  0.00     0.023 C 
HETATM   20  C26 UNL     1      21.612  24.657  20.221  1.00  0.00     0.067 C 
HETATM   21  C29 UNL     1      21.417  25.896  19.432  1.00  0.00     0.164 C 
HETATM   22  O6  UNL     1      21.057  26.896  20.061  1.00  0.00    -0.295 OA
BRANCH  20  23
HETATM   23  C27 UNL     1      21.209  23.417  19.459  1.00  0.00     0.111 C 
BRANCH  23  24
HETATM   24  C28 UNL     1      20.185  22.604  20.128  1.00  0.00     0.231 C 
HETATM   25  N4  UNL     1      19.214  23.158  20.999  1.00  0.00    -0.062 NA
HETATM   26  O5  UNL     1      20.153  21.365  19.928  1.00  0.00    -0.277 OA
ENDBRANCH  23  24
ENDBRANCH  20  23
ENDBRANCH   6   8
BRANCH   1  27
HETATM   27  C11 UNL     1      17.030  24.410  18.083  1.00  0.00     0.227 C 
HETATM   28  N2  UNL     1      17.153  23.048  18.386  1.00  0.00    -0.340 N 
ATOM     29  H2  UNL     1      17.999  22.608  18.024  1.00  0.00     0.167 HD
HETATM   30  O3  UNL     1      16.038  25.073  18.450  1.00  0.00    -0.273 OA
BRANCH  28  31
HETATM   31  C10 UNL     1      16.306  22.183  19.106  1.00  0.00     0.064 C 
BRANCH  31  32
HETATM   32  C9  UNL     1      16.082  20.787  18.718  1.00  0.00     0.045 C 
BRANCH  32  33
HETATM   33  C8  UNL     1      14.804  20.111  19.052  1.00  0.00     0.012 C 
BRANCH  33  34
HETATM   34  C7  UNL     1      14.739  18.747  18.341  1.00  0.00     0.078 C 
BRANCH  34  35
HETATM   35  C6  UNL     1      13.304  18.300  18.245  1.00  0.00     0.127 C 
HETATM   36  O2  UNL     1      13.088  17.141  17.977  1.00  0.00    -0.298 OA
BRANCH  35  37
HETATM   37  C5  UNL     1      12.284  19.342  18.491  1.00  0.00     0.080 C 
BRANCH  37  38
HETATM   38  C4  UNL     1      11.308  19.558  17.379  1.00  0.00     0.027 C 
BRANCH  38  39
HETATM   39  C3  UNL     1      11.957  19.928  16.092  1.00  0.00     0.123 C 
BRANCH  39  40
HETATM   40  N1  UNL     1      12.538  21.274  16.167  1.00  0.00    -0.361 N 
HETATM   41  C2  UNL     1      13.862  21.523  15.739  1.00  0.00     0.213 C 
HETATM   42  C1  UNL     1      14.382  22.925  15.845  1.00  0.00     0.117 C 
HETATM   43  O1  UNL     1      14.547  20.576  15.292  1.00  0.00    -0.274 OA
ATOM     44  H1  UNL     1      11.977  22.042  16.534  1.00  0.00     0.162 HD
ENDBRANCH  39  40
ENDBRANCH  38  39
ENDBRANCH  37  38
ENDBRANCH  35  37
ENDBRANCH  34  35
ENDBRANCH  33  34
ENDBRANCH  32  33
ENDBRANCH  31  32
ENDBRANCH  28  31
ENDBRANCH   1  27
TORSDOF 13
ENDMDL
