MODEL 1
REMARK VINA RESULT: -8.856298197      0.000      0.000
REMARK  13 active torsions:
REMARK  status: ('A' for Active; 'I' for Inactive)
REMARK    1  A    between atoms: C2_2  and  N1_3 
REMARK    2  A    between atoms: C6_7  and  C7_8 
REMARK       I    between atoms: C7_8  and  N2_10 
REMARK    3  A    between atoms: N3_13  and  C10_14 
REMARK    4  A    between atoms: C10_14  and  C11_15 
REMARK    5  A    between atoms: C11_15  and  C12_16 
REMARK    6  A    between atoms: C12_16  and  C13_17 
REMARK    7  A    between atoms: C13_17  and  C14_18 
REMARK    8  A    between atoms: C14_18  and  C15_19 
REMARK    9  A    between atoms: C15_19  and  S1_20 
REMARK   10  A    between atoms: S1_20  and  C16_21 
REMARK   11  A    between atoms: C20_27  and  C21_28 
REMARK   12  A    between atoms: C22_32  and  C23_33 
REMARK   13  A    between atoms: C23_33  and  N6_34 
REMARK       I    between atoms: N6_34  and  C24_36 
ROOT
HETATM    1  C16 UNL     1      16.867  23.462  15.706  1.00  0.00     0.145 A 
HETATM    2  N4  UNL     1      15.675  24.058  15.637  1.00  0.00    -0.335 N 
ATOM      3  H4  UNL     1      15.488  25.026  15.896  1.00  0.00     0.168 HD
HETATM    4  C17 UNL     1      14.762  23.196  15.178  1.00  0.00     0.061 A 
HETATM    5  C18 UNL     1      13.390  23.298  14.920  1.00  0.00     0.033 A 
HETATM    6  C19 UNL     1      12.723  22.207  14.445  1.00  0.00     0.017 A 
HETATM    7  C20 UNL     1      13.393  21.026  14.223  1.00  0.00     0.012 A 
HETATM    8  C28 UNL     1      14.765  20.916  14.480  1.00  0.00     0.047 A 
HETATM    9  C29 UNL     1      15.427  22.012  14.957  1.00  0.00     0.062 A 
HETATM   10  N9  UNL     1      16.725  22.201  15.289  1.00  0.00    -0.335 N 
ATOM     11  H9  UNL     1      17.465  21.503  15.231  1.00  0.00     0.168 HD
ENDROOT
BRANCH   1  12
HETATM   12  S1  UNL     1      18.418  24.231  16.268  1.00  0.00    -0.094 SA
BRANCH  12  13
HETATM   13  C15 UNL     1      18.694  25.770  15.394  1.00  0.00     0.082 C 
BRANCH  13  14
HETATM   14  C14 UNL     1      19.913  26.518  15.846  1.00  0.00     0.010 C 
BRANCH  14  15
HETATM   15  C13 UNL     1      20.135  26.509  17.307  1.00  0.00     0.001 C 
BRANCH  15  16
HETATM   16  C12 UNL     1      21.433  26.018  17.811  1.00  0.00     0.005 C 
BRANCH  16  17
HETATM   17  C11 UNL     1      21.391  24.850  18.730  1.00  0.00     0.044 C 
BRANCH  17  18
HETATM   18  C10 UNL     1      20.226  24.996  19.709  1.00  0.00     0.063 C 
BRANCH  18  19
HETATM   19  N3  UNL     1      19.395  23.892  19.840  1.00  0.00    -0.371 N 
HETATM   20  C9  UNL     1      18.120  23.993  20.418  1.00  0.00     0.147 C 
HETATM   21  C8  UNL     1      17.502  22.603  20.658  1.00  0.00     0.146 C 
HETATM   22  N2  UNL     1      17.681  21.849  19.449  1.00  0.00    -0.345 N 
HETATM   23  C7  UNL     1      16.612  21.137  18.849  1.00  0.00     0.226 C 
HETATM   24  C31 UNL     1      18.975  21.797  18.796  1.00  0.00     0.170 C 
HETATM   25  O1  UNL     1      16.834  20.457  17.782  1.00  0.00    -0.273 OA
HETATM   26  C30 UNL     1      19.944  22.626  19.579  1.00  0.00     0.083 C 
BRANCH  23  27
HETATM   27  C6  UNL     1      15.234  21.124  19.377  1.00  0.00     0.106 C 
HETATM   28  C5  UNL     1      14.323  21.791  18.366  1.00  0.00     0.017 C 
HETATM   29  C4  UNL     1      13.260  20.827  17.876  1.00  0.00     0.031 C 
HETATM   30  C3  UNL     1      13.787  19.506  17.436  1.00  0.00     0.272 C 
HETATM   31  N1  UNL     1      14.862  19.031  18.272  1.00  0.00     0.088 N 
HETATM   32  C32 UNL     1      14.781  19.696  19.553  1.00  0.00     0.286 C 
BRANCH  31  33
HETATM   33  C2  UNL     1      14.929  17.602  18.369  1.00  0.00     0.268 C 
HETATM   34  C1  UNL     1      13.532  17.035  18.337  1.00  0.00     0.037 C 
ENDBRANCH  31  33
ENDBRANCH  23  27
ENDBRANCH  18  19
ENDBRANCH  17  18
ENDBRANCH  16  17
ENDBRANCH  15  16
ENDBRANCH  14  15
ENDBRANCH  13  14
ENDBRANCH  12  13
ENDBRANCH   1  12
BRANCH   7  35
HETATM   35  C21 UNL     1      12.695  19.848  13.700  1.00  0.00     0.139 C 
HETATM   36  N5  UNL     1      13.219  19.147  12.724  1.00  0.00    -0.249 N 
HETATM   37  O2  UNL     1      12.618  18.049  12.200  1.00  0.00    -0.264 OA
ATOM     38  H5  UNL     1      14.119  19.441  12.341  1.00  0.00     0.196 HD
HETATM   39  C22 UNL     1      11.232  17.786  12.302  1.00  0.00     0.237 C 
HETATM   40  C26 UNL     1      10.792  18.263  13.633  1.00  0.00     0.112 C 
HETATM   41  N7  UNL     1       9.855  17.653  14.264  1.00  0.00    -0.386 N 
HETATM   42  N8  UNL     1      11.444  19.428  14.199  1.00  0.00    -0.323 N 
ATOM     43  H72 UNL     1       9.397  16.833  13.866  1.00  0.00     0.157 HD
ATOM     44  H71 UNL     1       9.553  17.982  15.180  1.00  0.00     0.157 HD
HETATM   45  C27 UNL     1      10.766  20.127  15.250  1.00  0.00     0.159 C 
BRANCH  39  46
HETATM   46  C23 UNL     1      11.056  16.290  12.153  1.00  0.00     0.165 C 
BRANCH  46  47
HETATM   47  N6  UNL     1      12.134  15.717  11.381  1.00  0.00    -0.358 N 
HETATM   48  C24 UNL     1      12.061  15.493   9.990  1.00  0.00     0.213 C 
HETATM   49  C25 UNL     1      13.191  14.904   9.242  1.00  0.00     0.117 C 
HETATM   50  O3  UNL     1      10.981  15.819   9.407  1.00  0.00    -0.274 OA
ATOM     51  H6  UNL     1      12.994  15.462  11.868  1.00  0.00     0.162 HD
ENDBRANCH  46  47
ENDBRANCH  39  46
ENDBRANCH   7  35
TORSDOF 13
ENDMDL
MODEL 2
REMARK VINA RESULT: -8.787326515      3.727      9.190
REMARK  13 active torsions:
REMARK  status: ('A' for Active; 'I' for Inactive)
REMARK    1  A    between atoms: C2_2  and  N1_3 
REMARK    2  A    between atoms: C6_7  and  C7_8 
REMARK       I    between atoms: C7_8  and  N2_10 
REMARK    3  A    between atoms: N3_13  and  C10_14 
REMARK    4  A    between atoms: C10_14  and  C11_15 
REMARK    5  A    between atoms: C11_15  and  C12_16 
REMARK    6  A    between atoms: C12_16  and  C13_17 
REMARK    7  A    between atoms: C13_17  and  C14_18 
REMARK    8  A    between atoms: C14_18  and  C15_19 
REMARK    9  A    between atoms: C15_19  and  S1_20 
REMARK   10  A    between atoms: S1_20  and  C16_21 
REMARK   11  A    between atoms: C20_27  and  C21_28 
REMARK   12  A    between atoms: C22_32  and  C23_33 
REMARK   13  A    between atoms: C23_33  and  N6_34 
REMARK       I    between atoms: N6_34  and  C24_36 
ROOT
HETATM    1  C16 UNL     1      12.923  21.434  14.892  1.00  0.00     0.145 A 
HETATM    2  N4  UNL     1      13.010  22.048  16.074  1.00  0.00    -0.335 N 
ATOM      3  H4  UNL     1      12.280  22.055  16.787  1.00  0.00     0.168 HD
HETATM    4  C17 UNL     1      14.197  22.655  16.185  1.00  0.00     0.061 A 
HETATM    5  C18 UNL     1      14.791  23.422  17.194  1.00  0.00     0.033 A 
HETATM    6  C19 UNL     1      16.049  23.913  16.996  1.00  0.00     0.017 A 
HETATM    7  C20 UNL     1      16.719  23.655  15.822  1.00  0.00     0.012 A 
HETATM    8  C28 UNL     1      16.129  22.890  14.809  1.00  0.00     0.047 A 
HETATM    9  C29 UNL     1      14.870  22.401  15.013  1.00  0.00     0.062 A 
HETATM   10  N9  UNL     1      14.064  21.646  14.231  1.00  0.00    -0.335 N 
ATOM     11  H9  UNL     1      14.289  21.298  13.299  1.00  0.00     0.168 HD
ENDROOT
BRANCH   1  12
HETATM   12  S1  UNL     1      11.501  20.473  14.287  1.00  0.00    -0.094 SA
BRANCH  12  13
HETATM   13  C15 UNL     1      11.140  19.129  15.414  1.00  0.00     0.082 C 
BRANCH  13  14
HETATM   14  C14 UNL     1      10.430  19.555  16.665  1.00  0.00     0.010 C 
BRANCH  14  15
HETATM   15  C13 UNL     1      11.086  19.133  17.921  1.00  0.00     0.001 C 
BRANCH  15  16
HETATM   16  C12 UNL     1      11.414  17.704  18.089  1.00  0.00     0.005 C 
BRANCH  16  17
HETATM   17  C11 UNL     1      12.594  17.388  18.938  1.00  0.00     0.044 C 
BRANCH  17  18
HETATM   18  C10 UNL     1      13.883  17.614  18.148  1.00  0.00     0.063 C 
BRANCH  18  19
HETATM   19  N3  UNL     1      14.541  18.814  18.381  1.00  0.00    -0.371 N 
HETATM   20  C9  UNL     1      14.608  19.381  19.663  1.00  0.00     0.147 C 
HETATM   21  C8  UNL     1      15.180  20.811  19.613  1.00  0.00     0.146 C 
HETATM   22  N2  UNL     1      16.355  20.765  18.789  1.00  0.00    -0.345 N 
HETATM   23  C7  UNL     1      17.581  21.344  19.205  1.00  0.00     0.226 C 
HETATM   24  C31 UNL     1      16.322  20.115  17.493  1.00  0.00     0.170 C 
HETATM   25  O1  UNL     1      18.594  21.297  18.416  1.00  0.00    -0.273 OA
HETATM   26  C30 UNL     1      14.951  19.562  17.265  1.00  0.00     0.083 C 
BRANCH  23  27
HETATM   27  C6  UNL     1      17.776  22.008  20.508  1.00  0.00     0.106 C 
HETATM   28  C5  UNL     1      18.932  21.337  21.223  1.00  0.00     0.017 C 
HETATM   29  C4  UNL     1      20.052  22.325  21.487  1.00  0.00     0.031 C 
HETATM   30  C3  UNL     1      20.458  23.122  20.297  1.00  0.00     0.272 C 
HETATM   31  N1  UNL     1      19.335  23.506  19.477  1.00  0.00     0.088 N 
HETATM   32  C32 UNL     1      18.135  23.455  20.281  1.00  0.00     0.286 C 
BRANCH  31  33
HETATM   33  C2  UNL     1      19.519  24.755  18.796  1.00  0.00     0.268 C 
HETATM   34  C1  UNL     1      20.773  25.418  19.304  1.00  0.00     0.037 C 
ENDBRANCH  31  33
ENDBRANCH  23  27
ENDBRANCH  18  19
ENDBRANCH  17  18
ENDBRANCH  16  17
ENDBRANCH  15  16
ENDBRANCH  14  15
ENDBRANCH  13  14
ENDBRANCH  12  13
ENDBRANCH   1  12
BRANCH   7  35
HETATM   35  C21 UNL     1      18.075  24.164  15.599  1.00  0.00     0.139 C 
HETATM   36  N5  UNL     1      19.113  23.386  15.790  1.00  0.00    -0.249 N 
HETATM   37  O2  UNL     1      20.391  23.803  15.599  1.00  0.00    -0.264 OA
ATOM     38  H5  UNL     1      18.954  22.425  16.095  1.00  0.00     0.196 HD
HETATM   39  C22 UNL     1      20.787  25.161  15.615  1.00  0.00     0.237 C 
HETATM   40  C26 UNL     1      19.691  25.944  15.001  1.00  0.00     0.112 C 
HETATM   41  N7  UNL     1      19.952  26.998  14.316  1.00  0.00    -0.386 N 
HETATM   42  N8  UNL     1      18.327  25.491  15.192  1.00  0.00    -0.323 N 
ATOM     43  H72 UNL     1      20.912  27.317  14.181  1.00  0.00     0.157 HD
ATOM     44  H71 UNL     1      19.197  27.537  13.893  1.00  0.00     0.157 HD
HETATM   45  C27 UNL     1      17.273  26.437  14.973  1.00  0.00     0.159 C 
BRANCH  39  46
HETATM   46  C23 UNL     1      22.066  25.255  14.812  1.00  0.00     0.165 C 
BRANCH  46  47
HETATM   47  N6  UNL     1      23.101  25.924  15.566  1.00  0.00    -0.358 N 
HETATM   48  C24 UNL     1      23.413  27.292  15.415  1.00  0.00     0.213 C 
HETATM   49  C25 UNL     1      24.482  27.932  16.209  1.00  0.00     0.117 C 
HETATM   50  O3  UNL     1      22.736  27.950  14.566  1.00  0.00    -0.274 OA
ATOM     51  H6  UNL     1      23.635  25.378  16.243  1.00  0.00     0.162 HD
ENDBRANCH  46  47
ENDBRANCH  39  46
ENDBRANCH   7  35
TORSDOF 13
ENDMDL
MODEL 3
REMARK VINA RESULT: -8.694213169      4.494      8.593
REMARK  13 active torsions:
REMARK  status: ('A' for Active; 'I' for Inactive)
REMARK    1  A    between atoms: C2_2  and  N1_3 
REMARK    2  A    between atoms: C6_7  and  C7_8 
REMARK       I    between atoms: C7_8  and  N2_10 
REMARK    3  A    between atoms: N3_13  and  C10_14 
REMARK    4  A    between atoms: C10_14  and  C11_15 
REMARK    5  A    between atoms: C11_15  and  C12_16 
REMARK    6  A    between atoms: C12_16  and  C13_17 
REMARK    7  A    between atoms: C13_17  and  C14_18 
REMARK    8  A    between atoms: C14_18  and  C15_19 
REMARK    9  A    between atoms: C15_19  and  S1_20 
REMARK   10  A    between atoms: S1_20  and  C16_21 
REMARK   11  A    between atoms: C20_27  and  C21_28 
REMARK   12  A    between atoms: C22_32  and  C23_33 
REMARK   13  A    between atoms: C23_33  and  N6_34 
REMARK       I    between atoms: N6_34  and  C24_36 
ROOT
HETATM    1  C16 UNL     1      22.822  23.888  20.173  1.00  0.00     0.145 A 
HETATM    2  N4  UNL     1      21.994  24.592  20.948  1.00  0.00    -0.335 N 
ATOM      3  H4  UNL     1      22.284  25.284  21.638  1.00  0.00     0.168 HD
HETATM    4  C17 UNL     1      20.728  24.255  20.683  1.00  0.00     0.061 A 
HETATM    5  C18 UNL     1      19.495  24.677  21.195  1.00  0.00     0.033 A 
HETATM    6  C19 UNL     1      18.350  24.122  20.702  1.00  0.00     0.017 A 
HETATM    7  C20 UNL     1      18.410  23.164  19.717  1.00  0.00     0.012 A 
HETATM    8  C28 UNL     1      19.639  22.737  19.201  1.00  0.00     0.047 A 
HETATM    9  C29 UNL     1      20.782  23.295  19.698  1.00  0.00     0.062 A 
HETATM   10  N9  UNL     1      22.085  23.086  19.400  1.00  0.00    -0.335 N 
ATOM     11  H9  UNL     1      22.443  22.430  18.706  1.00  0.00     0.168 HD
ENDROOT
BRANCH   1  12
HETATM   12  S1  UNL     1      24.639  24.001  20.168  1.00  0.00    -0.094 SA
BRANCH  12  13
HETATM   13  C15 UNL     1      25.182  25.249  21.332  1.00  0.00     0.082 C 
BRANCH  13  14
HETATM   14  C14 UNL     1      26.665  25.270  21.556  1.00  0.00     0.010 C 
BRANCH  14  15
HETATM   15  C13 UNL     1      27.422  24.275  20.767  1.00  0.00     0.001 C 
BRANCH  15  16
HETATM   16  C12 UNL     1      28.427  24.767  19.806  1.00  0.00     0.005 C 
BRANCH  16  17
HETATM   17  C11 UNL     1      27.938  25.092  18.439  1.00  0.00     0.044 C 
BRANCH  17  18
HETATM   18  C10 UNL     1      27.359  26.507  18.413  1.00  0.00     0.063 C 
BRANCH  18  19
HETATM   19  N3  UNL     1      26.121  26.651  17.804  1.00  0.00    -0.371 N 
HETATM   20  C9  UNL     1      25.740  25.856  16.711  1.00  0.00     0.147 C 
HETATM   21  C8  UNL     1      24.432  26.366  16.076  1.00  0.00     0.146 C 
HETATM   22  N2  UNL     1      23.506  26.598  17.149  1.00  0.00    -0.345 N 
HETATM   23  C7  UNL     1      22.179  26.101  17.109  1.00  0.00     0.226 C 
HETATM   24  C31 UNL     1      23.908  27.353  18.321  1.00  0.00     0.170 C 
HETATM   25  O1  UNL     1      21.384  26.361  18.085  1.00  0.00    -0.273 OA
HETATM   26  C30 UNL     1      25.339  27.761  18.164  1.00  0.00     0.083 C 
BRANCH  23  27
HETATM   27  C6  UNL     1      21.638  25.289  16.002  1.00  0.00     0.106 C 
HETATM   28  C5  UNL     1      20.261  24.794  16.396  1.00  0.00     0.017 C 
HETATM   29  C4  UNL     1      19.205  25.307  15.435  1.00  0.00     0.031 C 
HETATM   30  C3  UNL     1      19.271  26.772  15.180  1.00  0.00     0.272 C 
HETATM   31  N1  UNL     1      20.624  27.260  15.093  1.00  0.00     0.088 N 
HETATM   32  C32 UNL     1      21.497  26.153  14.774  1.00  0.00     0.286 C 
BRANCH  31  33
HETATM   33  C2  UNL     1      20.776  28.384  14.215  1.00  0.00     0.268 C 
HETATM   34  C1  UNL     1      22.220  28.496  13.796  1.00  0.00     0.037 C 
ENDBRANCH  31  33
ENDBRANCH  23  27
ENDBRANCH  18  19
ENDBRANCH  17  18
ENDBRANCH  16  17
ENDBRANCH  15  16
ENDBRANCH  14  15
ENDBRANCH  13  14
ENDBRANCH  12  13
ENDBRANCH   1  12
BRANCH   7  35
HETATM   35  C21 UNL     1      17.188  22.568  19.167  1.00  0.00     0.139 C 
HETATM   36  N5  UNL     1      16.893  21.316  19.419  1.00  0.00    -0.249 N 
HETATM   37  O2  UNL     1      15.776  20.712  18.937  1.00  0.00    -0.264 OA
ATOM     38  H5  UNL     1      17.529  20.771  20.002  1.00  0.00     0.196 HD
HETATM   39  C22 UNL     1      15.062  21.166  17.804  1.00  0.00     0.237 C 
HETATM   40  C26 UNL     1      15.112  22.646  17.819  1.00  0.00     0.112 C 
HETATM   41  N7  UNL     1      14.123  23.333  17.373  1.00  0.00    -0.386 N 
HETATM   42  N8  UNL     1      16.299  23.291  18.346  1.00  0.00    -0.323 N 
ATOM     43  H72 UNL     1      13.289  22.879  17.002  1.00  0.00     0.157 HD
ATOM     44  H71 UNL     1      14.159  24.352  17.384  1.00  0.00     0.157 HD
HETATM   45  C27 UNL     1      16.529  24.659  17.987  1.00  0.00     0.159 C 
BRANCH  39  46
HETATM   46  C23 UNL     1      13.646  20.649  17.940  1.00  0.00     0.165 C 
BRANCH  46  47
HETATM   47  N6  UNL     1      13.519  19.789  19.094  1.00  0.00    -0.358 N 
HETATM   48  C24 UNL     1      12.337  19.087  19.415  1.00  0.00     0.213 C 
HETATM   49  C25 UNL     1      12.255  18.219  20.607  1.00  0.00     0.117 C 
HETATM   50  O3  UNL     1      11.347  19.234  18.634  1.00  0.00    -0.274 OA
ATOM     51  H6  UNL     1      14.326  19.685  19.710  1.00  0.00     0.162 HD
ENDBRANCH  46  47
ENDBRANCH  39  46
ENDBRANCH   7  35
TORSDOF 13
ENDMDL
MODEL 4
REMARK VINA RESULT: -8.658544519      3.288      7.013
REMARK  13 active torsions:
REMARK  status: ('A' for Active; 'I' for Inactive)
REMARK    1  A    between atoms: C2_2  and  N1_3 
REMARK    2  A    between atoms: C6_7  and  C7_8 
REMARK       I    between atoms: C7_8  and  N2_10 
REMARK    3  A    between atoms: N3_13  and  C10_14 
REMARK    4  A    between atoms: C10_14  and  C11_15 
REMARK    5  A    between atoms: C11_15  and  C12_16 
REMARK    6  A    between atoms: C12_16  and  C13_17 
REMARK    7  A    between atoms: C13_17  and  C14_18 
REMARK    8  A    between atoms: C14_18  and  C15_19 
REMARK    9  A    between atoms: C15_19  and  S1_20 
REMARK   10  A    between atoms: S1_20  and  C16_21 
REMARK   11  A    between atoms: C20_27  and  C21_28 
REMARK   12  A    between atoms: C22_32  and  C23_33 
REMARK   13  A    between atoms: C23_33  and  N6_34 
REMARK       I    between atoms: N6_34  and  C24_36 
ROOT
HETATM    1  C16 UNL     1      19.953  23.725  20.203  1.00  0.00     0.145 A 
HETATM    2  N4  UNL     1      19.140  24.672  19.728  1.00  0.00    -0.335 N 
ATOM      3  H4  UNL     1      19.339  25.672  19.735  1.00  0.00     0.168 HD
HETATM    4  C17 UNL     1      18.027  24.114  19.243  1.00  0.00     0.061 A 
HETATM    5  C18 UNL     1      16.874  24.636  18.644  1.00  0.00     0.033 A 
HETATM    6  C19 UNL     1      15.888  23.778  18.249  1.00  0.00     0.017 A 
HETATM    7  C20 UNL     1      16.030  22.423  18.438  1.00  0.00     0.012 A 
HETATM    8  C28 UNL     1      17.179  21.895  19.037  1.00  0.00     0.047 A 
HETATM    9  C29 UNL     1      18.162  22.758  19.431  1.00  0.00     0.062 A 
HETATM   10  N9  UNL     1      19.359  22.543  20.024  1.00  0.00    -0.335 N 
ATOM     11  H9  UNL     1      19.742  21.635  20.288  1.00  0.00     0.168 HD
ENDROOT
BRANCH   1  12
HETATM   12  S1  UNL     1      21.587  23.997  20.958  1.00  0.00    -0.094 SA
BRANCH  12  13
HETATM   13  C15 UNL     1      22.881  23.501  19.824  1.00  0.00     0.082 C 
BRANCH  13  14
HETATM   14  C14 UNL     1      24.266  23.824  20.299  1.00  0.00     0.010 C 
BRANCH  14  15
HETATM   15  C13 UNL     1      25.345  23.105  19.588  1.00  0.00     0.001 C 
BRANCH  15  16
HETATM   16  C12 UNL     1      26.513  23.881  19.129  1.00  0.00     0.005 C 
BRANCH  16  17
HETATM   17  C11 UNL     1      26.576  24.191  17.676  1.00  0.00     0.044 C 
BRANCH  17  18
HETATM   18  C10 UNL     1      26.715  25.699  17.468  1.00  0.00     0.063 C 
BRANCH  18  19
HETATM   19  N3  UNL     1      25.532  26.426  17.450  1.00  0.00    -0.371 N 
HETATM   20  C9  UNL     1      24.835  26.670  16.257  1.00  0.00     0.147 C 
HETATM   21  C8  UNL     1      23.697  27.687  16.472  1.00  0.00     0.146 C 
HETATM   22  N2  UNL     1      22.982  27.275  17.647  1.00  0.00    -0.345 N 
HETATM   23  C7  UNL     1      21.568  27.172  17.662  1.00  0.00     0.226 C 
HETATM   24  C31 UNL     1      23.694  26.945  18.866  1.00  0.00     0.170 C 
HETATM   25  O1  UNL     1      20.977  26.825  18.749  1.00  0.00    -0.273 OA
HETATM   26  C30 UNL     1      25.162  27.101  18.625  1.00  0.00     0.083 C 
BRANCH  23  27
HETATM   27  C6  UNL     1      20.712  27.442  16.490  1.00  0.00     0.106 C 
HETATM   28  C5  UNL     1      21.601  27.644  15.280  1.00  0.00     0.017 C 
HETATM   29  C4  UNL     1      21.308  26.605  14.213  1.00  0.00     0.031 C 
HETATM   30  C3  UNL     1      21.280  25.205  14.716  1.00  0.00     0.272 C 
HETATM   31  N1  UNL     1      20.671  25.094  16.017  1.00  0.00     0.088 N 
HETATM   32  C32 UNL     1      19.827  26.247  16.234  1.00  0.00     0.286 C 
BRANCH  31  33
HETATM   33  C2  UNL     1      20.003  23.843  16.237  1.00  0.00     0.268 C 
HETATM   34  C1  UNL     1      18.623  23.904  15.633  1.00  0.00     0.037 C 
ENDBRANCH  31  33
ENDBRANCH  23  27
ENDBRANCH  18  19
ENDBRANCH  17  18
ENDBRANCH  16  17
ENDBRANCH  15  16
ENDBRANCH  14  15
ENDBRANCH  13  14
ENDBRANCH  12  13
ENDBRANCH   1  12
BRANCH   7  35
HETATM   35  C21 UNL     1      14.986  21.488  18.007  1.00  0.00     0.139 C 
HETATM   36  N5  UNL     1      14.093  21.054  18.863  1.00  0.00    -0.249 N 
HETATM   37  O2  UNL     1      13.105  20.188  18.521  1.00  0.00    -0.264 OA
ATOM     38  H5  UNL     1      14.141  21.383  19.828  1.00  0.00     0.196 HD
HETATM   39  C22 UNL     1      13.163  19.331  17.397  1.00  0.00     0.237 C 
HETATM   40  C26 UNL     1      13.858  20.070  16.319  1.00  0.00     0.112 C 
HETATM   41  N7  UNL     1      13.535  19.880  15.090  1.00  0.00    -0.386 N 
HETATM   42  N8  UNL     1      14.904  21.005  16.684  1.00  0.00    -0.323 N 
ATOM     43  H72 UNL     1      12.800  19.222  14.833  1.00  0.00     0.157 HD
ATOM     44  H71 UNL     1      14.014  20.389  14.348  1.00  0.00     0.157 HD
HETATM   45  C27 UNL     1      15.837  21.393  15.669  1.00  0.00     0.159 C 
BRANCH  39  46
HETATM   46  C23 UNL     1      11.735  18.998  17.023  1.00  0.00     0.165 C 
BRANCH  46  47
HETATM   47  N6  UNL     1      10.991  20.195  16.709  1.00  0.00    -0.358 N 
HETATM   48  C24 UNL     1       9.914  20.224  15.797  1.00  0.00     0.213 C 
HETATM   49  C25 UNL     1       9.182  21.474  15.507  1.00  0.00     0.117 C 
HETATM   50  O3  UNL     1       9.602  19.130  15.234  1.00  0.00    -0.274 OA
ATOM     51  H6  UNL     1      11.257  21.065  17.171  1.00  0.00     0.162 HD
ENDBRANCH  46  47
ENDBRANCH  39  46
ENDBRANCH   7  35
TORSDOF 13
ENDMDL
MODEL 5
REMARK VINA RESULT: -8.640088831      1.093      1.468
REMARK  13 active torsions:
REMARK  status: ('A' for Active; 'I' for Inactive)
REMARK    1  A    between atoms: C2_2  and  N1_3 
REMARK    2  A    between atoms: C6_7  and  C7_8 
REMARK       I    between atoms: C7_8  and  N2_10 
REMARK    3  A    between atoms: N3_13  and  C10_14 
REMARK    4  A    between atoms: C10_14  and  C11_15 
REMARK    5  A    between atoms: C11_15  and  C12_16 
REMARK    6  A    between atoms: C12_16  and  C13_17 
REMARK    7  A    between atoms: C13_17  and  C14_18 
REMARK    8  A    between atoms: C14_18  and  C15_19 
REMARK    9  A    between atoms: C15_19  and  S1_20 
REMARK   10  A    between atoms: S1_20  and  C16_21 
REMARK   11  A    between atoms: C20_27  and  C21_28 
REMARK   12  A    between atoms: C22_32  and  C23_33 
REMARK   13  A    between atoms: C23_33  and  N6_34 
REMARK       I    between atoms: N6_34  and  C24_36 
ROOT
HETATM    1  C16 UNL     1      16.931  23.480  15.605  1.00  0.00     0.145 A 
HETATM    2  N4  UNL     1      15.732  24.066  15.590  1.00  0.00    -0.335 N 
ATOM      3  H4  UNL     1      15.545  25.026  15.878  1.00  0.00     0.168 HD
HETATM    4  C17 UNL     1      14.812  23.205  15.143  1.00  0.00     0.061 A 
HETATM    5  C18 UNL     1      13.431  23.300  14.934  1.00  0.00     0.033 A 
HETATM    6  C19 UNL     1      12.759  22.213  14.455  1.00  0.00     0.017 A 
HETATM    7  C20 UNL     1      13.432  21.044  14.184  1.00  0.00     0.012 A 
HETATM    8  C28 UNL     1      14.812  20.943  14.391  1.00  0.00     0.047 A 
HETATM    9  C29 UNL     1      15.480  22.034  14.870  1.00  0.00     0.062 A 
HETATM   10  N9  UNL     1      16.786  22.229  15.163  1.00  0.00    -0.335 N 
ATOM     11  H9  UNL     1      17.531  21.539  15.063  1.00  0.00     0.168 HD
ENDROOT
BRANCH   1  12
HETATM   12  S1  UNL     1      18.493  24.252  16.131  1.00  0.00    -0.094 SA
BRANCH  12  13
HETATM   13  C15 UNL     1      18.647  25.885  15.410  1.00  0.00     0.082 C 
BRANCH  13  14
HETATM   14  C14 UNL     1      19.982  26.529  15.639  1.00  0.00     0.010 C 
BRANCH  14  15
HETATM   15  C13 UNL     1      20.941  25.705  16.406  1.00  0.00     0.001 C 
BRANCH  15  16
HETATM   16  C12 UNL     1      21.105  25.987  17.845  1.00  0.00     0.005 C 
BRANCH  16  17
HETATM   17  C11 UNL     1      21.218  24.808  18.745  1.00  0.00     0.044 C 
BRANCH  17  18
HETATM   18  C10 UNL     1      20.130  24.862  19.817  1.00  0.00     0.063 C 
BRANCH  18  19
HETATM   19  N3  UNL     1      19.285  23.763  19.888  1.00  0.00    -0.371 N 
HETATM   20  C9  UNL     1      18.012  23.847  20.473  1.00  0.00     0.147 C 
HETATM   21  C8  UNL     1      17.378  22.452  20.637  1.00  0.00     0.146 C 
HETATM   22  N2  UNL     1      17.548  21.764  19.388  1.00  0.00    -0.345 N 
HETATM   23  C7  UNL     1      16.470  21.098  18.752  1.00  0.00     0.226 C 
HETATM   24  C31 UNL     1      18.841  21.732  18.733  1.00  0.00     0.170 C 
HETATM   25  O1  UNL     1      16.684  20.474  17.648  1.00  0.00    -0.273 OA
HETATM   26  C30 UNL     1      19.820  22.506  19.559  1.00  0.00     0.083 C 
BRANCH  23  27
HETATM   27  C6  UNL     1      15.092  21.072  19.280  1.00  0.00     0.106 C 
HETATM   28  C5  UNL     1      14.171  21.701  18.254  1.00  0.00     0.017 C 
HETATM   29  C4  UNL     1      13.125  20.707  17.785  1.00  0.00     0.031 C 
HETATM   30  C3  UNL     1      13.676  19.387  17.374  1.00  0.00     0.272 C 
HETATM   31  N1  UNL     1      14.758  18.950  18.220  1.00  0.00     0.088 N 
HETATM   32  C32 UNL     1      14.665  19.640  19.486  1.00  0.00     0.286 C 
BRANCH  31  33
HETATM   33  C2  UNL     1      14.850  17.524  18.348  1.00  0.00     0.268 C 
HETATM   34  C1  UNL     1      13.465  16.930  18.298  1.00  0.00     0.037 C 
ENDBRANCH  31  33
ENDBRANCH  23  27
ENDBRANCH  18  19
ENDBRANCH  17  18
ENDBRANCH  16  17
ENDBRANCH  15  16
ENDBRANCH  14  15
ENDBRANCH  13  14
ENDBRANCH  12  13
ENDBRANCH   1  12
BRANCH   7  35
HETATM   35  C21 UNL     1      12.727  19.872  13.657  1.00  0.00     0.139 C 
HETATM   36  N5  UNL     1      13.356  19.008  12.897  1.00  0.00    -0.249 N 
HETATM   37  O2  UNL     1      12.754  17.905  12.382  1.00  0.00    -0.264 OA
ATOM     38  H5  UNL     1      14.341  19.171  12.684  1.00  0.00     0.196 HD
HETATM   39  C22 UNL     1      11.356  17.776  12.215  1.00  0.00     0.237 C 
HETATM   40  C26 UNL     1      10.714  18.459  13.361  1.00  0.00     0.112 C 
HETATM   41  N7  UNL     1       9.608  18.018  13.842  1.00  0.00    -0.386 N 
HETATM   42  N8  UNL     1      11.363  19.629  13.921  1.00  0.00    -0.323 N 
ATOM     43  H72 UNL     1       9.151  17.196  13.448  1.00  0.00     0.157 HD
ATOM     44  H71 UNL     1       9.166  18.489  14.631  1.00  0.00     0.157 HD
HETATM   45  C27 UNL     1      10.569  20.514  14.720  1.00  0.00     0.159 C 
BRANCH  39  46
HETATM   46  C23 UNL     1      11.050  16.295  12.197  1.00  0.00     0.165 C 
BRANCH  46  47
HETATM   47  N6  UNL     1      11.447  15.670  13.438  1.00  0.00    -0.358 N 
HETATM   48  C24 UNL     1      10.572  14.907  14.240  1.00  0.00     0.213 C 
HETATM   49  C25 UNL     1      11.024  14.287  15.502  1.00  0.00     0.117 C 
HETATM   50  O3  UNL     1       9.377  14.776  13.830  1.00  0.00    -0.274 OA
ATOM     51  H6  UNL     1      12.411  15.787  13.750  1.00  0.00     0.162 HD
ENDBRANCH  46  47
ENDBRANCH  39  46
ENDBRANCH   7  35
TORSDOF 13
ENDMDL
