MODEL 1
REMARK VINA RESULT: -7.781271848      0.000      0.000
REMARK  15 active torsions:
REMARK  status: ('A' for Active; 'I' for Inactive)
REMARK    1  A    between atoms: N1_1  and  N2_4 
REMARK       I    between atoms: N2_4  and  C1_6 
REMARK    2  A    between atoms: C1_6  and  O2_8 
REMARK    3  A    between atoms: O2_8  and  C2_9 
REMARK    4  A    between atoms: N4_11  and  C3_12 
REMARK    5  A    between atoms: C6_15  and  O3_16 
REMARK    6  A    between atoms: C7_19  and  C8_20 
REMARK    7  A    between atoms: C8_20  and  O5_21 
REMARK    8  A    between atoms: C8_20  and  C9_23 
REMARK    9  A    between atoms: C11_29  and  C12_30 
REMARK   10  A    between atoms: C11_29  and  C13_33 
REMARK   11  A    between atoms: C12_30  and  O8_31 
REMARK   12  A    between atoms: C13_33  and  O9_34 
REMARK   13  A    between atoms: C15_37  and  O10_38 
REMARK   14  A    between atoms: C16_40  and  O11_41 
REMARK   15  A    between atoms: C17_43  and  O12_44 
ROOT
HETATM    1  C3  UNL     1      -1.529   6.758 -34.864  1.00  0.00     0.118 C 
HETATM    2  C4  UNL     1      -2.621   6.644 -33.892  1.00  0.00     0.060 C 
HETATM    3  C5  UNL     1      -3.227   7.860 -33.314  1.00  0.00     0.073 C 
HETATM    4  C6  UNL     1      -3.461   7.600 -31.815  1.00  0.00     0.258 C 
HETATM    5  O4  UNL     1      -3.908   6.298 -31.599  1.00  0.00    -0.347 OA
HETATM    6  C7  UNL     1      -2.909   5.350 -31.741  1.00  0.00     0.209 C 
HETATM    7  C10 UNL     1      -1.973   5.906 -32.775  1.00  0.00     0.021 C 
HETATM    8  N5  UNL     1      -0.709   5.892 -32.903  1.00  0.00    -0.379 N 
ATOM      9  H5  UNL     1      -0.073   5.438 -32.247  1.00  0.00     0.160 HD
HETATM   10  C11 UNL     1      -0.282   6.596 -34.091  1.00  0.00     0.090 C 
ENDROOT
BRANCH   1  11
HETATM   11  N4  UNL     1      -1.534   7.930 -35.698  1.00  0.00    -0.222 NA
HETATM   12  N3  UNL     1      -0.491   7.694 -36.636  1.00  0.00    -0.129 NA
HETATM   13  C2  UNL     1      -0.252   8.788 -37.513  1.00  0.00     0.272 C 
HETATM   14  C17 UNL     1      -1.266   8.907 -38.633  1.00  0.00     0.196 C 
HETATM   15  C16 UNL     1      -2.415   9.806 -38.235  1.00  0.00     0.180 C 
HETATM   16  C15 UNL     1      -3.084   9.378 -36.964  1.00  0.00     0.164 C 
HETATM   17  C14 UNL     1      -2.734   7.998 -36.524  1.00  0.00     0.144 C 
BRANCH  13  18
HETATM   18  O2  UNL     1       1.001   8.502 -38.156  1.00  0.00    -0.277 OA
BRANCH  18  19
HETATM   19  C1  UNL     1       2.215   8.848 -37.632  1.00  0.00     0.380 C 
HETATM   20  N2  UNL     1       2.261   9.590 -36.424  1.00  0.00    -0.252 N 
ATOM     21  H2  UNL     1       1.381   9.847 -35.978  1.00  0.00     0.191 HD
HETATM   22  O1  UNL     1       3.244   8.483 -38.253  1.00  0.00    -0.237 OA
BRANCH  20  23
HETATM   23  N1  UNL     1       3.465   9.988 -35.814  1.00  0.00    -0.341 N 
ATOM     24  H12 UNL     1       3.783  10.943 -35.980  1.00  0.00     0.177 HD
ATOM     25  H11 UNL     1       4.020   9.370 -35.222  1.00  0.00     0.177 HD
ENDBRANCH  20  23
ENDBRANCH  18  19
ENDBRANCH  13  18
BRANCH  14  26
HETATM   26  O12 UNL     1      -0.643   9.559 -39.727  1.00  0.00    -0.389 OA
ATOM     27  H12 UNL     1      -0.216   8.900 -40.261  1.00  0.00     0.210 HD
ENDBRANCH  14  26
BRANCH  15  28
HETATM   28  O11 UNL     1      -1.884  11.105 -38.135  1.00  0.00    -0.390 OA
ATOM     29  H11 UNL     1      -2.563  11.756 -38.003  1.00  0.00     0.210 HD
ENDBRANCH  15  28
BRANCH  16  30
HETATM   30  O10 UNL     1      -2.802  10.334 -35.988  1.00  0.00    -0.392 OA
ATOM     31  H10 UNL     1      -1.869  10.436 -35.841  1.00  0.00     0.210 HD
ENDBRANCH  16  30
ENDBRANCH   1  11
BRANCH  10  32
HETATM   32  C12 UNL     1       0.371   7.903 -33.727  1.00  0.00     0.199 C 
BRANCH  32  33
HETATM   33  O8  UNL     1       1.695   7.953 -34.228  1.00  0.00    -0.398 OA
ATOM     34  H8  UNL     1       2.193   8.632 -33.786  1.00  0.00     0.209 HD
ENDBRANCH  32  33
ENDBRANCH  10  32
BRANCH  10  35
HETATM   35  C13 UNL     1       0.716   5.644 -34.760  1.00  0.00     0.199 C 
BRANCH  35  36
HETATM   36  O9  UNL     1       0.109   4.992 -35.838  1.00  0.00    -0.398 OA
ATOM     37  H9  UNL     1      -0.038   5.604 -36.550  1.00  0.00     0.209 HD
ENDBRANCH  35  36
ENDBRANCH  10  35
BRANCH   4  38
HETATM   38  O3  UNL     1      -2.343   7.919 -31.066  1.00  0.00    -0.371 OA
ATOM     39  H3  UNL     1      -1.728   7.196 -31.037  1.00  0.00     0.212 HD
ENDBRANCH   4  38
BRANCH   6  40
HETATM   40  C8  UNL     1      -3.452   4.050 -32.290  1.00  0.00     0.253 C 
BRANCH  40  41
HETATM   41  O5  UNL     1      -2.482   3.368 -33.031  1.00  0.00    -0.382 OA
ATOM     42  H5  UNL     1      -1.631   3.782 -32.947  1.00  0.00     0.210 HD
ENDBRANCH  40  41
BRANCH  40  43
HETATM   43  C9  UNL     1      -3.988   3.194 -31.196  1.00  0.00     0.205 C 
HETATM   44  O6  UNL     1      -3.282   2.270 -30.732  1.00  0.00    -0.646 OA
HETATM   45  O7  UNL     1      -5.256   3.441 -30.720  1.00  0.00    -0.646 OA
ENDBRANCH  40  43
ENDBRANCH   6  40
TORSDOF 15
ENDMDL
MODEL 2
REMARK VINA RESULT: -7.603767870      7.588     10.929
REMARK  15 active torsions:
REMARK  status: ('A' for Active; 'I' for Inactive)
REMARK    1  A    between atoms: N1_1  and  N2_4 
REMARK       I    between atoms: N2_4  and  C1_6 
REMARK    2  A    between atoms: C1_6  and  O2_8 
REMARK    3  A    between atoms: O2_8  and  C2_9 
REMARK    4  A    between atoms: N4_11  and  C3_12 
REMARK    5  A    between atoms: C6_15  and  O3_16 
REMARK    6  A    between atoms: C7_19  and  C8_20 
REMARK    7  A    between atoms: C8_20  and  O5_21 
REMARK    8  A    between atoms: C8_20  and  C9_23 
REMARK    9  A    between atoms: C11_29  and  C12_30 
REMARK   10  A    between atoms: C11_29  and  C13_33 
REMARK   11  A    between atoms: C12_30  and  O8_31 
REMARK   12  A    between atoms: C13_33  and  O9_34 
REMARK   13  A    between atoms: C15_37  and  O10_38 
REMARK   14  A    between atoms: C16_40  and  O11_41 
REMARK   15  A    between atoms: C17_43  and  O12_44 
ROOT
HETATM    1  C3  UNL     1      -6.466  14.269 -34.593  1.00  0.00     0.118 C 
HETATM    2  C4  UNL     1      -6.457  14.075 -36.045  1.00  0.00     0.060 C 
HETATM    3  C5  UNL     1      -7.672  14.350 -36.836  1.00  0.00     0.073 C 
HETATM    4  C6  UNL     1      -7.812  13.233 -37.887  1.00  0.00     0.258 C 
HETATM    5  O4  UNL     1      -6.569  12.889 -38.415  1.00  0.00    -0.347 OA
HETATM    6  C7  UNL     1      -5.793  12.148 -37.539  1.00  0.00     0.209 C 
HETATM    7  C10 UNL     1      -6.178  12.619 -36.167  1.00  0.00     0.021 C 
HETATM    8  N5  UNL     1      -6.331  12.025 -35.054  1.00  0.00    -0.379 N 
ATOM      9  H5  UNL     1      -6.190  11.024 -34.916  1.00  0.00     0.160 HD
HETATM   10  C11 UNL     1      -6.731  12.939 -34.008  1.00  0.00     0.090 C 
ENDROOT
BRANCH   1  11
HETATM   11  N4  UNL     1      -7.339  15.296 -34.089  1.00  0.00    -0.222 NA
HETATM   12  N3  UNL     1      -6.936  15.462 -32.735  1.00  0.00    -0.129 NA
HETATM   13  C2  UNL     1      -7.745  16.377 -32.006  1.00  0.00     0.272 C 
HETATM   14  C17 UNL     1      -7.438  17.832 -32.300  1.00  0.00     0.196 C 
HETATM   15  C16 UNL     1      -8.304  18.356 -33.424  1.00  0.00     0.180 C 
HETATM   16  C15 UNL     1      -8.204  17.534 -34.674  1.00  0.00     0.164 C 
HETATM   17  C14 UNL     1      -7.051  16.591 -34.696  1.00  0.00     0.144 C 
BRANCH  13  18
HETATM   18  O2  UNL     1      -7.401  16.183 -30.624  1.00  0.00    -0.277 OA
BRANCH  18  19
HETATM   19  C1  UNL     1      -6.251  15.571 -30.211  1.00  0.00     0.380 C 
HETATM   20  N2  UNL     1      -6.256  14.172 -29.977  1.00  0.00    -0.252 N 
ATOM     21  H2  UNL     1      -7.126  13.658 -30.124  1.00  0.00     0.191 HD
HETATM   22  O1  UNL     1      -5.230  16.288 -30.059  1.00  0.00    -0.237 OA
BRANCH  20  23
HETATM   23  N1  UNL     1      -5.120  13.461 -29.551  1.00  0.00    -0.341 N 
ATOM     24  H12 UNL     1      -4.333  13.401 -30.197  1.00  0.00     0.177 HD
ATOM     25  H11 UNL     1      -5.055  13.011 -28.638  1.00  0.00     0.177 HD
ENDBRANCH  20  23
ENDBRANCH  18  19
ENDBRANCH  13  18
BRANCH  14  26
HETATM   26  O12 UNL     1      -7.798  18.599 -31.163  1.00  0.00    -0.389 OA
ATOM     27  H12 UNL     1      -7.001  18.925 -30.761  1.00  0.00     0.210 HD
ENDBRANCH  14  26
BRANCH  15  28
HETATM   28  O11 UNL     1      -9.619  18.393 -32.925  1.00  0.00    -0.390 OA
ATOM     29  H11 UNL     1     -10.139  19.066 -33.348  1.00  0.00     0.210 HD
ENDBRANCH  15  28
BRANCH  16  30
HETATM   30  O10 UNL     1      -9.426  16.884 -34.858  1.00  0.00    -0.392 OA
ATOM     31  H10 UNL     1      -9.915  17.236 -35.593  1.00  0.00     0.210 HD
ENDBRANCH  16  30
ENDBRANCH   1  11
BRANCH  10  32
HETATM   32  C12 UNL     1      -8.175  12.724 -33.640  1.00  0.00     0.199 C 
BRANCH  32  33
HETATM   33  O8  UNL     1      -8.386  13.015 -32.269  1.00  0.00    -0.398 OA
ATOM     34  H8  UNL     1      -8.965  12.371 -31.877  1.00  0.00     0.209 HD
ENDBRANCH  32  33
ENDBRANCH  10  32
BRANCH  10  35
HETATM   35  C13 UNL     1      -5.803  12.606 -32.835  1.00  0.00     0.199 C 
BRANCH  35  36
HETATM   36  O9  UNL     1      -4.833  13.603 -32.692  1.00  0.00    -0.398 OA
ATOM     37  H9  UNL     1      -5.202  14.451 -32.911  1.00  0.00     0.209 HD
ENDBRANCH  35  36
ENDBRANCH  10  35
BRANCH   4  38
HETATM   38  O3  UNL     1      -8.505  12.149 -37.382  1.00  0.00    -0.371 OA
ATOM     39  H3  UNL     1      -9.222  11.900 -37.952  1.00  0.00     0.212 HD
ENDBRANCH   4  38
BRANCH   6  40
HETATM   40  C8  UNL     1      -4.322  12.448 -37.714  1.00  0.00     0.253 C 
BRANCH  40  41
HETATM   41  O5  UNL     1      -3.534  11.350 -37.352  1.00  0.00    -0.382 OA
ATOM     42  H5  UNL     1      -3.349  11.353 -36.420  1.00  0.00     0.210 HD
ENDBRANCH  40  41
BRANCH  40  43
HETATM   43  C9  UNL     1      -4.028  12.878 -39.108  1.00  0.00     0.205 C 
HETATM   44  O6  UNL     1      -3.991  12.025 -40.024  1.00  0.00    -0.646 OA
HETATM   45  O7  UNL     1      -3.802  14.213 -39.358  1.00  0.00    -0.646 OA
ENDBRANCH  40  43
ENDBRANCH   6  40
TORSDOF 15
ENDMDL
MODEL 3
REMARK VINA RESULT: -7.356163173      6.781      9.475
REMARK  15 active torsions:
REMARK  status: ('A' for Active; 'I' for Inactive)
REMARK    1  A    between atoms: N1_1  and  N2_4 
REMARK       I    between atoms: N2_4  and  C1_6 
REMARK    2  A    between atoms: C1_6  and  O2_8 
REMARK    3  A    between atoms: O2_8  and  C2_9 
REMARK    4  A    between atoms: N4_11  and  C3_12 
REMARK    5  A    between atoms: C6_15  and  O3_16 
REMARK    6  A    between atoms: C7_19  and  C8_20 
REMARK    7  A    between atoms: C8_20  and  O5_21 
REMARK    8  A    between atoms: C8_20  and  C9_23 
REMARK    9  A    between atoms: C11_29  and  C12_30 
REMARK   10  A    between atoms: C11_29  and  C13_33 
REMARK   11  A    between atoms: C12_30  and  O8_31 
REMARK   12  A    between atoms: C13_33  and  O9_34 
REMARK   13  A    between atoms: C15_37  and  O10_38 
REMARK   14  A    between atoms: C16_40  and  O11_41 
REMARK   15  A    between atoms: C17_43  and  O12_44 
ROOT
HETATM    1  C3  UNL     1      -6.006  13.143 -34.537  1.00  0.00     0.118 C 
HETATM    2  C4  UNL     1      -5.758  12.240 -35.665  1.00  0.00     0.060 C 
HETATM    3  C5  UNL     1      -6.826  11.974 -36.649  1.00  0.00     0.073 C 
HETATM    4  C6  UNL     1      -6.794  10.472 -36.984  1.00  0.00     0.258 C 
HETATM    5  O4  UNL     1      -5.482  10.011 -37.075  1.00  0.00    -0.347 OA
HETATM    6  C7  UNL     1      -4.863   9.883 -35.843  1.00  0.00     0.209 C 
HETATM    7  C10 UNL     1      -5.468  10.952 -34.980  1.00  0.00     0.021 C 
HETATM    8  N5  UNL     1      -5.804  10.994 -33.755  1.00  0.00    -0.379 N 
ATOM      9  H5  UNL     1      -5.691  10.218 -33.103  1.00  0.00     0.160 HD
HETATM   10  C11 UNL     1      -6.368  12.276 -33.397  1.00  0.00     0.090 C 
ENDROOT
BRANCH   1  11
HETATM   11  N4  UNL     1      -6.947  14.207 -34.764  1.00  0.00    -0.222 NA
HETATM   12  N3  UNL     1      -6.692  15.128 -33.709  1.00  0.00    -0.129 NA
HETATM   13  C2  UNL     1      -7.590  16.231 -33.683  1.00  0.00     0.272 C 
HETATM   14  C17 UNL     1      -7.283  17.294 -34.718  1.00  0.00     0.196 C 
HETATM   15  C16 UNL     1      -8.036  17.038 -36.005  1.00  0.00     0.180 C 
HETATM   16  C15 UNL     1      -7.790  15.670 -36.567  1.00  0.00     0.164 C 
HETATM   17  C14 UNL     1      -6.623  14.964 -35.968  1.00  0.00     0.144 C 
BRANCH  13  18
HETATM   18  O2  UNL     1      -7.388  16.864 -32.409  1.00  0.00    -0.277 OA
BRANCH  18  19
HETATM   19  C1  UNL     1      -6.965  16.197 -31.293  1.00  0.00     0.380 C 
HETATM   20  N2  UNL     1      -5.581  16.171 -30.986  1.00  0.00    -0.252 N 
ATOM     21  H2  UNL     1      -4.935  16.655 -31.611  1.00  0.00     0.191 HD
HETATM   22  O1  UNL     1      -7.836  15.634 -30.584  1.00  0.00    -0.237 OA
BRANCH  20  23
HETATM   23  N1  UNL     1      -5.056  15.510 -29.861  1.00  0.00    -0.341 N 
ATOM     24  H12 UNL     1      -4.720  14.556 -29.990  1.00  0.00     0.177 HD
ATOM     25  H11 UNL     1      -5.001  15.941 -28.938  1.00  0.00     0.177 HD
ENDBRANCH  20  23
ENDBRANCH  18  19
ENDBRANCH  13  18
BRANCH  14  26
HETATM   26  O12 UNL     1      -7.774  18.534 -34.238  1.00  0.00    -0.389 OA
ATOM     27  H12 UNL     1      -7.704  19.172 -34.939  1.00  0.00     0.210 HD
ENDBRANCH  14  26
BRANCH  15  28
HETATM   28  O11 UNL     1      -9.396  17.248 -35.714  1.00  0.00    -0.390 OA
ATOM     29  H11 UNL     1      -9.870  17.588 -36.463  1.00  0.00     0.210 HD
ENDBRANCH  15  28
BRANCH  16  30
HETATM   30  O10 UNL     1      -8.973  14.938 -36.447  1.00  0.00    -0.392 OA
ATOM     31  H10 UNL     1      -9.724  15.493 -36.275  1.00  0.00     0.210 HD
ENDBRANCH  16  30
ENDBRANCH   1  11
BRANCH  10  32
HETATM   32  C12 UNL     1      -7.853  12.161 -33.182  1.00  0.00     0.199 C 
BRANCH  32  33
HETATM   33  O8  UNL     1      -8.293  13.116 -32.232  1.00  0.00    -0.398 OA
ATOM     34  H8  UNL     1      -9.231  13.252 -32.305  1.00  0.00     0.209 HD
ENDBRANCH  32  33
ENDBRANCH  10  32
BRANCH  10  35
HETATM   35  C13 UNL     1      -5.646  12.662 -32.101  1.00  0.00     0.199 C 
BRANCH  35  36
HETATM   36  O9  UNL     1      -4.685  13.644 -32.361  1.00  0.00    -0.398 OA
ATOM     37  H9  UNL     1      -4.634  14.252 -31.632  1.00  0.00     0.209 HD
ENDBRANCH  35  36
ENDBRANCH  10  35
BRANCH   4  38
HETATM   38  O3  UNL     1      -7.564   9.741 -36.098  1.00  0.00    -0.371 OA
ATOM     39  H3  UNL     1      -7.849   8.921 -36.482  1.00  0.00     0.212 HD
ENDBRANCH   4  38
BRANCH   6  40
HETATM   40  C8  UNL     1      -3.383  10.173 -35.935  1.00  0.00     0.253 C 
BRANCH  40  41
HETATM   41  O5  UNL     1      -2.850  10.491 -34.681  1.00  0.00    -0.382 OA
ATOM     42  H5  UNL     1      -3.198   9.922 -34.005  1.00  0.00     0.210 HD
ENDBRANCH  40  41
BRANCH  40  43
HETATM   43  C9  UNL     1      -2.654   9.030 -36.549  1.00  0.00     0.205 C 
HETATM   44  O6  UNL     1      -1.665   9.250 -37.285  1.00  0.00    -0.646 OA
HETATM   45  O7  UNL     1      -3.090   7.749 -36.292  1.00  0.00    -0.646 OA
ENDBRANCH  40  43
ENDBRANCH   6  40
TORSDOF 15
ENDMDL
MODEL 4
REMARK VINA RESULT: -7.231680933      2.906      7.331
REMARK  15 active torsions:
REMARK  status: ('A' for Active; 'I' for Inactive)
REMARK    1  A    between atoms: N1_1  and  N2_4 
REMARK       I    between atoms: N2_4  and  C1_6 
REMARK    2  A    between atoms: C1_6  and  O2_8 
REMARK    3  A    between atoms: O2_8  and  C2_9 
REMARK    4  A    between atoms: N4_11  and  C3_12 
REMARK    5  A    between atoms: C6_15  and  O3_16 
REMARK    6  A    between atoms: C7_19  and  C8_20 
REMARK    7  A    between atoms: C8_20  and  O5_21 
REMARK    8  A    between atoms: C8_20  and  C9_23 
REMARK    9  A    between atoms: C11_29  and  C12_30 
REMARK   10  A    between atoms: C11_29  and  C13_33 
REMARK   11  A    between atoms: C12_30  and  O8_31 
REMARK   12  A    between atoms: C13_33  and  O9_34 
REMARK   13  A    between atoms: C15_37  and  O10_38 
REMARK   14  A    between atoms: C16_40  and  O11_41 
REMARK   15  A    between atoms: C17_43  and  O12_44 
ROOT
HETATM    1  C3  UNL     1      -1.135   8.710 -37.948  1.00  0.00     0.118 C 
HETATM    2  C4  UNL     1      -1.305   9.611 -39.092  1.00  0.00     0.060 C 
HETATM    3  C5  UNL     1      -0.782  10.990 -39.031  1.00  0.00     0.073 C 
HETATM    4  C6  UNL     1      -1.832  11.920 -39.666  1.00  0.00     0.258 C 
HETATM    5  O4  UNL     1      -2.408  11.326 -40.787  1.00  0.00    -0.347 OA
HETATM    6  C7  UNL     1      -3.302  10.317 -40.470  1.00  0.00     0.209 C 
HETATM    7  C10 UNL     1      -2.785   9.711 -39.197  1.00  0.00     0.021 C 
HETATM    8  N5  UNL     1      -3.354   9.260 -38.155  1.00  0.00    -0.379 N 
ATOM      9  H5  UNL     1      -4.365   9.234 -38.021  1.00  0.00     0.160 HD
HETATM   10  C11 UNL     1      -2.395   8.787 -37.182  1.00  0.00     0.090 C 
ENDROOT
BRANCH   1  11
HETATM   11  N4  UNL     1       0.037   8.915 -37.140  1.00  0.00    -0.222 NA
HETATM   12  N3  UNL     1       0.137   7.726 -36.364  1.00  0.00    -0.129 NA
HETATM   13  C2  UNL     1       1.189   7.754 -35.407  1.00  0.00     0.272 C 
HETATM   14  C17 UNL     1       2.562   7.511 -36.001  1.00  0.00     0.196 C 
HETATM   15  C16 UNL     1       3.226   8.812 -36.394  1.00  0.00     0.180 C 
HETATM   16  C15 UNL     1       2.390   9.642 -37.322  1.00  0.00     0.164 C 
HETATM   17  C14 UNL     1       1.253   8.906 -37.943  1.00  0.00     0.144 C 
BRANCH  13  18
HETATM   18  O2  UNL     1       0.946   6.641 -34.531  1.00  0.00    -0.277 OA
BRANCH  18  19
HETATM   19  C1  UNL     1      -0.302   6.252 -34.135  1.00  0.00     0.380 C 
HETATM   20  N2  UNL     1      -0.958   5.210 -34.838  1.00  0.00    -0.252 N 
ATOM     21  H2  UNL     1      -0.476   4.776 -35.626  1.00  0.00     0.191 HD
HETATM   22  O1  UNL     1      -0.814   6.844 -33.151  1.00  0.00    -0.237 OA
BRANCH  20  23
HETATM   23  N1  UNL     1      -2.243   4.745 -34.500  1.00  0.00    -0.341 N 
ATOM     24  H12 UNL     1      -2.704   5.179 -33.700  1.00  0.00     0.177 HD
ATOM     25  H11 UNL     1      -2.720   4.006 -35.014  1.00  0.00     0.177 HD
ENDBRANCH  20  23
ENDBRANCH  18  19
ENDBRANCH  13  18
BRANCH  14  26
HETATM   26  O12 UNL     1       3.390   6.959 -34.992  1.00  0.00    -0.389 OA
ATOM     27  H12 UNL     1       4.042   6.410 -35.411  1.00  0.00     0.210 HD
ENDBRANCH  14  26
BRANCH  15  28
HETATM   28  O11 UNL     1       3.504   9.491 -35.193  1.00  0.00    -0.390 OA
ATOM     29  H11 UNL     1       3.148   9.036 -34.439  1.00  0.00     0.210 HD
ENDBRANCH  15  28
BRANCH  16  30
HETATM   30  O10 UNL     1       1.971  10.776 -36.624  1.00  0.00    -0.392 OA
ATOM     31  H10 UNL     1       2.439  11.558 -36.892  1.00  0.00     0.210 HD
ENDBRANCH  16  30
ENDBRANCH   1  11
BRANCH  10  32
HETATM   32  C12 UNL     1      -2.324   9.727 -36.008  1.00  0.00     0.199 C 
BRANCH  32  33
HETATM   33  O8  UNL     1      -2.119   9.005 -34.806  1.00  0.00    -0.398 OA
ATOM     34  H8  UNL     1      -2.709   8.261 -34.759  1.00  0.00     0.209 HD
ENDBRANCH  32  33
ENDBRANCH  10  32
BRANCH  10  35
HETATM   35  C13 UNL     1      -2.924   7.412 -36.761  1.00  0.00     0.199 C 
BRANCH  35  36
HETATM   36  O9  UNL     1      -2.135   6.402 -37.322  1.00  0.00    -0.398 OA
ATOM     37  H9  UNL     1      -2.552   5.557 -37.200  1.00  0.00     0.209 HD
ENDBRANCH  35  36
ENDBRANCH  10  35
BRANCH   4  38
HETATM   38  O3  UNL     1      -2.765  12.337 -38.735  1.00  0.00    -0.371 OA
ATOM     39  H3  UNL     1      -2.859  11.704 -38.032  1.00  0.00     0.212 HD
ENDBRANCH   4  38
BRANCH   6  40
HETATM   40  C8  UNL     1      -3.297   9.225 -41.515  1.00  0.00     0.253 C 
BRANCH  40  41
HETATM   41  O5  UNL     1      -3.480   7.966 -40.932  1.00  0.00    -0.382 OA
ATOM     42  H5  UNL     1      -2.647   7.547 -40.749  1.00  0.00     0.210 HD
ENDBRANCH  40  41
BRANCH  40  43
HETATM   43  C9  UNL     1      -4.324   9.484 -42.560  1.00  0.00     0.205 C 
HETATM   44  O6  UNL     1      -4.020   9.366 -43.769  1.00  0.00    -0.646 OA
HETATM   45  O7  UNL     1      -5.592   9.850 -42.168  1.00  0.00    -0.646 OA
ENDBRANCH  40  43
ENDBRANCH   6  40
TORSDOF 15
ENDMDL
MODEL 5
REMARK VINA RESULT: -7.111109207      1.221      1.660
REMARK  15 active torsions:
REMARK  status: ('A' for Active; 'I' for Inactive)
REMARK    1  A    between atoms: N1_1  and  N2_4 
REMARK       I    between atoms: N2_4  and  C1_6 
REMARK    2  A    between atoms: C1_6  and  O2_8 
REMARK    3  A    between atoms: O2_8  and  C2_9 
REMARK    4  A    between atoms: N4_11  and  C3_12 
REMARK    5  A    between atoms: C6_15  and  O3_16 
REMARK    6  A    between atoms: C7_19  and  C8_20 
REMARK    7  A    between atoms: C8_20  and  O5_21 
REMARK    8  A    between atoms: C8_20  and  C9_23 
REMARK    9  A    between atoms: C11_29  and  C12_30 
REMARK   10  A    between atoms: C11_29  and  C13_33 
REMARK   11  A    between atoms: C12_30  and  O8_31 
REMARK   12  A    between atoms: C13_33  and  O9_34 
REMARK   13  A    between atoms: C15_37  and  O10_38 
REMARK   14  A    between atoms: C16_40  and  O11_41 
REMARK   15  A    between atoms: C17_43  and  O12_44 
ROOT
HETATM    1  C3  UNL     1      -2.470   7.215 -34.394  1.00  0.00     0.118 C 
HETATM    2  C4  UNL     1      -3.180   6.850 -33.165  1.00  0.00     0.060 C 
HETATM    3  C5  UNL     1      -3.612   7.899 -32.220  1.00  0.00     0.073 C 
HETATM    4  C6  UNL     1      -3.335   7.391 -30.794  1.00  0.00     0.258 C 
HETATM    5  O4  UNL     1      -3.635   6.035 -30.682  1.00  0.00    -0.347 OA
HETATM    6  C7  UNL     1      -2.699   5.219 -31.296  1.00  0.00     0.209 C 
HETATM    7  C10 UNL     1      -2.174   6.014 -32.456  1.00  0.00     0.021 C 
HETATM    8  N5  UNL     1      -1.021   6.139 -32.975  1.00  0.00    -0.379 N 
ATOM      9  H5  UNL     1      -0.189   5.652 -32.643  1.00  0.00     0.160 HD
HETATM   10  C11 UNL     1      -1.033   7.054 -34.093  1.00  0.00     0.090 C 
ENDROOT
BRANCH   1  11
HETATM   11  N4  UNL     1      -2.793   8.496 -34.964  1.00  0.00    -0.222 NA
HETATM   12  N3  UNL     1      -2.100   8.508 -36.207  1.00  0.00    -0.129 NA
HETATM   13  C2  UNL     1      -2.203   9.742 -36.907  1.00  0.00     0.272 C 
HETATM   14  C17 UNL     1      -3.529   9.934 -37.615  1.00  0.00     0.196 C 
HETATM   15  C16 UNL     1      -4.525  10.647 -36.727  1.00  0.00     0.180 C 
HETATM   16  C15 UNL     1      -4.728   9.965 -35.408  1.00  0.00     0.164 C 
HETATM   17  C14 UNL     1      -4.197   8.574 -35.350  1.00  0.00     0.144 C 
BRANCH  13  18
HETATM   18  O2  UNL     1      -1.215   9.681 -37.948  1.00  0.00    -0.277 OA
BRANCH  18  19
HETATM   19  C1  UNL     1       0.102   9.393 -37.723  1.00  0.00     0.380 C 
HETATM   20  N2  UNL     1       0.755   9.970 -36.604  1.00  0.00    -0.252 N 
ATOM     21  H2  UNL     1       0.219  10.588 -35.994  1.00  0.00     0.191 HD
HETATM   22  O1  UNL     1       0.677   8.619 -38.529  1.00  0.00    -0.237 OA
BRANCH  20  23
HETATM   23  N1  UNL     1       2.107   9.730 -36.296  1.00  0.00    -0.341 N 
ATOM     24  H12 UNL     1       2.573   8.968 -36.789  1.00  0.00     0.177 HD
ATOM     25  H11 UNL     1       2.627  10.279 -35.613  1.00  0.00     0.177 HD
ENDBRANCH  20  23
ENDBRANCH  18  19
ENDBRANCH  13  18
BRANCH  14  26
HETATM   26  O12 UNL     1      -3.321  10.804 -38.715  1.00  0.00    -0.389 OA
ATOM     27  H12 UNL     1      -3.434  11.697 -38.413  1.00  0.00     0.210 HD
ENDBRANCH  14  26
BRANCH  15  28
HETATM   28  O11 UNL     1      -4.044  11.960 -36.570  1.00  0.00    -0.390 OA
ATOM     29  H11 UNL     1      -3.619  12.083 -35.729  1.00  0.00     0.210 HD
ENDBRANCH  15  28
BRANCH  16  30
HETATM   30  O10 UNL     1      -4.185  10.782 -34.415  1.00  0.00    -0.392 OA
ATOM     31  H10 UNL     1      -3.585  11.429 -34.768  1.00  0.00     0.210 HD
ENDBRANCH  16  30
ENDBRANCH   1  11
BRANCH  10  32
HETATM   32  C12 UNL     1      -0.350   8.346 -33.728  1.00  0.00     0.199 C 
BRANCH  32  33
HETATM   33  O8  UNL     1       1.054   8.223 -33.872  1.00  0.00    -0.398 OA
ATOM     34  H8  UNL     1       1.294   8.192 -34.792  1.00  0.00     0.209 HD
ENDBRANCH  32  33
ENDBRANCH  10  32
BRANCH  10  35
HETATM   35  C13 UNL     1      -0.270   6.316 -35.199  1.00  0.00     0.199 C 
BRANCH  35  36
HETATM   36  O9  UNL     1      -1.160   5.873 -36.182  1.00  0.00    -0.398 OA
ATOM     37  H9  UNL     1      -1.777   6.562 -36.399  1.00  0.00     0.209 HD
ENDBRANCH  35  36
ENDBRANCH  10  35
BRANCH   4  38
HETATM   38  O3  UNL     1      -2.048   7.696 -30.391  1.00  0.00    -0.371 OA
ATOM     39  H3  UNL     1      -2.022   7.945 -29.475  1.00  0.00     0.212 HD
ENDBRANCH   4  38
BRANCH   6  40
HETATM   40  C8  UNL     1      -3.339   3.974 -31.865  1.00  0.00     0.253 C 
BRANCH  40  41
HETATM   41  O5  UNL     1      -2.470   3.311 -32.739  1.00  0.00    -0.382 OA
ATOM     42  H5  UNL     1      -1.662   3.068 -32.302  1.00  0.00     0.210 HD
ENDBRANCH  40  41
BRANCH  40  43
HETATM   43  C9  UNL     1      -3.797   3.066 -30.778  1.00  0.00     0.205 C 
HETATM   44  O6  UNL     1      -2.959   2.372 -30.159  1.00  0.00    -0.646 OA
HETATM   45  O7  UNL     1      -5.140   3.011 -30.480  1.00  0.00    -0.646 OA
ENDBRANCH  40  43
ENDBRANCH   6  40
TORSDOF 15
ENDMDL
