MODEL 1
REMARK VINA RESULT: -7.714244571      0.000      0.000
REMARK  16 active torsions:
REMARK  status: ('A' for Active; 'I' for Inactive)
REMARK    1  A    between atoms: C2_2  and  N1_3 
REMARK    2  A    between atoms: C2_2  and  C3_7 
REMARK    3  A    between atoms: C3_7  and  O1_8 
REMARK    4  A    between atoms: C3_7  and  N2_10 
REMARK    5  A    between atoms: N2_10  and  C4_11 
REMARK    6  A    between atoms: C4_11  and  C5_12 
REMARK    7  A    between atoms: C6_15  and  N4_16 
REMARK    8  A    between atoms: N6_23  and  N7_24 
REMARK    9  A    between atoms: N8_29  and  C10_30 
REMARK   10  A    between atoms: C11_31  and  O3_32 
REMARK   11  A    between atoms: C12_34  and  O4_35 
REMARK   12  A    between atoms: C13_37  and  C14_38 
REMARK   13  A    between atoms: C14_38  and  N9_39 
REMARK       I    between atoms: N9_39  and  C15_40 
REMARK   14  A    between atoms: C16_43  and  N11_44 
REMARK   15  A    between atoms: N11_44  and  N12_45 
REMARK   16  A    between atoms: C17_48  and  O6_49 
ROOT
HETATM    1  C5  UNL     1      -6.583  12.868 -38.804  1.00  0.00     0.110 A 
HETATM    2  N3  UNL     1      -5.281  13.036 -39.079  1.00  0.00    -0.187 N 
ATOM      3  H3  UNL     1      -4.951  12.864 -40.029  1.00  0.00     0.184 HD
HETATM    4  C6  UNL     1      -4.393  13.423 -38.143  1.00  0.00     0.678 A 
HETATM    5  N5  UNL     1      -4.801  13.655 -36.885  1.00  0.00    -0.174 N 
ATOM      6  H5  UNL     1      -4.124  13.949 -36.181  1.00  0.00     0.186 HD
HETATM    7  C7  UNL     1      -6.087  13.505 -36.545  1.00  0.00     0.163 A 
HETATM    8  C8  UNL     1      -6.990  13.107 -37.517  1.00  0.00     0.135 A 
HETATM    9  N6  UNL     1      -8.179  13.034 -36.948  1.00  0.00    -0.205 N 
HETATM   10  C9  UNL     1      -8.001  13.385 -35.645  1.00  0.00     0.354 A 
HETATM   11  O2  UNL     1      -8.997  13.395 -34.878  1.00  0.00    -0.244 OA
HETATM   12  N8  UNL     1      -6.731  13.677 -35.376  1.00  0.00    -0.247 N 
ENDROOT
BRANCH  12  13
HETATM   13  C10 UNL     1      -6.155  14.093 -34.108  1.00  0.00     0.062 C 
HETATM   14  C11 UNL     1      -6.366  13.145 -32.985  1.00  0.00     0.196 C 
HETATM   15  C12 UNL     1      -5.307  13.557 -31.930  1.00  0.00     0.164 C 
HETATM   16  C13 UNL     1      -5.800  14.922 -31.450  1.00  0.00     0.093 C 
HETATM   17  C16 UNL     1      -5.823  15.959 -32.481  1.00  0.00     0.145 C 
HETATM   18  C17 UNL     1      -6.372  15.535 -33.823  1.00  0.00     0.189 C 
BRANCH  14  19
HETATM   19  O3  UNL     1      -7.562  13.246 -32.298  1.00  0.00    -0.387 OA
ATOM     20  H3  UNL     1      -8.303  13.601 -32.776  1.00  0.00     0.210 HD
ENDBRANCH  14  19
BRANCH  15  21
HETATM   21  O4  UNL     1      -5.257  12.697 -30.872  1.00  0.00    -0.392 OA
ATOM     22  H4  UNL     1      -5.496  11.809 -31.111  1.00  0.00     0.210 HD
ENDBRANCH  15  21
BRANCH  16  23
HETATM   23  C14 UNL     1      -4.984  15.255 -30.234  1.00  0.00     0.169 C 
BRANCH  23  24
HETATM   24  N9  UNL     1      -5.629  15.655 -29.084  1.00  0.00    -0.371 NA
HETATM   25  C15 UNL     1      -6.250  16.041 -27.972  1.00  0.00     0.405 C 
HETATM   26  N10 UNL     1      -7.423  16.932 -28.017  1.00  0.00    -0.025 NA
HETATM   27  O5  UNL     1      -5.979  15.741 -26.751  1.00  0.00    -0.234 OA
ENDBRANCH  23  24
ENDBRANCH  16  23
BRANCH  17  28
HETATM   28  N11 UNL     1      -6.743  17.031 -32.050  1.00  0.00    -0.140 NA
BRANCH  28  29
HETATM   29  N12 UNL     1      -7.787  16.507 -31.276  1.00  0.00    -0.348 N 
ATOM     30 2H12 UNL     1      -8.355  15.707 -31.556  1.00  0.00     0.172 HD
ATOM     31 1H12 UNL     1      -7.892  17.033 -30.408  1.00  0.00     0.172 HD
ENDBRANCH  28  29
ENDBRANCH  17  28
BRANCH  18  32
HETATM   32  O6  UNL     1      -7.692  15.945 -34.017  1.00  0.00    -0.388 OA
ATOM     33  H6  UNL     1      -8.314  15.493 -33.460  1.00  0.00     0.210 HD
ENDBRANCH  18  32
ENDBRANCH  12  13
BRANCH   9  34
HETATM   34  N7  UNL     1      -9.406  12.679 -37.519  1.00  0.00    -0.334 N 
ATOM     35  H72 UNL     1      -9.515  12.091 -38.346  1.00  0.00     0.177 HD
ATOM     36  H71 UNL     1     -10.348  12.930 -37.221  1.00  0.00     0.177 HD
ENDBRANCH   9  34
BRANCH   4  37
HETATM   37  N4  UNL     1      -3.137  13.566 -38.484  1.00  0.00    -0.234 N 
ATOM     38  H42 UNL     1      -2.817  13.336 -39.425  1.00  0.00     0.174 HD
ATOM     39  H41 UNL     1      -2.475  13.914 -37.790  1.00  0.00     0.174 HD
ENDBRANCH   4  37
BRANCH   1  40
HETATM   40  C4  UNL     1      -7.479  12.428 -39.888  1.00  0.00     0.217 C 
BRANCH  40  41
HETATM   41  N2  UNL     1      -7.179  11.665 -40.753  1.00  0.00    -0.393 NA
BRANCH  41  42
HETATM   42  C3  UNL     1      -6.887  10.798 -41.690  1.00  0.00     0.219 C 
BRANCH  42  43
HETATM   43  C2  UNL     1      -5.665   9.889 -41.647  1.00  0.00     0.268 C 
HETATM   44  C1  UNL     1      -5.546   9.388 -40.199  1.00  0.00     0.050 C 
BRANCH  43  45
HETATM   45  N1  UNL     1      -4.460  10.593 -41.934  1.00  0.00    -0.067 N 
ATOM     46  H13 UNL     1      -4.426  11.521 -41.514  1.00  0.00     0.275 HD
ATOM     47  H12 UNL     1      -3.644  10.207 -41.459  1.00  0.00     0.275 HD
ATOM     48  H11 UNL     1      -4.366  10.608 -42.950  1.00  0.00     0.275 HD
ENDBRANCH  43  45
ENDBRANCH  42  43
BRANCH  42  49
HETATM   49  O1  UNL     1      -7.591  10.597 -42.767  1.00  0.00    -0.337 OA
ATOM     50  H1  UNL     1      -7.503  11.319 -43.380  1.00  0.00     0.220 HD
ENDBRANCH  42  49
ENDBRANCH  41  42
ENDBRANCH  40  41
ENDBRANCH   1  40
TORSDOF 16
ENDMDL
MODEL 2
REMARK VINA RESULT: -7.678555507      2.567      3.261
REMARK  16 active torsions:
REMARK  status: ('A' for Active; 'I' for Inactive)
REMARK    1  A    between atoms: C2_2  and  N1_3 
REMARK    2  A    between atoms: C2_2  and  C3_7 
REMARK    3  A    between atoms: C3_7  and  O1_8 
REMARK    4  A    between atoms: C3_7  and  N2_10 
REMARK    5  A    between atoms: N2_10  and  C4_11 
REMARK    6  A    between atoms: C4_11  and  C5_12 
REMARK    7  A    between atoms: C6_15  and  N4_16 
REMARK    8  A    between atoms: N6_23  and  N7_24 
REMARK    9  A    between atoms: N8_29  and  C10_30 
REMARK   10  A    between atoms: C11_31  and  O3_32 
REMARK   11  A    between atoms: C12_34  and  O4_35 
REMARK   12  A    between atoms: C13_37  and  C14_38 
REMARK   13  A    between atoms: C14_38  and  N9_39 
REMARK       I    between atoms: N9_39  and  C15_40 
REMARK   14  A    between atoms: C16_43  and  N11_44 
REMARK   15  A    between atoms: N11_44  and  N12_45 
REMARK   16  A    between atoms: C17_48  and  O6_49 
ROOT
HETATM    1  C5  UNL     1      -4.144   9.856 -37.696  1.00  0.00     0.110 A 
HETATM    2  N3  UNL     1      -3.212   9.571 -36.774  1.00  0.00    -0.187 N 
ATOM      3  H3  UNL     1      -2.496   8.878 -36.995  1.00  0.00     0.184 HD
HETATM    4  C6  UNL     1      -3.188  10.169 -35.568  1.00  0.00     0.678 A 
HETATM    5  N5  UNL     1      -4.118  11.085 -35.253  1.00  0.00    -0.174 N 
ATOM      6  H5  UNL     1      -4.094  11.535 -34.338  1.00  0.00     0.186 HD
HETATM    7  C7  UNL     1      -5.077  11.414 -36.127  1.00  0.00     0.163 A 
HETATM    8  C8  UNL     1      -5.090  10.792 -37.364  1.00  0.00     0.135 A 
HETATM    9  N6  UNL     1      -6.113  11.278 -38.042  1.00  0.00    -0.205 N 
HETATM   10  C9  UNL     1      -6.714  12.186 -37.226  1.00  0.00     0.354 A 
HETATM   11  O2  UNL     1      -7.730  12.800 -37.644  1.00  0.00    -0.244 OA
HETATM   12  N8  UNL     1      -6.099  12.286 -36.051  1.00  0.00    -0.247 N 
ENDROOT
BRANCH  12  13
HETATM   13  C10 UNL     1      -6.441  13.143 -34.928  1.00  0.00     0.062 C 
HETATM   14  C11 UNL     1      -7.742  12.837 -34.281  1.00  0.00     0.196 C 
HETATM   15  C12 UNL     1      -7.655  13.530 -32.897  1.00  0.00     0.164 C 
HETATM   16  C13 UNL     1      -7.679  15.018 -33.246  1.00  0.00     0.093 C 
HETATM   17  C16 UNL     1      -6.540  15.476 -34.040  1.00  0.00     0.145 C 
HETATM   18  C17 UNL     1      -6.135  14.575 -35.183  1.00  0.00     0.189 C 
BRANCH  14  19
HETATM   19  O3  UNL     1      -8.870  13.396 -34.853  1.00  0.00    -0.387 OA
ATOM     20  H3  UNL     1      -9.598  13.584 -34.271  1.00  0.00     0.210 HD
ENDBRANCH  14  19
BRANCH  15  21
HETATM   21  O4  UNL     1      -8.721  13.237 -32.096  1.00  0.00    -0.392 OA
ATOM     22  H4  UNL     1      -8.622  12.406 -31.646  1.00  0.00     0.210 HD
ENDBRANCH  15  21
BRANCH  16  23
HETATM   23  C14 UNL     1      -7.880  15.746 -31.948  1.00  0.00     0.169 C 
BRANCH  23  24
HETATM   24  N9  UNL     1      -6.899  15.681 -30.984  1.00  0.00    -0.371 NA
HETATM   25  C15 UNL     1      -5.950  15.617 -30.053  1.00  0.00     0.405 C 
HETATM   26  N10 UNL     1      -5.325  16.835 -29.507  1.00  0.00    -0.025 NA
HETATM   27  O5  UNL     1      -5.436  14.579 -29.495  1.00  0.00    -0.234 OA
ENDBRANCH  23  24
ENDBRANCH  16  23
BRANCH  17  28
HETATM   28  N11 UNL     1      -6.909  16.741 -34.707  1.00  0.00    -0.140 NA
BRANCH  28  29
HETATM   29  N12 UNL     1      -8.278  16.764 -35.003  1.00  0.00    -0.348 N 
ATOM     30 2H12 UNL     1      -8.667  16.502 -35.909  1.00  0.00     0.172 HD
ATOM     31 1H12 UNL     1      -8.817  17.075 -34.195  1.00  0.00     0.172 HD
ENDBRANCH  28  29
ENDBRANCH  17  28
BRANCH  18  32
HETATM   32  O6  UNL     1      -6.602  15.029 -36.417  1.00  0.00    -0.388 OA
ATOM     33  H6  UNL     1      -6.606  14.358 -37.090  1.00  0.00     0.210 HD
ENDBRANCH  18  32
ENDBRANCH  12  13
BRANCH   9  34
HETATM   34  N7  UNL     1      -6.537  10.965 -39.338  1.00  0.00    -0.334 N 
ATOM     35  H72 UNL     1      -6.999  10.096 -39.606  1.00  0.00     0.177 HD
ATOM     36  H71 UNL     1      -6.465  11.523 -40.189  1.00  0.00     0.177 HD
ENDBRANCH   9  34
BRANCH   4  37
HETATM   37  N4  UNL     1      -2.247   9.841 -34.719  1.00  0.00    -0.234 N 
ATOM     38  H42 UNL     1      -1.436  10.442 -34.572  1.00  0.00     0.174 HD
ATOM     39  H41 UNL     1      -2.334   8.966 -34.201  1.00  0.00     0.174 HD
ENDBRANCH   4  37
BRANCH   1  40
HETATM   40  C4  UNL     1      -4.101   9.142 -38.984  1.00  0.00     0.217 C 
BRANCH  40  41
HETATM   41  N2  UNL     1      -3.656   9.588 -39.995  1.00  0.00    -0.393 NA
BRANCH  41  42
HETATM   42  C3  UNL     1      -3.141  10.037 -41.113  1.00  0.00     0.219 C 
BRANCH  42  43
HETATM   43  C2  UNL     1      -2.582  11.446 -41.277  1.00  0.00     0.268 C 
HETATM   44  C1  UNL     1      -3.480  12.371 -40.443  1.00  0.00     0.050 C 
BRANCH  43  45
HETATM   45  N1  UNL     1      -2.664  11.903 -42.624  1.00  0.00    -0.067 N 
ATOM     46  H13 UNL     1      -3.011  11.194 -43.270  1.00  0.00     0.275 HD
ATOM     47  H12 UNL     1      -3.408  12.585 -42.773  1.00  0.00     0.275 HD
ATOM     48  H11 UNL     1      -1.739  12.255 -42.870  1.00  0.00     0.275 HD
ENDBRANCH  43  45
ENDBRANCH  42  43
BRANCH  42  49
HETATM   49  O1  UNL     1      -3.035   9.352 -42.215  1.00  0.00    -0.337 OA
ATOM     50  H1  UNL     1      -2.748   8.462 -42.044  1.00  0.00     0.220 HD
ENDBRANCH  42  49
ENDBRANCH  41  42
ENDBRANCH  40  41
ENDBRANCH   1  40
TORSDOF 16
ENDMDL
MODEL 3
REMARK VINA RESULT: -7.598609445      2.002      2.209
REMARK  16 active torsions:
REMARK  status: ('A' for Active; 'I' for Inactive)
REMARK    1  A    between atoms: C2_2  and  N1_3 
REMARK    2  A    between atoms: C2_2  and  C3_7 
REMARK    3  A    between atoms: C3_7  and  O1_8 
REMARK    4  A    between atoms: C3_7  and  N2_10 
REMARK    5  A    between atoms: N2_10  and  C4_11 
REMARK    6  A    between atoms: C4_11  and  C5_12 
REMARK    7  A    between atoms: C6_15  and  N4_16 
REMARK    8  A    between atoms: N6_23  and  N7_24 
REMARK    9  A    between atoms: N8_29  and  C10_30 
REMARK   10  A    between atoms: C11_31  and  O3_32 
REMARK   11  A    between atoms: C12_34  and  O4_35 
REMARK   12  A    between atoms: C13_37  and  C14_38 
REMARK   13  A    between atoms: C14_38  and  N9_39 
REMARK       I    between atoms: N9_39  and  C15_40 
REMARK   14  A    between atoms: C16_43  and  N11_44 
REMARK   15  A    between atoms: N11_44  and  N12_45 
REMARK   16  A    between atoms: C17_48  and  O6_49 
ROOT
HETATM    1  C5  UNL     1      -5.574  11.532 -38.017  1.00  0.00     0.110 A 
HETATM    2  N3  UNL     1      -4.892  12.510 -38.630  1.00  0.00    -0.187 N 
ATOM      3  H3  UNL     1      -4.598  12.374 -39.598  1.00  0.00     0.184 HD
HETATM    4  C6  UNL     1      -4.582  13.667 -38.013  1.00  0.00     0.678 A 
HETATM    5  N5  UNL     1      -4.958  13.870 -36.740  1.00  0.00    -0.174 N 
ATOM      6  H5  UNL     1      -4.721  14.748 -36.278  1.00  0.00     0.186 HD
HETATM    7  C7  UNL     1      -5.639  12.933 -36.070  1.00  0.00     0.163 A 
HETATM    8  C8  UNL     1      -5.952  11.749 -36.717  1.00  0.00     0.135 A 
HETATM    9  N6  UNL     1      -6.620  10.995 -35.863  1.00  0.00    -0.205 N 
HETATM   10  C9  UNL     1      -6.713  11.714 -34.711  1.00  0.00     0.354 A 
HETATM   11  O2  UNL     1      -7.314  11.210 -33.728  1.00  0.00    -0.244 OA
HETATM   12  N8  UNL     1      -6.122  12.901 -34.814  1.00  0.00    -0.247 N 
ENDROOT
BRANCH  12  13
HETATM   13  C10 UNL     1      -6.015  13.941 -33.805  1.00  0.00     0.062 C 
HETATM   14  C11 UNL     1      -5.332  13.530 -32.552  1.00  0.00     0.196 C 
HETATM   15  C12 UNL     1      -4.937  14.867 -31.873  1.00  0.00     0.164 C 
HETATM   16  C13 UNL     1      -6.283  15.464 -31.462  1.00  0.00     0.093 C 
HETATM   17  C16 UNL     1      -7.174  15.782 -32.577  1.00  0.00     0.145 C 
HETATM   18  C17 UNL     1      -7.263  14.735 -33.663  1.00  0.00     0.189 C 
BRANCH  14  19
HETATM   19  O3  UNL     1      -6.107  12.898 -31.597  1.00  0.00    -0.387 OA
ATOM     20  H3  UNL     1      -5.781  12.072 -31.258  1.00  0.00     0.210 HD
ENDBRANCH  14  19
BRANCH  15  21
HETATM   21  O4  UNL     1      -4.166  14.683 -30.761  1.00  0.00    -0.392 OA
ATOM     22  H4  UNL     1      -4.670  14.723 -29.957  1.00  0.00     0.210 HD
ENDBRANCH  15  21
BRANCH  16  23
HETATM   23  C14 UNL     1      -5.966  16.617 -30.554  1.00  0.00     0.169 C 
BRANCH  23  24
HETATM   24  N9  UNL     1      -6.266  16.516 -29.214  1.00  0.00    -0.371 NA
HETATM   25  C15 UNL     1      -6.557  16.420 -27.919  1.00  0.00     0.405 C 
HETATM   26  N10 UNL     1      -6.229  15.210 -27.145  1.00  0.00    -0.025 NA
HETATM   27  O5  UNL     1      -7.128  17.283 -27.154  1.00  0.00    -0.234 OA
ENDBRANCH  23  24
ENDBRANCH  16  23
BRANCH  17  28
HETATM   28  N11 UNL     1      -8.557  15.870 -32.064  1.00  0.00    -0.140 NA
BRANCH  28  29
HETATM   29  N12 UNL     1      -8.732  15.022 -30.963  1.00  0.00    -0.348 N 
ATOM     30 2H12 UNL     1      -8.494  15.280 -30.004  1.00  0.00     0.172 HD
ATOM     31 1H12 UNL     1      -9.126  14.128 -31.255  1.00  0.00     0.172 HD
ENDBRANCH  28  29
ENDBRANCH  17  28
BRANCH  18  32
HETATM   32  O6  UNL     1      -8.411  13.948 -33.558  1.00  0.00    -0.388 OA
ATOM     33  H6  UNL     1      -8.284  13.055 -33.857  1.00  0.00     0.210 HD
ENDBRANCH  18  32
ENDBRANCH  12  13
BRANCH   9  34
HETATM   34  N7  UNL     1      -7.151   9.714 -36.051  1.00  0.00    -0.334 N 
ATOM     35  H72 UNL     1      -6.700   8.969 -36.581  1.00  0.00     0.177 HD
ATOM     36  H71 UNL     1      -8.030   9.328 -35.705  1.00  0.00     0.177 HD
ENDBRANCH   9  34
BRANCH   4  37
HETATM   37  N4  UNL     1      -3.915  14.577 -38.676  1.00  0.00    -0.234 N 
ATOM     38  H42 UNL     1      -3.800  14.515 -39.687  1.00  0.00     0.174 HD
ATOM     39  H41 UNL     1      -3.506  15.358 -38.163  1.00  0.00     0.174 HD
ENDBRANCH   4  37
BRANCH   1  40
HETATM   40  C4  UNL     1      -5.856  10.294 -38.765  1.00  0.00     0.217 C 
BRANCH  40  41
HETATM   41  N2  UNL     1      -5.067   9.716 -39.447  1.00  0.00    -0.393 NA
BRANCH  41  42
HETATM   42  C3  UNL     1      -4.181   9.061 -40.154  1.00  0.00     0.219 C 
BRANCH  42  43
HETATM   43  C2  UNL     1      -4.092   9.137 -41.674  1.00  0.00     0.268 C 
HETATM   44  C1  UNL     1      -3.583   7.769 -42.150  1.00  0.00     0.050 C 
BRANCH  43  45
HETATM   45  N1  UNL     1      -3.138  10.101 -42.109  1.00  0.00    -0.067 N 
ATOM     46  H13 UNL     1      -3.106  10.932 -41.518  1.00  0.00     0.275 HD
ATOM     47  H12 UNL     1      -2.172   9.806 -41.967  1.00  0.00     0.275 HD
ATOM     48  H11 UNL     1      -3.357  10.309 -43.084  1.00  0.00     0.275 HD
ENDBRANCH  43  45
ENDBRANCH  42  43
BRANCH  42  49
HETATM   49  O1  UNL     1      -3.269   8.271 -39.664  1.00  0.00    -0.337 OA
ATOM     50  H1  UNL     1      -3.100   8.462 -38.748  1.00  0.00     0.220 HD
ENDBRANCH  42  49
ENDBRANCH  41  42
ENDBRANCH  40  41
ENDBRANCH   1  40
TORSDOF 16
ENDMDL
MODEL 4
REMARK VINA RESULT: -7.587246284      5.931      8.834
REMARK  16 active torsions:
REMARK  status: ('A' for Active; 'I' for Inactive)
REMARK    1  A    between atoms: C2_2  and  N1_3 
REMARK    2  A    between atoms: C2_2  and  C3_7 
REMARK    3  A    between atoms: C3_7  and  O1_8 
REMARK    4  A    between atoms: C3_7  and  N2_10 
REMARK    5  A    between atoms: N2_10  and  C4_11 
REMARK    6  A    between atoms: C4_11  and  C5_12 
REMARK    7  A    between atoms: C6_15  and  N4_16 
REMARK    8  A    between atoms: N6_23  and  N7_24 
REMARK    9  A    between atoms: N8_29  and  C10_30 
REMARK   10  A    between atoms: C11_31  and  O3_32 
REMARK   11  A    between atoms: C12_34  and  O4_35 
REMARK   12  A    between atoms: C13_37  and  C14_38 
REMARK   13  A    between atoms: C14_38  and  N9_39 
REMARK       I    between atoms: N9_39  and  C15_40 
REMARK   14  A    between atoms: C16_43  and  N11_44 
REMARK   15  A    between atoms: N11_44  and  N12_45 
REMARK   16  A    between atoms: C17_48  and  O6_49 
ROOT
HETATM    1  C5  UNL     1      -4.731  13.848 -40.002  1.00  0.00     0.110 A 
HETATM    2  N3  UNL     1      -5.191  14.328 -38.837  1.00  0.00    -0.187 N 
ATOM      3  H3  UNL     1      -5.861  15.097 -38.851  1.00  0.00     0.184 HD
HETATM    4  C6  UNL     1      -4.799  13.828 -37.649  1.00  0.00     0.678 A 
HETATM    5  N5  UNL     1      -3.918  12.815 -37.604  1.00  0.00    -0.174 N 
ATOM      6  H5  UNL     1      -3.626  12.440 -36.702  1.00  0.00     0.186 HD
HETATM    7  C7  UNL     1      -3.420  12.292 -38.731  1.00  0.00     0.163 A 
HETATM    8  C8  UNL     1      -3.832  12.815 -39.945  1.00  0.00     0.135 A 
HETATM    9  N6  UNL     1      -3.213  12.141 -40.898  1.00  0.00    -0.205 N 
HETATM   10  C9  UNL     1      -2.435  11.219 -40.268  1.00  0.00     0.354 A 
HETATM   11  O2  UNL     1      -1.734  10.439 -40.964  1.00  0.00    -0.244 OA
HETATM   12  N8  UNL     1      -2.545  11.292 -38.945  1.00  0.00    -0.247 N 
ENDROOT
BRANCH  12  13
HETATM   13  C10 UNL     1      -1.878  10.478 -37.942  1.00  0.00     0.062 C 
HETATM   14  C11 UNL     1      -0.395  10.548 -37.965  1.00  0.00     0.196 C 
HETATM   15  C12 UNL     1       0.037  10.009 -36.577  1.00  0.00     0.164 C 
HETATM   16  C13 UNL     1      -0.333   8.528 -36.644  1.00  0.00     0.093 C 
HETATM   17  C16 UNL     1      -1.763   8.263 -36.794  1.00  0.00     0.145 C 
HETATM   18  C17 UNL     1      -2.487   9.131 -37.796  1.00  0.00     0.189 C 
BRANCH  14  19
HETATM   19  O3  UNL     1       0.255   9.711 -38.854  1.00  0.00    -0.387 OA
ATOM     20  H3  UNL     1       1.119   9.405 -38.602  1.00  0.00     0.210 HD
ENDBRANCH  14  19
BRANCH  15  21
HETATM   21  O4  UNL     1       1.380  10.130 -36.362  1.00  0.00    -0.392 OA
ATOM     22  H4  UNL     1       1.601  10.907 -35.861  1.00  0.00     0.210 HD
ENDBRANCH  15  21
BRANCH  16  23
HETATM   23  C14 UNL     1       0.309   7.885 -35.448  1.00  0.00     0.169 C 
BRANCH  23  24
HETATM   24  N9  UNL     1       1.637   7.525 -35.513  1.00  0.00    -0.371 NA
HETATM   25  C15 UNL     1       2.919   7.175 -35.576  1.00  0.00     0.405 C 
HETATM   26  N10 UNL     1       3.917   8.029 -36.244  1.00  0.00    -0.025 NA
HETATM   27  O5  UNL     1       3.492   6.122 -35.109  1.00  0.00    -0.234 OA
ENDBRANCH  23  24
ENDBRANCH  16  23
BRANCH  17  28
HETATM   28  N11 UNL     1      -1.935   6.896 -37.327  1.00  0.00    -0.140 NA
BRANCH  28  29
HETATM   29  N12 UNL     1      -2.825   6.162 -36.533  1.00  0.00    -0.348 N 
ATOM     30 2H12 UNL     1      -3.840   6.198 -36.636  1.00  0.00     0.172 HD
ATOM     31 1H12 UNL     1      -2.319   5.597 -35.851  1.00  0.00     0.172 HD
ENDBRANCH  28  29
ENDBRANCH  17  28
BRANCH  18  32
HETATM   32  O6  UNL     1      -2.699   8.484 -39.014  1.00  0.00    -0.388 OA
ATOM     33  H6  UNL     1      -3.317   7.764 -38.957  1.00  0.00     0.210 HD
ENDBRANCH  18  32
ENDBRANCH  12  13
BRANCH   9  34
HETATM   34  N7  UNL     1      -3.304  12.297 -42.285  1.00  0.00    -0.334 N 
ATOM     35  H72 UNL     1      -4.126  12.645 -42.779  1.00  0.00     0.177 HD
ATOM     36  H71 UNL     1      -2.601  12.103 -42.999  1.00  0.00     0.177 HD
ENDBRANCH   9  34
BRANCH   4  37
HETATM   37  N4  UNL     1      -5.291  14.346 -36.553  1.00  0.00    -0.234 N 
ATOM     38  H42 UNL     1      -6.105  14.960 -36.578  1.00  0.00     0.174 HD
ATOM     39  H41 UNL     1      -4.845  14.127 -35.662  1.00  0.00     0.174 HD
ENDBRANCH   4  37
BRANCH   1  40
HETATM   40  C4  UNL     1      -5.204  14.466 -41.253  1.00  0.00     0.217 C 
BRANCH  40  41
HETATM   41  N2  UNL     1      -4.712  15.421 -41.770  1.00  0.00    -0.393 NA
BRANCH  41  42
HETATM   42  C3  UNL     1      -4.143  16.440 -42.365  1.00  0.00     0.219 C 
BRANCH  42  43
HETATM   43  C2  UNL     1      -4.828  17.280 -43.436  1.00  0.00     0.268 C 
HETATM   44  C1  UNL     1      -5.639  16.305 -44.303  1.00  0.00     0.050 C 
BRANCH  43  45
HETATM   45  N1  UNL     1      -3.892  17.914 -44.303  1.00  0.00    -0.067 N 
ATOM     46  H13 UNL     1      -4.039  17.690 -45.287  1.00  0.00     0.275 HD
ATOM     47  H12 UNL     1      -4.033  18.922 -44.379  1.00  0.00     0.275 HD
ATOM     48  H11 UNL     1      -2.964  17.661 -43.966  1.00  0.00     0.275 HD
ENDBRANCH  43  45
ENDBRANCH  42  43
BRANCH  42  49
HETATM   49  O1  UNL     1      -2.937  16.867 -42.125  1.00  0.00    -0.337 OA
ATOM     50  H1  UNL     1      -2.407  16.195 -41.711  1.00  0.00     0.220 HD
ENDBRANCH  42  49
ENDBRANCH  41  42
ENDBRANCH  40  41
ENDBRANCH   1  40
TORSDOF 16
ENDMDL
MODEL 5
REMARK VINA RESULT: -7.534885791      7.346      8.915
REMARK  16 active torsions:
REMARK  status: ('A' for Active; 'I' for Inactive)
REMARK    1  A    between atoms: C2_2  and  N1_3 
REMARK    2  A    between atoms: C2_2  and  C3_7 
REMARK    3  A    between atoms: C3_7  and  O1_8 
REMARK    4  A    between atoms: C3_7  and  N2_10 
REMARK    5  A    between atoms: N2_10  and  C4_11 
REMARK    6  A    between atoms: C4_11  and  C5_12 
REMARK    7  A    between atoms: C6_15  and  N4_16 
REMARK    8  A    between atoms: N6_23  and  N7_24 
REMARK    9  A    between atoms: N8_29  and  C10_30 
REMARK   10  A    between atoms: C11_31  and  O3_32 
REMARK   11  A    between atoms: C12_34  and  O4_35 
REMARK   12  A    between atoms: C13_37  and  C14_38 
REMARK   13  A    between atoms: C14_38  and  N9_39 
REMARK       I    between atoms: N9_39  and  C15_40 
REMARK   14  A    between atoms: C16_43  and  N11_44 
REMARK   15  A    between atoms: N11_44  and  N12_45 
REMARK   16  A    between atoms: C17_48  and  O6_49 
ROOT
HETATM    1  C5  UNL     1       0.753   9.084 -37.924  1.00  0.00     0.110 A 
HETATM    2  N3  UNL     1       1.934   9.208 -37.301  1.00  0.00    -0.187 N 
ATOM      3  H3  UNL     1       2.732   9.571 -37.823  1.00  0.00     0.184 HD
HETATM    4  C6  UNL     1       2.104   8.868 -36.009  1.00  0.00     0.678 A 
HETATM    5  N5  UNL     1       1.071   8.387 -35.299  1.00  0.00    -0.174 N 
ATOM      6  H5  UNL     1       1.205   8.132 -34.320  1.00  0.00     0.186 HD
HETATM    7  C7  UNL     1      -0.134   8.238 -35.862  1.00  0.00     0.163 A 
HETATM    8  C8  UNL     1      -0.296   8.591 -37.192  1.00  0.00     0.135 A 
HETATM    9  N6  UNL     1      -1.555   8.360 -37.514  1.00  0.00    -0.205 N 
HETATM   10  C9  UNL     1      -2.152   7.872 -36.392  1.00  0.00     0.354 A 
HETATM   11  O2  UNL     1      -3.372   7.570 -36.438  1.00  0.00    -0.244 OA
HETATM   12  N8  UNL     1      -1.305   7.789 -35.371  1.00  0.00    -0.247 N 
ENDROOT
BRANCH  12  13
HETATM   13  C10 UNL     1      -1.569   7.322 -34.020  1.00  0.00     0.062 C 
HETATM   14  C11 UNL     1      -0.622   7.817 -32.990  1.00  0.00     0.196 C 
HETATM   15  C12 UNL     1      -1.360   7.587 -31.646  1.00  0.00     0.164 C 
HETATM   16  C13 UNL     1      -1.389   6.064 -31.518  1.00  0.00     0.093 C 
HETATM   17  C16 UNL     1      -2.150   5.379 -32.562  1.00  0.00     0.145 C 
HETATM   18  C17 UNL     1      -1.927   5.881 -33.970  1.00  0.00     0.189 C 
BRANCH  14  19
HETATM   19  O3  UNL     1       0.558   7.113 -32.837  1.00  0.00    -0.387 OA
ATOM     20  H3  UNL     1       0.631   6.560 -32.068  1.00  0.00     0.210 HD
ENDBRANCH  14  19
BRANCH  15  21
HETATM   21  O4  UNL     1      -0.690   8.117 -30.582  1.00  0.00    -0.392 OA
ATOM     22  H4  UNL     1       0.249   7.978 -30.635  1.00  0.00     0.210 HD
ENDBRANCH  15  21
BRANCH  16  23
HETATM   23  C14 UNL     1      -1.836   5.773 -30.114  1.00  0.00     0.169 C 
BRANCH  23  24
HETATM   24  N9  UNL     1      -2.966   6.394 -29.629  1.00  0.00    -0.371 NA
HETATM   25  C15 UNL     1      -4.057   6.995 -29.160  1.00  0.00     0.405 C 
HETATM   26  N10 UNL     1      -5.371   6.329 -29.180  1.00  0.00    -0.025 NA
HETATM   27  O5  UNL     1      -4.173   8.167 -28.642  1.00  0.00    -0.234 OA
ENDBRANCH  23  24
ENDBRANCH  16  23
BRANCH  17  28
HETATM   28  N11 UNL     1      -1.708   3.970 -32.620  1.00  0.00    -0.140 NA
BRANCH  28  29
HETATM   29  N12 UNL     1      -2.645   3.183 -33.301  1.00  0.00    -0.348 N 
ATOM     30 2H12 UNL     1      -3.563   2.941 -32.925  1.00  0.00     0.172 HD
ATOM     31 1H12 UNL     1      -2.282   2.895 -34.210  1.00  0.00     0.172 HD
ENDBRANCH  28  29
ENDBRANCH  17  28
BRANCH  18  32
HETATM   32  O6  UNL     1      -1.058   5.069 -34.699  1.00  0.00    -0.388 OA
ATOM     33  H6  UNL     1      -0.476   4.553 -34.152  1.00  0.00     0.210 HD
ENDBRANCH  18  32
ENDBRANCH  12  13
BRANCH   9  34
HETATM   34  N7  UNL     1      -2.199   8.560 -38.740  1.00  0.00    -0.334 N 
ATOM     35  H72 UNL     1      -2.263   7.866 -39.484  1.00  0.00     0.177 HD
ATOM     36  H71 UNL     1      -2.691   9.388 -39.078  1.00  0.00     0.177 HD
ENDBRANCH   9  34
BRANCH   4  37
HETATM   37  N4  UNL     1       3.286   9.017 -35.467  1.00  0.00    -0.234 N 
ATOM     38  H42 UNL     1       4.043   9.479 -35.970  1.00  0.00     0.174 HD
ATOM     39  H41 UNL     1       3.444   8.660 -34.524  1.00  0.00     0.174 HD
ENDBRANCH   4  37
BRANCH   1  40
HETATM   40  C4  UNL     1       0.664   9.467 -39.344  1.00  0.00     0.217 C 
BRANCH  40  41
HETATM   41  N2  UNL     1       0.060  10.406 -39.759  1.00  0.00    -0.393 NA
BRANCH  41  42
HETATM   42  C3  UNL     1      -0.636  11.408 -40.237  1.00  0.00     0.219 C 
BRANCH  42  43
HETATM   43  C2  UNL     1      -2.081  11.693 -39.845  1.00  0.00     0.268 C 
HETATM   44  C1  UNL     1      -2.851  11.924 -41.154  1.00  0.00     0.050 C 
BRANCH  43  45
HETATM   45  N1  UNL     1      -2.206  12.891 -39.083  1.00  0.00    -0.067 N 
ATOM     46  H13 UNL     1      -1.360  13.460 -39.086  1.00  0.00     0.275 HD
ATOM     47  H12 UNL     1      -2.824  13.579 -39.513  1.00  0.00     0.275 HD
ATOM     48  H11 UNL     1      -2.501  12.612 -38.147  1.00  0.00     0.275 HD
ENDBRANCH  43  45
ENDBRANCH  42  43
BRANCH  42  49
HETATM   49  O1  UNL     1      -0.194  12.283 -41.094  1.00  0.00    -0.337 OA
ATOM     50  H1  UNL     1       0.142  11.862 -41.877  1.00  0.00     0.220 HD
ENDBRANCH  42  49
ENDBRANCH  41  42
ENDBRANCH  40  41
ENDBRANCH   1  40
TORSDOF 16
ENDMDL
