MODEL 1
REMARK VINA RESULT: -5.123660973      0.000      0.000
REMARK  3 active torsions:
REMARK  status: ('A' for Active; 'I' for Inactive)
REMARK    1  A    between atoms: N1_1  and  N2_4 
REMARK    2  A    between atoms: N3_6  and  C1_8 
REMARK    3  A    between atoms: C1_8  and  C2_9 
ROOT
HETATM    1  C2  UNL     1     -63.757  38.394 -42.547  1.00  0.00     0.206 C 
HETATM    2  C3  UNL     1     -62.388  37.759 -42.613  1.00  0.00     0.035 C 
HETATM    3  C4  UNL     1     -62.385  36.366 -43.103  1.00  0.00     0.004 C 
HETATM    4  C5  UNL     1     -63.685  35.697 -43.295  1.00  0.00     0.039 C 
HETATM    5  C6  UNL     1     -64.854  36.576 -43.596  1.00  0.00     0.126 C 
HETATM    6  C7  UNL     1     -65.325  36.216 -45.014  1.00  0.00     0.039 C 
HETATM    7  C8  UNL     1     -65.969  34.850 -44.875  1.00  0.00     0.002 C 
HETATM    8  C9  UNL     1     -67.337  35.155 -44.269  1.00  0.00     0.000 C 
HETATM    9  C10 UNL     1     -67.272  36.014 -43.070  1.00  0.00     0.002 C 
HETATM   10  C11 UNL     1     -65.949  36.442 -42.593  1.00  0.00     0.039 C 
HETATM   11  N4  UNL     1     -64.471  37.992 -43.715  1.00  0.00    -0.060 N 
ATOM     12  H41 UNL     1     -63.946  38.178 -44.570  1.00  0.00     0.278 HD
ATOM     13  H42 UNL     1     -65.274  38.594 -43.901  1.00  0.00     0.278 HD
ENDROOT
BRANCH   1  14
HETATM   14  C1  UNL     1     -63.651  39.904 -42.558  1.00  0.00     0.173 C 
BRANCH  14  15
HETATM   15  N3  UNL     1     -64.392  40.495 -41.447  1.00  0.00    -0.321 N 
HETATM   16  N2  UNL     1     -65.563  40.191 -41.301  1.00  0.00    -0.254 N 
ATOM     17  H2  UNL     1     -65.467  39.188 -41.136  1.00  0.00     0.207 HD
ATOM     18  H3  UNL     1     -63.939  41.148 -40.807  1.00  0.00     0.181 HD
BRANCH  16  19
HETATM   19  N1  UNL     1     -66.800  40.306 -41.222  1.00  0.00    -0.331 N 
ATOM     20  H12 UNL     1     -66.816  41.306 -41.025  1.00  0.00     0.178 HD
ATOM     21  H11 UNL     1     -67.788  40.052 -41.227  1.00  0.00     0.178 HD
ENDBRANCH  16  19
ENDBRANCH  14  15
ENDBRANCH   1  14
TORSDOF 3
ENDMDL
MODEL 2
REMARK VINA RESULT: -5.056743562      1.646      2.488
REMARK  3 active torsions:
REMARK  status: ('A' for Active; 'I' for Inactive)
REMARK    1  A    between atoms: N1_1  and  N2_4 
REMARK    2  A    between atoms: N3_6  and  C1_8 
REMARK    3  A    between atoms: C1_8  and  C2_9 
ROOT
HETATM    1  C2  UNL     1     -62.635  39.012 -43.153  1.00  0.00     0.206 C 
HETATM    2  C3  UNL     1     -62.517  39.935 -44.343  1.00  0.00     0.035 C 
HETATM    3  C4  UNL     1     -62.748  39.281 -45.647  1.00  0.00     0.004 C 
HETATM    4  C5  UNL     1     -62.882  37.813 -45.671  1.00  0.00     0.039 C 
HETATM    5  C6  UNL     1     -63.396  37.166 -44.427  1.00  0.00     0.126 C 
HETATM    6  C7  UNL     1     -64.748  36.530 -44.785  1.00  0.00     0.039 C 
HETATM    7  C8  UNL     1     -64.400  35.338 -45.654  1.00  0.00     0.002 C 
HETATM    8  C9  UNL     1     -63.929  34.285 -44.653  1.00  0.00     0.000 C 
HETATM    9  C10 UNL     1     -62.902  34.781 -43.716  1.00  0.00     0.002 C 
HETATM   10  C11 UNL     1     -62.442  36.170 -43.860  1.00  0.00     0.039 C 
HETATM   11  N4  UNL     1     -63.747  38.150 -43.391  1.00  0.00    -0.060 N 
ATOM     12  H41 UNL     1     -64.594  38.670 -43.624  1.00  0.00     0.278 HD
ATOM     13  H42 UNL     1     -64.079  37.706 -42.534  1.00  0.00     0.278 HD
ENDROOT
BRANCH   1  14
HETATM   14  C1  UNL     1     -62.912  39.798 -41.889  1.00  0.00     0.173 C 
BRANCH  14  15
HETATM   15  N3  UNL     1     -64.100  40.635 -42.038  1.00  0.00    -0.321 N 
HETATM   16  N2  UNL     1     -65.093  40.357 -41.389  1.00  0.00    -0.254 N 
ATOM     17  H2  UNL     1     -64.726  40.473 -40.444  1.00  0.00     0.207 HD
ATOM     18  H3  UNL     1     -64.098  41.435 -42.671  1.00  0.00     0.181 HD
BRANCH  16  19
HETATM   19  N1  UNL     1     -66.264  40.024 -41.126  1.00  0.00    -0.331 N 
ATOM     20  H12 UNL     1     -66.038  39.145 -40.660  1.00  0.00     0.178 HD
ATOM     21  H11 UNL     1     -67.282  40.060 -41.077  1.00  0.00     0.178 HD
ENDBRANCH  16  19
ENDBRANCH  14  15
ENDBRANCH   1  14
TORSDOF 3
ENDMDL
MODEL 3
REMARK VINA RESULT: -5.052047382      3.372      5.453
REMARK  3 active torsions:
REMARK  status: ('A' for Active; 'I' for Inactive)
REMARK    1  A    between atoms: N1_1  and  N2_4 
REMARK    2  A    between atoms: N3_6  and  C1_8 
REMARK    3  A    between atoms: C1_8  and  C2_9 
ROOT
HETATM    1  C2  UNL     1     -64.154  35.047 -44.747  1.00  0.00     0.206 C 
HETATM    2  C3  UNL     1     -62.873  34.760 -44.000  1.00  0.00     0.035 C 
HETATM    3  C4  UNL     1     -62.385  35.881 -43.173  1.00  0.00     0.004 C 
HETATM    4  C5  UNL     1     -63.067  37.182 -43.298  1.00  0.00     0.039 C 
HETATM    5  C6  UNL     1     -64.501  37.150 -43.714  1.00  0.00     0.126 C 
HETATM    6  C7  UNL     1     -65.317  37.700 -42.534  1.00  0.00     0.039 C 
HETATM    7  C8  UNL     1     -65.015  39.186 -42.511  1.00  0.00     0.002 C 
HETATM    8  C9  UNL     1     -65.874  39.747 -43.642  1.00  0.00     0.000 C 
HETATM    9  C10 UNL     1     -65.708  39.028 -44.920  1.00  0.00     0.002 C 
HETATM   10  C11 UNL     1     -64.753  37.912 -44.971  1.00  0.00     0.039 C 
HETATM   11  N4  UNL     1     -65.007  35.777 -43.866  1.00  0.00    -0.060 N 
ATOM     12  H41 UNL     1     -65.124  35.308 -42.967  1.00  0.00     0.278 HD
ATOM     13  H42 UNL     1     -65.981  35.756 -44.170  1.00  0.00     0.278 HD
ENDROOT
BRANCH   1  14
HETATM   14  C1  UNL     1     -64.858  33.761 -45.123  1.00  0.00     0.173 C 
BRANCH  14  15
HETATM   15  N3  UNL     1     -63.934  32.629 -45.107  1.00  0.00    -0.321 N 
HETATM   16  N2  UNL     1     -64.396  31.501 -45.106  1.00  0.00    -0.254 N 
ATOM     17  H2  UNL     1     -64.888  31.510 -46.000  1.00  0.00     0.207 HD
ATOM     18  H3  UNL     1     -62.925  32.780 -45.096  1.00  0.00     0.181 HD
BRANCH  16  19
HETATM   19  N1  UNL     1     -64.658  30.345 -44.726  1.00  0.00    -0.331 N 
ATOM     20  H12 UNL     1     -63.877  30.251 -44.077  1.00  0.00     0.178 HD
ATOM     21  H11 UNL     1     -65.138  29.449 -44.646  1.00  0.00     0.178 HD
ENDBRANCH  16  19
ENDBRANCH  14  15
ENDBRANCH   1  14
TORSDOF 3
ENDMDL
MODEL 4
REMARK VINA RESULT: -4.983717515      1.501      3.470
REMARK  3 active torsions:
REMARK  status: ('A' for Active; 'I' for Inactive)
REMARK    1  A    between atoms: N1_1  and  N2_4 
REMARK    2  A    between atoms: N3_6  and  C1_8 
REMARK    3  A    between atoms: C1_8  and  C2_9 
ROOT
HETATM    1  C2  UNL     1     -66.875  38.351 -42.253  1.00  0.00     0.206 C 
HETATM    2  C3  UNL     1     -68.009  37.416 -42.605  1.00  0.00     0.035 C 
HETATM    3  C4  UNL     1     -67.595  36.202 -43.337  1.00  0.00     0.004 C 
HETATM    4  C5  UNL     1     -66.197  36.115 -43.798  1.00  0.00     0.039 C 
HETATM    5  C6  UNL     1     -65.182  36.877 -43.010  1.00  0.00     0.126 C 
HETATM    6  C7  UNL     1     -64.236  35.839 -42.386  1.00  0.00     0.039 C 
HETATM    7  C8  UNL     1     -63.419  35.309 -43.548  1.00  0.00     0.002 C 
HETATM    8  C9  UNL     1     -62.390  36.410 -43.798  1.00  0.00     0.000 C 
HETATM    9  C10 UNL     1     -62.985  37.754 -43.928  1.00  0.00     0.002 C 
HETATM   10  C11 UNL     1     -64.447  37.879 -43.834  1.00  0.00     0.039 C 
HETATM   11  N4  UNL     1     -65.772  37.546 -41.839  1.00  0.00    -0.060 N 
ATOM     12  H41 UNL     1     -66.032  36.884 -41.108  1.00  0.00     0.278 HD
ATOM     13  H42 UNL     1     -65.081  38.082 -41.313  1.00  0.00     0.278 HD
ENDROOT
BRANCH   1  14
HETATM   14  C1  UNL     1     -67.259  39.251 -41.099  1.00  0.00     0.173 C 
BRANCH  14  15
HETATM   15  N3  UNL     1     -66.765  40.611 -41.302  1.00  0.00    -0.321 N 
HETATM   16  N2  UNL     1     -65.588  40.767 -41.576  1.00  0.00    -0.254 N 
ATOM     17  H2  UNL     1     -65.544  40.266 -42.464  1.00  0.00     0.207 HD
ATOM     18  H3  UNL     1     -67.391  41.411 -41.217  1.00  0.00     0.181 HD
BRANCH  16  19
HETATM   19  N1  UNL     1     -64.404  41.140 -41.479  1.00  0.00    -0.331 N 
ATOM     20  H12 UNL     1     -64.476  41.528 -40.539  1.00  0.00     0.178 HD
ATOM     21  H11 UNL     1     -63.428  41.305 -41.726  1.00  0.00     0.178 HD
ENDBRANCH  16  19
ENDBRANCH  14  15
ENDBRANCH   1  14
TORSDOF 3
ENDMDL
MODEL 5
REMARK VINA RESULT: -4.943815906     13.287     15.313
REMARK  3 active torsions:
REMARK  status: ('A' for Active; 'I' for Inactive)
REMARK    1  A    between atoms: N1_1  and  N2_4 
REMARK    2  A    between atoms: N3_6  and  C1_8 
REMARK    3  A    between atoms: C1_8  and  C2_9 
ROOT
HETATM    1  C2  UNL     1     -70.073  26.610 -53.195  1.00  0.00     0.206 C 
HETATM    2  C3  UNL     1     -69.980  25.725 -54.416  1.00  0.00     0.035 C 
HETATM    3  C4  UNL     1     -68.601  25.398 -54.829  1.00  0.00     0.004 C 
HETATM    4  C5  UNL     1     -67.492  26.092 -54.149  1.00  0.00     0.039 C 
HETATM    5  C6  UNL     1     -67.746  26.555 -52.752  1.00  0.00     0.126 C 
HETATM    6  C7  UNL     1     -66.795  25.762 -51.842  1.00  0.00     0.039 C 
HETATM    7  C8  UNL     1     -65.419  26.329 -52.130  1.00  0.00     0.002 C 
HETATM    8  C9  UNL     1     -65.402  27.647 -51.357  1.00  0.00     0.000 C 
HETATM    9  C10 UNL     1     -66.573  28.504 -51.628  1.00  0.00     0.002 C 
HETATM   10  C11 UNL     1     -67.574  28.027 -52.594  1.00  0.00     0.039 C 
HETATM   11  N4  UNL     1     -69.081  26.165 -52.270  1.00  0.00    -0.060 N 
ATOM     12  H41 UNL     1     -69.147  25.164 -52.087  1.00  0.00     0.278 HD
ATOM     13  H42 UNL     1     -69.261  26.500 -51.323  1.00  0.00     0.278 HD
ENDROOT
BRANCH   1  14
HETATM   14  C1  UNL     1     -71.427  26.473 -52.533  1.00  0.00     0.173 C 
BRANCH  14  15
HETATM   15  N3  UNL     1     -71.376  26.890 -51.133  1.00  0.00    -0.321 N 
HETATM   16  N2  UNL     1     -72.404  27.270 -50.602  1.00  0.00    -0.254 N 
ATOM     17  H2  UNL     1     -72.965  26.420 -50.671  1.00  0.00     0.207 HD
ATOM     18  H3  UNL     1     -70.498  26.863 -50.613  1.00  0.00     0.181 HD
BRANCH  16  19
HETATM   19  N1  UNL     1     -73.217  28.019 -50.029  1.00  0.00    -0.331 N 
ATOM     20  H12 UNL     1     -72.826  28.900 -50.364  1.00  0.00     0.178 HD
ATOM     21  H11 UNL     1     -74.004  28.317 -49.453  1.00  0.00     0.178 HD
ENDBRANCH  16  19
ENDBRANCH  14  15
ENDBRANCH   1  14
TORSDOF 3
ENDMDL
