MODEL 1
REMARK VINA RESULT: -4.220454986      0.000      0.000
REMARK  3 active torsions:
REMARK  status: ('A' for Active; 'I' for Inactive)
REMARK    1  A    between atoms: C2_2  and  S1_3 
REMARK    2  A    between atoms: S1_3  and  C3_4 
REMARK    3  A    between atoms: C8_9  and  O1_10 
ROOT
HETATM    1  C3  UNL     1     -64.360  36.305 -42.616  1.00  0.00     0.052 C 
HETATM    2  C4  UNL     1     -65.736  36.292 -43.270  1.00  0.00     0.015 C 
HETATM    3  C5  UNL     1     -66.719  37.164 -42.540  1.00  0.00     0.002 C 
HETATM    4  C6  UNL     1     -66.112  38.471 -42.122  1.00  0.00     0.008 C 
HETATM    5  C7  UNL     1     -64.832  38.710 -42.882  1.00  0.00     0.030 C 
HETATM    6  C8  UNL     1     -64.243  40.066 -42.610  1.00  0.00     0.183 C 
HETATM    7  S2  UNL     1     -62.474  39.777 -42.970  1.00  0.00    -0.137 SA
HETATM    8  C9  UNL     1     -62.551  37.962 -43.187  1.00  0.00     0.082 C 
HETATM    9  C10 UNL     1     -63.826  37.682 -42.432  1.00  0.00     0.016 C 
ENDROOT
BRANCH   1  10
HETATM   10  S1  UNL     1     -63.303  35.255 -43.663  1.00  0.00    -0.164 SA
BRANCH  10  11
HETATM   11  C2  UNL     1     -64.297  34.875 -45.145  1.00  0.00     0.070 C 
HETATM   12  C1  UNL     1     -64.346  33.361 -45.255  1.00  0.00     0.016 C 
ENDBRANCH  10  11
ENDBRANCH   1  10
BRANCH   6  13
HETATM   13  O1  UNL     1     -64.427  40.465 -41.292  1.00  0.00    -0.385 OA
ATOM     14  H1  UNL     1     -64.025  41.305 -41.110  1.00  0.00     0.211 HD
ENDBRANCH   6  13
TORSDOF 3
ENDMDL
MODEL 2
REMARK VINA RESULT: -4.198894881      2.652      4.096
REMARK  3 active torsions:
REMARK  status: ('A' for Active; 'I' for Inactive)
REMARK    1  A    between atoms: C2_2  and  S1_3 
REMARK    2  A    between atoms: S1_3  and  C3_4 
REMARK    3  A    between atoms: C8_9  and  O1_10 
ROOT
HETATM    1  C3  UNL     1     -62.635  38.128 -43.960  1.00  0.00     0.052 C 
HETATM    2  C4  UNL     1     -62.485  36.985 -44.958  1.00  0.00     0.015 C 
HETATM    3  C5  UNL     1     -62.385  35.648 -44.276  1.00  0.00     0.002 C 
HETATM    4  C6  UNL     1     -63.360  35.518 -43.143  1.00  0.00     0.008 C 
HETATM    5  C7  UNL     1     -64.421  36.583 -43.253  1.00  0.00     0.030 C 
HETATM    6  C8  UNL     1     -65.506  36.425 -42.225  1.00  0.00     0.183 C 
HETATM    7  S2  UNL     1     -66.128  38.137 -42.081  1.00  0.00    -0.137 SA
HETATM    8  C9  UNL     1     -64.852  38.958 -43.103  1.00  0.00     0.082 C 
HETATM    9  C10 UNL     1     -63.764  37.919 -43.015  1.00  0.00     0.016 C 
ENDROOT
BRANCH   1  10
HETATM   10  S1  UNL     1     -62.802  39.640 -44.962  1.00  0.00    -0.164 SA
BRANCH  10  11
HETATM   11  C2  UNL     1     -63.382  39.086 -46.600  1.00  0.00     0.070 C 
HETATM   12  C1  UNL     1     -62.395  39.636 -47.615  1.00  0.00     0.016 C 
ENDBRANCH  10  11
ENDBRANCH   1  10
BRANCH   6  13
HETATM   13  O1  UNL     1     -65.016  35.965 -41.008  1.00  0.00    -0.385 OA
ATOM     14  H1  UNL     1     -65.708  35.660 -40.434  1.00  0.00     0.211 HD
ENDBRANCH   6  13
TORSDOF 3
ENDMDL
MODEL 3
REMARK VINA RESULT: -4.076262516      2.897      5.257
REMARK  3 active torsions:
REMARK  status: ('A' for Active; 'I' for Inactive)
REMARK    1  A    between atoms: C2_2  and  S1_3 
REMARK    2  A    between atoms: S1_3  and  C3_4 
REMARK    3  A    between atoms: C8_9  and  O1_10 
ROOT
HETATM    1  C3  UNL     1     -64.567  36.827 -42.633  1.00  0.00     0.052 C 
HETATM    2  C4  UNL     1     -63.125  37.055 -43.074  1.00  0.00     0.015 C 
HETATM    3  C5  UNL     1     -62.385  35.762 -43.279  1.00  0.00     0.002 C 
HETATM    4  C6  UNL     1     -63.222  34.738 -43.988  1.00  0.00     0.008 C 
HETATM    5  C7  UNL     1     -64.406  35.406 -44.640  1.00  0.00     0.030 C 
HETATM    6  C8  UNL     1     -65.212  34.455 -45.481  1.00  0.00     0.183 C 
HETATM    7  S2  UNL     1     -66.856  35.254 -45.464  1.00  0.00    -0.137 SA
HETATM    8  C9  UNL     1     -66.495  36.554 -44.229  1.00  0.00     0.082 C 
HETATM    9  C10 UNL     1     -65.309  35.920 -43.548  1.00  0.00     0.016 C 
ENDROOT
BRANCH   1  10
HETATM   10  S1  UNL     1     -65.311  38.484 -42.498  1.00  0.00    -0.164 SA
BRANCH  10  11
HETATM   11  C2  UNL     1     -63.949  39.663 -42.784  1.00  0.00     0.070 C 
HETATM   12  C1  UNL     1     -64.112  40.768 -41.756  1.00  0.00     0.016 C 
ENDBRANCH  10  11
ENDBRANCH   1  10
BRANCH   6  13
HETATM   13  O1  UNL     1     -65.268  33.181 -44.930  1.00  0.00    -0.385 OA
ATOM     14  H1  UNL     1     -64.458  32.702 -45.049  1.00  0.00     0.211 HD
ENDBRANCH   6  13
TORSDOF 3
ENDMDL
MODEL 4
REMARK VINA RESULT: -4.049640828      2.462      4.832
REMARK  3 active torsions:
REMARK  status: ('A' for Active; 'I' for Inactive)
REMARK    1  A    between atoms: C2_2  and  S1_3 
REMARK    2  A    between atoms: S1_3  and  C3_4 
REMARK    3  A    between atoms: C8_9  and  O1_10 
ROOT
HETATM    1  C3  UNL     1     -64.811  39.128 -42.436  1.00  0.00     0.052 C 
HETATM    2  C4  UNL     1     -63.503  39.910 -42.426  1.00  0.00     0.015 C 
HETATM    3  C5  UNL     1     -62.392  39.150 -41.754  1.00  0.00     0.002 C 
HETATM    4  C6  UNL     1     -62.385  37.701 -42.144  1.00  0.00     0.008 C 
HETATM    5  C7  UNL     1     -63.222  37.497 -43.381  1.00  0.00     0.030 C 
HETATM    6  C8  UNL     1     -63.146  36.089 -43.904  1.00  0.00     0.183 C 
HETATM    7  S2  UNL     1     -64.731  35.945 -44.803  1.00  0.00    -0.137 SA
HETATM    8  C9  UNL     1     -65.474  37.528 -44.264  1.00  0.00     0.082 C 
HETATM    9  C10 UNL     1     -64.660  37.767 -43.018  1.00  0.00     0.016 C 
ENDROOT
BRANCH   1  10
HETATM   10  S1  UNL     1     -66.004  40.169 -43.334  1.00  0.00    -0.164 SA
BRANCH  10  11
HETATM   11  C2  UNL     1     -67.238  40.689 -42.095  1.00  0.00     0.070 C 
HETATM   12  C1  UNL     1     -67.217  39.639 -40.999  1.00  0.00     0.016 C 
ENDBRANCH  10  11
ENDBRANCH   1  10
BRANCH   6  13
HETATM   13  O1  UNL     1     -63.062  35.152 -42.882  1.00  0.00    -0.385 OA
ATOM     14  H1  UNL     1     -63.885  35.051 -42.418  1.00  0.00     0.211 HD
ENDBRANCH   6  13
TORSDOF 3
ENDMDL
MODEL 5
REMARK VINA RESULT: -3.981894072     12.894     14.518
REMARK  3 active torsions:
REMARK  status: ('A' for Active; 'I' for Inactive)
REMARK    1  A    between atoms: C2_2  and  S1_3 
REMARK    2  A    between atoms: S1_3  and  C3_4 
REMARK    3  A    between atoms: C8_9  and  O1_10 
ROOT
HETATM    1  C3  UNL     1     -68.840  27.089 -52.248  1.00  0.00     0.052 C 
HETATM    2  C4  UNL     1     -69.518  26.824 -53.587  1.00  0.00     0.015 C 
HETATM    3  C5  UNL     1     -70.756  25.983 -53.439  1.00  0.00     0.002 C 
HETATM    4  C6  UNL     1     -71.585  26.402 -52.261  1.00  0.00     0.008 C 
HETATM    5  C7  UNL     1     -71.165  27.774 -51.799  1.00  0.00     0.030 C 
HETATM    6  C8  UNL     1     -72.048  28.311 -50.706  1.00  0.00     0.183 C 
HETATM    7  S2  UNL     1     -70.924  29.483 -49.868  1.00  0.00    -0.137 SA
HETATM    8  C9  UNL     1     -69.388  29.047 -50.762  1.00  0.00     0.082 C 
HETATM    9  C10 UNL     1     -69.769  27.669 -51.241  1.00  0.00     0.016 C 
ENDROOT
BRANCH   1  10
HETATM   10  S1  UNL     1     -67.415  28.160 -52.617  1.00  0.00    -0.164 SA
BRANCH  10  11
HETATM   11  C2  UNL     1     -65.960  27.307 -51.922  1.00  0.00     0.070 C 
HETATM   12  C1  UNL     1     -66.327  25.836 -51.829  1.00  0.00     0.016 C 
ENDBRANCH  10  11
ENDBRANCH   1  10
BRANCH   6  13
HETATM   13  O1  UNL     1     -72.472  27.314 -49.836  1.00  0.00    -0.385 OA
ATOM     14  H1  UNL     1     -73.419  27.258 -49.788  1.00  0.00     0.211 HD
ENDBRANCH   6  13
TORSDOF 3
ENDMDL
