MODEL 1
REMARK VINA RESULT: -5.163055162      0.000      0.000
REMARK  5 active torsions:
REMARK  status: ('A' for Active; 'I' for Inactive)
REMARK    1  A    between atoms: C5_5  and  O1_6 
REMARK    2  A    between atoms: C5_5  and  O2_8 
REMARK    3  A    between atoms: N1_11  and  C7_13 
REMARK    4  A    between atoms: C7_13  and  C8_14 
REMARK    5  A    between atoms: C8_14  and  C9_15 
ROOT
HETATM    1  C1  UNL     1     -64.615  34.311 -45.671  1.00  0.00     0.010 C 
HETATM    2  C2  UNL     1     -64.892  35.451 -44.715  1.00  0.00    -0.013 C 
HETATM    3  C3  UNL     1     -63.893  35.500 -43.592  1.00  0.00     0.010 C 
HETATM    4  C4  UNL     1     -64.109  36.849 -42.894  1.00  0.00     0.075 C 
HETATM    5  C5  UNL     1     -65.378  36.670 -42.079  1.00  0.00     0.199 C 
HETATM    6  C6  UNL     1     -66.489  36.165 -42.923  1.00  0.00     0.044 C 
HETATM    7  N1  UNL     1     -67.681  36.429 -42.564  1.00  0.00    -0.392 N 
ATOM      8  H1  UNL     1     -67.794  36.976 -41.710  1.00  0.00     0.159 HD
HETATM    9  C13 UNL     1     -66.276  35.372 -44.157  1.00  0.00     0.062 C 
ENDROOT
BRANCH   5  10
HETATM   10  O1  UNL     1     -65.735  37.879 -41.474  1.00  0.00    -0.361 OA
ATOM     11  H1  UNL     1     -66.563  37.783 -41.018  1.00  0.00     0.213 HD
ENDBRANCH   5  10
BRANCH   5  12
HETATM   12  O2  UNL     1     -65.070  35.749 -41.068  1.00  0.00    -0.361 OA
ATOM     13  H2  UNL     1     -65.378  36.132 -40.255  1.00  0.00     0.213 HD
ENDBRANCH   5  12
BRANCH   7  14
HETATM   14  C7  UNL     1     -68.863  36.038 -43.232  1.00  0.00     0.120 C 
BRANCH  14  15
HETATM   15  C8  UNL     1     -69.889  35.554 -42.236  1.00  0.00     0.028 C 
BRANCH  15  16
HETATM   16  C9  UNL     1     -70.317  34.136 -42.546  1.00  0.00    -0.050 C 
HETATM   17  C10 UNL     1     -69.145  33.233 -42.238  1.00  0.00     0.014 C 
HETATM   18  C11 UNL     1     -70.616  34.052 -44.024  1.00  0.00     0.014 C 
HETATM   19  C12 UNL     1     -71.493  33.707 -41.710  1.00  0.00     0.014 C 
ENDBRANCH  15  16
ENDBRANCH  14  15
ENDBRANCH   7  14
TORSDOF 5
ENDMDL
MODEL 2
REMARK VINA RESULT: -5.159478627      0.078      1.077
REMARK  5 active torsions:
REMARK  status: ('A' for Active; 'I' for Inactive)
REMARK    1  A    between atoms: C5_5  and  O1_6 
REMARK    2  A    between atoms: C5_5  and  O2_8 
REMARK    3  A    between atoms: N1_11  and  C7_13 
REMARK    4  A    between atoms: C7_13  and  C8_14 
REMARK    5  A    between atoms: C8_14  and  C9_15 
ROOT
HETATM    1  C1  UNL     1     -64.606  34.340 -45.666  1.00  0.00     0.010 C 
HETATM    2  C2  UNL     1     -64.859  35.465 -44.687  1.00  0.00    -0.013 C 
HETATM    3  C3  UNL     1     -63.866  35.465 -43.558  1.00  0.00     0.010 C 
HETATM    4  C4  UNL     1     -64.052  36.803 -42.831  1.00  0.00     0.075 C 
HETATM    5  C5  UNL     1     -65.330  36.639 -42.027  1.00  0.00     0.199 C 
HETATM    6  C6  UNL     1     -66.448  36.181 -42.888  1.00  0.00     0.044 C 
HETATM    7  N1  UNL     1     -67.635  36.467 -42.530  1.00  0.00    -0.392 N 
ATOM      8  H1  UNL     1     -67.739  36.998 -41.664  1.00  0.00     0.159 HD
HETATM    9  C13 UNL     1     -66.248  35.410 -44.138  1.00  0.00     0.062 C 
ENDROOT
BRANCH   5  10
HETATM   10  O1  UNL     1     -65.660  37.843 -41.398  1.00  0.00    -0.361 OA
ATOM     11  H1  UNL     1     -66.528  37.784 -41.017  1.00  0.00     0.213 HD
ENDBRANCH   5  10
BRANCH   5  12
HETATM   12  O2  UNL     1     -65.051  35.689 -41.035  1.00  0.00    -0.361 OA
ATOM     13  H2  UNL     1     -64.115  35.735 -40.877  1.00  0.00     0.213 HD
ENDBRANCH   5  12
BRANCH   7  14
HETATM   14  C7  UNL     1     -68.823  36.121 -43.213  1.00  0.00     0.120 C 
BRANCH  14  15
HETATM   15  C8  UNL     1     -69.841  35.572 -42.243  1.00  0.00     0.028 C 
BRANCH  15  16
HETATM   16  C9  UNL     1     -70.254  34.168 -42.627  1.00  0.00    -0.050 C 
HETATM   17  C10 UNL     1     -71.469  33.813 -41.801  1.00  0.00     0.014 C 
HETATM   18  C11 UNL     1     -69.127  33.234 -42.254  1.00  0.00     0.014 C 
HETATM   19  C12 UNL     1     -70.610  34.064 -44.085  1.00  0.00     0.014 C 
ENDBRANCH  15  16
ENDBRANCH  14  15
ENDBRANCH   7  14
TORSDOF 5
ENDMDL
MODEL 3
REMARK VINA RESULT: -5.056404626      0.677      1.304
REMARK  5 active torsions:
REMARK  status: ('A' for Active; 'I' for Inactive)
REMARK    1  A    between atoms: C5_5  and  O1_6 
REMARK    2  A    between atoms: C5_5  and  O2_8 
REMARK    3  A    between atoms: N1_11  and  C7_13 
REMARK    4  A    between atoms: C7_13  and  C8_14 
REMARK    5  A    between atoms: C8_14  and  C9_15 
ROOT
HETATM    1  C1  UNL     1     -64.562  34.272 -45.627  1.00  0.00     0.010 C 
HETATM    2  C2  UNL     1     -64.842  35.411 -44.671  1.00  0.00    -0.013 C 
HETATM    3  C3  UNL     1     -63.829  35.478 -43.562  1.00  0.00     0.010 C 
HETATM    4  C4  UNL     1     -64.054  36.827 -42.866  1.00  0.00     0.075 C 
HETATM    5  C5  UNL     1     -65.310  36.634 -42.034  1.00  0.00     0.199 C 
HETATM    6  C6  UNL     1     -66.425  36.111 -42.862  1.00  0.00     0.044 C 
HETATM    7  N1  UNL     1     -67.616  36.360 -42.488  1.00  0.00    -0.392 N 
ATOM      8  H1  UNL     1     -67.725  36.909 -41.634  1.00  0.00     0.159 HD
HETATM    9  C13 UNL     1     -66.218  35.316 -44.095  1.00  0.00     0.062 C 
ENDROOT
BRANCH   5  10
HETATM   10  O1  UNL     1     -65.675  37.840 -41.429  1.00  0.00    -0.361 OA
ATOM     11  H1  UNL     1     -65.095  38.028 -40.700  1.00  0.00     0.213 HD
ENDBRANCH   5  10
BRANCH   5  12
HETATM   12  O2  UNL     1     -64.976  35.721 -41.024  1.00  0.00    -0.361 OA
ATOM     13  H2  UNL     1     -65.796  35.448 -40.629  1.00  0.00     0.213 HD
ENDBRANCH   5  12
BRANCH   7  14
HETATM   14  C7  UNL     1     -68.801  35.951 -43.139  1.00  0.00     0.120 C 
BRANCH  14  15
HETATM   15  C8  UNL     1     -69.319  34.673 -42.525  1.00  0.00     0.028 C 
BRANCH  15  16
HETATM   16  C9  UNL     1     -70.757  34.829 -42.081  1.00  0.00    -0.050 C 
HETATM   17  C10 UNL     1     -70.883  36.185 -41.426  1.00  0.00     0.014 C 
HETATM   18  C11 UNL     1     -71.043  33.765 -41.048  1.00  0.00     0.014 C 
HETATM   19  C12 UNL     1     -71.715  34.758 -43.240  1.00  0.00     0.014 C 
ENDBRANCH  15  16
ENDBRANCH  14  15
ENDBRANCH   7  14
TORSDOF 5
ENDMDL
MODEL 4
REMARK VINA RESULT: -4.799233350      3.141      4.245
REMARK  5 active torsions:
REMARK  status: ('A' for Active; 'I' for Inactive)
REMARK    1  A    between atoms: C5_5  and  O1_6 
REMARK    2  A    between atoms: C5_5  and  O2_8 
REMARK    3  A    between atoms: N1_11  and  C7_13 
REMARK    4  A    between atoms: C7_13  and  C8_14 
REMARK    5  A    between atoms: C8_14  and  C9_15 
ROOT
HETATM    1  C1  UNL     1     -66.150  36.494 -46.007  1.00  0.00     0.010 C 
HETATM    2  C2  UNL     1     -65.186  36.721 -44.864  1.00  0.00    -0.013 C 
HETATM    3  C3  UNL     1     -64.887  35.450 -44.118  1.00  0.00     0.010 C 
HETATM    4  C4  UNL     1     -63.694  35.766 -43.206  1.00  0.00     0.075 C 
HETATM    5  C5  UNL     1     -64.278  36.583 -42.066  1.00  0.00     0.199 C 
HETATM    6  C6  UNL     1     -65.057  37.737 -42.578  1.00  0.00     0.044 C 
HETATM    7  N1  UNL     1     -65.177  38.758 -41.828  1.00  0.00    -0.392 N 
ATOM      8  H1  UNL     1     -64.725  38.714 -40.915  1.00  0.00     0.159 HD
HETATM    9  C13 UNL     1     -65.698  37.755 -43.914  1.00  0.00     0.062 C 
ENDROOT
BRANCH   5  10
HETATM   10  O1  UNL     1     -63.258  37.021 -41.217  1.00  0.00    -0.361 OA
ATOM     11  H1  UNL     1     -63.492  37.856 -40.829  1.00  0.00     0.213 HD
ENDBRANCH   5  10
BRANCH   5  12
HETATM   12  O2  UNL     1     -65.106  35.712 -41.343  1.00  0.00    -0.361 OA
ATOM     13  H2  UNL     1     -65.999  35.983 -41.522  1.00  0.00     0.213 HD
ENDBRANCH   5  12
BRANCH   7  14
HETATM   14  C7  UNL     1     -65.876  39.947 -42.137  1.00  0.00     0.120 C 
BRANCH  14  15
HETATM   15  C8  UNL     1     -67.170  40.007 -41.363  1.00  0.00     0.028 C 
BRANCH  15  16
HETATM   16  C9  UNL     1     -68.358  40.089 -42.297  1.00  0.00    -0.050 C 
HETATM   17  C10 UNL     1     -69.302  41.127 -41.736  1.00  0.00     0.014 C 
HETATM   18  C11 UNL     1     -69.052  38.747 -42.284  1.00  0.00     0.014 C 
HETATM   19  C12 UNL     1     -67.953  40.499 -43.687  1.00  0.00     0.014 C 
ENDBRANCH  15  16
ENDBRANCH  14  15
ENDBRANCH   7  14
TORSDOF 5
ENDMDL
MODEL 5
REMARK VINA RESULT: -4.760310430      1.528      2.131
REMARK  5 active torsions:
REMARK  status: ('A' for Active; 'I' for Inactive)
REMARK    1  A    between atoms: C5_5  and  O1_6 
REMARK    2  A    between atoms: C5_5  and  O2_8 
REMARK    3  A    between atoms: N1_11  and  C7_13 
REMARK    4  A    between atoms: C7_13  and  C8_14 
REMARK    5  A    between atoms: C8_14  and  C9_15 
ROOT
HETATM    1  C1  UNL     1     -65.349  38.917 -45.744  1.00  0.00     0.010 C 
HETATM    2  C2  UNL     1     -65.283  38.341 -44.347  1.00  0.00    -0.013 C 
HETATM    3  C3  UNL     1     -63.935  37.747 -44.046  1.00  0.00     0.010 C 
HETATM    4  C4  UNL     1     -63.917  37.485 -42.534  1.00  0.00     0.075 C 
HETATM    5  C5  UNL     1     -64.776  36.247 -42.340  1.00  0.00     0.199 C 
HETATM    6  C6  UNL     1     -66.105  36.413 -42.977  1.00  0.00     0.044 C 
HETATM    7  N1  UNL     1     -67.081  35.742 -42.510  1.00  0.00    -0.392 N 
ATOM      8  H1  UNL     1     -66.880  35.128 -41.720  1.00  0.00     0.159 HD
HETATM    9  C13 UNL     1     -66.348  37.317 -44.126  1.00  0.00     0.062 C 
ENDROOT
BRANCH   5  10
HETATM   10  O1  UNL     1     -64.918  35.971 -40.977  1.00  0.00    -0.361 OA
ATOM     11  H1  UNL     1     -65.839  35.952 -40.743  1.00  0.00     0.213 HD
ENDBRANCH   5  10
BRANCH   5  12
HETATM   12  O2  UNL     1     -64.075  35.186 -42.931  1.00  0.00    -0.361 OA
ATOM     13  H2  UNL     1     -64.397  35.118 -43.822  1.00  0.00     0.213 HD
ENDBRANCH   5  12
BRANCH   7  14
HETATM   14  C7  UNL     1     -68.413  35.765 -42.979  1.00  0.00     0.120 C 
BRANCH  14  15
HETATM   15  C8  UNL     1     -69.123  34.489 -42.594  1.00  0.00     0.028 C 
BRANCH  15  16
HETATM   16  C9  UNL     1     -70.544  34.770 -42.157  1.00  0.00    -0.050 C 
HETATM   17  C10 UNL     1     -71.436  34.553 -43.358  1.00  0.00     0.014 C 
HETATM   18  C11 UNL     1     -70.627  36.221 -41.749  1.00  0.00     0.014 C 
HETATM   19  C12 UNL     1     -70.986  33.849 -41.051  1.00  0.00     0.014 C 
ENDBRANCH  15  16
ENDBRANCH  14  15
ENDBRANCH   7  14
TORSDOF 5
ENDMDL
