MODEL 1
REMARK VINA RESULT: -5.093897697      0.000      0.000
REMARK  2 active torsions:
REMARK  status: ('A' for Active; 'I' for Inactive)
REMARK    1  A    between atoms: C4_6  and  N1_7 
REMARK    2  A    between atoms: N1_7  and  C5_10 
ROOT
HETATM    1  N1  UNL     1     -69.256  26.985 -51.813  1.00  0.00    -0.058 N 
ATOM      2  H11 UNL     1     -69.651  26.540 -52.641  1.00  0.00     0.278 HD
ATOM      3  H12 UNL     1     -69.431  26.251 -51.126  1.00  0.00     0.278 HD
ENDROOT
BRANCH   1   4
HETATM    4  C4  UNL     1     -69.985  28.177 -51.479  1.00  0.00     0.287 C 
HETATM    5  C1  UNL     1     -71.075  27.854 -50.518  1.00  0.00     0.289 C 
HETATM    6  O1  UNL     1     -71.788  26.824 -50.453  1.00  0.00    -0.263 OA
HETATM    7  O2  UNL     1     -71.222  28.927 -49.620  1.00  0.00    -0.320 OA
HETATM    8  C2  UNL     1     -70.216  29.896 -49.817  1.00  0.00     0.181 C 
HETATM    9  C3  UNL     1     -69.213  29.225 -50.760  1.00  0.00     0.070 C 
ENDBRANCH   1   4
BRANCH   1  10
HETATM   10  C5  UNL     1     -67.824  27.208 -51.979  1.00  0.00     0.187 C 
HETATM   11  C6  UNL     1     -67.224  25.811 -51.760  1.00  0.00     0.033 C 
HETATM   12  C7  UNL     1     -65.722  25.819 -51.821  1.00  0.00     0.002 C 
HETATM   13  C8  UNL     1     -65.218  25.476 -53.184  1.00  0.00     0.000 C 
HETATM   14  C9  UNL     1     -64.966  26.612 -54.097  1.00  0.00     0.000 C 
HETATM   15  C10 UNL     1     -65.051  27.991 -53.546  1.00  0.00     0.000 C 
HETATM   16  C11 UNL     1     -66.428  28.577 -53.552  1.00  0.00     0.002 C 
HETATM   17  C12 UNL     1     -67.550  27.591 -53.393  1.00  0.00     0.033 C 
ENDBRANCH   1  10
TORSDOF 2
ENDMDL
MODEL 2
REMARK VINA RESULT: -5.071591436      1.442      1.731
REMARK  2 active torsions:
REMARK  status: ('A' for Active; 'I' for Inactive)
REMARK    1  A    between atoms: C4_6  and  N1_7 
REMARK    2  A    between atoms: N1_7  and  C5_10 
ROOT
HETATM    1  N1  UNL     1     -69.061  26.413 -52.251  1.00  0.00    -0.058 N 
ATOM      2  H11 UNL     1     -69.124  26.223 -53.251  1.00  0.00     0.278 HD
ATOM      3  H12 UNL     1     -69.439  25.537 -51.888  1.00  0.00     0.278 HD
ENDROOT
BRANCH   1   4
HETATM    4  C4  UNL     1     -69.904  27.518 -51.889  1.00  0.00     0.287 C 
HETATM    5  C1  UNL     1     -71.249  27.355 -52.504  1.00  0.00     0.289 C 
HETATM    6  O1  UNL     1     -71.552  26.869 -53.620  1.00  0.00    -0.263 OA
HETATM    7  O2  UNL     1     -72.221  27.848 -51.613  1.00  0.00    -0.320 OA
HETATM    8  C2  UNL     1     -71.640  28.209 -50.379  1.00  0.00     0.181 C 
HETATM    9  C3  UNL     1     -70.218  27.644 -50.442  1.00  0.00     0.070 C 
ENDBRANCH   1   4
BRANCH   1  10
HETATM   10  C5  UNL     1     -67.671  26.585 -51.843  1.00  0.00     0.187 C 
HETATM   11  C6  UNL     1     -66.947  25.448 -52.579  1.00  0.00     0.033 C 
HETATM   12  C7  UNL     1     -65.482  25.394 -52.245  1.00  0.00     0.002 C 
HETATM   13  C8  UNL     1     -64.656  26.140 -53.240  1.00  0.00     0.000 C 
HETATM   14  C9  UNL     1     -64.371  27.558 -52.927  1.00  0.00     0.000 C 
HETATM   15  C10 UNL     1     -64.760  28.075 -51.589  1.00  0.00     0.000 C 
HETATM   16  C11 UNL     1     -66.171  28.567 -51.500  1.00  0.00     0.002 C 
HETATM   17  C12 UNL     1     -67.156  27.870 -52.394  1.00  0.00     0.033 C 
ENDBRANCH   1  10
TORSDOF 2
ENDMDL
MODEL 3
REMARK VINA RESULT: -5.018351995      1.445      2.710
REMARK  2 active torsions:
REMARK  status: ('A' for Active; 'I' for Inactive)
REMARK    1  A    between atoms: C4_6  and  N1_7 
REMARK    2  A    between atoms: N1_7  and  C5_10 
ROOT
HETATM    1  N1  UNL     1     -68.033  29.593 -51.867  1.00  0.00    -0.058 N 
ATOM      2  H11 UNL     1     -67.444  30.348 -51.515  1.00  0.00     0.278 HD
ATOM      3  H12 UNL     1     -68.603  30.119 -52.530  1.00  0.00     0.278 HD
ENDROOT
BRANCH   1   4
HETATM    4  C4  UNL     1     -68.846  29.050 -50.816  1.00  0.00     0.287 C 
HETATM    5  C1  UNL     1     -70.024  29.927 -50.579  1.00  0.00     0.289 C 
HETATM    6  O1  UNL     1     -70.101  31.178 -50.644  1.00  0.00    -0.263 OA
HETATM    7  O2  UNL     1     -71.132  29.125 -50.247  1.00  0.00    -0.320 OA
HETATM    8  C2  UNL     1     -70.822  27.755 -50.378  1.00  0.00     0.181 C 
HETATM    9  C3  UNL     1     -69.472  27.731 -51.101  1.00  0.00     0.070 C 
ENDBRANCH   1   4
BRANCH   1  10
HETATM   10  C5  UNL     1     -67.230  28.590 -52.558  1.00  0.00     0.187 C 
HETATM   11  C6  UNL     1     -66.892  29.270 -53.892  1.00  0.00     0.033 C 
HETATM   12  C7  UNL     1     -66.108  28.371 -54.809  1.00  0.00     0.002 C 
HETATM   13  C8  UNL     1     -64.637  28.594 -54.684  1.00  0.00     0.000 C 
HETATM   14  C9  UNL     1     -63.923  27.734 -53.714  1.00  0.00     0.000 C 
HETATM   15  C10 UNL     1     -64.667  26.612 -53.085  1.00  0.00     0.000 C 
HETATM   16  C11 UNL     1     -65.432  26.988 -51.854  1.00  0.00     0.002 C 
HETATM   17  C12 UNL     1     -65.950  28.397 -51.820  1.00  0.00     0.033 C 
ENDBRANCH   1  10
TORSDOF 2
ENDMDL
MODEL 4
REMARK VINA RESULT: -4.959061106      9.913     11.134
REMARK  2 active torsions:
REMARK  status: ('A' for Active; 'I' for Inactive)
REMARK    1  A    between atoms: C4_6  and  N1_7 
REMARK    2  A    between atoms: N1_7  and  C5_10 
ROOT
HETATM    1  N1  UNL     1     -64.933  36.926 -45.978  1.00  0.00    -0.058 N 
ATOM      2  H11 UNL     1     -65.260  37.884 -46.097  1.00  0.00     0.278 HD
ATOM      3  H12 UNL     1     -65.831  36.446 -45.924  1.00  0.00     0.278 HD
ENDROOT
BRANCH   1   4
HETATM    4  C4  UNL     1     -64.206  36.785 -44.747  1.00  0.00     0.287 C 
HETATM    5  C1  UNL     1     -64.687  35.586 -44.007  1.00  0.00     0.289 C 
HETATM    6  O1  UNL     1     -65.851  35.122 -43.931  1.00  0.00    -0.263 OA
HETATM    7  O2  UNL     1     -63.597  34.988 -43.350  1.00  0.00    -0.320 OA
HETATM    8  C2  UNL     1     -62.385  35.615 -43.704  1.00  0.00     0.181 C 
HETATM    9  C3  UNL     1     -62.749  36.521 -44.884  1.00  0.00     0.070 C 
ENDBRANCH   1   4
BRANCH   1  10
HETATM   10  C5  UNL     1     -64.181  36.487 -47.149  1.00  0.00     0.187 C 
HETATM   11  C6  UNL     1     -64.972  35.264 -47.635  1.00  0.00     0.033 C 
HETATM   12  C7  UNL     1     -64.326  34.598 -48.819  1.00  0.00     0.002 C 
HETATM   13  C8  UNL     1     -64.894  35.085 -50.110  1.00  0.00     0.000 C 
HETATM   14  C9  UNL     1     -64.199  36.226 -50.746  1.00  0.00     0.000 C 
HETATM   15  C10 UNL     1     -62.906  36.676 -50.165  1.00  0.00     0.000 C 
HETATM   16  C11 UNL     1     -63.038  37.663 -49.048  1.00  0.00     0.002 C 
HETATM   17  C12 UNL     1     -64.277  37.528 -48.210  1.00  0.00     0.033 C 
ENDBRANCH   1  10
TORSDOF 2
ENDMDL
MODEL 5
REMARK VINA RESULT: -4.829507117      1.430      2.134
REMARK  2 active torsions:
REMARK  status: ('A' for Active; 'I' for Inactive)
REMARK    1  A    between atoms: C4_6  and  N1_7 
REMARK    2  A    between atoms: N1_7  and  C5_10 
ROOT
HETATM    1  N1  UNL     1     -68.412  29.437 -52.452  1.00  0.00    -0.058 N 
ATOM      2  H11 UNL     1     -68.601  30.424 -52.282  1.00  0.00     0.278 HD
ATOM      3  H12 UNL     1     -68.925  29.313 -53.325  1.00  0.00     0.278 HD
ENDROOT
BRANCH   1   4
HETATM    4  C4  UNL     1     -68.975  28.624 -51.411  1.00  0.00     0.287 C 
HETATM    5  C1  UNL     1     -69.786  29.466 -50.490  1.00  0.00     0.289 C 
HETATM    6  O1  UNL     1     -69.581  30.647 -50.117  1.00  0.00    -0.263 OA
HETATM    7  O2  UNL     1     -70.898  28.724 -50.052  1.00  0.00    -0.320 OA
HETATM    8  C2  UNL     1     -70.974  27.484 -50.720  1.00  0.00     0.181 C 
HETATM    9  C3  UNL     1     -69.949  27.592 -51.854  1.00  0.00     0.070 C 
ENDBRANCH   1   4
BRANCH   1  10
HETATM   10  C5  UNL     1     -66.984  29.212 -52.655  1.00  0.00     0.187 C 
HETATM   11  C6  UNL     1     -66.618  28.243 -51.521  1.00  0.00     0.033 C 
HETATM   12  C7  UNL     1     -65.149  27.920 -51.497  1.00  0.00     0.002 C 
HETATM   13  C8  UNL     1     -64.843  26.664 -52.245  1.00  0.00     0.000 C 
HETATM   14  C9  UNL     1     -64.484  26.820 -53.672  1.00  0.00     0.000 C 
HETATM   15  C10 UNL     1     -64.277  28.194 -54.201  1.00  0.00     0.000 C 
HETATM   16  C11 UNL     1     -65.526  28.873 -54.668  1.00  0.00     0.002 C 
HETATM   17  C12 UNL     1     -66.782  28.487 -53.941  1.00  0.00     0.033 C 
ENDBRANCH   1  10
TORSDOF 2
ENDMDL
