MODEL 1
REMARK VINA RESULT: -4.906304369      0.000      0.000
REMARK  3 active torsions:
REMARK  status: ('A' for Active; 'I' for Inactive)
REMARK    1  A    between atoms: C4_4  and  C5_5 
REMARK    2  A    between atoms: C5_5  and  C6_6 
REMARK    3  A    between atoms: C11_13  and  O3_15 
ROOT
HETATM    1  C6  UNL     1     -64.893  36.241 -43.191  1.00  0.00     0.119 C 
HETATM    2  C7  UNL     1     -64.927  36.001 -41.712  1.00  0.00     0.052 C 
HETATM    3  O1  UNL     1     -65.355  35.154 -43.874  1.00  0.00    -0.339 OA
HETATM    4  C8  UNL     1     -64.692  35.040 -45.067  1.00  0.00     0.161 C 
HETATM    5  C9  UNL     1     -65.445  35.598 -46.248  1.00  0.00     0.078 C 
HETATM    6  C10 UNL     1     -64.518  33.537 -45.334  1.00  0.00     0.078 C 
HETATM    7  O2  UNL     1     -63.459  35.669 -44.944  1.00  0.00    -0.317 OA
HETATM    8  C11 UNL     1     -63.415  36.210 -43.666  1.00  0.00     0.193 C 
HETATM    9  C12 UNL     1     -62.818  37.562 -43.708  1.00  0.00     0.082 C 
ENDROOT
BRANCH   1  10
HETATM   10  C5  UNL     1     -65.548  37.476 -43.589  1.00  0.00     0.071 C 
BRANCH  10  11
HETATM   11  C4  UNL     1     -66.203  38.305 -42.615  1.00  0.00    -0.022 C 
HETATM   12  C2  UNL     1     -66.086  39.381 -41.941  1.00  0.00    -0.091 C 
HETATM   13  C1  UNL     1     -67.256  39.721 -40.994  1.00  0.00     0.042 C 
HETATM   14  C3  UNL     1     -65.015  40.367 -41.900  1.00  0.00     0.042 C 
ENDBRANCH  10  11
ENDBRANCH   1  10
BRANCH   8  15
HETATM   15  O3  UNL     1     -62.747  35.314 -42.850  1.00  0.00    -0.363 OA
ATOM     16  H3  UNL     1     -62.435  35.803 -42.098  1.00  0.00     0.213 HD
ENDBRANCH   8  15
TORSDOF 3
ENDMDL
MODEL 2
REMARK VINA RESULT: -4.761672372      2.118      4.887
REMARK  3 active torsions:
REMARK  status: ('A' for Active; 'I' for Inactive)
REMARK    1  A    between atoms: C4_4  and  C5_5 
REMARK    2  A    between atoms: C5_5  and  C6_6 
REMARK    3  A    between atoms: C11_13  and  O3_15 
ROOT
HETATM    1  C6  UNL     1     -63.555  36.721 -43.659  1.00  0.00     0.119 C 
HETATM    2  C7  UNL     1     -62.497  35.660 -43.620  1.00  0.00     0.052 C 
HETATM    3  O1  UNL     1     -63.049  37.900 -44.125  1.00  0.00    -0.339 OA
HETATM    4  C8  UNL     1     -63.681  38.950 -43.513  1.00  0.00     0.161 C 
HETATM    5  C9  UNL     1     -64.787  39.566 -44.332  1.00  0.00     0.078 C 
HETATM    6  C10 UNL     1     -62.626  40.048 -43.315  1.00  0.00     0.078 C 
HETATM    7  O2  UNL     1     -64.178  38.510 -42.291  1.00  0.00    -0.317 OA
HETATM    8  C11 UNL     1     -63.874  37.158 -42.203  1.00  0.00     0.193 C 
HETATM    9  C12 UNL     1     -65.024  36.417 -41.642  1.00  0.00     0.082 C 
ENDROOT
BRANCH   1  10
HETATM   10  C5  UNL     1     -64.758  36.310 -44.361  1.00  0.00     0.071 C 
BRANCH  10  11
HETATM   11  C4  UNL     1     -64.675  35.691 -45.656  1.00  0.00    -0.022 C 
HETATM   12  C2  UNL     1     -64.611  34.565 -46.251  1.00  0.00    -0.091 C 
HETATM   13  C1  UNL     1     -64.538  34.613 -47.792  1.00  0.00     0.042 C 
HETATM   14  C3  UNL     1     -64.589  33.208 -45.721  1.00  0.00     0.042 C 
ENDBRANCH  10  11
ENDBRANCH   1  10
BRANCH   8  15
HETATM   15  O3  UNL     1     -62.703  37.033 -41.477  1.00  0.00    -0.363 OA
ATOM     16  H3  UNL     1     -61.999  36.919 -42.104  1.00  0.00     0.213 HD
ENDBRANCH   8  15
TORSDOF 3
ENDMDL
MODEL 3
REMARK VINA RESULT: -4.663512578      2.445      4.889
REMARK  3 active torsions:
REMARK  status: ('A' for Active; 'I' for Inactive)
REMARK    1  A    between atoms: C4_4  and  C5_5 
REMARK    2  A    between atoms: C5_5  and  C6_6 
REMARK    3  A    between atoms: C11_13  and  O3_15 
ROOT
HETATM    1  C6  UNL     1     -63.336  37.066 -43.852  1.00  0.00     0.119 C 
HETATM    2  C7  UNL     1     -62.385  35.920 -43.683  1.00  0.00     0.052 C 
HETATM    3  O1  UNL     1     -62.662  38.246 -43.979  1.00  0.00    -0.339 OA
HETATM    4  C8  UNL     1     -63.391  39.259 -43.415  1.00  0.00     0.161 C 
HETATM    5  C9  UNL     1     -64.187  40.071 -44.405  1.00  0.00     0.078 C 
HETATM    6  C10 UNL     1     -62.385  40.224 -42.772  1.00  0.00     0.078 C 
HETATM    7  O2  UNL     1     -64.236  38.710 -42.457  1.00  0.00    -0.317 OA
HETATM    8  C11 UNL     1     -64.036  37.336 -42.493  1.00  0.00     0.193 C 
HETATM    9  C12 UNL     1     -65.332  36.633 -42.387  1.00  0.00     0.082 C 
ENDROOT
BRANCH   1  10
HETATM   10  C5  UNL     1     -64.307  36.857 -44.912  1.00  0.00     0.071 C 
BRANCH  10  11
HETATM   11  C4  UNL     1     -63.877  36.614 -46.262  1.00  0.00    -0.022 C 
HETATM   12  C2  UNL     1     -63.237  37.123 -47.240  1.00  0.00    -0.091 C 
HETATM   13  C1  UNL     1     -63.138  36.254 -48.513  1.00  0.00     0.042 C 
HETATM   14  C3  UNL     1     -62.572  38.411 -47.376  1.00  0.00     0.042 C 
ENDBRANCH  10  11
ENDBRANCH   1  10
BRANCH   8  15
HETATM   15  O3  UNL     1     -63.127  37.016 -41.499  1.00  0.00    -0.363 OA
ATOM     16  H3  UNL     1     -63.209  37.678 -40.824  1.00  0.00     0.213 HD
ENDBRANCH   8  15
TORSDOF 3
ENDMDL
MODEL 4
REMARK VINA RESULT: -4.605891969      0.717      1.174
REMARK  3 active torsions:
REMARK  status: ('A' for Active; 'I' for Inactive)
REMARK    1  A    between atoms: C4_4  and  C5_5 
REMARK    2  A    between atoms: C5_5  and  C6_6 
REMARK    3  A    between atoms: C11_13  and  O3_15 
ROOT
HETATM    1  C6  UNL     1     -64.895  36.228 -43.200  1.00  0.00     0.119 C 
HETATM    2  C7  UNL     1     -64.907  35.991 -41.720  1.00  0.00     0.052 C 
HETATM    3  O1  UNL     1     -65.396  35.151 -43.873  1.00  0.00    -0.339 OA
HETATM    4  C8  UNL     1     -64.758  35.019 -45.078  1.00  0.00     0.161 C 
HETATM    5  C9  UNL     1     -65.520  35.593 -46.245  1.00  0.00     0.078 C 
HETATM    6  C10 UNL     1     -64.625  33.513 -45.345  1.00  0.00     0.078 C 
HETATM    7  O2  UNL     1     -63.508  35.619 -44.980  1.00  0.00    -0.317 OA
HETATM    8  C11 UNL     1     -63.427  36.161 -43.704  1.00  0.00     0.193 C 
HETATM    9  C12 UNL     1     -62.799  37.498 -43.760  1.00  0.00     0.082 C 
ENDROOT
BRANCH   1  10
HETATM   10  C5  UNL     1     -65.528  37.477 -43.589  1.00  0.00     0.071 C 
BRANCH  10  11
HETATM   11  C4  UNL     1     -66.167  38.311 -42.608  1.00  0.00    -0.022 C 
HETATM   12  C2  UNL     1     -67.293  38.595 -42.082  1.00  0.00    -0.091 C 
HETATM   13  C1  UNL     1     -67.276  39.679 -40.983  1.00  0.00     0.042 C 
HETATM   14  C3  UNL     1     -68.626  38.070 -42.344  1.00  0.00     0.042 C 
ENDBRANCH  10  11
ENDBRANCH   1  10
BRANCH   8  15
HETATM   15  O3  UNL     1     -62.765  35.251 -42.898  1.00  0.00    -0.363 OA
ATOM     16  H3  UNL     1     -62.668  34.453 -43.404  1.00  0.00     0.213 HD
ENDBRANCH   8  15
TORSDOF 3
ENDMDL
MODEL 5
REMARK VINA RESULT: -4.588495235      2.299      5.036
REMARK  3 active torsions:
REMARK  status: ('A' for Active; 'I' for Inactive)
REMARK    1  A    between atoms: C4_4  and  C5_5 
REMARK    2  A    between atoms: C5_5  and  C6_6 
REMARK    3  A    between atoms: C11_13  and  O3_15 
ROOT
HETATM    1  C6  UNL     1     -63.328  36.971 -43.798  1.00  0.00     0.119 C 
HETATM    2  C7  UNL     1     -62.387  35.829 -43.562  1.00  0.00     0.052 C 
HETATM    3  O1  UNL     1     -62.646  38.143 -43.956  1.00  0.00    -0.339 OA
HETATM    4  C8  UNL     1     -63.382  39.181 -43.449  1.00  0.00     0.161 C 
HETATM    5  C9  UNL     1     -64.151  39.956 -44.488  1.00  0.00     0.078 C 
HETATM    6  C10 UNL     1     -62.385  40.166 -42.823  1.00  0.00     0.078 C 
HETATM    7  O2  UNL     1     -64.250  38.674 -42.490  1.00  0.00    -0.317 OA
HETATM    8  C11 UNL     1     -64.057  37.299 -42.466  1.00  0.00     0.193 C 
HETATM    9  C12 UNL     1     -65.359  36.606 -42.362  1.00  0.00     0.082 C 
ENDROOT
BRANCH   1  10
HETATM   10  C5  UNL     1     -64.277  36.725 -44.870  1.00  0.00     0.071 C 
BRANCH  10  11
HETATM   11  C4  UNL     1     -63.840  36.683 -46.239  1.00  0.00    -0.022 C 
HETATM   12  C2  UNL     1     -63.921  36.012 -47.320  1.00  0.00    -0.091 C 
HETATM   13  C1  UNL     1     -63.140  36.572 -48.528  1.00  0.00     0.042 C 
HETATM   14  C3  UNL     1     -64.632  34.778 -47.624  1.00  0.00     0.042 C 
ENDBRANCH  10  11
ENDBRANCH   1  10
BRANCH   8  15
HETATM   15  O3  UNL     1     -63.172  37.014 -41.441  1.00  0.00    -0.363 OA
ATOM     16  H3  UNL     1     -63.122  36.068 -41.373  1.00  0.00     0.213 HD
ENDBRANCH   8  15
TORSDOF 3
ENDMDL
