MODEL 1
REMARK VINA RESULT: -4.490963094      0.000      0.000
REMARK  3 active torsions:
REMARK  status: ('A' for Active; 'I' for Inactive)
REMARK    1  A    between atoms: C2_2  and  C4_4 
REMARK    2  A    between atoms: C4_4  and  C5_5 
REMARK    3  A    between atoms: C10_11  and  N1_12 
ROOT
HETATM    1  C5  UNL     1     -65.305  37.164 -42.998  1.00  0.00     0.024 C 
HETATM    2  C6  UNL     1     -65.214  36.268 -41.746  1.00  0.00     0.028 C 
HETATM    3  S1  UNL     1     -64.980  38.910 -42.502  1.00  0.00    -0.146 SA
HETATM    4  C7  UNL     1     -63.235  39.016 -43.069  1.00  0.00     0.031 C 
HETATM    5  C8  UNL     1     -62.385  39.643 -42.011  1.00  0.00     0.029 C 
HETATM    6  C9  UNL     1     -63.149  39.774 -44.378  1.00  0.00     0.029 C 
HETATM    7  C10 UNL     1     -62.933  37.567 -43.257  1.00  0.00     0.220 C 
HETATM    8  C11 UNL     1     -64.157  36.914 -43.894  1.00  0.00     0.143 C 
HETATM    9  C12 UNL     1     -63.791  35.469 -43.943  1.00  0.00     0.067 C 
HETATM   10  N2  UNL     1     -63.509  34.339 -44.002  1.00  0.00    -0.197 NA
ENDROOT
BRANCH   1  11
HETATM   11  C4  UNL     1     -66.678  37.011 -43.484  1.00  0.00     0.025 C 
BRANCH  11  12
HETATM   12  C2  UNL     1     -67.535  35.888 -43.105  1.00  0.00    -0.021 C 
HETATM   13  C1  UNL     1     -67.621  34.983 -44.376  1.00  0.00     0.009 C 
HETATM   14  C3  UNL     1     -68.967  36.306 -42.879  1.00  0.00     0.009 C 
ENDBRANCH  11  12
ENDBRANCH   1  11
BRANCH   7  15
HETATM   15  N1  UNL     1     -62.465  36.905 -42.097  1.00  0.00    -0.072 N 
ATOM     16  H13 UNL     1     -62.397  35.902 -42.266  1.00  0.00     0.274 HD
ATOM     17  H12 UNL     1     -61.481  37.124 -41.939  1.00  0.00     0.274 HD
ATOM     18  H11 UNL     1     -63.008  37.087 -41.253  1.00  0.00     0.274 HD
ENDBRANCH   7  15
TORSDOF 3
ENDMDL
MODEL 2
REMARK VINA RESULT: -4.411401474     12.167     13.875
REMARK  3 active torsions:
REMARK  status: ('A' for Active; 'I' for Inactive)
REMARK    1  A    between atoms: C2_2  and  C4_4 
REMARK    2  A    between atoms: C4_4  and  C5_5 
REMARK    3  A    between atoms: C10_11  and  N1_12 
ROOT
HETATM    1  C5  UNL     1     -67.475  28.202 -52.667  1.00  0.00     0.024 C 
HETATM    2  C6  UNL     1     -66.597  28.430 -51.421  1.00  0.00     0.028 C 
HETATM    3  S1  UNL     1     -68.706  26.882 -52.291  1.00  0.00    -0.146 SA
HETATM    4  C7  UNL     1     -70.158  27.968 -51.986  1.00  0.00     0.031 C 
HETATM    5  C8  UNL     1     -70.865  27.547 -50.737  1.00  0.00     0.029 C 
HETATM    6  C9  UNL     1     -71.086  27.960 -53.184  1.00  0.00     0.029 C 
HETATM    7  C10 UNL     1     -69.472  29.284 -51.835  1.00  0.00     0.220 C 
HETATM    8  C11 UNL     1     -68.368  29.358 -52.887  1.00  0.00     0.143 C 
HETATM    9  C12 UNL     1     -67.690  30.652 -52.585  1.00  0.00     0.067 C 
HETATM   10  N2  UNL     1     -67.163  31.670 -52.369  1.00  0.00    -0.197 NA
ENDROOT
BRANCH   1  11
HETATM   11  C4  UNL     1     -66.551  27.763 -53.716  1.00  0.00     0.025 C 
BRANCH  11  12
HETATM   12  C2  UNL     1     -65.102  27.940 -53.623  1.00  0.00    -0.021 C 
HETATM   13  C1  UNL     1     -64.701  28.760 -54.892  1.00  0.00     0.009 C 
HETATM   14  C3  UNL     1     -64.351  26.643 -53.797  1.00  0.00     0.009 C 
ENDBRANCH  11  12
ENDBRANCH   1  11
BRANCH   7  15
HETATM   15  N1  UNL     1     -69.038  29.578 -50.522  1.00  0.00    -0.072 N 
ATOM     16  H13 UNL     1     -69.517  28.981 -49.848  1.00  0.00     0.274 HD
ATOM     17  H12 UNL     1     -68.078  29.260 -50.387  1.00  0.00     0.274 HD
ATOM     18  H11 UNL     1     -69.127  30.558 -50.252  1.00  0.00     0.274 HD
ENDBRANCH   7  15
TORSDOF 3
ENDMDL
MODEL 3
REMARK VINA RESULT: -4.352099149      2.137      3.129
REMARK  3 active torsions:
REMARK  status: ('A' for Active; 'I' for Inactive)
REMARK    1  A    between atoms: C2_2  and  C4_4 
REMARK    2  A    between atoms: C4_4  and  C5_5 
REMARK    3  A    between atoms: C10_11  and  N1_12 
ROOT
HETATM    1  C5  UNL     1     -64.572  37.143 -44.388  1.00  0.00     0.024 C 
HETATM    2  C6  UNL     1     -66.103  36.962 -44.420  1.00  0.00     0.028 C 
HETATM    3  S1  UNL     1     -64.162  38.825 -45.024  1.00  0.00    -0.146 SA
HETATM    4  C7  UNL     1     -63.870  39.645 -43.405  1.00  0.00     0.031 C 
HETATM    5  C8  UNL     1     -64.575  40.962 -43.358  1.00  0.00     0.029 C 
HETATM    6  C9  UNL     1     -62.385  39.797 -43.149  1.00  0.00     0.029 C 
HETATM    7  C10 UNL     1     -64.482  38.639 -42.489  1.00  0.00     0.220 C 
HETATM    8  C11 UNL     1     -64.095  37.251 -42.995  1.00  0.00     0.143 C 
HETATM    9  C12 UNL     1     -64.833  36.333 -42.079  1.00  0.00     0.067 C 
HETATM   10  N2  UNL     1     -65.391  35.604 -41.360  1.00  0.00    -0.197 NA
ENDROOT
BRANCH   1  11
HETATM   11  C4  UNL     1     -64.042  36.110 -45.281  1.00  0.00     0.025 C 
BRANCH  11  12
HETATM   12  C2  UNL     1     -64.852  34.998 -45.780  1.00  0.00    -0.021 C 
HETATM   13  C1  UNL     1     -64.265  33.719 -45.101  1.00  0.00     0.009 C 
HETATM   14  C3  UNL     1     -64.635  34.742 -47.250  1.00  0.00     0.009 C 
ENDBRANCH  11  12
ENDBRANCH   1  11
BRANCH   7  15
HETATM   15  N1  UNL     1     -65.869  38.806 -42.268  1.00  0.00    -0.072 N 
ATOM     16  H13 UNL     1     -66.040  39.117 -41.313  1.00  0.00     0.274 HD
ATOM     17  H12 UNL     1     -66.213  39.618 -42.782  1.00  0.00     0.274 HD
ATOM     18  H11 UNL     1     -66.437  37.986 -42.481  1.00  0.00     0.274 HD
ENDBRANCH   7  15
TORSDOF 3
ENDMDL
MODEL 4
REMARK VINA RESULT: -4.330184638      2.857      4.116
REMARK  3 active torsions:
REMARK  status: ('A' for Active; 'I' for Inactive)
REMARK    1  A    between atoms: C2_2  and  C4_4 
REMARK    2  A    between atoms: C4_4  and  C5_5 
REMARK    3  A    between atoms: C10_11  and  N1_12 
ROOT
HETATM    1  C5  UNL     1     -64.147  38.161 -43.167  1.00  0.00     0.024 C 
HETATM    2  C6  UNL     1     -63.027  38.310 -42.118  1.00  0.00     0.028 C 
HETATM    3  S1  UNL     1     -65.687  37.611 -42.316  1.00  0.00    -0.146 SA
HETATM    4  C7  UNL     1     -66.539  39.239 -42.254  1.00  0.00     0.031 C 
HETATM    5  C8  UNL     1     -67.100  39.478 -40.888  1.00  0.00     0.029 C 
HETATM    6  C9  UNL     1     -67.612  39.316 -43.320  1.00  0.00     0.029 C 
HETATM    7  C10 UNL     1     -65.394  40.144 -42.564  1.00  0.00     0.220 C 
HETATM    8  C11 UNL     1     -64.565  39.488 -43.665  1.00  0.00     0.143 C 
HETATM    9  C12 UNL     1     -63.407  40.415 -43.825  1.00  0.00     0.067 C 
HETATM   10  N2  UNL     1     -62.506  41.140 -43.970  1.00  0.00    -0.197 NA
ENDROOT
BRANCH   1  11
HETATM   11  C4  UNL     1     -63.673  37.131 -44.095  1.00  0.00     0.025 C 
BRANCH  11  12
HETATM   12  C2  UNL     1     -64.078  35.729 -44.000  1.00  0.00    -0.021 C 
HETATM   13  C1  UNL     1     -62.775  34.943 -43.643  1.00  0.00     0.009 C 
HETATM   14  C3  UNL     1     -64.477  35.152 -45.336  1.00  0.00     0.009 C 
ENDBRANCH  11  12
ENDBRANCH   1  11
BRANCH   7  15
HETATM   15  N1  UNL     1     -64.639  40.551 -41.439  1.00  0.00    -0.072 N 
ATOM     16  H13 UNL     1     -64.606  39.804 -40.746  1.00  0.00     0.274 HD
ATOM     17  H12 UNL     1     -63.650  40.611 -41.680  1.00  0.00     0.274 HD
ATOM     18  H11 UNL     1     -64.952  41.421 -41.007  1.00  0.00     0.274 HD
ENDBRANCH   7  15
TORSDOF 3
ENDMDL
MODEL 5
REMARK VINA RESULT: -4.312235333      2.159      4.507
REMARK  3 active torsions:
REMARK  status: ('A' for Active; 'I' for Inactive)
REMARK    1  A    between atoms: C2_2  and  C4_4 
REMARK    2  A    between atoms: C4_4  and  C5_5 
REMARK    3  A    between atoms: C10_11  and  N1_12 
ROOT
HETATM    1  C5  UNL     1     -63.306  37.512 -43.817  1.00  0.00     0.024 C 
HETATM    2  C6  UNL     1     -62.385  36.424 -43.231  1.00  0.00     0.028 C 
HETATM    3  S1  UNL     1     -63.119  37.522 -45.652  1.00  0.00    -0.146 SA
HETATM    4  C7  UNL     1     -64.650  36.595 -46.069  1.00  0.00     0.031 C 
HETATM    5  C8  UNL     1     -64.353  35.532 -47.078  1.00  0.00     0.029 C 
HETATM    6  C9  UNL     1     -65.726  37.543 -46.557  1.00  0.00     0.029 C 
HETATM    7  C10 UNL     1     -64.986  36.030 -44.730  1.00  0.00     0.220 C 
HETATM    8  C11 UNL     1     -64.722  37.113 -43.686  1.00  0.00     0.143 C 
HETATM    9  C12 UNL     1     -64.990  36.419 -42.394  1.00  0.00     0.067 C 
HETATM   10  N2  UNL     1     -65.212  35.893 -41.377  1.00  0.00    -0.197 NA
ENDROOT
BRANCH   1  11
HETATM   11  C4  UNL     1     -62.830  38.772 -43.243  1.00  0.00     0.025 C 
BRANCH  11  12
HETATM   12  C2  UNL     1     -63.656  39.977 -43.172  1.00  0.00    -0.021 C 
HETATM   13  C1  UNL     1     -62.758  41.131 -43.723  1.00  0.00     0.009 C 
HETATM   14  C3  UNL     1     -63.936  40.402 -41.752  1.00  0.00     0.009 C 
ENDBRANCH  11  12
ENDBRANCH   1  11
BRANCH   7  15
HETATM   15  N1  UNL     1     -64.373  34.789 -44.440  1.00  0.00    -0.072 N 
ATOM     16  H13 UNL     1     -64.880  34.029 -44.893  1.00  0.00     0.274 HD
ATOM     17  H12 UNL     1     -63.477  34.716 -44.924  1.00  0.00     0.274 HD
ATOM     18  H11 UNL     1     -64.255  34.593 -43.446  1.00  0.00     0.274 HD
ENDBRANCH   7  15
TORSDOF 3
ENDMDL
