MODEL 1
REMARK VINA RESULT: -8.158234812      0.000      0.000
REMARK  9 active torsions:
REMARK  status: ('A' for Active; 'I' for Inactive)
REMARK    1  A    between atoms: O1_2  and  C2_3 
REMARK    2  A    between atoms: C2_3  and  C3_5 
REMARK    3  A    between atoms: C6_8  and  C7_9 
REMARK    4  A    between atoms: C7_9  and  N1_10 
REMARK    5  A    between atoms: C13_25  and  N7_26 
REMARK    6  A    between atoms: N7_26  and  C14_28 
REMARK    7  A    between atoms: C14_28  and  N8_29 
REMARK    8  A    between atoms: C14_28  and  C15_33 
REMARK    9  A    between atoms: C15_33  and  N9_34 
REMARK       I    between atoms: N9_34  and  C16_37 
REMARK       I    between atoms: C16_37  and  N10_38 
REMARK       I    between atoms: C16_37  and  N11_42 
ROOT
HETATM    1  N1  UNL     1      27.667  -7.608  11.599  1.00  0.00    -0.350 N 
ATOM      2  H1  UNL     1      27.087  -8.233  12.159  1.00  0.00     0.166 HD
HETATM    3  C8  UNL     1      28.643  -8.184  11.041  1.00  0.00     0.136 A 
HETATM    4  N2  UNL     1      28.810  -9.543  11.242  1.00  0.00    -0.328 N 
ATOM      5  H2  UNL     1      28.145 -10.044  11.832  1.00  0.00     0.168 HD
HETATM    6  C9  UNL     1      29.818 -10.213  10.684  1.00  0.00     0.141 A 
HETATM    7  N3  UNL     1      29.986 -11.609  10.894  1.00  0.00    -0.081 NA
HETATM    8  C10 UNL     1      30.736  -9.561   9.879  1.00  0.00     0.116 A 
HETATM    9  C11 UNL     1      31.833 -10.286   9.272  1.00  0.00     0.105 C 
HETATM   10  N4  UNL     1      32.717 -10.869   8.798  1.00  0.00    -0.191 NA
HETATM   11  C12 UNL     1      30.598  -8.212   9.659  1.00  0.00     0.103 A 
HETATM   12  N5  UNL     1      31.446  -7.508   8.892  1.00  0.00    -0.283 N 
ATOM     13  H5  UNL     1      32.229  -7.987   8.448  1.00  0.00     0.187 HD
HETATM   14  N6  UNL     1      31.289  -6.210   8.697  1.00  0.00    -0.132 N 
ATOM     15  H6  UNL     1      31.960  -5.719   8.106  1.00  0.00     0.205 HD
HETATM   16  C13 UNL     1      30.280  -5.513   9.249  1.00  0.00     0.695 A 
HETATM   17  N12 UNL     1      29.417  -6.185  10.021  1.00  0.00    -0.184 N 
ATOM     18  H12 UNL     1      28.644  -5.680  10.452  1.00  0.00     0.184 HD
HETATM   19  C17 UNL     1      29.537  -7.502  10.246  1.00  0.00     0.123 A 
ENDROOT
BRANCH   1  20
HETATM   20  C7  UNL     1      27.223  -6.276  11.599  1.00  0.00     0.101 C 
BRANCH  20  21
HETATM   21  C6  UNL     1      25.825  -6.164  11.018  1.00  0.00    -0.021 A 
HETATM   22  C5  UNL     1      25.184  -7.278  10.525  1.00  0.00     0.014 A 
HETATM   23  C4  UNL     1      23.907  -7.177   9.994  1.00  0.00     0.018 A 
HETATM   24  C3  UNL     1      23.238  -5.980   9.938  1.00  0.00     0.039 A 
HETATM   25  C19 UNL     1      23.877  -4.863  10.431  1.00  0.00     0.018 A 
HETATM   26  C18 UNL     1      25.154  -4.964  10.962  1.00  0.00     0.014 A 
BRANCH  24  27
HETATM   27  C2  UNL     1      21.893  -5.886   9.377  1.00  0.00     0.292 C 
HETATM   28  O2  UNL     1      21.025  -5.144   9.898  1.00  0.00    -0.259 OA
BRANCH  27  29
HETATM   29  O1  UNL     1      21.545  -6.611   8.261  1.00  0.00    -0.323 OA
HETATM   30  C1  UNL     1      22.218  -7.828   7.944  1.00  0.00     0.213 C 
ENDBRANCH  27  29
ENDBRANCH  24  27
ENDBRANCH  20  21
ENDBRANCH   1  20
BRANCH  16  31
HETATM   31  N7  UNL     1      30.146  -4.228   9.043  1.00  0.00    -0.194 N 
ATOM     32  H7  UNL     1      30.849  -3.611   9.448  1.00  0.00     0.180 HD
BRANCH  31  33
HETATM   33  C14 UNL     1      29.092  -3.625   8.296  1.00  0.00     0.322 C 
BRANCH  33  34
HETATM   34  N8  UNL     1      28.621  -2.370   8.848  1.00  0.00    -0.056 N 
ATOM     35  H83 UNL     1      29.120  -1.585   8.429  1.00  0.00     0.276 HD
ATOM     36  H82 UNL     1      27.676  -2.168   8.521  1.00  0.00     0.276 HD
ATOM     37  H81 UNL     1      28.665  -2.320   9.866  1.00  0.00     0.276 HD
ENDBRANCH  33  34
BRANCH  33  38
HETATM   38  C15 UNL     1      29.433  -3.438   6.838  1.00  0.00     0.291 C 
BRANCH  38  39
HETATM   39  N9  UNL     1      29.186  -4.618   6.054  1.00  0.00    -0.018 N 
HETATM   40  C16 UNL     1      29.409  -4.248   4.654  1.00  0.00     0.575 C 
HETATM   41  N10 UNL     1      29.170  -5.412   3.823  1.00  0.00    -0.026 N 
HETATM   42  N11 UNL     1      28.599  -3.122   4.260  1.00  0.00    -0.026 N 
ATOM     43 3H10 UNL     1      29.728  -6.217   4.109  1.00  0.00     0.278 HD
ATOM     44 2H10 UNL     1      28.247  -5.819   3.978  1.00  0.00     0.278 HD
ATOM     45 1H10 UNL     1      29.326  -5.156   2.849  1.00  0.00     0.278 HD
ATOM     46 3H11 UNL     1      27.611  -3.294   4.445  1.00  0.00     0.278 HD
ATOM     47 2H11 UNL     1      28.744  -2.326   4.881  1.00  0.00     0.278 HD
ATOM     48 1H11 UNL     1      28.755  -2.865   3.285  1.00  0.00     0.278 HD
ATOM     49  H92 UNL     1      29.739  -5.421   6.351  1.00  0.00     0.281 HD
ATOM     50  H91 UNL     1      28.267  -5.026   6.220  1.00  0.00     0.281 HD
ENDBRANCH  38  39
ENDBRANCH  33  38
ENDBRANCH  31  33
ENDBRANCH  16  31
TORSDOF 9
ENDMDL
MODEL 2
REMARK VINA RESULT: -8.087371344      3.604      6.539
REMARK  9 active torsions:
REMARK  status: ('A' for Active; 'I' for Inactive)
REMARK    1  A    between atoms: O1_2  and  C2_3 
REMARK    2  A    between atoms: C2_3  and  C3_5 
REMARK    3  A    between atoms: C6_8  and  C7_9 
REMARK    4  A    between atoms: C7_9  and  N1_10 
REMARK    5  A    between atoms: C13_25  and  N7_26 
REMARK    6  A    between atoms: N7_26  and  C14_28 
REMARK    7  A    between atoms: C14_28  and  N8_29 
REMARK    8  A    between atoms: C14_28  and  C15_33 
REMARK    9  A    between atoms: C15_33  and  N9_34 
REMARK       I    between atoms: N9_34  and  C16_37 
REMARK       I    between atoms: C16_37  and  N10_38 
REMARK       I    between atoms: C16_37  and  N11_42 
ROOT
HETATM    1  N1  UNL     1      26.777  -1.704  11.901  1.00  0.00    -0.350 N 
ATOM      2  H1  UNL     1      26.016  -1.496  12.548  1.00  0.00     0.166 HD
HETATM    3  C8  UNL     1      27.335  -0.675  11.425  1.00  0.00     0.136 A 
HETATM    4  N2  UNL     1      26.873   0.568  11.819  1.00  0.00    -0.328 N 
ATOM      5  H2  UNL     1      26.098   0.625  12.481  1.00  0.00     0.168 HD
HETATM    6  C9  UNL     1      27.416   1.693  11.356  1.00  0.00     0.141 A 
HETATM    7  N3  UNL     1      26.938   2.969  11.763  1.00  0.00    -0.081 NA
HETATM    8  C10 UNL     1      28.470   1.650  10.459  1.00  0.00     0.116 A 
HETATM    9  C11 UNL     1      29.062   2.871   9.954  1.00  0.00     0.105 C 
HETATM   10  N4  UNL     1      29.524   3.853   9.542  1.00  0.00    -0.191 NA
HETATM   11  C12 UNL     1      28.952   0.430  10.048  1.00  0.00     0.103 A 
HETATM   12  N5  UNL     1      29.969   0.304   9.181  1.00  0.00    -0.283 N 
ATOM     13  H5  UNL     1      30.410   1.144   8.806  1.00  0.00     0.187 HD
HETATM   14  N6  UNL     1      30.413  -0.882   8.803  1.00  0.00    -0.132 N 
ATOM     15  H6  UNL     1      31.188  -0.927   8.141  1.00  0.00     0.205 HD
HETATM   16  C13 UNL     1      29.882  -2.031   9.256  1.00  0.00     0.695 A 
HETATM   17  N12 UNL     1      28.864  -1.940  10.122  1.00  0.00    -0.184 N 
ATOM     18  H12 UNL     1      28.443  -2.796  10.480  1.00  0.00     0.184 HD
HETATM   19  C17 UNL     1      28.382  -0.758  10.534  1.00  0.00     0.123 A 
ENDROOT
BRANCH   1  20
HETATM   20  C7  UNL     1      26.998  -3.078  11.714  1.00  0.00     0.101 C 
BRANCH  20  21
HETATM   21  C6  UNL     1      25.751  -3.767  11.190  1.00  0.00    -0.021 A 
HETATM   22  C5  UNL     1      25.712  -5.137  11.064  1.00  0.00     0.014 A 
HETATM   23  C4  UNL     1      24.574  -5.768  10.585  1.00  0.00     0.018 A 
HETATM   24  C3  UNL     1      23.454  -5.063  10.222  1.00  0.00     0.039 A 
HETATM   25  C19 UNL     1      23.489  -3.691  10.347  1.00  0.00     0.018 A 
HETATM   26  C18 UNL     1      24.628  -3.060  10.826  1.00  0.00     0.014 A 
BRANCH  24  27
HETATM   27  C2  UNL     1      22.260  -5.738   9.719  1.00  0.00     0.292 C 
HETATM   28  O2  UNL     1      21.148  -5.156   9.698  1.00  0.00    -0.259 OA
BRANCH  27  29
HETATM   29  O1  UNL     1      22.328  -7.031   9.256  1.00  0.00    -0.323 OA
HETATM   30  C1  UNL     1      21.874  -7.360   7.945  1.00  0.00     0.213 C 
ENDBRANCH  27  29
ENDBRANCH  24  27
ENDBRANCH  20  21
ENDBRANCH   1  20
BRANCH  16  31
HETATM   31  N7  UNL     1      30.337  -3.194   8.867  1.00  0.00    -0.194 N 
ATOM     32  H7  UNL     1      30.498  -3.900   9.585  1.00  0.00     0.180 HD
BRANCH  31  33
HETATM   33  C14 UNL     1      30.627  -3.550   7.518  1.00  0.00     0.322 C 
BRANCH  33  34
HETATM   34  N8  UNL     1      31.264  -4.844   7.372  1.00  0.00    -0.056 N 
ATOM     35  H83 UNL     1      31.548  -5.207   8.281  1.00  0.00     0.276 HD
ATOM     36  H82 UNL     1      30.579  -5.552   7.109  1.00  0.00     0.276 HD
ATOM     37  H81 UNL     1      32.051  -4.850   6.723  1.00  0.00     0.276 HD
ENDBRANCH  33  34
BRANCH  33  38
HETATM   38  C15 UNL     1      29.420  -3.477   6.615  1.00  0.00     0.291 C 
BRANCH  38  39
HETATM   39  N9  UNL     1      29.223  -4.680   5.853  1.00  0.00    -0.018 N 
HETATM   40  C16 UNL     1      29.381  -4.316   4.442  1.00  0.00     0.575 C 
HETATM   41  N10 UNL     1      29.190  -5.504   3.633  1.00  0.00    -0.026 N 
HETATM   42  N11 UNL     1      28.491  -3.248   4.061  1.00  0.00    -0.026 N 
ATOM     43 3H10 UNL     1      29.805  -6.269   3.910  1.00  0.00     0.278 HD
ATOM     44 2H10 UNL     1      28.299  -5.965   3.821  1.00  0.00     0.278 HD
ATOM     45 1H10 UNL     1      29.300  -5.251   2.651  1.00  0.00     0.278 HD
ATOM     46 3H11 UNL     1      27.521  -3.478   4.278  1.00  0.00     0.278 HD
ATOM     47 2H11 UNL     1      28.604  -2.436   4.668  1.00  0.00     0.278 HD
ATOM     48 1H11 UNL     1      28.601  -2.995   3.079  1.00  0.00     0.278 HD
ATOM     49  H92 UNL     1      29.834  -5.444   6.142  1.00  0.00     0.281 HD
ATOM     50  H91 UNL     1      28.337  -5.142   6.052  1.00  0.00     0.281 HD
ENDBRANCH  38  39
ENDBRANCH  33  38
ENDBRANCH  31  33
ENDBRANCH  16  31
TORSDOF 9
ENDMDL
MODEL 3
REMARK VINA RESULT: -7.971585059      5.503      8.920
REMARK  9 active torsions:
REMARK  status: ('A' for Active; 'I' for Inactive)
REMARK    1  A    between atoms: O1_2  and  C2_3 
REMARK    2  A    between atoms: C2_3  and  C3_5 
REMARK    3  A    between atoms: C6_8  and  C7_9 
REMARK    4  A    between atoms: C7_9  and  N1_10 
REMARK    5  A    between atoms: C13_25  and  N7_26 
REMARK    6  A    between atoms: N7_26  and  C14_28 
REMARK    7  A    between atoms: C14_28  and  N8_29 
REMARK    8  A    between atoms: C14_28  and  C15_33 
REMARK    9  A    between atoms: C15_33  and  N9_34 
REMARK       I    between atoms: N9_34  and  C16_37 
REMARK       I    between atoms: C16_37  and  N10_38 
REMARK       I    between atoms: C16_37  and  N11_42 
ROOT
HETATM    1  N1  UNL     1      27.764  -1.417  10.703  1.00  0.00    -0.350 N 
ATOM      2  H1  UNL     1      28.095  -2.304  10.326  1.00  0.00     0.166 HD
HETATM    3  C8  UNL     1      28.339  -0.407  10.208  1.00  0.00     0.136 A 
HETATM    4  N2  UNL     1      29.314  -0.608   9.247  1.00  0.00    -0.328 N 
ATOM      5  H2  UNL     1      29.544  -1.561   8.963  1.00  0.00     0.168 HD
HETATM    6  C9  UNL     1      29.960   0.412   8.684  1.00  0.00     0.141 A 
HETATM    7  N3  UNL     1      30.962   0.201   7.698  1.00  0.00    -0.081 NA
HETATM    8  C10 UNL     1      29.671   1.716   9.049  1.00  0.00     0.116 A 
HETATM    9  C11 UNL     1      30.372   2.827   8.439  1.00  0.00     0.105 C 
HETATM   10  N4  UNL     1      30.945   3.713   7.957  1.00  0.00    -0.191 NA
HETATM   11  C12 UNL     1      28.707   1.949  10.000  1.00  0.00     0.103 A 
HETATM   12  N5  UNL     1      28.370   3.183  10.407  1.00  0.00    -0.283 N 
ATOM     13  H5  UNL     1      28.843   3.989   9.998  1.00  0.00     0.187 HD
HETATM   14  N6  UNL     1      27.439   3.379  11.325  1.00  0.00    -0.132 N 
ATOM     15  H6  UNL     1      27.217   4.335  11.602  1.00  0.00     0.205 HD
HETATM   16  C13 UNL     1      26.773   2.366  11.907  1.00  0.00     0.695 A 
HETATM   17  N12 UNL     1      27.087   1.122  11.523  1.00  0.00    -0.184 N 
ATOM     18  H12 UNL     1      26.597   0.336  11.950  1.00  0.00     0.184 HD
HETATM   19  C17 UNL     1      28.024   0.876  10.596  1.00  0.00     0.123 A 
ENDROOT
BRANCH   1  20
HETATM   20  C7  UNL     1      26.757  -1.558  11.672  1.00  0.00     0.101 C 
BRANCH  20  21
HETATM   21  C6  UNL     1      25.778  -2.655  11.290  1.00  0.00    -0.021 A 
HETATM   22  C5  UNL     1      24.491  -2.341  10.919  1.00  0.00     0.014 A 
HETATM   23  C4  UNL     1      23.596  -3.342  10.570  1.00  0.00     0.018 A 
HETATM   24  C3  UNL     1      23.952  -4.667  10.580  1.00  0.00     0.039 A 
HETATM   25  C19 UNL     1      25.241  -4.985  10.951  1.00  0.00     0.018 A 
HETATM   26  C18 UNL     1      26.136  -3.984  11.300  1.00  0.00     0.014 A 
BRANCH  24  27
HETATM   27  C2  UNL     1      23.001  -5.713  10.210  1.00  0.00     0.292 C 
HETATM   28  O2  UNL     1      21.769  -5.476  10.154  1.00  0.00    -0.259 OA
BRANCH  27  29
HETATM   29  O1  UNL     1      23.435  -6.984   9.913  1.00  0.00    -0.323 OA
HETATM   30  C1  UNL     1      22.929  -7.679   8.777  1.00  0.00     0.213 C 
ENDBRANCH  27  29
ENDBRANCH  24  27
ENDBRANCH  20  21
ENDBRANCH   1  20
BRANCH  16  31
HETATM   31  N7  UNL     1      25.855   2.584  12.813  1.00  0.00    -0.194 N 
ATOM     32  H7  UNL     1      26.102   3.190  13.596  1.00  0.00     0.180 HD
BRANCH  31  33
HETATM   33  C14 UNL     1      24.538   2.039  12.793  1.00  0.00     0.322 C 
BRANCH  33  34
HETATM   34  N8  UNL     1      24.380   0.846  13.601  1.00  0.00    -0.056 N 
ATOM     35  H83 UNL     1      24.757   0.994  14.536  1.00  0.00     0.276 HD
ATOM     36  H82 UNL     1      23.397   0.699  13.833  1.00  0.00     0.276 HD
ATOM     37  H81 UNL     1      24.778   0.004  13.183  1.00  0.00     0.276 HD
ENDBRANCH  33  34
BRANCH  33  38
HETATM   38  C15 UNL     1      23.477   3.045  13.166  1.00  0.00     0.291 C 
BRANCH  38  39
HETATM   39  N9  UNL     1      23.110   3.899  12.069  1.00  0.00    -0.018 N 
HETATM   40  C16 UNL     1      21.654   3.808  11.933  1.00  0.00     0.575 C 
HETATM   41  N10 UNL     1      21.237   4.656  10.833  1.00  0.00    -0.026 N 
HETATM   42  N11 UNL     1      21.215   2.445  11.766  1.00  0.00    -0.026 N 
ATOM     43 3H10 UNL     1      21.561   5.618  10.937  1.00  0.00     0.278 HD
ATOM     44 2H10 UNL     1      21.726   4.437   9.964  1.00  0.00     0.278 HD
ATOM     45 1H10 UNL     1      20.224   4.593  10.738  1.00  0.00     0.278 HD
ATOM     46 3H11 UNL     1      21.690   1.995  10.982  1.00  0.00     0.278 HD
ATOM     47 2H11 UNL     1      21.554   1.850  12.522  1.00  0.00     0.278 HD
ATOM     48 1H11 UNL     1      20.201   2.382  11.671  1.00  0.00     0.278 HD
ATOM     49  H92 UNL     1      23.445   4.856  12.175  1.00  0.00     0.281 HD
ATOM     50  H91 UNL     1      23.609   3.682  11.207  1.00  0.00     0.281 HD
ENDBRANCH  38  39
ENDBRANCH  33  38
ENDBRANCH  31  33
ENDBRANCH  16  31
TORSDOF 9
ENDMDL
MODEL 4
REMARK VINA RESULT: -7.810457920      3.829      5.776
REMARK  9 active torsions:
REMARK  status: ('A' for Active; 'I' for Inactive)
REMARK    1  A    between atoms: O1_2  and  C2_3 
REMARK    2  A    between atoms: C2_3  and  C3_5 
REMARK    3  A    between atoms: C6_8  and  C7_9 
REMARK    4  A    between atoms: C7_9  and  N1_10 
REMARK    5  A    between atoms: C13_25  and  N7_26 
REMARK    6  A    between atoms: N7_26  and  C14_28 
REMARK    7  A    between atoms: C14_28  and  N8_29 
REMARK    8  A    between atoms: C14_28  and  C15_33 
REMARK    9  A    between atoms: C15_33  and  N9_34 
REMARK       I    between atoms: N9_34  and  C16_37 
REMARK       I    between atoms: C16_37  and  N10_38 
REMARK       I    between atoms: C16_37  and  N11_42 
ROOT
HETATM    1  N1  UNL     1      27.429  -7.196  12.381  1.00  0.00    -0.350 N 
ATOM      2  H1  UNL     1      26.830  -6.470  12.772  1.00  0.00     0.166 HD
HETATM    3  C8  UNL     1      28.226  -7.704  13.220  1.00  0.00     0.136 A 
HETATM    4  N2  UNL     1      28.197  -7.239  14.523  1.00  0.00    -0.328 N 
ATOM      5  H2  UNL     1      27.537  -6.502  14.774  1.00  0.00     0.168 HD
HETATM    6  C9  UNL     1      29.009  -7.731  15.457  1.00  0.00     0.141 A 
HETATM    7  N3  UNL     1      28.977  -7.249  16.795  1.00  0.00    -0.081 NA
HETATM    8  C10 UNL     1      29.915  -8.731  15.148  1.00  0.00     0.116 A 
HETATM    9  C11 UNL     1      30.800  -9.267  16.162  1.00  0.00     0.105 C 
HETATM   10  N4  UNL     1      31.515  -9.684  16.975  1.00  0.00    -0.191 NA
HETATM   11  C12 UNL     1      29.968  -9.215  13.863  1.00  0.00     0.103 A 
HETATM   12  N5  UNL     1      30.817 -10.183  13.485  1.00  0.00    -0.283 N 
ATOM     13  H5  UNL     1      31.454 -10.584  14.173  1.00  0.00     0.187 HD
HETATM   14  N6  UNL     1      30.848 -10.630  12.241  1.00  0.00    -0.132 N 
ATOM     15  H6  UNL     1      31.511 -11.367  12.000  1.00  0.00     0.205 HD
HETATM   16  C13 UNL     1      30.037 -10.150  11.280  1.00  0.00     0.695 A 
HETATM   17  N12 UNL     1      29.179  -9.183  11.626  1.00  0.00    -0.184 N 
ATOM     18  H12 UNL     1      28.554  -8.801  10.916  1.00  0.00     0.184 HD
HETATM   19  C17 UNL     1      29.113  -8.699  12.875  1.00  0.00     0.123 A 
ENDROOT
BRANCH   1  20
HETATM   20  C7  UNL     1      27.207  -7.435  11.015  1.00  0.00     0.101 C 
BRANCH  20  21
HETATM   21  C6  UNL     1      25.808  -7.012  10.605  1.00  0.00    -0.021 A 
HETATM   22  C5  UNL     1      24.953  -7.913  10.013  1.00  0.00     0.014 A 
HETATM   23  C4  UNL     1      23.674  -7.527   9.638  1.00  0.00     0.018 A 
HETATM   24  C3  UNL     1      23.216  -6.250   9.838  1.00  0.00     0.039 A 
HETATM   25  C19 UNL     1      24.069  -5.345  10.431  1.00  0.00     0.018 A 
HETATM   26  C18 UNL     1      25.348  -5.731  10.806  1.00  0.00     0.014 A 
BRANCH  24  27
HETATM   27  C2  UNL     1      21.867  -5.855   9.439  1.00  0.00     0.292 C 
HETATM   28  O2  UNL     1      21.224  -4.998  10.092  1.00  0.00    -0.259 OA
BRANCH  27  29
HETATM   29  O1  UNL     1      21.269  -6.416   8.334  1.00  0.00    -0.323 OA
HETATM   30  C1  UNL     1      21.695  -7.683   7.840  1.00  0.00     0.213 C 
ENDBRANCH  27  29
ENDBRANCH  24  27
ENDBRANCH  20  21
ENDBRANCH   1  20
BRANCH  16  31
HETATM   31  N7  UNL     1      30.086 -10.608  10.056  1.00  0.00    -0.194 N 
ATOM     32  H7  UNL     1      30.130  -9.924   9.299  1.00  0.00     0.180 HD
BRANCH  31  33
HETATM   33  C14 UNL     1      30.081 -11.987   9.696  1.00  0.00     0.322 C 
BRANCH  33  34
HETATM   34  N8  UNL     1      28.792 -12.476   9.246  1.00  0.00    -0.056 N 
ATOM     35  H83 UNL     1      28.824 -13.485   9.099  1.00  0.00     0.276 HD
ATOM     36  H82 UNL     1      28.110 -12.434  10.003  1.00  0.00     0.276 HD
ATOM     37  H81 UNL     1      28.434 -12.004   8.416  1.00  0.00     0.276 HD
ENDBRANCH  33  34
BRANCH  33  38
HETATM   38  C15 UNL     1      31.136 -12.335   8.675  1.00  0.00     0.291 C 
BRANCH  38  39
HETATM   39  N9  UNL     1      30.624 -13.140   7.599  1.00  0.00    -0.018 N 
HETATM   40  C16 UNL     1      31.710 -14.034   7.188  1.00  0.00     0.575 C 
HETATM   41  N10 UNL     1      31.237 -14.868   6.100  1.00  0.00    -0.026 N 
HETATM   42  N11 UNL     1      32.902 -13.304   6.836  1.00  0.00    -0.026 N 
ATOM     43 3H10 UNL     1      30.383 -15.374   6.338  1.00  0.00     0.278 HD
ATOM     44 2H10 UNL     1      30.864 -14.322   5.323  1.00  0.00     0.278 HD
ATOM     45 1H10 UNL     1      31.992 -15.490   5.814  1.00  0.00     0.278 HD
ATOM     46 3H11 UNL     1      32.709 -12.601   6.121  1.00  0.00     0.278 HD
ATOM     47 2H11 UNL     1      33.197 -12.687   7.593  1.00  0.00     0.278 HD
ATOM     48 1H11 UNL     1      33.657 -13.926   6.550  1.00  0.00     0.278 HD
ATOM     49  H92 UNL     1      29.766 -13.635   7.840  1.00  0.00     0.281 HD
ATOM     50  H91 UNL     1      30.244 -12.589   6.831  1.00  0.00     0.281 HD
ENDBRANCH  38  39
ENDBRANCH  33  38
ENDBRANCH  31  33
ENDBRANCH  16  31
TORSDOF 9
ENDMDL
MODEL 5
REMARK VINA RESULT: -7.789381831      3.636      6.013
REMARK  9 active torsions:
REMARK  status: ('A' for Active; 'I' for Inactive)
REMARK    1  A    between atoms: O1_2  and  C2_3 
REMARK    2  A    between atoms: C2_3  and  C3_5 
REMARK    3  A    between atoms: C6_8  and  C7_9 
REMARK    4  A    between atoms: C7_9  and  N1_10 
REMARK    5  A    between atoms: C13_25  and  N7_26 
REMARK    6  A    between atoms: N7_26  and  C14_28 
REMARK    7  A    between atoms: C14_28  and  N8_29 
REMARK    8  A    between atoms: C14_28  and  C15_33 
REMARK    9  A    between atoms: C15_33  and  N9_34 
REMARK       I    between atoms: N9_34  and  C16_37 
REMARK       I    between atoms: C16_37  and  N10_38 
REMARK       I    between atoms: C16_37  and  N11_42 
ROOT
HETATM    1  N1  UNL     1      27.252  -5.469  12.733  1.00  0.00    -0.350 N 
ATOM      2  H1  UNL     1      26.754  -4.580  12.699  1.00  0.00     0.166 HD
HETATM    3  C8  UNL     1      27.845  -5.677  13.830  1.00  0.00     0.136 A 
HETATM    4  N2  UNL     1      27.756  -4.715  14.821  1.00  0.00    -0.328 N 
ATOM      5  H2  UNL     1      27.217  -3.867  14.644  1.00  0.00     0.168 HD
HETATM    6  C9  UNL     1      28.357  -4.871  16.000  1.00  0.00     0.141 A 
HETATM    7  N3  UNL     1      28.263  -3.880  17.015  1.00  0.00    -0.081 NA
HETATM    8  C10 UNL     1      29.095  -6.011  16.269  1.00  0.00     0.116 A 
HETATM    9  C11 UNL     1      29.749  -6.182  17.550  1.00  0.00     0.105 C 
HETATM   10  N4  UNL     1      30.282  -6.308  18.573  1.00  0.00    -0.191 NA
HETATM   11  C12 UNL     1      29.202  -6.984  15.306  1.00  0.00     0.103 A 
HETATM   12  N5  UNL     1      29.899  -8.117  15.490  1.00  0.00    -0.283 N 
ATOM     13  H5  UNL     1      30.372  -8.271  16.380  1.00  0.00     0.187 HD
HETATM   14  N6  UNL     1      29.987  -9.037  14.545  1.00  0.00    -0.132 N 
ATOM     15  H6  UNL     1      30.528  -9.882  14.732  1.00  0.00     0.205 HD
HETATM   16  C13 UNL     1      29.389  -8.904  13.348  1.00  0.00     0.695 A 
HETATM   17  N12 UNL     1      28.686  -7.784  13.132  1.00  0.00    -0.184 N 
ATOM     18  H12 UNL     1      28.224  -7.658  12.232  1.00  0.00     0.184 HD
HETATM   19  C17 UNL     1      28.570  -6.824  14.061  1.00  0.00     0.123 A 
ENDROOT
BRANCH   1  20
HETATM   20  C7  UNL     1      27.144  -6.222  11.553  1.00  0.00     0.101 C 
BRANCH  20  21
HETATM   21  C6  UNL     1      25.747  -6.123  10.966  1.00  0.00    -0.021 A 
HETATM   22  C5  UNL     1      25.113  -7.245  10.485  1.00  0.00     0.014 A 
HETATM   23  C4  UNL     1      23.837  -7.156   9.948  1.00  0.00     0.018 A 
HETATM   24  C3  UNL     1      23.164  -5.963   9.875  1.00  0.00     0.039 A 
HETATM   25  C19 UNL     1      23.797  -4.837  10.356  1.00  0.00     0.018 A 
HETATM   26  C18 UNL     1      25.073  -4.926  10.893  1.00  0.00     0.014 A 
BRANCH  24  27
HETATM   27  C2  UNL     1      21.820  -5.881   9.307  1.00  0.00     0.292 C 
HETATM   28  O2  UNL     1      20.972  -5.078   9.767  1.00  0.00    -0.259 OA
BRANCH  27  29
HETATM   29  O1  UNL     1      21.453  -6.685   8.253  1.00  0.00    -0.323 OA
HETATM   30  C1  UNL     1      22.238  -7.819   7.894  1.00  0.00     0.213 C 
ENDBRANCH  27  29
ENDBRANCH  24  27
ENDBRANCH  20  21
ENDBRANCH   1  20
BRANCH  16  31
HETATM   31  N7  UNL     1      29.489  -9.828  12.428  1.00  0.00    -0.194 N 
ATOM     32  H7  UNL     1      29.550 -10.798  12.740  1.00  0.00     0.180 HD
BRANCH  31  33
HETATM   33  C14 UNL     1      29.522  -9.586  11.024  1.00  0.00     0.322 C 
BRANCH  33  34
HETATM   34  N8  UNL     1      30.757  -9.991  10.383  1.00  0.00    -0.056 N 
ATOM     35  H83 UNL     1      31.200 -10.747  10.904  1.00  0.00     0.276 HD
ATOM     36  H82 UNL     1      30.563 -10.476   9.507  1.00  0.00     0.276 HD
ATOM     37  H81 UNL     1      31.417  -9.228  10.231  1.00  0.00     0.276 HD
ENDBRANCH  33  34
BRANCH  33  38
HETATM   38  C15 UNL     1      28.351 -10.195  10.292  1.00  0.00     0.291 C 
BRANCH  38  39
HETATM   39  N9  UNL     1      28.693 -10.641   8.969  1.00  0.00    -0.018 N 
HETATM   40  C16 UNL     1      28.148 -11.993   8.825  1.00  0.00     0.575 C 
HETATM   41  N10 UNL     1      28.471 -12.484   7.499  1.00  0.00    -0.026 N 
HETATM   42  N11 UNL     1      28.619 -12.875   9.863  1.00  0.00    -0.026 N 
ATOM     43 3H10 UNL     1      28.155 -11.854   6.761  1.00  0.00     0.278 HD
ATOM     44 2H10 UNL     1      29.471 -12.443   7.301  1.00  0.00     0.278 HD
ATOM     45 1H10 UNL     1      28.091 -13.425   7.399  1.00  0.00     0.278 HD
ATOM     46 3H11 UNL     1      29.638 -12.889   9.904  1.00  0.00     0.278 HD
ATOM     47 2H11 UNL     1      28.425 -12.495  10.789  1.00  0.00     0.278 HD
ATOM     48 1H11 UNL     1      28.238 -13.816   9.762  1.00  0.00     0.278 HD
ATOM     49  H92 UNL     1      28.384 -10.002   8.237  1.00  0.00     0.281 HD
ATOM     50  H91 UNL     1      29.692 -10.587   8.773  1.00  0.00     0.281 HD
ENDBRANCH  38  39
ENDBRANCH  33  38
ENDBRANCH  31  33
ENDBRANCH  16  31
TORSDOF 9
ENDMDL
