MODEL 1
REMARK VINA RESULT: -6.039788934      0.000      0.000
REMARK  11 active torsions:
REMARK  status: ('A' for Active; 'I' for Inactive)
REMARK    1  A    between atoms: C5_5  and  N1_6 
REMARK    2  A    between atoms: C6_10  and  O1_11 
REMARK    3  A    between atoms: O1_11  and  C7_12 
REMARK    4  A    between atoms: C9_14  and  O2_15 
REMARK    5  A    between atoms: O2_15  and  C10_16 
REMARK    6  A    between atoms: C11_18  and  N2_19 
REMARK    7  A    between atoms: C12_24  and  S1_25 
REMARK    8  A    between atoms: S1_25  and  C13_26 
REMARK    9  A    between atoms: C15_29  and  O5_30 
REMARK   10  A    between atoms: C16_32  and  N4_33 
REMARK   11  A    between atoms: C18_38  and  N5_39 
ROOT
HETATM    1  C13 UNL     1      28.488 -12.775   8.550  1.00  0.00     0.200 C 
HETATM    2  C14 UNL     1      28.363 -12.389   7.167  1.00  0.00     0.069 C 
HETATM    3  N3  UNL     1      28.281 -12.071   6.050  1.00  0.00    -0.197 NA
ENDROOT
BRANCH   1   4
HETATM    4  S1  UNL     1      27.936 -11.444   9.686  1.00  0.00    -0.120 SA
BRANCH   4   5
HETATM    5  C12 UNL     1      28.648  -9.897   9.030  1.00  0.00     0.222 C 
HETATM    6  O4  UNL     1      30.029  -9.972   9.142  1.00  0.00    -0.320 OA
HETATM    7  C11 UNL     1      30.448 -10.123  10.456  1.00  0.00     0.470 C 
HETATM    8  O3  UNL     1      29.386  -9.971  11.357  1.00  0.00    -0.306 OA
HETATM    9  C10 UNL     1      28.853  -8.717  11.154  1.00  0.00     0.297 C 
HETATM   10  C15 UNL     1      28.150  -8.701   9.817  1.00  0.00     0.212 C 
BRANCH   7  11
HETATM   11  N2  UNL     1      31.125 -11.372  10.676  1.00  0.00    -0.029 N 
ATOM     12  H23 UNL     1      31.497 -11.440  11.623  1.00  0.00     0.280 HD
ATOM     13  H22 UNL     1      30.471 -12.154  10.713  1.00  0.00     0.280 HD
ATOM     14  H21 UNL     1      31.850 -11.516   9.973  1.00  0.00     0.280 HD
ENDBRANCH   7  11
BRANCH   9  15
HETATM   15  O2  UNL     1      28.087  -8.257  12.189  1.00  0.00    -0.351 OA
BRANCH  15  16
HETATM   16  C9  UNL     1      28.593  -7.067  12.764  1.00  0.00     0.157 C 
HETATM   17  C8  UNL     1      27.646  -5.973  12.324  1.00  0.00     0.068 C 
HETATM   18  C7  UNL     1      27.885  -4.659  12.971  1.00  0.00     0.157 C 
HETATM   19  C18 UNL     1      28.630  -4.797  14.309  1.00  0.00     0.214 C 
HETATM   20  C17 UNL     1      28.127  -6.050  14.968  1.00  0.00     0.070 C 
HETATM   21  C16 UNL     1      28.584  -7.293  14.254  1.00  0.00     0.214 C 
BRANCH  18  22
HETATM   22  O1  UNL     1      26.691  -4.063  13.274  1.00  0.00    -0.350 OA
BRANCH  22  23
HETATM   23  C6  UNL     1      26.391  -2.909  12.614  1.00  0.00     0.352 C 
HETATM   24  C5  UNL     1      24.907  -2.911  12.329  1.00  0.00     0.239 C 
HETATM   25  C4  UNL     1      24.631  -1.704  11.454  1.00  0.00     0.039 C 
HETATM   26  C3  UNL     1      25.006  -0.487  12.241  1.00  0.00     0.035 C 
HETATM   27  C2  UNL     1      26.428  -0.505  12.738  1.00  0.00     0.185 C 
HETATM   28  C1  UNL     1      27.334  -0.083  11.607  1.00  0.00     0.040 C 
HETATM   29  N6  UNL     1      26.814  -1.742  13.339  1.00  0.00    -0.043 N 
ATOM     30  H62 UNL     1      27.823  -1.764  13.492  1.00  0.00     0.280 HD
ATOM     31  H61 UNL     1      26.491  -1.785  14.305  1.00  0.00     0.280 HD
BRANCH  24  32
HETATM   32  N1  UNL     1      24.539  -4.137  11.688  1.00  0.00    -0.071 N 
ATOM     33  H13 UNL     1      23.623  -4.457  12.003  1.00  0.00     0.274 HD
ATOM     34  H12 UNL     1      24.327  -3.989  10.701  1.00  0.00     0.274 HD
ATOM     35  H11 UNL     1      25.246  -4.862  11.810  1.00  0.00     0.274 HD
ENDBRANCH  24  32
ENDBRANCH  22  23
ENDBRANCH  18  22
BRANCH  19  36
HETATM   36  N5  UNL     1      30.048  -4.746  14.137  1.00  0.00    -0.072 N 
ATOM     37  H53 UNL     1      30.297  -4.443  13.195  1.00  0.00     0.274 HD
ATOM     38  H52 UNL     1      30.458  -3.977  14.666  1.00  0.00     0.274 HD
ATOM     39  H51 UNL     1      30.492  -5.635  14.369  1.00  0.00     0.274 HD
ENDBRANCH  19  36
BRANCH  21  40
HETATM   40  N4  UNL     1      27.680  -8.369  14.618  1.00  0.00    -0.072 N 
ATOM     41  H43 UNL     1      26.873  -8.406  13.996  1.00  0.00     0.274 HD
ATOM     42  H42 UNL     1      28.082  -9.283  14.408  1.00  0.00     0.274 HD
ATOM     43  H41 UNL     1      27.397  -8.301  15.595  1.00  0.00     0.274 HD
ENDBRANCH  21  40
ENDBRANCH  15  16
ENDBRANCH   9  15
BRANCH  10  44
HETATM   44  O5  UNL     1      28.376  -7.530   9.116  1.00  0.00    -0.387 OA
ATOM     45  H5  UNL     1      29.253  -7.190   9.250  1.00  0.00     0.210 HD
ENDBRANCH  10  44
ENDBRANCH   4   5
ENDBRANCH   1   4
TORSDOF 11
ENDMDL
MODEL 2
REMARK VINA RESULT: -6.031884028      0.987      1.954
REMARK  11 active torsions:
REMARK  status: ('A' for Active; 'I' for Inactive)
REMARK    1  A    between atoms: C5_5  and  N1_6 
REMARK    2  A    between atoms: C6_10  and  O1_11 
REMARK    3  A    between atoms: O1_11  and  C7_12 
REMARK    4  A    between atoms: C9_14  and  O2_15 
REMARK    5  A    between atoms: O2_15  and  C10_16 
REMARK    6  A    between atoms: C11_18  and  N2_19 
REMARK    7  A    between atoms: C12_24  and  S1_25 
REMARK    8  A    between atoms: S1_25  and  C13_26 
REMARK    9  A    between atoms: C15_29  and  O5_30 
REMARK   10  A    between atoms: C16_32  and  N4_33 
REMARK   11  A    between atoms: C18_38  and  N5_39 
ROOT
HETATM    1  C13 UNL     1      28.438 -12.783   8.568  1.00  0.00     0.200 C 
HETATM    2  C14 UNL     1      28.360 -12.366   7.190  1.00  0.00     0.069 C 
HETATM    3  N3  UNL     1      28.316 -12.023   6.078  1.00  0.00    -0.197 NA
ENDROOT
BRANCH   1   4
HETATM    4  S1  UNL     1      27.940 -11.445   9.719  1.00  0.00    -0.120 SA
BRANCH   4   5
HETATM    5  C12 UNL     1      28.692  -9.915   9.066  1.00  0.00     0.222 C 
HETATM    6  O4  UNL     1      30.064  -9.990   9.257  1.00  0.00    -0.320 OA
HETATM    7  C11 UNL     1      30.408 -10.107  10.596  1.00  0.00     0.470 C 
HETATM    8  O3  UNL     1      29.298  -9.932  11.432  1.00  0.00    -0.306 OA
HETATM    9  C10 UNL     1      28.781  -8.683  11.168  1.00  0.00     0.297 C 
HETATM   10  C15 UNL     1      28.153  -8.699   9.794  1.00  0.00     0.212 C 
BRANCH   7  11
HETATM   11  N2  UNL     1      31.068 -11.352  10.884  1.00  0.00    -0.029 N 
ATOM     12  H23 UNL     1      31.345 -11.416  11.863  1.00  0.00     0.280 HD
ATOM     13  H22 UNL     1      30.420 -12.139  10.857  1.00  0.00     0.280 HD
ATOM     14  H21 UNL     1      31.861 -11.492  10.257  1.00  0.00     0.280 HD
ENDBRANCH   7  11
BRANCH   9  15
HETATM   15  O2  UNL     1      27.959  -8.197  12.147  1.00  0.00    -0.351 OA
BRANCH  15  16
HETATM   16  C9  UNL     1      28.349  -6.918  12.611  1.00  0.00     0.157 C 
HETATM   17  C8  UNL     1      27.184  -6.005  12.298  1.00  0.00     0.068 C 
HETATM   18  C7  UNL     1      27.305  -4.641  12.871  1.00  0.00     0.157 C 
HETATM   19  C18 UNL     1      28.254  -4.600  14.079  1.00  0.00     0.214 C 
HETATM   20  C17 UNL     1      28.060  -5.883  14.836  1.00  0.00     0.070 C 
HETATM   21  C16 UNL     1      28.597  -7.074  14.088  1.00  0.00     0.214 C 
BRANCH  18  22
HETATM   22  O1  UNL     1      26.090  -4.222  13.341  1.00  0.00    -0.350 OA
BRANCH  22  23
HETATM   23  C6  UNL     1      25.152  -3.881  12.413  1.00  0.00     0.352 C 
HETATM   24  C5  UNL     1      25.446  -2.470  11.956  1.00  0.00     0.239 C 
HETATM   25  C4  UNL     1      24.298  -2.058  11.054  1.00  0.00     0.039 C 
HETATM   26  C3  UNL     1      24.294  -2.992   9.884  1.00  0.00     0.035 C 
HETATM   27  C2  UNL     1      24.206  -4.445  10.272  1.00  0.00     0.185 C 
HETATM   28  C1  UNL     1      22.764  -4.774  10.573  1.00  0.00     0.040 C 
HETATM   29  N6  UNL     1      25.099  -4.817  11.324  1.00  0.00    -0.043 N 
ATOM     30  H62 UNL     1      24.876  -5.751  11.667  1.00  0.00     0.280 HD
ATOM     31  H61 UNL     1      26.035  -4.986  10.954  1.00  0.00     0.280 HD
BRANCH  24  32
HETATM   32  N1  UNL     1      25.574  -1.609  13.092  1.00  0.00    -0.071 N 
ATOM     33  H13 UNL     1      25.659  -0.633  12.807  1.00  0.00     0.274 HD
ATOM     34  H12 UNL     1      24.699  -1.551  13.611  1.00  0.00     0.274 HD
ATOM     35  H11 UNL     1      26.346  -1.886  13.699  1.00  0.00     0.274 HD
ENDBRANCH  24  32
ENDBRANCH  22  23
ENDBRANCH  18  22
BRANCH  19  36
HETATM   36  N5  UNL     1      29.603  -4.340  13.689  1.00  0.00    -0.072 N 
ATOM     37  H53 UNL     1      29.652  -3.590  13.000  1.00  0.00     0.274 HD
ATOM     38  H52 UNL     1      30.129  -3.898  14.444  1.00  0.00     0.274 HD
ATOM     39  H51 UNL     1      30.072  -5.181  13.354  1.00  0.00     0.274 HD
ENDBRANCH  19  36
BRANCH  21  40
HETATM   40  N4  UNL     1      27.942  -8.258  14.612  1.00  0.00    -0.072 N 
ATOM     41  H43 UNL     1      27.108  -8.017  15.148  1.00  0.00     0.274 HD
ATOM     42  H42 UNL     1      27.500  -8.800  13.870  1.00  0.00     0.274 HD
ATOM     43  H41 UNL     1      28.586  -8.828  15.159  1.00  0.00     0.274 HD
ENDBRANCH  21  40
ENDBRANCH  15  16
ENDBRANCH   9  15
BRANCH  10  44
HETATM   44  O5  UNL     1      28.420  -7.547   9.078  1.00  0.00    -0.387 OA
ATOM     45  H5  UNL     1      27.649  -7.005   8.962  1.00  0.00     0.210 HD
ENDBRANCH  10  44
ENDBRANCH   4   5
ENDBRANCH   1   4
TORSDOF 11
ENDMDL
MODEL 3
REMARK VINA RESULT: -5.923291743      2.622      3.383
REMARK  11 active torsions:
REMARK  status: ('A' for Active; 'I' for Inactive)
REMARK    1  A    between atoms: C5_5  and  N1_6 
REMARK    2  A    between atoms: C6_10  and  O1_11 
REMARK    3  A    between atoms: O1_11  and  C7_12 
REMARK    4  A    between atoms: C9_14  and  O2_15 
REMARK    5  A    between atoms: O2_15  and  C10_16 
REMARK    6  A    between atoms: C11_18  and  N2_19 
REMARK    7  A    between atoms: C12_24  and  S1_25 
REMARK    8  A    between atoms: S1_25  and  C13_26 
REMARK    9  A    between atoms: C15_29  and  O5_30 
REMARK   10  A    between atoms: C16_32  and  N4_33 
REMARK   11  A    between atoms: C18_38  and  N5_39 
ROOT
HETATM    1  C13 UNL     1      29.016 -12.037   8.043  1.00  0.00     0.200 C 
HETATM    2  C14 UNL     1      27.944 -12.048   9.006  1.00  0.00     0.069 C 
HETATM    3  N3  UNL     1      27.081 -12.037   9.788  1.00  0.00    -0.197 NA
ENDROOT
BRANCH   1   4
HETATM    4  S1  UNL     1      30.626 -12.477   8.803  1.00  0.00    -0.120 SA
BRANCH   4   5
HETATM    5  C12 UNL     1      31.517 -10.901   9.038  1.00  0.00     0.222 C 
HETATM    6  O4  UNL     1      32.545 -11.114   9.946  1.00  0.00    -0.320 OA
HETATM    7  C11 UNL     1      32.082 -11.543  11.182  1.00  0.00     0.470 C 
HETATM    8  O3  UNL     1      30.685 -11.472  11.263  1.00  0.00    -0.306 OA
HETATM    9  C10 UNL     1      30.329 -10.160  11.035  1.00  0.00     0.297 C 
HETATM   10  C15 UNL     1      30.587  -9.835   9.582  1.00  0.00     0.212 C 
BRANCH   7  11
HETATM   11  N2  UNL     1      32.542 -12.865  11.510  1.00  0.00    -0.029 N 
ATOM     12  H23 UNL     1      31.813 -13.419  11.958  1.00  0.00     0.280 HD
ATOM     13  H22 UNL     1      32.678 -13.436  10.676  1.00  0.00     0.280 HD
ATOM     14  H21 UNL     1      33.386 -12.820  12.081  1.00  0.00     0.280 HD
ENDBRANCH   7  11
BRANCH   9  15
HETATM   15  O2  UNL     1      29.069  -9.838  11.460  1.00  0.00    -0.351 OA
BRANCH  15  16
HETATM   16  C9  UNL     1      28.757  -8.471  11.275  1.00  0.00     0.157 C 
HETATM   17  C8  UNL     1      27.364  -8.452  10.686  1.00  0.00     0.068 C 
HETATM   18  C7  UNL     1      26.761  -7.100  10.582  1.00  0.00     0.157 C 
HETATM   19  C18 UNL     1      27.395  -6.104  11.567  1.00  0.00     0.214 C 
HETATM   20  C17 UNL     1      27.701  -6.863  12.827  1.00  0.00     0.070 C 
HETATM   21  C16 UNL     1      28.828  -7.844  12.643  1.00  0.00     0.214 C 
BRANCH  18  22
HETATM   22  O1  UNL     1      25.435  -7.153  10.915  1.00  0.00    -0.350 OA
BRANCH  22  23
HETATM   23  C6  UNL     1      24.632  -6.175  10.411  1.00  0.00     0.352 C 
HETATM   24  C5  UNL     1      23.280  -6.788  10.123  1.00  0.00     0.239 C 
HETATM   25  C4  UNL     1      22.464  -5.725   9.413  1.00  0.00     0.039 C 
HETATM   26  C3  UNL     1      22.319  -4.570  10.356  1.00  0.00     0.035 C 
HETATM   27  C2  UNL     1      23.634  -4.028  10.851  1.00  0.00     0.185 C 
HETATM   28  C1  UNL     1      24.207  -3.121   9.789  1.00  0.00     0.040 C 
HETATM   29  N6  UNL     1      24.548  -5.036  11.285  1.00  0.00    -0.043 N 
ATOM     30  H62 UNL     1      25.474  -4.636  11.437  1.00  0.00     0.280 HD
ATOM     31  H61 UNL     1      24.328  -5.332  12.236  1.00  0.00     0.280 HD
BRANCH  24  32
HETATM   32  N1  UNL     1      23.442  -7.965   9.326  1.00  0.00    -0.071 N 
ATOM     33  H13 UNL     1      23.397  -8.807   9.898  1.00  0.00     0.274 HD
ATOM     34  H12 UNL     1      22.626  -8.126   8.736  1.00  0.00     0.274 HD
ATOM     35  H11 UNL     1      24.299  -7.939   8.772  1.00  0.00     0.274 HD
ENDBRANCH  24  32
ENDBRANCH  22  23
ENDBRANCH  18  22
BRANCH  19  36
HETATM   36  N5  UNL     1      28.517  -5.430  10.994  1.00  0.00    -0.072 N 
ATOM     37  H53 UNL     1      29.009  -6.026  10.329  1.00  0.00     0.274 HD
ATOM     38  H52 UNL     1      28.219  -4.691  10.356  1.00  0.00     0.274 HD
ATOM     39  H51 UNL     1      29.150  -5.070  11.708  1.00  0.00     0.274 HD
ENDBRANCH  19  36
BRANCH  21  40
HETATM   40  N4  UNL     1      28.718  -8.844  13.689  1.00  0.00    -0.072 N 
ATOM     41  H43 UNL     1      28.183  -9.655  13.376  1.00  0.00     0.274 HD
ATOM     42  H42 UNL     1      29.612  -9.303  13.863  1.00  0.00     0.274 HD
ATOM     43  H41 UNL     1      28.329  -8.446  14.543  1.00  0.00     0.274 HD
ENDBRANCH  21  40
ENDBRANCH  15  16
ENDBRANCH   9  15
BRANCH  10  44
HETATM   44  O5  UNL     1      31.137  -8.578   9.413  1.00  0.00    -0.387 OA
ATOM     45  H5  UNL     1      30.560  -7.990   8.940  1.00  0.00     0.210 HD
ENDBRANCH  10  44
ENDBRANCH   4   5
ENDBRANCH   1   4
TORSDOF 11
ENDMDL
MODEL 4
REMARK VINA RESULT: -5.777671182      4.504      7.153
REMARK  11 active torsions:
REMARK  status: ('A' for Active; 'I' for Inactive)
REMARK    1  A    between atoms: C5_5  and  N1_6 
REMARK    2  A    between atoms: C6_10  and  O1_11 
REMARK    3  A    between atoms: O1_11  and  C7_12 
REMARK    4  A    between atoms: C9_14  and  O2_15 
REMARK    5  A    between atoms: O2_15  and  C10_16 
REMARK    6  A    between atoms: C11_18  and  N2_19 
REMARK    7  A    between atoms: C12_24  and  S1_25 
REMARK    8  A    between atoms: S1_25  and  C13_26 
REMARK    9  A    between atoms: C15_29  and  O5_30 
REMARK   10  A    between atoms: C16_32  and  N4_33 
REMARK   11  A    between atoms: C18_38  and  N5_39 
ROOT
HETATM    1  C13 UNL     1      32.233 -13.919   7.036  1.00  0.00     0.200 C 
HETATM    2  C14 UNL     1      31.120 -14.738   6.630  1.00  0.00     0.069 C 
HETATM    3  N3  UNL     1      30.216 -15.388   6.287  1.00  0.00    -0.197 NA
ENDROOT
BRANCH   1   4
HETATM    4  S1  UNL     1      31.747 -12.674   8.293  1.00  0.00    -0.120 SA
BRANCH   4   5
HETATM    5  C12 UNL     1      31.276 -13.621   9.781  1.00  0.00     0.222 C 
HETATM    6  O4  UNL     1      29.897 -13.777   9.778  1.00  0.00    -0.320 OA
HETATM    7  C11 UNL     1      29.225 -12.563   9.802  1.00  0.00     0.470 C 
HETATM    8  O3  UNL     1      30.103 -11.492  10.014  1.00  0.00    -0.306 OA
HETATM    9  C10 UNL     1      30.745 -11.720  11.212  1.00  0.00     0.297 C 
HETATM   10  C15 UNL     1      31.691 -12.885  11.040  1.00  0.00     0.212 C 
BRANCH   7  11
HETATM   11  N2  UNL     1      28.440 -12.348   8.617  1.00  0.00    -0.029 N 
ATOM     12  H23 UNL     1      27.451 -12.230   8.835  1.00  0.00     0.280 HD
ATOM     13  H22 UNL     1      28.617 -11.430   8.208  1.00  0.00     0.280 HD
ATOM     14  H21 UNL     1      28.592 -13.099   7.945  1.00  0.00     0.280 HD
ENDBRANCH   7  11
BRANCH   9  15
HETATM   15  O2  UNL     1      31.327 -10.609  11.758  1.00  0.00    -0.351 OA
BRANCH  15  16
HETATM   16  C9  UNL     1      30.386  -9.708  12.310  1.00  0.00     0.157 C 
HETATM   17  C8  UNL     1      30.549  -9.824  13.809  1.00  0.00     0.068 C 
HETATM   18  C7  UNL     1      29.781  -8.821  14.588  1.00  0.00     0.157 C 
HETATM   19  C18 UNL     1      29.446  -7.572  13.757  1.00  0.00     0.214 C 
HETATM   20  C17 UNL     1      30.623  -7.310  12.860  1.00  0.00     0.070 C 
HETATM   21  C16 UNL     1      30.758  -8.348  11.778  1.00  0.00     0.214 C 
BRANCH  18  22
HETATM   22  O1  UNL     1      30.531  -8.373  15.642  1.00  0.00    -0.350 OA
BRANCH  22  23
HETATM   23  C6  UNL     1      31.501  -9.207  16.109  1.00  0.00     0.352 C 
HETATM   24  C5  UNL     1      32.672  -8.356  16.546  1.00  0.00     0.239 C 
HETATM   25  C4  UNL     1      33.794  -9.312  16.903  1.00  0.00     0.039 C 
HETATM   26  C3  UNL     1      33.314 -10.157  18.042  1.00  0.00     0.035 C 
HETATM   27  C2  UNL     1      32.028 -10.887  17.751  1.00  0.00     0.185 C 
HETATM   28  C1  UNL     1      32.351 -12.119  16.940  1.00  0.00     0.040 C 
HETATM   29  N6  UNL     1      31.021 -10.068  17.156  1.00  0.00    -0.043 N 
ATOM     30  H62 UNL     1      30.249 -10.642  16.818  1.00  0.00     0.280 HD
ATOM     31  H61 UNL     1      30.535  -9.525  17.869  1.00  0.00     0.280 HD
BRANCH  24  32
HETATM   32  N1  UNL     1      33.041  -7.463  15.491  1.00  0.00    -0.071 N 
ATOM     33  H13 UNL     1      32.270  -6.841  15.248  1.00  0.00     0.274 HD
ATOM     34  H12 UNL     1      33.714  -6.767  15.815  1.00  0.00     0.274 HD
ATOM     35  H11 UNL     1      33.389  -7.959  14.671  1.00  0.00     0.274 HD
ENDBRANCH  24  32
ENDBRANCH  22  23
ENDBRANCH  18  22
BRANCH  19  36
HETATM   36  N5  UNL     1      28.198  -7.704  13.074  1.00  0.00    -0.072 N 
ATOM     37  H53 UNL     1      27.499  -8.155  13.664  1.00  0.00     0.274 HD
ATOM     38  H52 UNL     1      27.745  -6.799  12.952  1.00  0.00     0.274 HD
ATOM     39  H51 UNL     1      28.301  -8.191  12.184  1.00  0.00     0.274 HD
ENDBRANCH  19  36
BRANCH  21  40
HETATM   40  N4  UNL     1      32.131  -8.322  11.310  1.00  0.00    -0.072 N 
ATOM     41  H43 UNL     1      32.658  -9.125  11.652  1.00  0.00     0.274 HD
ATOM     42  H42 UNL     1      32.188  -8.512  10.309  1.00  0.00     0.274 HD
ATOM     43  H41 UNL     1      32.588  -7.444  11.551  1.00  0.00     0.274 HD
ENDBRANCH  21  40
ENDBRANCH  15  16
ENDBRANCH   9  15
BRANCH  10  44
HETATM   44  O5  UNL     1      31.680 -13.739  12.127  1.00  0.00    -0.387 OA
ATOM     45  H5  UNL     1      31.286 -14.579  11.925  1.00  0.00     0.210 HD
ENDBRANCH  10  44
ENDBRANCH   4   5
ENDBRANCH   1   4
TORSDOF 11
ENDMDL
MODEL 5
REMARK VINA RESULT: -5.760857602      3.263      4.867
REMARK  11 active torsions:
REMARK  status: ('A' for Active; 'I' for Inactive)
REMARK    1  A    between atoms: C5_5  and  N1_6 
REMARK    2  A    between atoms: C6_10  and  O1_11 
REMARK    3  A    between atoms: O1_11  and  C7_12 
REMARK    4  A    between atoms: C9_14  and  O2_15 
REMARK    5  A    between atoms: O2_15  and  C10_16 
REMARK    6  A    between atoms: C11_18  and  N2_19 
REMARK    7  A    between atoms: C12_24  and  S1_25 
REMARK    8  A    between atoms: S1_25  and  C13_26 
REMARK    9  A    between atoms: C15_29  and  O5_30 
REMARK   10  A    between atoms: C16_32  and  N4_33 
REMARK   11  A    between atoms: C18_38  and  N5_39 
ROOT
HETATM    1  C13 UNL     1      33.259 -12.953  12.525  1.00  0.00     0.200 C 
HETATM    2  C14 UNL     1      33.577 -14.319  12.854  1.00  0.00     0.069 C 
HETATM    3  N3  UNL     1      33.853 -15.418  13.123  1.00  0.00    -0.197 NA
ENDROOT
BRANCH   1   4
HETATM    4  S1  UNL     1      33.392 -12.631  10.724  1.00  0.00    -0.120 SA
BRANCH   4   5
HETATM    5  C12 UNL     1      32.086 -13.634   9.937  1.00  0.00     0.222 C 
HETATM    6  O4  UNL     1      32.115 -13.391   8.571  1.00  0.00    -0.320 OA
HETATM    7  C11 UNL     1      31.886 -12.058   8.264  1.00  0.00     0.470 C 
HETATM    8  O3  UNL     1      31.496 -11.327   9.394  1.00  0.00    -0.306 OA
HETATM    9  C10 UNL     1      30.355 -11.919   9.889  1.00  0.00     0.297 C 
HETATM   10  C15 UNL     1      30.721 -13.259  10.480  1.00  0.00     0.212 C 
BRANCH   7  11
HETATM   11  N2  UNL     1      33.017 -11.441   7.627  1.00  0.00    -0.029 N 
ATOM     12  H23 UNL     1      32.757 -10.582   7.142  1.00  0.00     0.280 HD
ATOM     13  H22 UNL     1      33.663 -11.041   8.308  1.00  0.00     0.280 HD
ATOM     14  H21 UNL     1      33.483 -12.101   7.004  1.00  0.00     0.280 HD
ENDBRANCH   7  11
BRANCH   9  15
HETATM   15  O2  UNL     1      29.629 -11.121  10.731  1.00  0.00    -0.351 OA
BRANCH  15  16
HETATM   16  C9  UNL     1      29.442  -9.812  10.227  1.00  0.00     0.157 C 
HETATM   17  C8  UNL     1      27.949  -9.573  10.274  1.00  0.00     0.068 C 
HETATM   18  C7  UNL     1      27.542  -8.180   9.960  1.00  0.00     0.157 C 
HETATM   19  C18 UNL     1      28.680  -7.175  10.201  1.00  0.00     0.214 C 
HETATM   20  C17 UNL     1      29.435  -7.644  11.412  1.00  0.00     0.070 C 
HETATM   21  C16 UNL     1      30.215  -8.903  11.145  1.00  0.00     0.214 C 
BRANCH  18  22
HETATM   22  O1  UNL     1      26.525  -7.792  10.789  1.00  0.00    -0.350 OA
BRANCH  22  23
HETATM   23  C6  UNL     1      26.007  -6.548  10.590  1.00  0.00     0.352 C 
HETATM   24  C5  UNL     1      24.500  -6.675  10.553  1.00  0.00     0.239 C 
HETATM   25  C4  UNL     1      23.960  -5.311  10.167  1.00  0.00     0.039 C 
HETATM   26  C3  UNL     1      24.372  -4.349  11.236  1.00  0.00     0.035 C 
HETATM   27  C2  UNL     1      25.859  -4.313  11.475  1.00  0.00     0.185 C 
HETATM   28  C1  UNL     1      26.493  -3.446  10.415  1.00  0.00     0.040 C 
HETATM   29  N6  UNL     1      26.459  -5.606  11.578  1.00  0.00    -0.043 N 
ATOM     30  H62 UNL     1      27.476  -5.530  11.558  1.00  0.00     0.280 HD
ATOM     31  H61 UNL     1      26.331  -5.985  12.516  1.00  0.00     0.280 HD
BRANCH  24  32
HETATM   32  N1  UNL     1      24.123  -7.689   9.617  1.00  0.00    -0.071 N 
ATOM     33  H13 UNL     1      24.932  -8.233   9.317  1.00  0.00     0.274 HD
ATOM     34  H12 UNL     1      23.588  -8.430  10.071  1.00  0.00     0.274 HD
ATOM     35  H11 UNL     1      23.618  -7.306   8.817  1.00  0.00     0.274 HD
ENDBRANCH  24  32
ENDBRANCH  22  23
ENDBRANCH  18  22
BRANCH  19  36
HETATM   36  N5  UNL     1      29.485  -6.990   9.035  1.00  0.00    -0.072 N 
ATOM     37  H53 UNL     1      29.468  -6.020   8.722  1.00  0.00     0.274 HD
ATOM     38  H52 UNL     1      30.478  -7.071   9.254  1.00  0.00     0.274 HD
ATOM     39  H51 UNL     1      29.218  -7.627   8.284  1.00  0.00     0.274 HD
ENDBRANCH  19  36
BRANCH  21  40
HETATM   40  N4  UNL     1      30.475  -9.540  12.423  1.00  0.00    -0.072 N 
ATOM     41  H43 UNL     1      30.990  -8.923  13.051  1.00  0.00     0.274 HD
ATOM     42  H42 UNL     1      29.621  -9.644  12.970  1.00  0.00     0.274 HD
ATOM     43  H41 UNL     1      30.953 -10.433  12.302  1.00  0.00     0.274 HD
ENDBRANCH  21  40
ENDBRANCH  15  16
ENDBRANCH   9  15
BRANCH  10  44
HETATM   44  O5  UNL     1      29.793 -14.240  10.180  1.00  0.00    -0.387 OA
ATOM     45  H5  UNL     1      30.005 -14.708   9.381  1.00  0.00     0.210 HD
ENDBRANCH  10  44
ENDBRANCH   4   5
ENDBRANCH   1   4
TORSDOF 11
ENDMDL
