MODEL 1
REMARK VINA RESULT: -7.287069919      0.000      0.000
REMARK  11 active torsions:
REMARK  status: ('A' for Active; 'I' for Inactive)
REMARK    1  A    between atoms: N3_6  and  C3_7 
REMARK    2  A    between atoms: C3_7  and  C4_8 
REMARK    3  A    between atoms: C4_8  and  O1_9 
REMARK    4  A    between atoms: C4_8  and  C5_11 
REMARK    5  A    between atoms: C5_11  and  O2_12 
REMARK    6  A    between atoms: C8_19  and  N5_20 
REMARK    7  A    between atoms: N5_20  and  N6_22 
REMARK    8  A    between atoms: C9_24  and  C10_25 
REMARK    9  A    between atoms: C13_28  and  N7_29 
REMARK   10  A    between atoms: N7_29  and  N8_31 
REMARK   11  A    between atoms: C14_38  and  N11_39 
REMARK       I    between atoms: N11_39  and  C15_40 
REMARK       I    between atoms: C15_40  and  N12_41 
REMARK       I    between atoms: C15_40  and  N13_45 
ROOT
HETATM    1  N1  UNL     1      32.018 -11.193  13.861  1.00  0.00    -0.190 NA
HETATM    2  C1  UNL     1      31.330 -10.891  12.957  1.00  0.00     0.121 C 
HETATM    3  C2  UNL     1      30.479 -10.540  11.855  1.00  0.00     0.158 A 
HETATM    4  N2  UNL     1      30.401 -11.115  10.648  1.00  0.00    -0.286 N 
ATOM      5  H2  UNL     1      30.967 -11.912  10.356  1.00  0.00     0.188 HD
HETATM    6  N3  UNL     1      29.496 -10.520   9.876  1.00  0.00    -0.281 N 
HETATM    7  C6  UNL     1      28.976  -9.527  10.621  1.00  0.00     0.150 A 
HETATM    8  C7  UNL     1      28.012  -8.584  10.367  1.00  0.00     0.290 A 
HETATM    9  O3  UNL     1      27.455  -8.578   9.236  1.00  0.00    -0.265 OA
HETATM   10  N4  UNL     1      27.684  -7.687  11.328  1.00  0.00    -0.153 N 
ATOM     11  H4  UNL     1      26.966  -6.994  11.117  1.00  0.00     0.187 HD
HETATM   12  C8  UNL     1      28.256  -7.662  12.544  1.00  0.00     0.700 A 
HETATM   13  N14 UNL     1      29.201  -8.585  12.797  1.00  0.00    -0.185 N 
ATOM     14  H14 UNL     1      29.655  -8.595  13.711  1.00  0.00     0.184 HD
HETATM   15  C16 UNL     1      29.561  -9.496  11.875  1.00  0.00     0.122 A 
ENDROOT
BRANCH   6  16
HETATM   16  C3  UNL     1      29.166 -10.903   8.501  1.00  0.00     0.183 C 
BRANCH  16  17
HETATM   17  C4  UNL     1      28.327 -12.138   8.452  1.00  0.00     0.161 C 
BRANCH  17  18
HETATM   18  O1  UNL     1      28.724 -13.038   9.451  1.00  0.00    -0.392 OA
ATOM     19  H1  UNL     1      28.259 -13.861   9.359  1.00  0.00     0.210 HD
ENDBRANCH  17  18
BRANCH  17  20
HETATM   20  C5  UNL     1      28.548 -12.793   7.105  1.00  0.00     0.197 C 
BRANCH  20  21
HETATM   21  O2  UNL     1      28.196 -11.965   6.059  1.00  0.00    -0.398 OA
ATOM     22  H2  UNL     1      28.569 -12.252   5.234  1.00  0.00     0.209 HD
ENDBRANCH  20  21
ENDBRANCH  17  20
ENDBRANCH  16  17
ENDBRANCH   6  16
BRANCH  12  23
HETATM   23  N5  UNL     1      27.915  -6.784  13.445  1.00  0.00    -0.132 N 
ATOM     24  H5  UNL     1      27.275  -7.085  14.181  1.00  0.00     0.205 HD
BRANCH  23  25
HETATM   25  N6  UNL     1      28.338  -5.532  13.476  1.00  0.00    -0.297 N 
HETATM   26  C9  UNL     1      27.935  -4.446  13.045  1.00  0.00     0.124 C 
ATOM     27  H6  UNL     1      29.218  -5.439  13.983  1.00  0.00     0.186 HD
BRANCH  26  28
HETATM   28  C10 UNL     1      26.737  -4.136  12.278  1.00  0.00     0.039 A 
HETATM   29  C11 UNL     1      25.554  -3.790  12.871  1.00  0.00     0.021 A 
HETATM   30  C12 UNL     1      24.450  -3.507  12.100  1.00  0.00     0.051 A 
HETATM   31  C13 UNL     1      24.579  -3.585  10.734  1.00  0.00     0.123 A 
HETATM   32  N10 UNL     1      25.722  -3.921  10.163  1.00  0.00    -0.316 N 
HETATM   33  C14 UNL     1      26.880  -4.220  10.861  1.00  0.00     0.190 A 
ATOM     34  H10 UNL     1      25.754  -3.962   9.144  1.00  0.00     0.170 HD
BRANCH  31  35
HETATM   35  N7  UNL     1      23.389  -3.279   9.985  1.00  0.00    -0.271 N 
ATOM     36  H7  UNL     1      23.333  -2.442   9.405  1.00  0.00     0.190 HD
BRANCH  35  37
HETATM   37  N8  UNL     1      22.428  -4.072  10.068  1.00  0.00    -0.248 N 
HETATM   38  N9  UNL     1      21.546  -4.805   9.624  1.00  0.00    -0.331 N 
ATOM     39  H92 UNL     1      21.705  -4.685   8.624  1.00  0.00     0.178 HD
ATOM     40  H91 UNL     1      20.761  -5.453   9.692  1.00  0.00     0.178 HD
ATOM     41  H8  UNL     1      22.305  -4.163  11.076  1.00  0.00     0.207 HD
ENDBRANCH  35  37
ENDBRANCH  31  35
BRANCH  33  42
HETATM   42  N11 UNL     1      27.895  -4.520  10.312  1.00  0.00    -0.371 NA
HETATM   43  C15 UNL     1      29.090  -4.796   9.837  1.00  0.00     0.556 C 
HETATM   44  N12 UNL     1      29.768  -3.594   9.284  1.00  0.00    -0.021 N 
HETATM   45  N13 UNL     1      29.165  -5.808   8.757  1.00  0.00    -0.021 N 
ATOM     46 3H12 UNL     1      29.188  -3.135   8.580  1.00  0.00     0.280 HD
ATOM     47 2H12 UNL     1      29.810  -2.844   9.974  1.00  0.00     0.280 HD
ATOM     48 1H12 UNL     1      30.694  -3.808   8.916  1.00  0.00     0.280 HD
ATOM     49 3H13 UNL     1      28.712  -6.669   9.064  1.00  0.00     0.280 HD
ATOM     50 2H13 UNL     1      28.548  -5.535   7.991  1.00  0.00     0.280 HD
ATOM     51 1H13 UNL     1      30.091  -6.022   8.388  1.00  0.00     0.280 HD
ENDBRANCH  33  42
ENDBRANCH  26  28
ENDBRANCH  23  25
ENDBRANCH  12  23
TORSDOF 11
ENDMDL
MODEL 2
REMARK VINA RESULT: -6.968648298      1.847      2.999
REMARK  11 active torsions:
REMARK  status: ('A' for Active; 'I' for Inactive)
REMARK    1  A    between atoms: N3_6  and  C3_7 
REMARK    2  A    between atoms: C3_7  and  C4_8 
REMARK    3  A    between atoms: C4_8  and  O1_9 
REMARK    4  A    between atoms: C4_8  and  C5_11 
REMARK    5  A    between atoms: C5_11  and  O2_12 
REMARK    6  A    between atoms: C8_19  and  N5_20 
REMARK    7  A    between atoms: N5_20  and  N6_22 
REMARK    8  A    between atoms: C9_24  and  C10_25 
REMARK    9  A    between atoms: C13_28  and  N7_29 
REMARK   10  A    between atoms: N7_29  and  N8_31 
REMARK   11  A    between atoms: C14_38  and  N11_39 
REMARK       I    between atoms: N11_39  and  C15_40 
REMARK       I    between atoms: C15_40  and  N12_41 
REMARK       I    between atoms: C15_40  and  N13_45 
ROOT
HETATM    1  N1  UNL     1      24.055  -6.558  10.034  1.00  0.00    -0.190 NA
HETATM    2  C1  UNL     1      25.071  -7.123  10.208  1.00  0.00     0.121 C 
HETATM    3  C2  UNL     1      26.317  -7.811  10.401  1.00  0.00     0.158 A 
HETATM    4  N2  UNL     1      26.729  -8.958   9.847  1.00  0.00    -0.286 N 
ATOM      5  H2  UNL     1      26.176  -9.507   9.188  1.00  0.00     0.188 HD
HETATM    6  N3  UNL     1      27.947  -9.296  10.261  1.00  0.00    -0.281 N 
HETATM    7  C6  UNL     1      28.327  -8.324  11.111  1.00  0.00     0.150 A 
HETATM    8  C7  UNL     1      29.471  -8.127  11.842  1.00  0.00     0.290 A 
HETATM    9  O3  UNL     1      30.397  -8.978  11.758  1.00  0.00    -0.265 OA
HETATM   10  N4  UNL     1      29.579  -7.032  12.633  1.00  0.00    -0.153 N 
ATOM     11  H4  UNL     1      30.438  -6.906  13.169  1.00  0.00     0.187 HD
HETATM   12  C8  UNL     1      28.614  -6.104  12.749  1.00  0.00     0.700 A 
HETATM   13  N14 UNL     1      27.491  -6.293  12.033  1.00  0.00    -0.185 N 
ATOM     14  H14 UNL     1      26.738  -5.608  12.097  1.00  0.00     0.184 HD
HETATM   15  C16 UNL     1      27.337  -7.366  11.234  1.00  0.00     0.122 A 
ENDROOT
BRANCH   6  16
HETATM   16  C3  UNL     1      28.685 -10.493   9.848  1.00  0.00     0.183 C 
BRANCH  16  17
HETATM   17  C4  UNL     1      27.818 -11.449   9.094  1.00  0.00     0.161 C 
BRANCH  17  18
HETATM   18  O1  UNL     1      26.834 -11.984   9.936  1.00  0.00    -0.392 OA
ATOM     19  H1  UNL     1      26.087 -12.277   9.429  1.00  0.00     0.210 HD
ENDBRANCH  17  18
BRANCH  17  20
HETATM   20  C5  UNL     1      28.697 -12.582   8.607  1.00  0.00     0.197 C 
BRANCH  20  21
HETATM   21  O2  UNL     1      28.003 -13.478   7.821  1.00  0.00    -0.398 OA
ATOM     22  H2  UNL     1      27.317 -13.922   8.305  1.00  0.00     0.209 HD
ENDBRANCH  20  21
ENDBRANCH  17  20
ENDBRANCH  16  17
ENDBRANCH   6  16
BRANCH  12  23
HETATM   23  N5  UNL     1      28.752  -5.062  13.519  1.00  0.00    -0.132 N 
ATOM     24  H5  UNL     1      28.598  -5.189  14.520  1.00  0.00     0.205 HD
BRANCH  23  25
HETATM   25  N6  UNL     1      29.078  -3.852  13.098  1.00  0.00    -0.297 N 
HETATM   26  C9  UNL     1      28.528  -2.959  12.443  1.00  0.00     0.124 C 
ATOM     27  H6  UNL     1      30.021  -3.588  13.386  1.00  0.00     0.186 HD
BRANCH  26  28
HETATM   28  C10 UNL     1      27.199  -2.926  11.850  1.00  0.00     0.039 A 
HETATM   29  C11 UNL     1      26.103  -2.465  12.526  1.00  0.00     0.021 A 
HETATM   30  C12 UNL     1      24.869  -2.456  11.919  1.00  0.00     0.051 A 
HETATM   31  C13 UNL     1      24.780  -2.919  10.629  1.00  0.00     0.123 A 
HETATM   32  N10 UNL     1      25.840  -3.365   9.977  1.00  0.00    -0.316 N 
HETATM   33  C14 UNL     1      27.116  -3.410  10.510  1.00  0.00     0.190 A 
ATOM     34  H10 UNL     1      25.709  -3.697   9.021  1.00  0.00     0.170 HD
BRANCH  31  35
HETATM   35  N7  UNL     1      23.463  -2.884  10.051  1.00  0.00    -0.271 N 
ATOM     36  H7  UNL     1      23.105  -2.038   9.607  1.00  0.00     0.190 HD
BRANCH  35  37
HETATM   37  N8  UNL     1      22.773  -3.922  10.110  1.00  0.00    -0.248 N 
HETATM   38  N9  UNL     1      21.844  -4.664   9.793  1.00  0.00    -0.331 N 
ATOM     39  H92 UNL     1      21.398  -4.090   9.077  1.00  0.00     0.178 HD
ATOM     40  H91 UNL     1      21.280  -5.513   9.841  1.00  0.00     0.178 HD
ATOM     41  H8  UNL     1      23.250  -4.463  10.831  1.00  0.00     0.207 HD
ENDBRANCH  35  37
ENDBRANCH  31  35
BRANCH  33  42
HETATM   42  N11 UNL     1      28.051  -3.819   9.893  1.00  0.00    -0.371 NA
HETATM   43  C15 UNL     1      29.146  -4.126   9.233  1.00  0.00     0.556 C 
HETATM   44  N12 UNL     1      29.130  -3.607   7.840  1.00  0.00    -0.021 N 
HETATM   45  N13 UNL     1      29.467  -5.568   9.100  1.00  0.00    -0.021 N 
ATOM     46 3H12 UNL     1      28.298  -3.921   7.340  1.00  0.00     0.280 HD
ATOM     47 2H12 UNL     1      28.960  -2.602   7.824  1.00  0.00     0.280 HD
ATOM     48 1H12 UNL     1      29.979  -3.845   7.329  1.00  0.00     0.280 HD
ATOM     49 3H13 UNL     1      29.493  -5.998  10.024  1.00  0.00     0.280 HD
ATOM     50 2H13 UNL     1      28.672  -6.057   8.688  1.00  0.00     0.280 HD
ATOM     51 1H13 UNL     1      30.316  -5.806   8.589  1.00  0.00     0.280 HD
ENDBRANCH  33  42
ENDBRANCH  26  28
ENDBRANCH  23  25
ENDBRANCH  12  23
TORSDOF 11
ENDMDL
MODEL 3
REMARK VINA RESULT: -6.822100114      4.854      7.941
REMARK  11 active torsions:
REMARK  status: ('A' for Active; 'I' for Inactive)
REMARK    1  A    between atoms: N3_6  and  C3_7 
REMARK    2  A    between atoms: C3_7  and  C4_8 
REMARK    3  A    between atoms: C4_8  and  O1_9 
REMARK    4  A    between atoms: C4_8  and  C5_11 
REMARK    5  A    between atoms: C5_11  and  O2_12 
REMARK    6  A    between atoms: C8_19  and  N5_20 
REMARK    7  A    between atoms: N5_20  and  N6_22 
REMARK    8  A    between atoms: C9_24  and  C10_25 
REMARK    9  A    between atoms: C13_28  and  N7_29 
REMARK   10  A    between atoms: N7_29  and  N8_31 
REMARK   11  A    between atoms: C14_38  and  N11_39 
REMARK       I    between atoms: N11_39  and  C15_40 
REMARK       I    between atoms: C15_40  and  N12_41 
REMARK       I    between atoms: C15_40  and  N13_45 
ROOT
HETATM    1  N1  UNL     1      21.220  -5.284   9.475  1.00  0.00    -0.190 NA
HETATM    2  C1  UNL     1      22.317  -5.336   9.895  1.00  0.00     0.121 C 
HETATM    3  C2  UNL     1      23.664  -5.404  10.389  1.00  0.00     0.158 A 
HETATM    4  N2  UNL     1      24.468  -6.471  10.469  1.00  0.00    -0.286 N 
ATOM      5  H2  UNL     1      24.204  -7.411  10.172  1.00  0.00     0.188 HD
HETATM    6  N3  UNL     1      25.654  -6.157  10.984  1.00  0.00    -0.281 N 
HETATM    7  C6  UNL     1      25.603  -4.837  11.240  1.00  0.00     0.150 A 
HETATM    8  C7  UNL     1      26.516  -3.959  11.768  1.00  0.00     0.290 A 
HETATM    9  O3  UNL     1      27.650  -4.396  12.105  1.00  0.00    -0.265 OA
HETATM   10  N4  UNL     1      26.182  -2.655  11.916  1.00  0.00    -0.153 N 
ATOM     11  H4  UNL     1      26.876  -2.020  12.311  1.00  0.00     0.187 HD
HETATM   12  C8  UNL     1      24.985  -2.153  11.568  1.00  0.00     0.700 A 
HETATM   13  N14 UNL     1      24.087  -3.010  11.050  1.00  0.00    -0.185 N 
ATOM     14  H14 UNL     1      23.168  -2.663  10.775  1.00  0.00     0.184 HD
HETATM   15  C16 UNL     1      24.373  -4.315  10.885  1.00  0.00     0.122 A 
ENDROOT
BRANCH   6  16
HETATM   16  C3  UNL     1      26.760  -7.093  11.207  1.00  0.00     0.183 C 
BRANCH  16  17
HETATM   17  C4  UNL     1      27.355  -7.568   9.921  1.00  0.00     0.161 C 
BRANCH  17  18
HETATM   18  O1  UNL     1      27.498  -8.962   9.934  1.00  0.00    -0.392 OA
ATOM     19  H1  UNL     1      28.409  -9.202   9.815  1.00  0.00     0.210 HD
ENDBRANCH  17  18
BRANCH  17  20
HETATM   20  C5  UNL     1      28.732  -6.948   9.795  1.00  0.00     0.197 C 
BRANCH  20  21
HETATM   21  O2  UNL     1      28.672  -5.604   9.493  1.00  0.00    -0.398 OA
ATOM     22  H2  UNL     1      29.184  -5.078  10.096  1.00  0.00     0.209 HD
ENDBRANCH  20  21
ENDBRANCH  17  20
ENDBRANCH  16  17
ENDBRANCH   6  16
BRANCH  12  23
HETATM   23  N5  UNL     1      24.698  -0.891  11.723  1.00  0.00    -0.132 N 
ATOM     24  H5  UNL     1      24.422  -0.363  10.895  1.00  0.00     0.205 HD
BRANCH  23  25
HETATM   25  N6  UNL     1      24.737  -0.246  12.876  1.00  0.00    -0.297 N 
HETATM   26  C9  UNL     1      25.326   0.745  13.322  1.00  0.00     0.124 C 
ATOM     27  H6  UNL     1      24.127  -0.672  13.574  1.00  0.00     0.186 HD
BRANCH  26  28
HETATM   28  C10 UNL     1      26.276   1.635  12.667  1.00  0.00     0.039 A 
HETATM   29  C11 UNL     1      27.608   1.342  12.566  1.00  0.00     0.021 A 
HETATM   30  C12 UNL     1      28.463   2.217  11.937  1.00  0.00     0.051 A 
HETATM   31  C13 UNL     1      27.937   3.378  11.423  1.00  0.00     0.123 A 
HETATM   32  N10 UNL     1      26.649   3.660  11.523  1.00  0.00    -0.316 N 
HETATM   33  C14 UNL     1      25.720   2.838  12.137  1.00  0.00     0.190 A 
ATOM     34  H10 UNL     1      26.319   4.538  11.122  1.00  0.00     0.170 HD
BRANCH  31  35
HETATM   35  N7  UNL     1      28.882   4.251  10.780  1.00  0.00    -0.271 N 
ATOM     36  H7  UNL     1      29.304   5.032  11.282  1.00  0.00     0.190 HD
BRANCH  35  37
HETATM   37  N8  UNL     1      29.169   4.021   9.586  1.00  0.00    -0.248 N 
HETATM   38  N9  UNL     1      29.891   3.638   8.667  1.00  0.00    -0.331 N 
ATOM     39  H92 UNL     1      30.713   3.351   9.197  1.00  0.00     0.178 HD
ATOM     40  H91 UNL     1      30.125   3.450   7.692  1.00  0.00     0.178 HD
ATOM     41  H8  UNL     1      28.327   4.320   9.096  1.00  0.00     0.207 HD
ENDBRANCH  35  37
ENDBRANCH  31  35
BRANCH  33  42
HETATM   42  N11 UNL     1      24.565   3.124  12.209  1.00  0.00    -0.371 NA
HETATM   43  C15 UNL     1      23.271   3.300  12.364  1.00  0.00     0.556 C 
HETATM   44  N12 UNL     1      22.475   2.546  11.361  1.00  0.00    -0.021 N 
HETATM   45  N13 UNL     1      22.770   4.693  12.281  1.00  0.00    -0.021 N 
ATOM     46 3H12 UNL     1      22.767   2.776  10.410  1.00  0.00     0.280 HD
ATOM     47 2H12 UNL     1      22.715   1.555  11.369  1.00  0.00     0.280 HD
ATOM     48 1H12 UNL     1      21.472   2.683  11.481  1.00  0.00     0.280 HD
ATOM     49 3H13 UNL     1      23.276   5.278  12.946  1.00  0.00     0.280 HD
ATOM     50 2H13 UNL     1      23.068   5.111  11.399  1.00  0.00     0.280 HD
ATOM     51 1H13 UNL     1      21.766   4.830  12.402  1.00  0.00     0.280 HD
ENDBRANCH  33  42
ENDBRANCH  26  28
ENDBRANCH  23  25
ENDBRANCH  12  23
TORSDOF 11
ENDMDL
MODEL 4
REMARK VINA RESULT: -6.795358644      2.239      4.033
REMARK  11 active torsions:
REMARK  status: ('A' for Active; 'I' for Inactive)
REMARK    1  A    between atoms: N3_6  and  C3_7 
REMARK    2  A    between atoms: C3_7  and  C4_8 
REMARK    3  A    between atoms: C4_8  and  O1_9 
REMARK    4  A    between atoms: C4_8  and  C5_11 
REMARK    5  A    between atoms: C5_11  and  O2_12 
REMARK    6  A    between atoms: C8_19  and  N5_20 
REMARK    7  A    between atoms: N5_20  and  N6_22 
REMARK    8  A    between atoms: C9_24  and  C10_25 
REMARK    9  A    between atoms: C13_28  and  N7_29 
REMARK   10  A    between atoms: N7_29  and  N8_31 
REMARK   11  A    between atoms: C14_38  and  N11_39 
REMARK       I    between atoms: N11_39  and  C15_40 
REMARK       I    between atoms: C15_40  and  N12_41 
REMARK       I    between atoms: C15_40  and  N13_45 
ROOT
HETATM    1  N1  UNL     1      23.999  -6.443   9.951  1.00  0.00    -0.190 NA
HETATM    2  C1  UNL     1      24.995  -7.020  10.191  1.00  0.00     0.121 C 
HETATM    3  C2  UNL     1      26.220  -7.718  10.465  1.00  0.00     0.158 A 
HETATM    4  N2  UNL     1      26.722  -8.792   9.842  1.00  0.00    -0.286 N 
ATOM      5  H2  UNL     1      26.270  -9.263   9.058  1.00  0.00     0.188 HD
HETATM    6  N3  UNL     1      27.884  -9.169  10.370  1.00  0.00    -0.281 N 
HETATM    7  C6  UNL     1      28.132  -8.300  11.367  1.00  0.00     0.150 A 
HETATM    8  C7  UNL     1      29.168  -8.183  12.259  1.00  0.00     0.290 A 
HETATM    9  O3  UNL     1      30.114  -9.014  12.199  1.00  0.00    -0.265 OA
HETATM   10  N4  UNL     1      29.151  -7.186  13.177  1.00  0.00    -0.153 N 
ATOM     11  H4  UNL     1      29.931  -7.119  13.831  1.00  0.00     0.187 HD
HETATM   12  C8  UNL     1      28.160  -6.283  13.271  1.00  0.00     0.700 A 
HETATM   13  N14 UNL     1      27.143  -6.394  12.398  1.00  0.00    -0.185 N 
ATOM     14  H14 UNL     1      26.375  -5.725  12.441  1.00  0.00     0.184 HD
HETATM   15  C16 UNL     1      27.115  -7.367  11.469  1.00  0.00     0.122 A 
ENDROOT
BRANCH   6  16
HETATM   16  C3  UNL     1      28.693 -10.306   9.922  1.00  0.00     0.183 C 
BRANCH  16  17
HETATM   17  C4  UNL     1      27.887 -11.285   9.132  1.00  0.00     0.161 C 
BRANCH  17  18
HETATM   18  O1  UNL     1      26.877 -11.841   9.928  1.00  0.00    -0.392 OA
ATOM     19  H1  UNL     1      27.213 -12.053  10.791  1.00  0.00     0.210 HD
ENDBRANCH  17  18
BRANCH  17  20
HETATM   20  C5  UNL     1      28.816 -12.399   8.694  1.00  0.00     0.197 C 
BRANCH  20  21
HETATM   21  O2  UNL     1      28.149 -13.397   8.015  1.00  0.00    -0.398 OA
ATOM     22  H2  UNL     1      27.227 -13.198   7.901  1.00  0.00     0.209 HD
ENDBRANCH  20  21
ENDBRANCH  17  20
ENDBRANCH  16  17
ENDBRANCH   6  16
BRANCH  12  23
HETATM   23  N5  UNL     1      28.177  -5.336  14.167  1.00  0.00    -0.132 N 
ATOM     24  H5  UNL     1      27.916  -5.583  15.121  1.00  0.00     0.205 HD
BRANCH  23  25
HETATM   25  N6  UNL     1      28.509  -4.079  13.928  1.00  0.00    -0.297 N 
HETATM   26  C9  UNL     1      28.065  -3.158  13.233  1.00  0.00     0.124 C 
ATOM     27  H6  UNL     1      29.340  -3.798  14.447  1.00  0.00     0.186 HD
BRANCH  26  28
HETATM   28  C10 UNL     1      26.907  -3.135  12.349  1.00  0.00     0.039 A 
HETATM   29  C11 UNL     1      27.023  -3.117  10.987  1.00  0.00     0.021 A 
HETATM   30  C12 UNL     1      25.897  -3.096  10.197  1.00  0.00     0.051 A 
HETATM   31  C13 UNL     1      24.672  -3.092  10.818  1.00  0.00     0.123 A 
HETATM   32  N10 UNL     1      24.562  -3.108  12.135  1.00  0.00    -0.316 N 
HETATM   33  C14 UNL     1      25.639  -3.131  13.004  1.00  0.00     0.190 A 
ATOM     34  H10 UNL     1      23.624  -3.103  12.537  1.00  0.00     0.170 HD
BRANCH  31  35
HETATM   35  N7  UNL     1      23.534  -3.068   9.938  1.00  0.00    -0.271 N 
ATOM     36  H7  UNL     1      23.474  -2.394   9.174  1.00  0.00     0.190 HD
BRANCH  35  37
HETATM   37  N8  UNL     1      22.624  -3.898  10.139  1.00  0.00    -0.248 N 
HETATM   38  N9  UNL     1      21.663  -4.597   9.822  1.00  0.00    -0.331 N 
ATOM     39  H92 UNL     1      21.574  -4.341   8.839  1.00  0.00     0.178 HD
ATOM     40  H91 UNL     1      20.919  -5.276   9.986  1.00  0.00     0.178 HD
ATOM     41  H8  UNL     1      22.748  -4.127  11.125  1.00  0.00     0.207 HD
ENDBRANCH  35  37
ENDBRANCH  31  35
BRANCH  33  42
HETATM   42  N11 UNL     1      25.503  -3.145  14.189  1.00  0.00    -0.371 NA
HETATM   43  C15 UNL     1      25.197  -3.161  15.467  1.00  0.00     0.556 C 
HETATM   44  N12 UNL     1      24.818  -1.816  15.973  1.00  0.00    -0.021 N 
HETATM   45  N13 UNL     1      26.244  -3.640  16.401  1.00  0.00    -0.021 N 
ATOM     46 3H12 UNL     1      25.547  -1.130  15.778  1.00  0.00     0.280 HD
ATOM     47 2H12 UNL     1      24.063  -1.413  15.419  1.00  0.00     0.280 HD
ATOM     48 1H12 UNL     1      24.580  -1.829  16.964  1.00  0.00     0.280 HD
ATOM     49 3H13 UNL     1      26.560  -4.566  16.114  1.00  0.00     0.280 HD
ATOM     50 2H13 UNL     1      27.098  -3.099  16.262  1.00  0.00     0.280 HD
ATOM     51 1H13 UNL     1      26.006  -3.652  17.393  1.00  0.00     0.280 HD
ENDBRANCH  33  42
ENDBRANCH  26  28
ENDBRANCH  23  25
ENDBRANCH  12  23
TORSDOF 11
ENDMDL
MODEL 5
REMARK VINA RESULT: -6.711540618      4.632      6.776
REMARK  11 active torsions:
REMARK  status: ('A' for Active; 'I' for Inactive)
REMARK    1  A    between atoms: N3_6  and  C3_7 
REMARK    2  A    between atoms: C3_7  and  C4_8 
REMARK    3  A    between atoms: C4_8  and  O1_9 
REMARK    4  A    between atoms: C4_8  and  C5_11 
REMARK    5  A    between atoms: C5_11  and  O2_12 
REMARK    6  A    between atoms: C8_19  and  N5_20 
REMARK    7  A    between atoms: N5_20  and  N6_22 
REMARK    8  A    between atoms: C9_24  and  C10_25 
REMARK    9  A    between atoms: C13_28  and  N7_29 
REMARK   10  A    between atoms: N7_29  and  N8_31 
REMARK   11  A    between atoms: C14_38  and  N11_39 
REMARK       I    between atoms: N11_39  and  C15_40 
REMARK       I    between atoms: C15_40  and  N12_41 
REMARK       I    between atoms: C15_40  and  N13_45 
ROOT
HETATM    1  N1  UNL     1      27.816  -7.066  11.218  1.00  0.00    -0.190 NA
HETATM    2  C1  UNL     1      26.699  -6.892  10.898  1.00  0.00     0.121 C 
HETATM    3  C2  UNL     1      25.327  -6.691  10.524  1.00  0.00     0.158 A 
HETATM    4  N2  UNL     1      24.455  -7.588  10.045  1.00  0.00    -0.286 N 
ATOM      5  H2  UNL     1      24.676  -8.571   9.883  1.00  0.00     0.188 HD
HETATM    6  N3  UNL     1      23.266  -7.041   9.807  1.00  0.00    -0.281 N 
HETATM    7  C6  UNL     1      23.385  -5.745  10.149  1.00  0.00     0.150 A 
HETATM    8  C7  UNL     1      22.501  -4.695  10.125  1.00  0.00     0.290 A 
HETATM    9  O3  UNL     1      21.327  -4.902   9.715  1.00  0.00    -0.265 OA
HETATM   10  N4  UNL     1      22.907  -3.470  10.538  1.00  0.00    -0.153 N 
ATOM     11  H4  UNL     1      22.234  -2.704  10.511  1.00  0.00     0.187 HD
HETATM   12  C8  UNL     1      24.149  -3.212  10.981  1.00  0.00     0.700 A 
HETATM   13  N14 UNL     1      25.018  -4.238  11.006  1.00  0.00    -0.185 N 
ATOM     14  H14 UNL     1      25.969  -4.077  11.337  1.00  0.00     0.184 HD
HETATM   15  C16 UNL     1      24.662  -5.473  10.606  1.00  0.00     0.122 A 
ENDROOT
BRANCH   6  16
HETATM   16  C3  UNL     1      22.095  -7.747   9.280  1.00  0.00     0.183 C 
BRANCH  16  17
HETATM   17  C4  UNL     1      22.324  -8.242   7.888  1.00  0.00     0.161 C 
BRANCH  17  18
HETATM   18  O1  UNL     1      23.032  -7.290   7.142  1.00  0.00    -0.392 OA
ATOM     19  H1  UNL     1      22.453  -6.855   6.527  1.00  0.00     0.210 HD
ENDBRANCH  17  18
BRANCH  17  20
HETATM   20  C5  UNL     1      20.968  -8.443   7.243  1.00  0.00     0.197 C 
BRANCH  20  21
HETATM   21  O2  UNL     1      20.200  -7.298   7.277  1.00  0.00    -0.398 OA
ATOM     22  H2  UNL     1      19.321  -7.466   7.594  1.00  0.00     0.209 HD
ENDBRANCH  20  21
ENDBRANCH  17  20
ENDBRANCH  16  17
ENDBRANCH   6  16
BRANCH  12  23
HETATM   23  N5  UNL     1      24.505  -2.020  11.371  1.00  0.00    -0.132 N 
ATOM     24  H5  UNL     1      24.613  -1.300  10.656  1.00  0.00     0.205 HD
BRANCH  23  25
HETATM   25  N6  UNL     1      24.737  -1.676  12.627  1.00  0.00    -0.297 N 
HETATM   26  C9  UNL     1      25.298  -0.738  13.203  1.00  0.00     0.124 C 
ATOM     27  H6  UNL     1      24.357  -2.356  13.285  1.00  0.00     0.186 HD
BRANCH  26  28
HETATM   28  C10 UNL     1      25.965   0.431  12.646  1.00  0.00     0.039 A 
HETATM   29  C11 UNL     1      25.436   1.689  12.731  1.00  0.00     0.021 A 
HETATM   30  C12 UNL     1      26.107   2.760  12.188  1.00  0.00     0.051 A 
HETATM   31  C13 UNL     1      27.308   2.522  11.566  1.00  0.00     0.123 A 
HETATM   32  N10 UNL     1      27.817   1.304  11.483  1.00  0.00    -0.316 N 
HETATM   33  C14 UNL     1      27.212   0.173  12.001  1.00  0.00     0.190 A 
ATOM     34  H10 UNL     1      28.713   1.192  11.008  1.00  0.00     0.170 HD
BRANCH  31  35
HETATM   35  N7  UNL     1      27.959   3.681  11.017  1.00  0.00    -0.271 N 
ATOM     36  H7  UNL     1      27.923   4.582  11.496  1.00  0.00     0.190 HD
BRANCH  35  37
HETATM   37  N8  UNL     1      28.569   3.551   9.936  1.00  0.00    -0.248 N 
HETATM   38  N9  UNL     1      29.403   3.850   9.083  1.00  0.00    -0.331 N 
ATOM     39  H92 UNL     1      29.823   4.667   9.526  1.00  0.00     0.178 HD
ATOM     40  H91 UNL     1      29.902   3.743   8.199  1.00  0.00     0.178 HD
ATOM     41  H8  UNL     1      28.122   2.730   9.529  1.00  0.00     0.207 HD
ENDBRANCH  35  37
ENDBRANCH  31  35
BRANCH  33  42
HETATM   42  N11 UNL     1      27.700  -0.911  11.909  1.00  0.00    -0.371 NA
HETATM   43  C15 UNL     1      28.368  -2.032  11.752  1.00  0.00     0.556 C 
HETATM   44  N12 UNL     1      28.370  -2.494  10.339  1.00  0.00    -0.021 N 
HETATM   45  N13 UNL     1      27.907  -3.203  12.536  1.00  0.00    -0.021 N 
ATOM     46 3H12 UNL     1      27.419  -2.578   9.977  1.00  0.00     0.280 HD
ATOM     47 2H12 UNL     1      28.719  -1.767   9.714  1.00  0.00     0.280 HD
ATOM     48 1H12 UNL     1      28.888  -3.364  10.217  1.00  0.00     0.280 HD
ATOM     49 3H13 UNL     1      27.876  -2.960  13.526  1.00  0.00     0.280 HD
ATOM     50 2H13 UNL     1      26.916  -3.367  12.352  1.00  0.00     0.280 HD
ATOM     51 1H13 UNL     1      28.425  -4.073  12.414  1.00  0.00     0.280 HD
ENDBRANCH  33  42
ENDBRANCH  26  28
ENDBRANCH  23  25
ENDBRANCH  12  23
TORSDOF 11
ENDMDL
