MODEL 1
REMARK VINA RESULT: -7.718180826      0.000      0.000
REMARK  18 active torsions:
REMARK  status: ('A' for Active; 'I' for Inactive)
REMARK    1  A    between atoms: C2_2  and  C3_3 
REMARK    2  A    between atoms: C3_3  and  C4_4 
REMARK    3  A    between atoms: C6_6  and  C7_7 
REMARK    4  A    between atoms: C12_17  and  C13_18 
REMARK       I    between atoms: C13_18  and  N2_20 
REMARK    5  A    between atoms: N2_20  and  C14_22 
REMARK    6  A    between atoms: C14_22  and  C15_23 
REMARK    7  A    between atoms: C15_23  and  C16_24 
REMARK    8  A    between atoms: C16_24  and  C17_25 
REMARK    9  A    between atoms: C17_25  and  C18_26 
REMARK   10  A    between atoms: C18_26  and  C19_27 
REMARK   11  A    between atoms: C19_27  and  C20_28 
REMARK   12  A    between atoms: C20_28  and  C21_29 
REMARK   13  A    between atoms: C21_29  and  C22_30 
REMARK   14  A    between atoms: C22_30  and  C23_31 
REMARK   15  A    between atoms: C23_31  and  N3_32 
REMARK   16  A    between atoms: C25_38  and  C26_39 
REMARK   17  A    between atoms: C26_39  and  O5_40 
REMARK   18  A    between atoms: O5_40  and  C27_41 
ROOT
HETATM    1  C4  UNL     1      17.603  23.115  10.596  1.00  0.00     0.124 C 
HETATM    2  C5  UNL     1      16.926  22.964   9.217  1.00  0.00     0.053 C 
HETATM    3  C6  UNL     1      17.728  24.010   8.473  1.00  0.00     0.089 C 
HETATM    4  C8  UNL     1      18.870  23.268   7.817  1.00  0.00     0.185 C 
HETATM    5  C9  UNL     1      18.570  22.337   6.736  1.00  0.00     0.240 C 
HETATM    6  O1  UNL     1      17.978  21.261   6.533  1.00  0.00    -0.285 OA
HETATM    7  C10 UNL     1      19.302  23.224   5.855  1.00  0.00     0.292 C 
HETATM    8  O2  UNL     1      19.517  23.284   4.640  1.00  0.00    -0.264 OA
HETATM    9  N1  UNL     1      19.705  24.048   6.968  1.00  0.00    -0.331 N 
HETATM   10  C11 UNL     1      20.543  25.154   7.251  1.00  0.00     0.149 C 
HETATM   11  C12 UNL     1      20.735  25.395   8.685  1.00  0.00     0.168 C 
HETATM   12  C24 UNL     1      19.698  24.938   9.592  1.00  0.00     0.179 C 
HETATM   13  O4  UNL     1      20.102  24.462  10.605  1.00  0.00    -0.293 OA
HETATM   14  C25 UNL     1      18.175  24.941   9.519  1.00  0.00     0.159 C 
HETATM   15  O7  UNL     1      17.751  24.475  10.721  1.00  0.00    -0.364 OA
ENDROOT
BRANCH  11  16
HETATM   16  C13 UNL     1      22.077  24.920   9.113  1.00  0.00     0.230 C 
HETATM   17  O3  UNL     1      22.628  23.898   8.572  1.00  0.00    -0.273 OA
HETATM   18  N2  UNL     1      22.818  25.564  10.134  1.00  0.00    -0.360 N 
ATOM     19  H2  UNL     1      22.410  26.380  10.590  1.00  0.00     0.162 HD
BRANCH  18  20
HETATM   20  C14 UNL     1      24.121  25.120  10.559  1.00  0.00     0.122 C 
BRANCH  20  21
HETATM   21  C15 UNL     1      24.745  26.096  11.516  1.00  0.00     0.020 C 
BRANCH  21  22
HETATM   22  C16 UNL     1      24.403  27.528  11.158  1.00  0.00     0.002 C 
BRANCH  22  23
HETATM   23  C17 UNL     1      23.565  28.137  12.267  1.00  0.00     0.000 C 
BRANCH  23  24
HETATM   24  C18 UNL     1      22.319  28.770  11.773  1.00  0.00     0.000 C 
BRANCH  24  25
HETATM   25  C19 UNL     1      21.950  30.114  12.237  1.00  0.00     0.000 C 
BRANCH  25  26
HETATM   26  C20 UNL     1      22.394  30.662  13.518  1.00  0.00     0.000 C 
BRANCH  26  27
HETATM   27  C21 UNL     1      22.411  32.121  13.763  1.00  0.00     0.002 C 
BRANCH  27  28
HETATM   28  C22 UNL     1      22.761  32.337  15.265  1.00  0.00     0.027 C 
BRANCH  28  29
HETATM   29  C23 UNL     1      21.554  32.003  16.102  1.00  0.00     0.229 C 
BRANCH  29  30
HETATM   30  N3  UNL     1      21.911  31.673  17.458  1.00  0.00    -0.079 N 
ATOM     31  H33 UNL     1      22.918  31.747  17.604  1.00  0.00     0.274 HD
ATOM     32  H32 UNL     1      21.600  32.394  18.108  1.00  0.00     0.274 HD
ATOM     33  H31 UNL     1      21.565  30.753  17.732  1.00  0.00     0.274 HD
ENDBRANCH  29  30
ENDBRANCH  28  29
ENDBRANCH  27  28
ENDBRANCH  26  27
ENDBRANCH  25  26
ENDBRANCH  24  25
ENDBRANCH  23  24
ENDBRANCH  22  23
ENDBRANCH  21  22
ENDBRANCH  20  21
ENDBRANCH  18  20
ENDBRANCH  11  16
BRANCH  14  34
HETATM   34  C26 UNL     1      17.782  26.382   9.392  1.00  0.00     0.215 C 
BRANCH  34  35
HETATM   35  O5  UNL     1      17.261  27.041  10.437  1.00  0.00    -0.380 OA
BRANCH  35  36
HETATM   36  C27 UNL     1      18.029  27.885  11.179  1.00  0.00     0.148 C 
HETATM   37  C28 UNL     1      17.199  29.124  11.612  1.00  0.00     0.136 C 
HETATM   38  C29 UNL     1      17.922  29.519  12.854  1.00  0.00     0.222 C 
HETATM   39  O6  UNL     1      17.901  30.658  13.385  1.00  0.00    -0.273 OA
HETATM   40  N4  UNL     1      18.647  28.418  13.365  1.00  0.00    -0.354 N 
HETATM   41  C30 UNL     1      19.579  28.343  14.469  1.00  0.00     0.152 C 
HETATM   42  C31 UNL     1      18.283  27.286  12.542  1.00  0.00     0.157 C 
ENDBRANCH  35  36
ENDBRANCH  34  35
ENDBRANCH  14  34
BRANCH   3  43
HETATM   43  C7  UNL     1      16.797  24.630   7.499  1.00  0.00     0.367 C 
HETATM   44  F1  UNL     1      16.020  23.604   6.905  1.00  0.00    -0.213 F 
HETATM   45  F2  UNL     1      17.379  25.280   6.434  1.00  0.00    -0.213 F 
ENDBRANCH   3  43
BRANCH   1  46
HETATM   46  C3  UNL     1      16.771  22.504  11.664  1.00  0.00     0.032 C 
BRANCH  46  47
HETATM   47  C2  UNL     1      15.727  21.604  11.077  1.00  0.00    -0.002 C 
HETATM   48  C1  UNL     1      14.604  21.238  12.001  1.00  0.00     0.005 C 
ENDBRANCH  46  47
ENDBRANCH   1  46
TORSDOF 18
ENDMDL
MODEL 2
REMARK VINA RESULT: -7.524364324      7.791     14.709
REMARK  18 active torsions:
REMARK  status: ('A' for Active; 'I' for Inactive)
REMARK    1  A    between atoms: C2_2  and  C3_3 
REMARK    2  A    between atoms: C3_3  and  C4_4 
REMARK    3  A    between atoms: C6_6  and  C7_7 
REMARK    4  A    between atoms: C12_17  and  C13_18 
REMARK       I    between atoms: C13_18  and  N2_20 
REMARK    5  A    between atoms: N2_20  and  C14_22 
REMARK    6  A    between atoms: C14_22  and  C15_23 
REMARK    7  A    between atoms: C15_23  and  C16_24 
REMARK    8  A    between atoms: C16_24  and  C17_25 
REMARK    9  A    between atoms: C17_25  and  C18_26 
REMARK   10  A    between atoms: C18_26  and  C19_27 
REMARK   11  A    between atoms: C19_27  and  C20_28 
REMARK   12  A    between atoms: C20_28  and  C21_29 
REMARK   13  A    between atoms: C21_29  and  C22_30 
REMARK   14  A    between atoms: C22_30  and  C23_31 
REMARK   15  A    between atoms: C23_31  and  N3_32 
REMARK   16  A    between atoms: C25_38  and  C26_39 
REMARK   17  A    between atoms: C26_39  and  O5_40 
REMARK   18  A    between atoms: O5_40  and  C27_41 
ROOT
HETATM    1  C4  UNL     1      22.016  36.345  19.757  1.00  0.00     0.124 C 
HETATM    2  C5  UNL     1      22.756  37.647  19.384  1.00  0.00     0.053 C 
HETATM    3  C6  UNL     1      21.896  38.049  18.205  1.00  0.00     0.089 C 
HETATM    4  C8  UNL     1      20.848  38.988  18.757  1.00  0.00     0.185 C 
HETATM    5  C9  UNL     1      21.269  40.296  19.243  1.00  0.00     0.240 C 
HETATM    6  O1  UNL     1      21.958  40.809  20.143  1.00  0.00    -0.285 OA
HETATM    7  C10 UNL     1      20.498  40.875  18.162  1.00  0.00     0.292 C 
HETATM    8  O2  UNL     1      20.325  42.011  17.708  1.00  0.00    -0.264 OA
HETATM    9  N1  UNL     1      19.982  39.579  17.793  1.00  0.00    -0.331 N 
HETATM   10  C11 UNL     1      19.042  38.997  16.909  1.00  0.00     0.149 C 
HETATM   11  C12 UNL     1      18.775  37.581  17.182  1.00  0.00     0.168 C 
HETATM   12  C24 UNL     1      19.812  36.814  17.848  1.00  0.00     0.179 C 
HETATM   13  O4  UNL     1      19.412  36.048  18.666  1.00  0.00    -0.293 OA
HETATM   14  C25 UNL     1      21.331  36.783  17.716  1.00  0.00     0.159 C 
HETATM   15  O7  UNL     1      21.746  35.781  18.533  1.00  0.00    -0.364 OA
ENDROOT
BRANCH  11  16
HETATM   16  C13 UNL     1      17.463  37.426  17.864  1.00  0.00     0.230 C 
HETATM   17  O3  UNL     1      17.074  38.254  18.760  1.00  0.00    -0.273 OA
HETATM   18  N2  UNL     1      16.576  36.363  17.566  1.00  0.00    -0.360 N 
ATOM     19  H2  UNL     1      16.854  35.682  16.860  1.00  0.00     0.162 HD
BRANCH  18  20
HETATM   20  C14 UNL     1      15.300  36.199  18.214  1.00  0.00     0.122 C 
BRANCH  20  21
HETATM   21  C15 UNL     1      14.582  34.981  17.705  1.00  0.00     0.020 C 
BRANCH  21  22
HETATM   22  C16 UNL     1      15.510  33.789  17.594  1.00  0.00     0.002 C 
BRANCH  22  23
HETATM   23  C17 UNL     1      15.493  33.270  16.168  1.00  0.00     0.000 C 
BRANCH  23  24
HETATM   24  C18 UNL     1      16.467  32.177  15.935  1.00  0.00     0.000 C 
BRANCH  24  25
HETATM   25  C19 UNL     1      17.282  32.175  14.712  1.00  0.00     0.000 C 
BRANCH  25  26
HETATM   26  C20 UNL     1      17.670  30.947  14.019  1.00  0.00     0.000 C 
BRANCH  26  27
HETATM   27  C21 UNL     1      18.839  30.916  13.113  1.00  0.00     0.002 C 
BRANCH  27  28
HETATM   28  C22 UNL     1      19.416  29.470  13.148  1.00  0.00     0.027 C 
BRANCH  28  29
HETATM   29  C23 UNL     1      18.741  28.700  14.252  1.00  0.00     0.229 C 
BRANCH  29  30
HETATM   30  N3  UNL     1      19.686  28.199  15.217  1.00  0.00    -0.079 N 
ATOM     31  H33 UNL     1      20.051  27.288  14.939  1.00  0.00     0.274 HD
ATOM     32  H32 UNL     1      20.554  28.733  15.197  1.00  0.00     0.274 HD
ATOM     33  H31 UNL     1      19.293  28.168  16.158  1.00  0.00     0.274 HD
ENDBRANCH  29  30
ENDBRANCH  28  29
ENDBRANCH  27  28
ENDBRANCH  26  27
ENDBRANCH  25  26
ENDBRANCH  24  25
ENDBRANCH  23  24
ENDBRANCH  22  23
ENDBRANCH  21  22
ENDBRANCH  20  21
ENDBRANCH  18  20
ENDBRANCH  11  16
BRANCH  14  34
HETATM   34  C26 UNL     1      21.603  36.393  16.295  1.00  0.00     0.215 C 
BRANCH  34  35
HETATM   35  O5  UNL     1      20.995  35.329  15.751  1.00  0.00    -0.380 OA
BRANCH  35  36
HETATM   36  C27 UNL     1      21.436  34.068  16.013  1.00  0.00     0.148 C 
HETATM   37  C28 UNL     1      20.275  33.199  16.569  1.00  0.00     0.136 C 
HETATM   38  C29 UNL     1      20.732  31.839  16.165  1.00  0.00     0.222 C 
HETATM   39  O6  UNL     1      20.363  30.756  16.686  1.00  0.00    -0.273 OA
HETATM   40  N4  UNL     1      21.653  31.933  15.096  1.00  0.00    -0.354 N 
HETATM   41  C30 UNL     1      22.445  30.909  14.451  1.00  0.00     0.152 C 
HETATM   42  C31 UNL     1      21.682  33.329  14.719  1.00  0.00     0.157 C 
ENDBRANCH  35  36
ENDBRANCH  34  35
ENDBRANCH  14  34
BRANCH   3  43
HETATM   43  C7  UNL     1      22.807  38.695  17.229  1.00  0.00     0.367 C 
HETATM   44  F1  UNL     1      23.666  39.576  17.934  1.00  0.00    -0.213 F 
HETATM   45  F2  UNL     1      22.209  39.489  16.276  1.00  0.00    -0.213 F 
ENDBRANCH   3  43
BRANCH   1  46
HETATM   46  C3  UNL     1      22.856  35.491  20.635  1.00  0.00     0.032 C 
BRANCH  46  47
HETATM   47  C2  UNL     1      24.054  36.246  21.125  1.00  0.00    -0.002 C 
HETATM   48  C1  UNL     1      24.934  35.500  22.081  1.00  0.00     0.005 C 
ENDBRANCH  46  47
ENDBRANCH   1  46
TORSDOF 18
ENDMDL
MODEL 3
REMARK VINA RESULT: -7.378337057      2.258      5.888
REMARK  18 active torsions:
REMARK  status: ('A' for Active; 'I' for Inactive)
REMARK    1  A    between atoms: C2_2  and  C3_3 
REMARK    2  A    between atoms: C3_3  and  C4_4 
REMARK    3  A    between atoms: C6_6  and  C7_7 
REMARK    4  A    between atoms: C12_17  and  C13_18 
REMARK       I    between atoms: C13_18  and  N2_20 
REMARK    5  A    between atoms: N2_20  and  C14_22 
REMARK    6  A    between atoms: C14_22  and  C15_23 
REMARK    7  A    between atoms: C15_23  and  C16_24 
REMARK    8  A    between atoms: C16_24  and  C17_25 
REMARK    9  A    between atoms: C17_25  and  C18_26 
REMARK   10  A    between atoms: C18_26  and  C19_27 
REMARK   11  A    between atoms: C19_27  and  C20_28 
REMARK   12  A    between atoms: C20_28  and  C21_29 
REMARK   13  A    between atoms: C21_29  and  C22_30 
REMARK   14  A    between atoms: C22_30  and  C23_31 
REMARK   15  A    between atoms: C23_31  and  N3_32 
REMARK   16  A    between atoms: C25_38  and  C26_39 
REMARK   17  A    between atoms: C26_39  and  O5_40 
REMARK   18  A    between atoms: O5_40  and  C27_41 
ROOT
HETATM    1  C4  UNL     1      19.264  26.724   6.819  1.00  0.00     0.124 C 
HETATM    2  C5  UNL     1      17.993  26.911   7.674  1.00  0.00     0.053 C 
HETATM    3  C6  UNL     1      18.307  25.888   8.745  1.00  0.00     0.089 C 
HETATM    4  C8  UNL     1      18.981  26.652   9.862  1.00  0.00     0.185 C 
HETATM    5  C9  UNL     1      18.194  27.612  10.627  1.00  0.00     0.240 C 
HETATM    6  O1  UNL     1      17.592  28.692  10.481  1.00  0.00    -0.285 OA
HETATM    7  C10 UNL     1      18.381  26.752  11.777  1.00  0.00     0.292 C 
HETATM    8  O2  UNL     1      17.963  26.727  12.940  1.00  0.00    -0.264 OA
HETATM    9  N1  UNL     1      19.275  25.898  11.034  1.00  0.00    -0.331 N 
HETATM   10  C11 UNL     1      20.129  24.787  11.233  1.00  0.00     0.149 C 
HETATM   11  C12 UNL     1      21.006  24.506  10.091  1.00  0.00     0.168 C 
HETATM   12  C24 UNL     1      20.562  24.935   8.778  1.00  0.00     0.179 C 
HETATM   13  O4  UNL     1      21.421  25.383   8.088  1.00  0.00    -0.293 OA
HETATM   14  C25 UNL     1      19.204  24.930   8.084  1.00  0.00     0.159 C 
HETATM   15  O7  UNL     1      19.440  25.361   6.818  1.00  0.00    -0.364 OA
ENDROOT
BRANCH  11  16
HETATM   16  C13 UNL     1      22.388  24.973  10.375  1.00  0.00     0.230 C 
HETATM   17  O3  UNL     1      23.382  24.164  10.363  1.00  0.00    -0.273 OA
HETATM   18  N2  UNL     1      22.685  26.325  10.674  1.00  0.00    -0.360 N 
ATOM     19  H2  UNL     1      21.918  26.997  10.695  1.00  0.00     0.162 HD
BRANCH  18  20
HETATM   20  C14 UNL     1      24.018  26.795  10.948  1.00  0.00     0.122 C 
BRANCH  20  21
HETATM   21  C15 UNL     1      24.006  27.921  11.942  1.00  0.00     0.020 C 
BRANCH  21  22
HETATM   22  C16 UNL     1      22.685  28.664  11.933  1.00  0.00     0.002 C 
BRANCH  22  23
HETATM   23  C17 UNL     1      22.161  28.775  13.352  1.00  0.00     0.000 C 
BRANCH  23  24
HETATM   24  C18 UNL     1      22.198  30.160  13.879  1.00  0.00     0.000 C 
BRANCH  24  25
HETATM   25  C19 UNL     1      21.887  31.288  12.990  1.00  0.00     0.000 C 
BRANCH  25  26
HETATM   26  C20 UNL     1      20.549  31.530  12.453  1.00  0.00     0.000 C 
BRANCH  26  27
HETATM   27  C21 UNL     1      19.395  31.768  13.348  1.00  0.00     0.002 C 
BRANCH  27  28
HETATM   28  C22 UNL     1      18.506  30.491  13.310  1.00  0.00     0.027 C 
BRANCH  28  29
HETATM   29  C23 UNL     1      18.310  29.988  14.716  1.00  0.00     0.229 C 
BRANCH  29  30
HETATM   30  N3  UNL     1      18.919  28.698  14.918  1.00  0.00    -0.079 N 
ATOM     31  H33 UNL     1      19.641  28.516  14.221  1.00  0.00     0.274 HD
ATOM     32  H32 UNL     1      19.500  28.690  15.756  1.00  0.00     0.274 HD
ATOM     33  H31 UNL     1      18.228  27.948  14.940  1.00  0.00     0.274 HD
ENDBRANCH  29  30
ENDBRANCH  28  29
ENDBRANCH  27  28
ENDBRANCH  26  27
ENDBRANCH  25  26
ENDBRANCH  24  25
ENDBRANCH  23  24
ENDBRANCH  22  23
ENDBRANCH  21  22
ENDBRANCH  20  21
ENDBRANCH  18  20
ENDBRANCH  11  16
BRANCH  14  34
HETATM   34  C26 UNL     1      18.784  23.492   8.035  1.00  0.00     0.215 C 
BRANCH  34  35
HETATM   35  O5  UNL     1      18.954  22.769   6.920  1.00  0.00    -0.380 OA
BRANCH  35  36
HETATM   36  C27 UNL     1      17.891  22.186   6.301  1.00  0.00     0.148 C 
HETATM   37  C28 UNL     1      16.764  21.897   7.330  1.00  0.00     0.136 C 
HETATM   38  C29 UNL     1      15.568  21.917   6.441  1.00  0.00     0.222 C 
HETATM   39  O6  UNL     1      14.461  21.377   6.688  1.00  0.00    -0.273 OA
HETATM   40  N4  UNL     1      15.853  22.640   5.259  1.00  0.00    -0.354 N 
HETATM   41  C30 UNL     1      15.058  22.832   4.065  1.00  0.00     0.152 C 
HETATM   42  C31 UNL     1      17.172  23.203   5.445  1.00  0.00     0.157 C 
ENDBRANCH  35  36
ENDBRANCH  34  35
ENDBRANCH  14  34
BRANCH   3  43
HETATM   43  C7  UNL     1      17.008  25.293   9.143  1.00  0.00     0.367 C 
HETATM   44  F1  UNL     1      17.261  24.066   9.805  1.00  0.00    -0.213 F 
HETATM   45  F2  UNL     1      16.155  24.959   8.115  1.00  0.00    -0.213 F 
ENDBRANCH   3  43
BRANCH   1  46
HETATM   46  C3  UNL     1      19.081  27.302   5.463  1.00  0.00     0.032 C 
BRANCH  46  47
HETATM   47  C2  UNL     1      17.625  27.415   5.124  1.00  0.00    -0.002 C 
HETATM   48  C1  UNL     1      17.197  28.744   4.578  1.00  0.00     0.005 C 
ENDBRANCH  46  47
ENDBRANCH   1  46
TORSDOF 18
ENDMDL
MODEL 4
REMARK VINA RESULT: -7.372243457      9.500     14.929
REMARK  18 active torsions:
REMARK  status: ('A' for Active; 'I' for Inactive)
REMARK    1  A    between atoms: C2_2  and  C3_3 
REMARK    2  A    between atoms: C3_3  and  C4_4 
REMARK    3  A    between atoms: C6_6  and  C7_7 
REMARK    4  A    between atoms: C12_17  and  C13_18 
REMARK       I    between atoms: C13_18  and  N2_20 
REMARK    5  A    between atoms: N2_20  and  C14_22 
REMARK    6  A    between atoms: C14_22  and  C15_23 
REMARK    7  A    between atoms: C15_23  and  C16_24 
REMARK    8  A    between atoms: C16_24  and  C17_25 
REMARK    9  A    between atoms: C17_25  and  C18_26 
REMARK   10  A    between atoms: C18_26  and  C19_27 
REMARK   11  A    between atoms: C19_27  and  C20_28 
REMARK   12  A    between atoms: C20_28  and  C21_29 
REMARK   13  A    between atoms: C21_29  and  C22_30 
REMARK   14  A    between atoms: C22_30  and  C23_31 
REMARK   15  A    between atoms: C23_31  and  N3_32 
REMARK   16  A    between atoms: C25_38  and  C26_39 
REMARK   17  A    between atoms: C26_39  and  O5_40 
REMARK   18  A    between atoms: O5_40  and  C27_41 
ROOT
HETATM    1  C4  UNL     1      20.611  39.586  15.790  1.00  0.00     0.124 C 
HETATM    2  C5  UNL     1      21.761  38.971  16.616  1.00  0.00     0.053 C 
HETATM    3  C6  UNL     1      20.924  38.342  17.709  1.00  0.00     0.089 C 
HETATM    4  C8  UNL     1      20.682  36.914  17.276  1.00  0.00     0.185 C 
HETATM    5  C9  UNL     1      21.812  35.994  17.237  1.00  0.00     0.240 C 
HETATM    6  O1  UNL     1      22.885  35.817  16.631  1.00  0.00    -0.285 OA
HETATM    7  C10 UNL     1      21.164  35.253  18.299  1.00  0.00     0.292 C 
HETATM    8  O2  UNL     1      21.458  34.288  19.012  1.00  0.00    -0.264 OA
HETATM    9  N1  UNL     1      19.994  36.094  18.214  1.00  0.00    -0.331 N 
HETATM   10  C11 UNL     1      18.685  36.188  18.747  1.00  0.00     0.149 C 
HETATM   11  C12 UNL     1      17.840  37.170  18.060  1.00  0.00     0.168 C 
HETATM   12  C24 UNL     1      18.498  38.272  17.382  1.00  0.00     0.179 C 
HETATM   13  O4  UNL     1      18.017  38.566  16.335  1.00  0.00    -0.293 OA
HETATM   14  C25 UNL     1      19.695  39.148  17.738  1.00  0.00     0.159 C 
HETATM   15  O7  UNL     1      19.768  40.082  16.756  1.00  0.00    -0.364 OA
ENDROOT
BRANCH  11  16
HETATM   16  C13 UNL     1      16.874  36.482  17.163  1.00  0.00     0.230 C 
HETATM   17  O3  UNL     1      15.619  36.468  17.417  1.00  0.00    -0.273 OA
HETATM   18  N2  UNL     1      17.282  35.807  15.987  1.00  0.00    -0.360 N 
ATOM     19  H2  UNL     1      18.275  35.794  15.754  1.00  0.00     0.162 HD
BRANCH  18  20
HETATM   20  C14 UNL     1      16.361  35.137  15.105  1.00  0.00     0.122 C 
BRANCH  20  21
HETATM   21  C15 UNL     1      16.373  33.652  15.329  1.00  0.00     0.020 C 
BRANCH  21  22
HETATM   22  C16 UNL     1      17.710  33.040  14.962  1.00  0.00     0.002 C 
BRANCH  22  23
HETATM   23  C17 UNL     1      17.491  31.634  14.435  1.00  0.00     0.000 C 
BRANCH  23  24
HETATM   24  C18 UNL     1      18.576  31.176  13.535  1.00  0.00     0.000 C 
BRANCH  24  25
HETATM   25  C19 UNL     1      19.687  32.081  13.210  1.00  0.00     0.000 C 
BRANCH  25  26
HETATM   26  C20 UNL     1      21.047  31.609  12.954  1.00  0.00     0.000 C 
BRANCH  26  27
HETATM   27  C21 UNL     1      22.195  32.115  13.738  1.00  0.00     0.002 C 
BRANCH  27  28
HETATM   28  C22 UNL     1      21.626  32.734  15.048  1.00  0.00     0.027 C 
BRANCH  28  29
HETATM   29  C23 UNL     1      22.492  32.313  16.205  1.00  0.00     0.229 C 
BRANCH  29  30
HETATM   30  N3  UNL     1      21.721  31.734  17.276  1.00  0.00    -0.079 N 
ATOM     31  H33 UNL     1      22.031  30.785  17.484  1.00  0.00     0.274 HD
ATOM     32  H32 UNL     1      21.938  32.174  18.169  1.00  0.00     0.274 HD
ATOM     33  H31 UNL     1      20.719  31.761  17.084  1.00  0.00     0.274 HD
ENDBRANCH  29  30
ENDBRANCH  28  29
ENDBRANCH  27  28
ENDBRANCH  26  27
ENDBRANCH  25  26
ENDBRANCH  24  25
ENDBRANCH  23  24
ENDBRANCH  22  23
ENDBRANCH  21  22
ENDBRANCH  20  21
ENDBRANCH  18  20
ENDBRANCH  11  16
BRANCH  14  34
HETATM   34  C26 UNL     1      19.329  39.825  19.024  1.00  0.00     0.215 C 
BRANCH  34  35
HETATM   35  O5  UNL     1      19.043  41.134  19.048  1.00  0.00    -0.380 OA
BRANCH  35  36
HETATM   36  C27 UNL     1      17.789  41.566  19.359  1.00  0.00     0.148 C 
HETATM   37  C28 UNL     1      16.926  41.676  18.072  1.00  0.00     0.136 C 
HETATM   38  C29 UNL     1      15.560  41.496  18.641  1.00  0.00     0.222 C 
HETATM   39  O6  UNL     1      14.487  41.869  18.104  1.00  0.00    -0.273 OA
HETATM   40  N4  UNL     1      15.637  40.837  19.890  1.00  0.00    -0.354 N 
HETATM   41  C30 UNL     1      14.603  40.548  20.860  1.00  0.00     0.152 C 
HETATM   42  C31 UNL     1      17.025  40.467  20.060  1.00  0.00     0.157 C 
ENDBRANCH  35  36
ENDBRANCH  34  35
ENDBRANCH  14  34
BRANCH   3  43
HETATM   43  C7  UNL     1      21.721  38.449  18.955  1.00  0.00     0.367 C 
HETATM   44  F1  UNL     1      22.214  39.774  19.059  1.00  0.00    -0.213 F 
HETATM   45  F2  UNL     1      22.847  37.659  19.023  1.00  0.00    -0.213 F 
ENDBRANCH   3  43
BRANCH   1  46
HETATM   46  C3  UNL     1      21.123  40.620  14.856  1.00  0.00     0.032 C 
BRANCH  46  47
HETATM   47  C2  UNL     1      21.760  39.987  13.657  1.00  0.00    -0.002 C 
HETATM   48  C1  UNL     1      22.889  40.762  13.048  1.00  0.00     0.005 C 
ENDBRANCH  46  47
ENDBRANCH   1  46
TORSDOF 18
ENDMDL
MODEL 5
REMARK VINA RESULT: -7.133717744      3.282      6.439
REMARK  18 active torsions:
REMARK  status: ('A' for Active; 'I' for Inactive)
REMARK    1  A    between atoms: C2_2  and  C3_3 
REMARK    2  A    between atoms: C3_3  and  C4_4 
REMARK    3  A    between atoms: C6_6  and  C7_7 
REMARK    4  A    between atoms: C12_17  and  C13_18 
REMARK       I    between atoms: C13_18  and  N2_20 
REMARK    5  A    between atoms: N2_20  and  C14_22 
REMARK    6  A    between atoms: C14_22  and  C15_23 
REMARK    7  A    between atoms: C15_23  and  C16_24 
REMARK    8  A    between atoms: C16_24  and  C17_25 
REMARK    9  A    between atoms: C17_25  and  C18_26 
REMARK   10  A    between atoms: C18_26  and  C19_27 
REMARK   11  A    between atoms: C19_27  and  C20_28 
REMARK   12  A    between atoms: C20_28  and  C21_29 
REMARK   13  A    between atoms: C21_29  and  C22_30 
REMARK   14  A    between atoms: C22_30  and  C23_31 
REMARK   15  A    between atoms: C23_31  and  N3_32 
REMARK   16  A    between atoms: C25_38  and  C26_39 
REMARK   17  A    between atoms: C26_39  and  O5_40 
REMARK   18  A    between atoms: O5_40  and  C27_41 
ROOT
HETATM    1  C4  UNL     1      19.615  24.468  11.790  1.00  0.00     0.124 C 
HETATM    2  C5  UNL     1      20.844  24.343  10.864  1.00  0.00     0.053 C 
HETATM    3  C6  UNL     1      21.051  25.817  10.588  1.00  0.00     0.089 C 
HETATM    4  C8  UNL     1      22.063  26.290  11.606  1.00  0.00     0.185 C 
HETATM    5  C9  UNL     1      23.433  25.802  11.509  1.00  0.00     0.240 C 
HETATM    6  O1  UNL     1      24.084  24.745  11.606  1.00  0.00    -0.285 OA
HETATM    7  C10 UNL     1      23.832  27.164  11.222  1.00  0.00     0.292 C 
HETATM    8  O2  UNL     1      24.881  27.729  10.896  1.00  0.00    -0.264 OA
HETATM    9  N1  UNL     1      22.492  27.641  11.467  1.00  0.00    -0.331 N 
HETATM   10  C11 UNL     1      21.776  28.858  11.565  1.00  0.00     0.149 C 
HETATM   11  C12 UNL     1      20.420  28.701  12.103  1.00  0.00     0.168 C 
HETATM   12  C24 UNL     1      19.771  27.414  11.933  1.00  0.00     0.179 C 
HETATM   13  O4  UNL     1      19.143  27.049  12.875  1.00  0.00    -0.293 OA
HETATM   14  C25 UNL     1      19.722  26.416  10.780  1.00  0.00     0.159 C 
HETATM   15  O7  UNL     1      18.864  25.442  11.178  1.00  0.00    -0.364 OA
ENDROOT
BRANCH  11  16
HETATM   16  C13 UNL     1      20.371  29.149  13.519  1.00  0.00     0.230 C 
HETATM   17  O3  UNL     1      21.326  28.893  14.334  1.00  0.00    -0.273 OA
HETATM   18  N2  UNL     1      19.278  29.879  14.045  1.00  0.00    -0.360 N 
ATOM     19  H2  UNL     1      18.498  30.099  13.426  1.00  0.00     0.162 HD
BRANCH  18  20
HETATM   20  C14 UNL     1      19.215  30.325  15.413  1.00  0.00     0.122 C 
BRANCH  20  21
HETATM   21  C15 UNL     1      17.946  31.083  15.683  1.00  0.00     0.020 C 
BRANCH  21  22
HETATM   22  C16 UNL     1      17.533  31.927  14.494  1.00  0.00     0.002 C 
BRANCH  22  23
HETATM   23  C17 UNL     1      18.011  33.352  14.699  1.00  0.00     0.000 C 
BRANCH  23  24
HETATM   24  C18 UNL     1      16.902  34.317  14.882  1.00  0.00     0.000 C 
BRANCH  24  25
HETATM   25  C19 UNL     1      15.685  33.904  15.594  1.00  0.00     0.000 C 
BRANCH  25  26
HETATM   26  C20 UNL     1      15.273  34.488  16.870  1.00  0.00     0.000 C 
BRANCH  26  27
HETATM   27  C21 UNL     1      16.100  34.331  18.086  1.00  0.00     0.002 C 
BRANCH  27  28
HETATM   28  C22 UNL     1      16.754  35.712  18.385  1.00  0.00     0.027 C 
BRANCH  28  29
HETATM   29  C23 UNL     1      18.242  35.528  18.526  1.00  0.00     0.229 C 
BRANCH  29  30
HETATM   30  N3  UNL     1      18.648  34.173  18.250  1.00  0.00    -0.079 N 
ATOM     31  H33 UNL     1      17.889  33.638  17.829  1.00  0.00     0.274 HD
ATOM     32  H32 UNL     1      19.316  34.137  17.481  1.00  0.00     0.274 HD
ATOM     33  H31 UNL     1      19.014  33.707  19.080  1.00  0.00     0.274 HD
ENDBRANCH  29  30
ENDBRANCH  28  29
ENDBRANCH  27  28
ENDBRANCH  26  27
ENDBRANCH  25  26
ENDBRANCH  24  25
ENDBRANCH  23  24
ENDBRANCH  22  23
ENDBRANCH  21  22
ENDBRANCH  20  21
ENDBRANCH  18  20
ENDBRANCH  11  16
BRANCH  14  34
HETATM   34  C26 UNL     1      19.113  27.159   9.631  1.00  0.00     0.215 C 
BRANCH  34  35
HETATM   35  O5  UNL     1      17.837  26.947   9.281  1.00  0.00    -0.380 OA
BRANCH  35  36
HETATM   36  C27 UNL     1      17.522  26.521   8.027  1.00  0.00     0.148 C 
HETATM   37  C28 UNL     1      18.651  26.904   7.032  1.00  0.00     0.136 C 
HETATM   38  C29 UNL     1      18.470  25.853   5.990  1.00  0.00     0.222 C 
HETATM   39  O6  UNL     1      18.865  25.922   4.800  1.00  0.00    -0.273 OA
HETATM   40  N4  UNL     1      17.779  24.745   6.535  1.00  0.00    -0.354 N 
HETATM   41  C30 UNL     1      17.276  23.550   5.893  1.00  0.00     0.152 C 
HETATM   42  C31 UNL     1      17.642  25.017   7.949  1.00  0.00     0.157 C 
ENDBRANCH  35  36
ENDBRANCH  34  35
ENDBRANCH  14  34
BRANCH   3  43
HETATM   43  C7  UNL     1      21.537  25.913   9.190  1.00  0.00     0.367 C 
HETATM   44  F1  UNL     1      20.789  25.012   8.393  1.00  0.00    -0.213 F 
HETATM   45  F2  UNL     1      22.848  25.549   8.979  1.00  0.00    -0.213 F 
ENDBRANCH   3  43
BRANCH   1  46
HETATM   46  C3  UNL     1      18.913  23.165  11.918  1.00  0.00     0.032 C 
BRANCH  46  47
HETATM   47  C2  UNL     1      17.592  23.201  11.212  1.00  0.00    -0.002 C 
HETATM   48  C1  UNL     1      16.503  22.394  11.853  1.00  0.00     0.005 C 
ENDBRANCH  46  47
ENDBRANCH   1  46
TORSDOF 18
ENDMDL
