MODEL 1
REMARK VINA RESULT: -8.414295429      0.000      0.000
REMARK  16 active torsions:
REMARK  status: ('A' for Active; 'I' for Inactive)
REMARK    1  A    between atoms: C2_2  and  C3_3 
REMARK    2  A    between atoms: C3_3  and  C4_4 
REMARK    3  A    between atoms: C5_7  and  C6_8 
REMARK    4  A    between atoms: C6_8  and  C7_9 
REMARK    5  A    between atoms: C7_9  and  N2_10 
REMARK    6  A    between atoms: C7_9  and  C25_38 
REMARK       I    between atoms: N2_10  and  C8_12 
REMARK    7  A    between atoms: C8_12  and  C9_14 
REMARK    8  A    between atoms: C9_14  and  N3_15 
REMARK       I    between atoms: N3_15  and  C10_17 
REMARK    9  A    between atoms: C10_17  and  C11_19 
REMARK   10  A    between atoms: C11_19  and  C12_20 
REMARK   11  A    between atoms: C12_20  and  N4_21 
REMARK   12  A    between atoms: N4_21  and  C13_24 
REMARK   13  A    between atoms: C13_24  and  C14_25 
REMARK   14  A    between atoms: C14_25  and  C15_26 
REMARK   15  A    between atoms: C15_26  and  N5_27 
REMARK   16  A    between atoms: C28_42  and  C29_43 
ROOT
HETATM    1  C9  UNL     1      19.133  32.510  16.296  1.00  0.00     0.113 C 
HETATM    2  C20 UNL     1      18.174  31.524  16.849  1.00  0.00     0.041 C 
HETATM    3  C21 UNL     1      17.094  31.047  15.944  1.00  0.00     0.003 C 
HETATM    4  C22 UNL     1      16.478  32.165  15.130  1.00  0.00     0.000 C 
HETATM    5  C23 UNL     1      17.625  32.771  14.314  1.00  0.00     0.003 C 
HETATM    6  C24 UNL     1      18.562  33.424  15.270  1.00  0.00     0.041 C 
ENDROOT
BRANCH   1   7
HETATM    7  C8  UNL     1      20.406  31.875  15.851  1.00  0.00     0.246 C 
HETATM    8  N2  UNL     1      21.301  32.507  14.987  1.00  0.00    -0.347 N 
ATOM      9  H2  UNL     1      21.097  33.441  14.631  1.00  0.00     0.163 HD
HETATM   10  O1  UNL     1      20.675  30.710  16.281  1.00  0.00    -0.271 OA
BRANCH   8  11
HETATM   11  C7  UNL     1      22.567  31.804  14.585  1.00  0.00     0.159 C 
BRANCH  11  12
HETATM   12  C6  UNL     1      22.422  31.472  13.148  1.00  0.00     0.089 C 
BRANCH  12  13
HETATM   13  C5  UNL     1      21.950  30.115  12.877  1.00  0.00     0.012 A 
HETATM   14  N1  UNL     1      20.684  29.713  13.132  1.00  0.00    -0.361 N 
HETATM   15  C4  UNL     1      20.271  28.472  12.817  1.00  0.00     0.032 A 
ATOM     16  H1  UNL     1      20.031  30.362  13.571  1.00  0.00     0.165 HD
HETATM   17  C32 UNL     1      21.091  27.550  12.230  1.00  0.00     0.063 A 
HETATM   18  C28 UNL     1      22.404  27.901  11.942  1.00  0.00    -0.028 A 
HETATM   19 CL1  UNL     1      20.528  25.971  11.841  1.00  0.00    -0.082 Cl
HETATM   20  C27 UNL     1      22.789  29.179  12.279  1.00  0.00     0.034 A 
BRANCH  15  21
HETATM   21  C3  UNL     1      18.846  28.163  13.153  1.00  0.00     0.058 C 
BRANCH  21  22
HETATM   22  C2  UNL     1      17.998  29.317  12.643  1.00  0.00     0.002 C 
HETATM   23  C1  UNL     1      17.113  28.885  11.503  1.00  0.00     0.005 C 
ENDBRANCH  21  22
ENDBRANCH  15  21
BRANCH  18  24
HETATM   24  C29 UNL     1      23.345  26.984  11.314  1.00  0.00     0.020 A 
HETATM   25  C30 UNL     1      24.675  27.550  10.860  1.00  0.00     0.010 A 
HETATM   26  C31 UNL     1      24.574  26.472  11.946  1.00  0.00     0.010 A 
ENDBRANCH  18  24
ENDBRANCH  12  13
ENDBRANCH  11  12
BRANCH  11  27
HETATM   27  C25 UNL     1      23.636  32.719  14.922  1.00  0.00     0.145 C 
HETATM   28  C26 UNL     1      23.609  33.667  16.079  1.00  0.00     0.093 C 
HETATM   29  O4  UNL     1      24.656  32.767  14.238  1.00  0.00    -0.296 OA
ENDBRANCH  11  27
ENDBRANCH   8  11
ENDBRANCH   1   7
BRANCH   1  30
HETATM   30  N3  UNL     1      19.490  33.399  17.433  1.00  0.00    -0.343 N 
HETATM   31  C10 UNL     1      20.181  34.619  17.256  1.00  0.00     0.220 C 
HETATM   32  O2  UNL     1      20.528  34.997  16.114  1.00  0.00    -0.274 OA
ATOM     33  H3  UNL     1      19.227  33.118  18.377  1.00  0.00     0.163 HD
BRANCH  31  34
HETATM   34  C11 UNL     1      20.530  35.511  18.386  1.00  0.00     0.130 C 
BRANCH  34  35
HETATM   35  C12 UNL     1      21.298  36.727  17.935  1.00  0.00     0.241 C 
BRANCH  35  36
HETATM   36  N4  UNL     1      20.511  37.612  17.135  1.00  0.00    -0.075 N 
ATOM     37  H42 UNL     1      21.111  38.166  16.525  1.00  0.00     0.277 HD
ATOM     38  H41 UNL     1      19.986  37.086  16.437  1.00  0.00     0.277 HD
BRANCH  36  39
HETATM   39  C13 UNL     1      19.625  38.474  17.881  1.00  0.00     0.234 C 
BRANCH  39  40
HETATM   40  C14 UNL     1      18.293  38.703  17.211  1.00  0.00     0.057 C 
BRANCH  40  41
HETATM   41  C15 UNL     1      17.528  37.424  17.068  1.00  0.00     0.274 C 
BRANCH  41  42
HETATM   42  N5  UNL     1      16.882  37.091  18.311  1.00  0.00     0.092 N 
HETATM   43  C16 UNL     1      15.496  37.546  18.317  1.00  0.00     0.298 C 
HETATM   44  C17 UNL     1      14.531  36.373  18.175  1.00  0.00     0.198 C 
HETATM   45  O3  UNL     1      14.952  35.430  17.262  1.00  0.00    -0.388 OA
HETATM   46  C18 UNL     1      16.193  34.893  17.511  1.00  0.00     0.198 C 
HETATM   47  C19 UNL     1      16.869  35.693  18.619  1.00  0.00     0.298 C 
ENDBRANCH  41  42
ENDBRANCH  40  41
ENDBRANCH  39  40
ENDBRANCH  36  39
ENDBRANCH  35  36
ENDBRANCH  34  35
ENDBRANCH  31  34
ENDBRANCH   1  30
TORSDOF 16
ENDMDL
MODEL 2
REMARK VINA RESULT: -8.406670843      2.293      4.196
REMARK  16 active torsions:
REMARK  status: ('A' for Active; 'I' for Inactive)
REMARK    1  A    between atoms: C2_2  and  C3_3 
REMARK    2  A    between atoms: C3_3  and  C4_4 
REMARK    3  A    between atoms: C5_7  and  C6_8 
REMARK    4  A    between atoms: C6_8  and  C7_9 
REMARK    5  A    between atoms: C7_9  and  N2_10 
REMARK    6  A    between atoms: C7_9  and  C25_38 
REMARK       I    between atoms: N2_10  and  C8_12 
REMARK    7  A    between atoms: C8_12  and  C9_14 
REMARK    8  A    between atoms: C9_14  and  N3_15 
REMARK       I    between atoms: N3_15  and  C10_17 
REMARK    9  A    between atoms: C10_17  and  C11_19 
REMARK   10  A    between atoms: C11_19  and  C12_20 
REMARK   11  A    between atoms: C12_20  and  N4_21 
REMARK   12  A    between atoms: N4_21  and  C13_24 
REMARK   13  A    between atoms: C13_24  and  C14_25 
REMARK   14  A    between atoms: C14_25  and  C15_26 
REMARK   15  A    between atoms: C15_26  and  N5_27 
REMARK   16  A    between atoms: C28_42  and  C29_43 
ROOT
HETATM    1  C9  UNL     1      20.856  33.090  15.196  1.00  0.00     0.113 C 
HETATM    2  C20 UNL     1      22.005  34.004  14.982  1.00  0.00     0.041 C 
HETATM    3  C21 UNL     1      23.246  33.723  15.752  1.00  0.00     0.003 C 
HETATM    4  C22 UNL     1      22.969  33.357  17.194  1.00  0.00     0.000 C 
HETATM    5  C23 UNL     1      22.080  32.107  17.146  1.00  0.00     0.003 C 
HETATM    6  C24 UNL     1      20.770  32.510  16.563  1.00  0.00     0.041 C 
ENDROOT
BRANCH   1   7
HETATM    7  C8  UNL     1      20.746  32.058  14.126  1.00  0.00     0.246 C 
HETATM    8  N2  UNL     1      20.096  30.839  14.322  1.00  0.00    -0.347 N 
ATOM      9  H2  UNL     1      19.672  30.622  15.224  1.00  0.00     0.163 HD
HETATM   10  O1  UNL     1      21.272  32.308  12.997  1.00  0.00    -0.271 OA
BRANCH   8  11
HETATM   11  C7  UNL     1      20.024  29.848  13.194  1.00  0.00     0.159 C 
BRANCH  11  12
HETATM   12  C6  UNL     1      20.487  28.552  13.746  1.00  0.00     0.089 C 
BRANCH  12  13
HETATM   13  C5  UNL     1      20.832  27.547  12.742  1.00  0.00     0.012 A 
HETATM   14  N1  UNL     1      19.907  26.781  12.122  1.00  0.00    -0.361 N 
HETATM   15  C4  UNL     1      20.259  25.905  11.161  1.00  0.00     0.032 A 
ATOM     16  H1  UNL     1      18.926  26.867  12.386  1.00  0.00     0.165 HD
HETATM   17  C32 UNL     1      21.554  25.736  10.759  1.00  0.00     0.063 A 
HETATM   18  C28 UNL     1      22.551  26.493  11.358  1.00  0.00    -0.028 A 
HETATM   19 CL1  UNL     1      21.966  24.605   9.528  1.00  0.00    -0.082 Cl
HETATM   20  C27 UNL     1      22.153  27.377  12.334  1.00  0.00     0.034 A 
BRANCH  15  21
HETATM   21  C3  UNL     1      19.133  25.125  10.559  1.00  0.00     0.058 C 
BRANCH  21  22
HETATM   22  C2  UNL     1      18.141  24.824  11.670  1.00  0.00     0.002 C 
HETATM   23  C1  UNL     1      17.670  23.395  11.613  1.00  0.00     0.005 C 
ENDBRANCH  21  22
ENDBRANCH  15  21
BRANCH  18  24
HETATM   24  C29 UNL     1      23.955  26.380  10.988  1.00  0.00     0.020 A 
HETATM   25  C30 UNL     1      24.744  27.665  10.836  1.00  0.00     0.010 A 
HETATM   26  C31 UNL     1      25.090  26.616  11.900  1.00  0.00     0.010 A 
ENDBRANCH  18  24
ENDBRANCH  12  13
ENDBRANCH  11  12
BRANCH  11  27
HETATM   27  C25 UNL     1      18.651  29.888  12.737  1.00  0.00     0.145 C 
HETATM   28  C26 UNL     1      17.514  30.469  13.516  1.00  0.00     0.093 C 
HETATM   29  O4  UNL     1      18.343  29.421  11.643  1.00  0.00    -0.296 OA
ENDBRANCH  11  27
ENDBRANCH   8  11
ENDBRANCH   1   7
BRANCH   1  30
HETATM   30  N3  UNL     1      19.643  33.942  15.073  1.00  0.00    -0.343 N 
HETATM   31  C10 UNL     1      18.391  33.562  15.605  1.00  0.00     0.220 C 
HETATM   32  O2  UNL     1      18.256  32.469  16.204  1.00  0.00    -0.274 OA
ATOM     33  H3  UNL     1      19.718  34.835  14.587  1.00  0.00     0.163 HD
BRANCH  31  34
HETATM   34  C11 UNL     1      17.182  34.411  15.493  1.00  0.00     0.130 C 
BRANCH  34  35
HETATM   35  C12 UNL     1      15.918  33.643  15.778  1.00  0.00     0.241 C 
BRANCH  35  36
HETATM   36  N4  UNL     1      15.562  33.659  17.162  1.00  0.00    -0.075 N 
ATOM     37  H42 UNL     1      15.028  32.823  17.400  1.00  0.00     0.277 HD
ATOM     38  H41 UNL     1      16.388  33.512  17.742  1.00  0.00     0.277 HD
BRANCH  36  39
HETATM   39  C13 UNL     1      14.855  34.842  17.590  1.00  0.00     0.234 C 
BRANCH  39  40
HETATM   40  C14 UNL     1      15.610  35.668  18.603  1.00  0.00     0.057 C 
BRANCH  40  41
HETATM   41  C15 UNL     1      15.458  37.133  18.333  1.00  0.00     0.274 C 
BRANCH  41  42
HETATM   42  N5  UNL     1      16.579  37.855  18.875  1.00  0.00     0.092 N 
HETATM   43  C16 UNL     1      17.836  37.347  18.338  1.00  0.00     0.298 C 
HETATM   44  C17 UNL     1      18.440  38.323  17.332  1.00  0.00     0.198 C 
HETATM   45  O3  UNL     1      17.502  38.892  16.496  1.00  0.00    -0.388 OA
HETATM   46  C18 UNL     1      16.484  39.560  17.134  1.00  0.00     0.198 C 
HETATM   47  C19 UNL     1      16.553  39.266  18.629  1.00  0.00     0.298 C 
ENDBRANCH  41  42
ENDBRANCH  40  41
ENDBRANCH  39  40
ENDBRANCH  36  39
ENDBRANCH  35  36
ENDBRANCH  34  35
ENDBRANCH  31  34
ENDBRANCH   1  30
TORSDOF 16
ENDMDL
MODEL 3
REMARK VINA RESULT: -8.396297750      2.167      4.244
REMARK  16 active torsions:
REMARK  status: ('A' for Active; 'I' for Inactive)
REMARK    1  A    between atoms: C2_2  and  C3_3 
REMARK    2  A    between atoms: C3_3  and  C4_4 
REMARK    3  A    between atoms: C5_7  and  C6_8 
REMARK    4  A    between atoms: C6_8  and  C7_9 
REMARK    5  A    between atoms: C7_9  and  N2_10 
REMARK    6  A    between atoms: C7_9  and  C25_38 
REMARK       I    between atoms: N2_10  and  C8_12 
REMARK    7  A    between atoms: C8_12  and  C9_14 
REMARK    8  A    between atoms: C9_14  and  N3_15 
REMARK       I    between atoms: N3_15  and  C10_17 
REMARK    9  A    between atoms: C10_17  and  C11_19 
REMARK   10  A    between atoms: C11_19  and  C12_20 
REMARK   11  A    between atoms: C12_20  and  N4_21 
REMARK   12  A    between atoms: N4_21  and  C13_24 
REMARK   13  A    between atoms: C13_24  and  C14_25 
REMARK   14  A    between atoms: C14_25  and  C15_26 
REMARK   15  A    between atoms: C15_26  and  N5_27 
REMARK   16  A    between atoms: C28_42  and  C29_43 
ROOT
HETATM    1  C9  UNL     1      20.845  33.025  15.074  1.00  0.00     0.113 C 
HETATM    2  C20 UNL     1      21.996  33.945  14.900  1.00  0.00     0.041 C 
HETATM    3  C21 UNL     1      23.194  33.699  15.747  1.00  0.00     0.003 C 
HETATM    4  C22 UNL     1      22.839  33.370  17.181  1.00  0.00     0.000 C 
HETATM    5  C23 UNL     1      21.966  32.110  17.118  1.00  0.00     0.003 C 
HETATM    6  C24 UNL     1      20.688  32.481  16.450  1.00  0.00     0.041 C 
ENDROOT
BRANCH   1   7
HETATM    7  C8  UNL     1      20.806  31.962  14.030  1.00  0.00     0.246 C 
HETATM    8  N2  UNL     1      20.113  30.764  14.202  1.00  0.00    -0.347 N 
ATOM      9  H2  UNL     1      19.606  30.584  15.069  1.00  0.00     0.163 HD
HETATM   10  O1  UNL     1      21.435  32.166  12.945  1.00  0.00    -0.271 OA
BRANCH   8  11
HETATM   11  C7  UNL     1      20.117  29.739  13.102  1.00  0.00     0.159 C 
BRANCH  11  12
HETATM   12  C6  UNL     1      20.618  28.481  13.705  1.00  0.00     0.089 C 
BRANCH  12  13
HETATM   13  C5  UNL     1      20.950  27.431  12.743  1.00  0.00     0.012 A 
HETATM   14  N1  UNL     1      20.036  26.559  12.263  1.00  0.00    -0.361 N 
HETATM   15  C4  UNL     1      20.368  25.641  11.336  1.00  0.00     0.032 A 
ATOM     16  H1  UNL     1      19.077  26.595  12.610  1.00  0.00     0.165 HD
HETATM   17  C32 UNL     1      21.632  25.533  10.829  1.00  0.00     0.063 A 
HETATM   18  C28 UNL     1      22.618  26.400  11.282  1.00  0.00    -0.028 A 
HETATM   19 CL1  UNL     1      22.021  24.346   9.644  1.00  0.00    -0.082 Cl
HETATM   20  C27 UNL     1      22.239  27.323  12.229  1.00  0.00     0.034 A 
BRANCH  15  21
HETATM   21  C3  UNL     1      19.257  24.743  10.892  1.00  0.00     0.058 C 
BRANCH  21  22
HETATM   22  C2  UNL     1      17.973  25.555  10.927  1.00  0.00     0.002 C 
HETATM   23  C1  UNL     1      17.636  26.106   9.567  1.00  0.00     0.005 C 
ENDBRANCH  21  22
ENDBRANCH  15  21
BRANCH  18  24
HETATM   24  C29 UNL     1      23.989  26.357  10.793  1.00  0.00     0.020 A 
HETATM   25  C30 UNL     1      24.811  27.625  10.908  1.00  0.00     0.010 A 
HETATM   26  C31 UNL     1      25.190  26.336  11.648  1.00  0.00     0.010 A 
ENDBRANCH  18  24
ENDBRANCH  12  13
ENDBRANCH  11  12
BRANCH  11  27
HETATM   27  C25 UNL     1      18.759  29.708  12.604  1.00  0.00     0.145 C 
HETATM   28  C26 UNL     1      17.580  30.288  13.318  1.00  0.00     0.093 C 
HETATM   29  O4  UNL     1      18.501  29.174  11.528  1.00  0.00    -0.296 OA
ENDBRANCH  11  27
ENDBRANCH   8  11
ENDBRANCH   1   7
BRANCH   1  30
HETATM   30  N3  UNL     1      19.633  33.860  14.860  1.00  0.00    -0.343 N 
HETATM   31  C10 UNL     1      18.354  33.473  15.319  1.00  0.00     0.220 C 
HETATM   32  O2  UNL     1      18.194  32.391  15.929  1.00  0.00    -0.274 OA
ATOM     33  H3  UNL     1      19.728  34.744  14.362  1.00  0.00     0.163 HD
BRANCH  31  34
HETATM   34  C11 UNL     1      17.146  34.306  15.116  1.00  0.00     0.130 C 
BRANCH  34  35
HETATM   35  C12 UNL     1      15.927  33.711  15.771  1.00  0.00     0.241 C 
BRANCH  35  36
HETATM   36  N4  UNL     1      15.342  34.581  16.742  1.00  0.00    -0.075 N 
ATOM     37  H42 UNL     1      15.390  35.549  16.425  1.00  0.00     0.277 HD
ATOM     38  H41 UNL     1      14.330  34.453  16.767  1.00  0.00     0.277 HD
BRANCH  36  39
HETATM   39  C13 UNL     1      15.894  34.461  18.070  1.00  0.00     0.234 C 
BRANCH  39  40
HETATM   40  C14 UNL     1      16.658  35.681  18.523  1.00  0.00     0.057 C 
BRANCH  40  41
HETATM   41  C15 UNL     1      18.130  35.412  18.581  1.00  0.00     0.274 C 
BRANCH  41  42
HETATM   42  N5  UNL     1      18.824  36.245  17.635  1.00  0.00     0.092 N 
HETATM   43  C16 UNL     1      18.583  37.657  17.908  1.00  0.00     0.298 C 
HETATM   44  C17 UNL     1      19.818  38.319  18.512  1.00  0.00     0.198 C 
HETATM   45  O3  UNL     1      20.460  37.527  19.441  1.00  0.00    -0.388 OA
HETATM   46  C18 UNL     1      20.858  36.295  18.979  1.00  0.00     0.198 C 
HETATM   47  C19 UNL     1      20.243  36.056  17.604  1.00  0.00     0.298 C 
ENDBRANCH  41  42
ENDBRANCH  40  41
ENDBRANCH  39  40
ENDBRANCH  36  39
ENDBRANCH  35  36
ENDBRANCH  34  35
ENDBRANCH  31  34
ENDBRANCH   1  30
TORSDOF 16
ENDMDL
MODEL 4
REMARK VINA RESULT: -8.362425083      1.277      1.634
REMARK  16 active torsions:
REMARK  status: ('A' for Active; 'I' for Inactive)
REMARK    1  A    between atoms: C2_2  and  C3_3 
REMARK    2  A    between atoms: C3_3  and  C4_4 
REMARK    3  A    between atoms: C5_7  and  C6_8 
REMARK    4  A    between atoms: C6_8  and  C7_9 
REMARK    5  A    between atoms: C7_9  and  N2_10 
REMARK    6  A    between atoms: C7_9  and  C25_38 
REMARK       I    between atoms: N2_10  and  C8_12 
REMARK    7  A    between atoms: C8_12  and  C9_14 
REMARK    8  A    between atoms: C9_14  and  N3_15 
REMARK       I    between atoms: N3_15  and  C10_17 
REMARK    9  A    between atoms: C10_17  and  C11_19 
REMARK   10  A    between atoms: C11_19  and  C12_20 
REMARK   11  A    between atoms: C12_20  and  N4_21 
REMARK   12  A    between atoms: N4_21  and  C13_24 
REMARK   13  A    between atoms: C13_24  and  C14_25 
REMARK   14  A    between atoms: C14_25  and  C15_26 
REMARK   15  A    between atoms: C15_26  and  N5_27 
REMARK   16  A    between atoms: C28_42  and  C29_43 
ROOT
HETATM    1  C9  UNL     1      18.998  32.802  16.373  1.00  0.00     0.113 C 
HETATM    2  C20 UNL     1      17.925  31.843  16.734  1.00  0.00     0.041 C 
HETATM    3  C21 UNL     1      16.859  31.608  15.724  1.00  0.00     0.003 C 
HETATM    4  C22 UNL     1      16.390  32.886  15.060  1.00  0.00     0.000 C 
HETATM    5  C23 UNL     1      17.630  33.490  14.391  1.00  0.00     0.003 C 
HETATM    6  C24 UNL     1      18.567  33.905  15.473  1.00  0.00     0.041 C 
ENDROOT
BRANCH   1   7
HETATM    7  C8  UNL     1      20.231  32.118  15.892  1.00  0.00     0.246 C 
HETATM    8  N2  UNL     1      21.179  32.753  15.090  1.00  0.00    -0.347 N 
ATOM      9  H2  UNL     1      21.044  33.723  14.805  1.00  0.00     0.163 HD
HETATM   10  O1  UNL     1      20.415  30.907  16.232  1.00  0.00    -0.271 OA
BRANCH   8  11
HETATM   11  C7  UNL     1      22.401  31.998  14.646  1.00  0.00     0.159 C 
BRANCH  11  12
HETATM   12  C6  UNL     1      22.202  31.688  13.210  1.00  0.00     0.089 C 
BRANCH  12  13
HETATM   13  C5  UNL     1      21.808  30.308  12.930  1.00  0.00     0.012 A 
HETATM   14  N1  UNL     1      20.546  29.855  13.101  1.00  0.00    -0.361 N 
HETATM   15  C4  UNL     1      20.209  28.592  12.780  1.00  0.00     0.032 A 
ATOM     16  H1  UNL     1      19.836  30.481  13.481  1.00  0.00     0.165 HD
HETATM   17  C32 UNL     1      21.108  27.699  12.269  1.00  0.00     0.063 A 
HETATM   18  C28 UNL     1      22.422  28.103  12.070  1.00  0.00    -0.028 A 
HETATM   19 CL1  UNL     1      20.642  26.091  11.870  1.00  0.00    -0.082 Cl
HETATM   20  C27 UNL     1      22.727  29.401  12.410  1.00  0.00     0.034 A 
BRANCH  15  21
HETATM   21  C3  UNL     1      18.778  28.227  13.018  1.00  0.00     0.058 C 
BRANCH  21  22
HETATM   22  C2  UNL     1      17.925  29.394  12.547  1.00  0.00     0.002 C 
HETATM   23  C1  UNL     1      16.941  28.963  11.493  1.00  0.00     0.005 C 
ENDBRANCH  21  22
ENDBRANCH  15  21
BRANCH  18  24
HETATM   24  C29 UNL     1      23.444  27.219  11.527  1.00  0.00     0.020 A 
HETATM   25  C30 UNL     1      24.613  27.860  10.807  1.00  0.00     0.010 A 
HETATM   26  C31 UNL     1      24.794  27.042  12.092  1.00  0.00     0.010 A 
ENDBRANCH  18  24
ENDBRANCH  12  13
ENDBRANCH  11  12
BRANCH  11  27
HETATM   27  C25 UNL     1      23.519  32.862  14.960  1.00  0.00     0.145 C 
HETATM   28  C26 UNL     1      23.534  33.856  16.078  1.00  0.00     0.093 C 
HETATM   29  O4  UNL     1      24.547  32.821  14.290  1.00  0.00    -0.296 OA
ENDBRANCH  11  27
ENDBRANCH   8  11
ENDBRANCH   1   7
BRANCH   1  30
HETATM   30  N3  UNL     1      19.369  33.479  17.645  1.00  0.00    -0.343 N 
HETATM   31  C10 UNL     1      20.081  34.699  17.675  1.00  0.00     0.220 C 
HETATM   32  O2  UNL     1      20.436  35.259  16.612  1.00  0.00    -0.274 OA
ATOM     33  H3  UNL     1      19.100  33.046  18.527  1.00  0.00     0.163 HD
BRANCH  31  34
HETATM   34  C11 UNL     1      20.445  35.381  18.939  1.00  0.00     0.130 C 
BRANCH  34  35
HETATM   35  C12 UNL     1      21.910  35.725  18.998  1.00  0.00     0.241 C 
BRANCH  35  36
HETATM   36  N4  UNL     1      22.252  36.834  18.164  1.00  0.00    -0.075 N 
ATOM     37  H42 UNL     1      23.227  36.771  17.872  1.00  0.00     0.277 HD
ATOM     38  H41 UNL     1      21.791  36.751  17.258  1.00  0.00     0.277 HD
BRANCH  36  39
HETATM   39  C13 UNL     1      21.987  38.129  18.743  1.00  0.00     0.234 C 
BRANCH  39  40
HETATM   40  C14 UNL     1      21.497  39.152  17.747  1.00  0.00     0.057 C 
BRANCH  40  41
HETATM   41  C15 UNL     1      20.170  38.763  17.175  1.00  0.00     0.274 C 
BRANCH  41  42
HETATM   42  N5  UNL     1      19.107  39.235  18.023  1.00  0.00     0.092 N 
HETATM   43  C16 UNL     1      18.302  40.241  17.340  1.00  0.00     0.298 C 
HETATM   44  C17 UNL     1      16.942  39.678  16.937  1.00  0.00     0.198 C 
HETATM   45  O3  UNL     1      17.010  38.390  16.450  1.00  0.00    -0.388 OA
HETATM   46  C18 UNL     1      17.580  37.475  17.304  1.00  0.00     0.198 C 
HETATM   47  C19 UNL     1      18.211  38.214  18.478  1.00  0.00     0.298 C 
ENDBRANCH  41  42
ENDBRANCH  40  41
ENDBRANCH  39  40
ENDBRANCH  36  39
ENDBRANCH  35  36
ENDBRANCH  34  35
ENDBRANCH  31  34
ENDBRANCH   1  30
TORSDOF 16
ENDMDL
MODEL 5
REMARK VINA RESULT: -8.299697253      2.060      3.555
REMARK  16 active torsions:
REMARK  status: ('A' for Active; 'I' for Inactive)
REMARK    1  A    between atoms: C2_2  and  C3_3 
REMARK    2  A    between atoms: C3_3  and  C4_4 
REMARK    3  A    between atoms: C5_7  and  C6_8 
REMARK    4  A    between atoms: C6_8  and  C7_9 
REMARK    5  A    between atoms: C7_9  and  N2_10 
REMARK    6  A    between atoms: C7_9  and  C25_38 
REMARK       I    between atoms: N2_10  and  C8_12 
REMARK    7  A    between atoms: C8_12  and  C9_14 
REMARK    8  A    between atoms: C9_14  and  N3_15 
REMARK       I    between atoms: N3_15  and  C10_17 
REMARK    9  A    between atoms: C10_17  and  C11_19 
REMARK   10  A    between atoms: C11_19  and  C12_20 
REMARK   11  A    between atoms: C12_20  and  N4_21 
REMARK   12  A    between atoms: N4_21  and  C13_24 
REMARK   13  A    between atoms: C13_24  and  C14_25 
REMARK   14  A    between atoms: C14_25  and  C15_26 
REMARK   15  A    between atoms: C15_26  and  N5_27 
REMARK   16  A    between atoms: C28_42  and  C29_43 
ROOT
HETATM    1  C9  UNL     1      18.571  32.595  15.214  1.00  0.00     0.113 C 
HETATM    2  C20 UNL     1      17.803  31.956  16.310  1.00  0.00     0.041 C 
HETATM    3  C21 UNL     1      16.325  32.123  16.289  1.00  0.00     0.003 C 
HETATM    4  C22 UNL     1      15.901  33.534  15.938  1.00  0.00     0.000 C 
HETATM    5  C23 UNL     1      16.487  33.813  14.548  1.00  0.00     0.003 C 
HETATM    6  C24 UNL     1      17.970  33.848  14.683  1.00  0.00     0.041 C 
ENDROOT
BRANCH   1   7
HETATM    7  C8  UNL     1      18.929  31.630  14.135  1.00  0.00     0.246 C 
HETATM    8  N2  UNL     1      18.682  30.261  14.238  1.00  0.00    -0.347 N 
ATOM      9  H2  UNL     1      18.241  29.881  15.076  1.00  0.00     0.163 HD
HETATM   10  O1  UNL     1      19.483  32.085  13.086  1.00  0.00    -0.271 OA
BRANCH   8  11
HETATM   11  C7  UNL     1      19.069  29.350  13.107  1.00  0.00     0.159 C 
BRANCH  11  12
HETATM   12  C6  UNL     1      20.172  28.499  13.615  1.00  0.00     0.089 C 
BRANCH  12  13
HETATM   13  C5  UNL     1      20.648  27.487  12.673  1.00  0.00     0.012 A 
HETATM   14  N1  UNL     1      19.846  26.530  12.156  1.00  0.00    -0.361 N 
HETATM   15  C4  UNL     1      20.309  25.650  11.248  1.00  0.00     0.032 A 
ATOM     16  H1  UNL     1      18.874  26.472  12.459  1.00  0.00     0.165 HD
HETATM   17  C32 UNL     1      21.599  25.667  10.798  1.00  0.00     0.063 A 
HETATM   18  C28 UNL     1      22.473  26.626  11.292  1.00  0.00    -0.028 A 
HETATM   19 CL1  UNL     1      22.156  24.525   9.636  1.00  0.00    -0.082 Cl
HETATM   20  C27 UNL     1      21.964  27.508  12.218  1.00  0.00     0.034 A 
BRANCH  15  21
HETATM   21  C3  UNL     1      19.312  24.647  10.758  1.00  0.00     0.058 C 
BRANCH  21  22
HETATM   22  C2  UNL     1      17.946  25.312  10.783  1.00  0.00     0.002 C 
HETATM   23  C1  UNL     1      17.544  25.790   9.413  1.00  0.00     0.005 C 
ENDBRANCH  21  22
ENDBRANCH  15  21
BRANCH  18  24
HETATM   24  C29 UNL     1      23.862  26.720  10.865  1.00  0.00     0.020 A 
HETATM   25  C30 UNL     1      24.794  27.575  11.700  1.00  0.00     0.010 A 
HETATM   26  C31 UNL     1      24.998  26.063  11.539  1.00  0.00     0.010 A 
ENDBRANCH  18  24
ENDBRANCH  12  13
ENDBRANCH  11  12
BRANCH  11  27
HETATM   27  C25 UNL     1      17.852  28.660  12.738  1.00  0.00     0.145 C 
HETATM   28  C26 UNL     1      17.067  28.931  11.494  1.00  0.00     0.093 C 
HETATM   29  O4  UNL     1      17.384  27.787  13.465  1.00  0.00    -0.296 OA
ENDBRANCH  11  27
ENDBRANCH   8  11
ENDBRANCH   1   7
BRANCH   1  30
HETATM   30  N3  UNL     1      19.856  33.026  15.827  1.00  0.00    -0.343 N 
HETATM   31  C10 UNL     1      20.745  32.118  16.442  1.00  0.00     0.220 C 
HETATM   32  O2  UNL     1      20.474  30.896  16.500  1.00  0.00    -0.274 OA
ATOM     33  H3  UNL     1      20.103  34.015  15.802  1.00  0.00     0.163 HD
BRANCH  31  34
HETATM   34  C11 UNL     1      22.030  32.542  17.046  1.00  0.00     0.130 C 
BRANCH  34  35
HETATM   35  C12 UNL     1      22.040  34.008  17.392  1.00  0.00     0.241 C 
BRANCH  35  36
HETATM   36  N4  UNL     1      21.577  34.266  18.720  1.00  0.00    -0.075 N 
ATOM     37  H42 UNL     1      21.086  33.451  19.088  1.00  0.00     0.277 HD
ATOM     38  H41 UNL     1      22.364  34.305  19.368  1.00  0.00     0.277 HD
BRANCH  36  39
HETATM   39  C13 UNL     1      20.759  35.446  18.854  1.00  0.00     0.234 C 
BRANCH  39  40
HETATM   40  C14 UNL     1      19.285  35.192  18.650  1.00  0.00     0.057 C 
BRANCH  40  41
HETATM   41  C15 UNL     1      18.551  36.458  18.335  1.00  0.00     0.274 C 
BRANCH  41  42
HETATM   42  N5  UNL     1      17.283  36.157  17.726  1.00  0.00     0.092 N 
HETATM   43  C16 UNL     1      16.222  36.111  18.726  1.00  0.00     0.298 C 
HETATM   44  C17 UNL     1      15.318  37.337  18.626  1.00  0.00     0.198 C 
HETATM   45  O3  UNL     1      16.012  38.506  18.397  1.00  0.00    -0.388 OA
HETATM   46  C18 UNL     1      16.801  38.503  17.270  1.00  0.00     0.198 C 
HETATM   47  C19 UNL     1      16.872  37.085  16.715  1.00  0.00     0.298 C 
ENDBRANCH  41  42
ENDBRANCH  40  41
ENDBRANCH  39  40
ENDBRANCH  36  39
ENDBRANCH  35  36
ENDBRANCH  34  35
ENDBRANCH  31  34
ENDBRANCH   1  30
TORSDOF 16
ENDMDL
