MODEL 1
REMARK VINA RESULT: -8.818433739      0.000      0.000
REMARK  16 active torsions:
REMARK  status: ('A' for Active; 'I' for Inactive)
REMARK    1  A    between atoms: C2_2  and  C3_3 
REMARK    2  A    between atoms: C3_3  and  C4_4 
REMARK    3  A    between atoms: C4_4  and  C5_5 
REMARK    4  A    between atoms: C5_5  and  C6_6 
REMARK    5  A    between atoms: C6_6  and  C7_7 
REMARK    6  A    between atoms: N2_12  and  C9_13 
REMARK    7  A    between atoms: C9_13  and  C10_14 
REMARK    8  A    between atoms: C11_17  and  C12_18 
REMARK    9  A    between atoms: C13_19  and  C14_20 
REMARK   10  A    between atoms: C14_20  and  C15_21 
REMARK   11  A    between atoms: C15_21  and  N4_22 
REMARK   12  A    between atoms: N4_22  and  C16_23 
REMARK   13  A    between atoms: N4_22  and  C24_37 
REMARK   14  A    between atoms: C16_23  and  C17_24 
REMARK   15  A    between atoms: C17_24  and  C18_25 
REMARK   16  A    between atoms: C22_32  and  O2_33 
ROOT
HETATM    1  C15 UNL     1      20.902  30.882  14.569  1.00  0.00     0.128 C 
ENDROOT
BRANCH   1   2
HETATM    2  C14 UNL     1      21.197  29.423  14.523  1.00  0.00     0.047 C 
BRANCH   2   3
HETATM    3  C13 UNL     1      21.900  28.868  13.369  1.00  0.00    -0.027 C 
HETATM    4  C12 UNL     1      21.254  28.389  12.167  1.00  0.00     0.000 C 
BRANCH   4   5
HETATM    5  C11 UNL     1      20.348  27.218  12.080  1.00  0.00     0.155 C 
HETATM    6  C7  UNL     1      21.045  26.253  11.083  1.00  0.00     0.015 C 
HETATM    7  N1  UNL     1      20.411  26.306   9.994  1.00  0.00    -0.338 N 
HETATM    8  C8  UNL     1      19.174  26.986  10.113  1.00  0.00     0.175 C 
ATOM      9  H1  UNL     1      20.753  25.902   9.122  1.00  0.00     0.168 HD
HETATM   10  S1  UNL     1      18.080  27.282   8.922  1.00  0.00    -0.041 SA
HETATM   11  N2  UNL     1      19.088  27.353  11.486  1.00  0.00    -0.337 N 
BRANCH   6  12
HETATM   12  C6  UNL     1      22.339  25.624  11.388  1.00  0.00     0.055 C 
BRANCH  12  13
HETATM   13  C5  UNL     1      22.941  24.996  10.171  1.00  0.00     0.006 C 
BRANCH  13  14
HETATM   14  C4  UNL     1      24.443  25.156  10.119  1.00  0.00     0.000 C 
BRANCH  14  15
HETATM   15  C3  UNL     1      24.889  26.580  10.152  1.00  0.00    -0.000 C 
BRANCH  15  16
HETATM   16  C2  UNL     1      25.915  26.869  11.197  1.00  0.00    -0.005 C 
HETATM   17  C1  UNL     1      25.384  27.618  12.384  1.00  0.00     0.005 C 
ENDBRANCH  15  16
ENDBRANCH  14  15
ENDBRANCH  13  14
ENDBRANCH  12  13
ENDBRANCH   6  12
BRANCH  11  18
HETATM   18  C9  UNL     1      17.811  27.715  12.094  1.00  0.00     0.226 C 
BRANCH  18  19
HETATM   19  C10 UNL     1      17.495  29.110  11.687  1.00  0.00     0.249 C 
HETATM   20  N3  UNL     1      16.195  29.365  11.159  1.00  0.00    -0.061 NA
HETATM   21  O1  UNL     1      18.373  29.991  11.821  1.00  0.00    -0.275 OA
ENDBRANCH  18  19
ENDBRANCH  11  18
ENDBRANCH   4   5
ENDBRANCH   2   3
ENDBRANCH   1   2
BRANCH   1  22
HETATM   22  N4  UNL     1      20.390  31.417  15.783  1.00  0.00    -0.361 N 
BRANCH  22  23
HETATM   23  C16 UNL     1      19.276  31.002  16.561  1.00  0.00     0.131 C 
BRANCH  23  24
HETATM   24  C17 UNL     1      18.000  31.020  15.716  1.00  0.00     0.078 C 
BRANCH  24  25
HETATM   25  C18 UNL     1      17.697  32.397  15.267  1.00  0.00     0.032 A 
HETATM   26  C19 UNL     1      17.907  32.933  13.996  1.00  0.00     0.117 A 
HETATM   27  N5  UNL     1      17.498  34.211  14.008  1.00  0.00    -0.330 N 
HETATM   28  C20 UNL     1      17.039  34.483  15.256  1.00  0.00     0.226 A 
ATOM     29  H5  UNL     1      17.527  34.860  13.221  1.00  0.00     0.168 HD
HETATM   30  N6  UNL     1      17.172  33.367  15.995  1.00  0.00    -0.313 N 
HETATM   31  O3  UNL     1      16.501  35.617  15.852  1.00  0.00    -0.319 OA
HETATM   32  C21 UNL     1      16.731  33.436  17.383  1.00  0.00     0.166 C 
HETATM   33  C22 UNL     1      15.406  34.197  17.439  1.00  0.00     0.161 C 
HETATM   34  C23 UNL     1      15.754  35.627  17.030  1.00  0.00     0.212 C 
BRANCH  33  35
HETATM   35  O2  UNL     1      14.870  34.150  18.713  1.00  0.00    -0.392 OA
ATOM     36  H2  UNL     1      14.148  34.762  18.795  1.00  0.00     0.210 HD
ENDBRANCH  33  35
ENDBRANCH  24  25
ENDBRANCH  23  24
ENDBRANCH  22  23
BRANCH  22  37
HETATM   37  C24 UNL     1      21.123  32.564  16.302  1.00  0.00     0.145 A 
HETATM   38  C25 UNL     1      22.237  32.547  17.109  1.00  0.00     0.059 A 
HETATM   39  C26 UNL     1      22.561  33.862  17.328  1.00  0.00     0.036 A 
HETATM   40  C27 UNL     1      21.617  34.590  16.635  1.00  0.00     0.051 A 
HETATM   41  C28 UNL     1      21.515  36.075  16.543  1.00  0.00     0.077 C 
HETATM   42  O4  UNL     1      20.770  33.778  16.031  1.00  0.00    -0.299 OA
ENDBRANCH  22  37
ENDBRANCH   1  22
TORSDOF 16
ENDMDL
MODEL 2
REMARK VINA RESULT: -8.792648755      1.282      1.775
REMARK  16 active torsions:
REMARK  status: ('A' for Active; 'I' for Inactive)
REMARK    1  A    between atoms: C2_2  and  C3_3 
REMARK    2  A    between atoms: C3_3  and  C4_4 
REMARK    3  A    between atoms: C4_4  and  C5_5 
REMARK    4  A    between atoms: C5_5  and  C6_6 
REMARK    5  A    between atoms: C6_6  and  C7_7 
REMARK    6  A    between atoms: N2_12  and  C9_13 
REMARK    7  A    between atoms: C9_13  and  C10_14 
REMARK    8  A    between atoms: C11_17  and  C12_18 
REMARK    9  A    between atoms: C13_19  and  C14_20 
REMARK   10  A    between atoms: C14_20  and  C15_21 
REMARK   11  A    between atoms: C15_21  and  N4_22 
REMARK   12  A    between atoms: N4_22  and  C16_23 
REMARK   13  A    between atoms: N4_22  and  C24_37 
REMARK   14  A    between atoms: C16_23  and  C17_24 
REMARK   15  A    between atoms: C17_24  and  C18_25 
REMARK   16  A    between atoms: C22_32  and  O2_33 
ROOT
HETATM    1  C15 UNL     1      20.134  28.865  14.614  1.00  0.00     0.128 C 
ENDROOT
BRANCH   1   2
HETATM    2  C14 UNL     1      21.603  28.778  14.382  1.00  0.00     0.047 C 
BRANCH   2   3
HETATM    3  C13 UNL     1      22.101  28.374  13.069  1.00  0.00    -0.027 C 
HETATM    4  C12 UNL     1      21.262  28.078  11.929  1.00  0.00     0.000 C 
BRANCH   4   5
HETATM    5  C11 UNL     1      20.308  26.947  11.829  1.00  0.00     0.155 C 
HETATM    6  C7  UNL     1      20.960  25.969  10.813  1.00  0.00     0.015 C 
HETATM    7  N1  UNL     1      20.324  26.065   9.729  1.00  0.00    -0.338 N 
HETATM    8  C8  UNL     1      19.116  26.794   9.864  1.00  0.00     0.175 C 
ATOM      9  H1  UNL     1      20.645  25.662   8.848  1.00  0.00     0.168 HD
HETATM   10  S1  UNL     1      18.030  27.154   8.684  1.00  0.00    -0.041 SA
HETATM   11  N2  UNL     1      19.052  27.143  11.244  1.00  0.00    -0.337 N 
BRANCH   6  12
HETATM   12  C6  UNL     1      22.228  25.283  11.101  1.00  0.00     0.055 C 
BRANCH  12  13
HETATM   13  C5  UNL     1      23.047  25.107   9.862  1.00  0.00     0.006 C 
BRANCH  13  14
HETATM   14  C4  UNL     1      24.472  25.581  10.037  1.00  0.00     0.000 C 
BRANCH  14  15
HETATM   15  C3  UNL     1      24.785  26.016  11.431  1.00  0.00    -0.000 C 
BRANCH  15  16
HETATM   16  C2  UNL     1      25.793  27.113  11.512  1.00  0.00    -0.005 C 
HETATM   17  C1  UNL     1      25.694  27.943  12.758  1.00  0.00     0.005 C 
ENDBRANCH  15  16
ENDBRANCH  14  15
ENDBRANCH  13  14
ENDBRANCH  12  13
ENDBRANCH   6  12
BRANCH  11  18
HETATM   18  C9  UNL     1      17.793  27.548  11.864  1.00  0.00     0.226 C 
BRANCH  18  19
HETATM   19  C10 UNL     1      17.535  28.961  11.481  1.00  0.00     0.249 C 
HETATM   20  N3  UNL     1      16.218  29.297  11.050  1.00  0.00    -0.061 NA
HETATM   21  O1  UNL     1      18.473  29.786  11.551  1.00  0.00    -0.275 OA
ENDBRANCH  18  19
ENDBRANCH  11  18
ENDBRANCH   4   5
ENDBRANCH   2   3
ENDBRANCH   1   2
BRANCH   1  22
HETATM   22  N4  UNL     1      19.565  30.159  14.777  1.00  0.00    -0.361 N 
BRANCH  22  23
HETATM   23  C16 UNL     1      18.201  30.551  14.836  1.00  0.00     0.131 C 
BRANCH  23  24
HETATM   24  C17 UNL     1      17.841  31.009  16.251  1.00  0.00     0.078 C 
BRANCH  24  25
HETATM   25  C18 UNL     1      17.096  32.288  16.207  1.00  0.00     0.032 A 
HETATM   26  C19 UNL     1      15.835  32.508  15.653  1.00  0.00     0.117 A 
HETATM   27  N5  UNL     1      15.525  33.803  15.821  1.00  0.00    -0.330 N 
HETATM   28  C20 UNL     1      16.563  34.393  16.465  1.00  0.00     0.226 A 
ATOM     29  H5  UNL     1      14.664  34.260  15.519  1.00  0.00     0.168 HD
HETATM   30  N6  UNL     1      17.499  33.452  16.686  1.00  0.00    -0.313 N 
HETATM   31  O3  UNL     1      16.807  35.690  16.901  1.00  0.00    -0.319 OA
HETATM   32  C21 UNL     1      18.711  33.874  17.378  1.00  0.00     0.166 C 
HETATM   33  C22 UNL     1      18.322  34.801  18.528  1.00  0.00     0.161 C 
HETATM   34  C23 UNL     1      17.758  36.051  17.855  1.00  0.00     0.212 C 
BRANCH  33  35
HETATM   35  O2  UNL     1      19.423  35.099  19.309  1.00  0.00    -0.392 OA
ATOM     36  H2  UNL     1      19.675  34.349  19.835  1.00  0.00     0.210 HD
ENDBRANCH  33  35
ENDBRANCH  24  25
ENDBRANCH  23  24
ENDBRANCH  22  23
BRANCH  22  37
HETATM   37  C24 UNL     1      20.534  31.240  14.900  1.00  0.00     0.145 A 
HETATM   38  C25 UNL     1      21.037  32.029  13.892  1.00  0.00     0.059 A 
HETATM   39  C26 UNL     1      21.909  32.898  14.497  1.00  0.00     0.036 A 
HETATM   40  C27 UNL     1      21.876  32.574  15.836  1.00  0.00     0.051 A 
HETATM   41  C28 UNL     1      22.646  33.220  16.938  1.00  0.00     0.077 C 
HETATM   42  O4  UNL     1      21.039  31.574  16.042  1.00  0.00    -0.299 OA
ENDBRANCH  22  37
ENDBRANCH   1  22
TORSDOF 16
ENDMDL
MODEL 3
REMARK VINA RESULT: -8.601891193      3.775     10.405
REMARK  16 active torsions:
REMARK  status: ('A' for Active; 'I' for Inactive)
REMARK    1  A    between atoms: C2_2  and  C3_3 
REMARK    2  A    between atoms: C3_3  and  C4_4 
REMARK    3  A    between atoms: C4_4  and  C5_5 
REMARK    4  A    between atoms: C5_5  and  C6_6 
REMARK    5  A    between atoms: C6_6  and  C7_7 
REMARK    6  A    between atoms: N2_12  and  C9_13 
REMARK    7  A    between atoms: C9_13  and  C10_14 
REMARK    8  A    between atoms: C11_17  and  C12_18 
REMARK    9  A    between atoms: C13_19  and  C14_20 
REMARK   10  A    between atoms: C14_20  and  C15_21 
REMARK   11  A    between atoms: C15_21  and  N4_22 
REMARK   12  A    between atoms: N4_22  and  C16_23 
REMARK   13  A    between atoms: N4_22  and  C24_37 
REMARK   14  A    between atoms: C16_23  and  C17_24 
REMARK   15  A    between atoms: C17_24  and  C18_25 
REMARK   16  A    between atoms: C22_32  and  O2_33 
ROOT
HETATM    1  C15 UNL     1      19.996  30.325  15.894  1.00  0.00     0.128 C 
ENDROOT
BRANCH   1   2
HETATM    2  C14 UNL     1      20.464  31.681  16.297  1.00  0.00     0.047 C 
BRANCH   2   3
HETATM    3  C13 UNL     1      19.742  32.860  15.825  1.00  0.00    -0.027 C 
HETATM    4  C12 UNL     1      20.083  34.223  16.166  1.00  0.00     0.000 C 
BRANCH   4   5
HETATM    5  C11 UNL     1      20.011  34.818  17.522  1.00  0.00     0.155 C 
HETATM    6  C7  UNL     1      18.910  35.908  17.417  1.00  0.00     0.015 C 
HETATM    7  N1  UNL     1      19.483  37.031  17.402  1.00  0.00    -0.338 N 
HETATM    8  C8  UNL     1      20.857  36.949  17.743  1.00  0.00     0.175 C 
ATOM      9  H1  UNL     1      19.010  37.904  17.170  1.00  0.00     0.168 HD
HETATM   10  S1  UNL     1      21.943  38.180  17.811  1.00  0.00    -0.041 SA
HETATM   11  N2  UNL     1      21.085  35.569  18.013  1.00  0.00    -0.337 N 
BRANCH   6  12
HETATM   12  C6  UNL     1      17.504  35.568  17.151  1.00  0.00     0.055 C 
BRANCH  12  13
HETATM   13  C5  UNL     1      16.960  34.643  18.193  1.00  0.00     0.006 C 
BRANCH  13  14
HETATM   14  C4  UNL     1      15.623  34.055  17.805  1.00  0.00     0.000 C 
BRANCH  14  15
HETATM   15  C3  UNL     1      15.554  33.635  16.373  1.00  0.00    -0.000 C 
BRANCH  15  16
HETATM   16  C2  UNL     1      15.849  32.189  16.152  1.00  0.00    -0.005 C 
HETATM   17  C1  UNL     1      16.617  31.908  14.894  1.00  0.00     0.005 C 
ENDBRANCH  15  16
ENDBRANCH  14  15
ENDBRANCH  13  14
ENDBRANCH  12  13
ENDBRANCH   6  12
BRANCH  11  18
HETATM   18  C9  UNL     1      22.255  35.130  18.769  1.00  0.00     0.226 C 
BRANCH  18  19
HETATM   19  C10 UNL     1      22.071  35.563  20.179  1.00  0.00     0.249 C 
HETATM   20  N3  UNL     1      23.105  36.348  20.768  1.00  0.00    -0.061 NA
HETATM   21  O1  UNL     1      21.030  35.222  20.784  1.00  0.00    -0.275 OA
ENDBRANCH  18  19
ENDBRANCH  11  18
ENDBRANCH   4   5
ENDBRANCH   2   3
ENDBRANCH   1   2
BRANCH   1  22
HETATM   22  N4  UNL     1      20.212  29.922  14.547  1.00  0.00    -0.361 N 
BRANCH  22  23
HETATM   23  C16 UNL     1      21.371  30.047  13.735  1.00  0.00     0.131 C 
BRANCH  23  24
HETATM   24  C17 UNL     1      22.190  28.755  13.774  1.00  0.00     0.078 C 
BRANCH  24  25
HETATM   25  C18 UNL     1      22.238  28.132  12.433  1.00  0.00     0.032 A 
HETATM   26  C19 UNL     1      21.227  28.125  11.472  1.00  0.00     0.117 A 
HETATM   27  N5  UNL     1      21.674  27.453  10.399  1.00  0.00    -0.330 N 
HETATM   28  C20 UNL     1      22.938  27.042  10.671  1.00  0.00     0.226 A 
ATOM     29  H5  UNL     1      21.156  27.283   9.537  1.00  0.00     0.168 HD
HETATM   30  N6  UNL     1      23.253  27.468  11.908  1.00  0.00    -0.313 N 
HETATM   31  O3  UNL     1      23.885  26.320   9.954  1.00  0.00    -0.319 OA
HETATM   32  C21 UNL     1      24.583  27.135  12.404  1.00  0.00     0.166 C 
HETATM   33  C22 UNL     1      25.594  27.350  11.278  1.00  0.00     0.161 C 
HETATM   34  C23 UNL     1      25.251  26.291  10.231  1.00  0.00     0.212 C 
BRANCH  33  35
HETATM   35  O2  UNL     1      26.886  27.201  11.746  1.00  0.00    -0.392 OA
ATOM     36  H2  UNL     1      27.240  28.036  12.026  1.00  0.00     0.210 HD
ENDBRANCH  33  35
ENDBRANCH  24  25
ENDBRANCH  23  24
ENDBRANCH  22  23
BRANCH  22  37
HETATM   37  C24 UNL     1      19.066  29.286  13.911  1.00  0.00     0.145 A 
HETATM   38  C25 UNL     1      18.426  28.133  14.304  1.00  0.00     0.059 A 
HETATM   39  C26 UNL     1      17.415  27.938  13.398  1.00  0.00     0.036 A 
HETATM   40  C27 UNL     1      17.512  28.990  12.513  1.00  0.00     0.051 A 
HETATM   41  C28 UNL     1      16.643  29.254  11.329  1.00  0.00     0.077 C 
HETATM   42  O4  UNL     1      18.514  29.779  12.851  1.00  0.00    -0.299 OA
ENDBRANCH  22  37
ENDBRANCH   1  22
TORSDOF 16
ENDMDL
MODEL 4
REMARK VINA RESULT: -8.573725780      1.918      3.539
REMARK  16 active torsions:
REMARK  status: ('A' for Active; 'I' for Inactive)
REMARK    1  A    between atoms: C2_2  and  C3_3 
REMARK    2  A    between atoms: C3_3  and  C4_4 
REMARK    3  A    between atoms: C4_4  and  C5_5 
REMARK    4  A    between atoms: C5_5  and  C6_6 
REMARK    5  A    between atoms: C6_6  and  C7_7 
REMARK    6  A    between atoms: N2_12  and  C9_13 
REMARK    7  A    between atoms: C9_13  and  C10_14 
REMARK    8  A    between atoms: C11_17  and  C12_18 
REMARK    9  A    between atoms: C13_19  and  C14_20 
REMARK   10  A    between atoms: C14_20  and  C15_21 
REMARK   11  A    between atoms: C15_21  and  N4_22 
REMARK   12  A    between atoms: N4_22  and  C16_23 
REMARK   13  A    between atoms: N4_22  and  C24_37 
REMARK   14  A    between atoms: C16_23  and  C17_24 
REMARK   15  A    between atoms: C17_24  and  C18_25 
REMARK   16  A    between atoms: C22_32  and  O2_33 
ROOT
HETATM    1  C15 UNL     1      20.899  30.892  14.287  1.00  0.00     0.128 C 
ENDROOT
BRANCH   1   2
HETATM    2  C14 UNL     1      21.197  29.434  14.352  1.00  0.00     0.047 C 
BRANCH   2   3
HETATM    3  C13 UNL     1      21.975  28.812  13.284  1.00  0.00    -0.027 C 
HETATM    4  C12 UNL     1      21.411  28.251  12.077  1.00  0.00     0.000 C 
BRANCH   4   5
HETATM    5  C11 UNL     1      20.517  27.070  12.008  1.00  0.00     0.155 C 
HETATM    6  C7  UNL     1      21.139  26.168  10.907  1.00  0.00     0.015 C 
HETATM    7  N1  UNL     1      20.413  26.263   9.881  1.00  0.00    -0.338 N 
HETATM    8  C8  UNL     1      19.181  26.914  10.139  1.00  0.00     0.175 C 
ATOM      9  H1  UNL     1      20.684  25.910   8.963  1.00  0.00     0.168 HD
HETATM   10  S1  UNL     1      17.985  27.249   9.062  1.00  0.00    -0.041 SA
HETATM   11  N2  UNL     1      19.209  27.211  11.531  1.00  0.00    -0.337 N 
BRANCH   6  12
HETATM   12  C6  UNL     1      22.463  25.549  11.068  1.00  0.00     0.055 C 
BRANCH  12  13
HETATM   13  C5  UNL     1      23.314  25.757   9.855  1.00  0.00     0.006 C 
BRANCH  13  14
HETATM   14  C4  UNL     1      24.283  26.906  10.018  1.00  0.00     0.000 C 
BRANCH  14  15
HETATM   15  C3  UNL     1      25.675  26.467  10.334  1.00  0.00    -0.000 C 
BRANCH  15  16
HETATM   16  C2  UNL     1      26.320  27.245  11.432  1.00  0.00    -0.005 C 
HETATM   17  C1  UNL     1      25.374  27.673  12.515  1.00  0.00     0.005 C 
ENDBRANCH  15  16
ENDBRANCH  14  15
ENDBRANCH  13  14
ENDBRANCH  12  13
ENDBRANCH   6  12
BRANCH  11  18
HETATM   18  C9  UNL     1      17.984  27.519  12.263  1.00  0.00     0.226 C 
BRANCH  18  19
HETATM   19  C10 UNL     1      18.065  28.936  12.707  1.00  0.00     0.249 C 
HETATM   20  N3  UNL     1      18.389  29.917  11.723  1.00  0.00    -0.061 NA
HETATM   21  O1  UNL     1      17.852  29.204  13.910  1.00  0.00    -0.275 OA
ENDBRANCH  18  19
ENDBRANCH  11  18
ENDBRANCH   4   5
ENDBRANCH   2   3
ENDBRANCH   1   2
BRANCH   1  22
HETATM   22  N4  UNL     1      20.308  31.500  15.430  1.00  0.00    -0.361 N 
BRANCH  22  23
HETATM   23  C16 UNL     1      20.840  31.695  16.733  1.00  0.00     0.131 C 
BRANCH  23  24
HETATM   24  C17 UNL     1      22.117  32.536  16.665  1.00  0.00     0.078 C 
BRANCH  24  25
HETATM   25  C18 UNL     1      21.785  33.976  16.594  1.00  0.00     0.032 A 
HETATM   26  C19 UNL     1      21.462  34.710  15.452  1.00  0.00     0.117 A 
HETATM   27  N5  UNL     1      21.231  35.979  15.821  1.00  0.00    -0.330 N 
HETATM   28  C20 UNL     1      21.402  36.053  17.166  1.00  0.00     0.226 A 
ATOM     29  H5  UNL     1      20.973  36.749  15.203  1.00  0.00     0.168 HD
HETATM   30  N6  UNL     1      21.736  34.826  17.605  1.00  0.00    -0.313 N 
HETATM   31  O3  UNL     1      21.300  37.087  18.088  1.00  0.00    -0.319 OA
HETATM   32  C21 UNL     1      21.965  34.676  19.038  1.00  0.00     0.166 C 
HETATM   33  C22 UNL     1      20.885  35.454  19.790  1.00  0.00     0.161 C 
HETATM   34  C23 UNL     1      21.157  36.922  19.466  1.00  0.00     0.212 C 
BRANCH  33  35
HETATM   35  O2  UNL     1      20.967  35.212  21.149  1.00  0.00    -0.392 OA
ATOM     36  H2  UNL     1      21.213  34.309  21.315  1.00  0.00     0.210 HD
ENDBRANCH  33  35
ENDBRANCH  24  25
ENDBRANCH  23  24
ENDBRANCH  22  23
BRANCH  22  37
HETATM   37  C24 UNL     1      18.953  31.994  15.226  1.00  0.00     0.145 A 
HETATM   38  C25 UNL     1      18.494  32.769  14.187  1.00  0.00     0.059 A 
HETATM   39  C26 UNL     1      17.161  32.974  14.432  1.00  0.00     0.036 A 
HETATM   40  C27 UNL     1      16.900  32.307  15.610  1.00  0.00     0.051 A 
HETATM   41  C28 UNL     1      15.593  32.214  16.322  1.00  0.00     0.077 C 
HETATM   42  O4  UNL     1      17.999  31.730  16.058  1.00  0.00    -0.299 OA
ENDBRANCH  22  37
ENDBRANCH   1  22
TORSDOF 16
ENDMDL
MODEL 5
REMARK VINA RESULT: -8.465533473      2.571      5.048
REMARK  16 active torsions:
REMARK  status: ('A' for Active; 'I' for Inactive)
REMARK    1  A    between atoms: C2_2  and  C3_3 
REMARK    2  A    between atoms: C3_3  and  C4_4 
REMARK    3  A    between atoms: C4_4  and  C5_5 
REMARK    4  A    between atoms: C5_5  and  C6_6 
REMARK    5  A    between atoms: C6_6  and  C7_7 
REMARK    6  A    between atoms: N2_12  and  C9_13 
REMARK    7  A    between atoms: C9_13  and  C10_14 
REMARK    8  A    between atoms: C11_17  and  C12_18 
REMARK    9  A    between atoms: C13_19  and  C14_20 
REMARK   10  A    between atoms: C14_20  and  C15_21 
REMARK   11  A    between atoms: C15_21  and  N4_22 
REMARK   12  A    between atoms: N4_22  and  C16_23 
REMARK   13  A    between atoms: N4_22  and  C24_37 
REMARK   14  A    between atoms: C16_23  and  C17_24 
REMARK   15  A    between atoms: C17_24  and  C18_25 
REMARK   16  A    between atoms: C22_32  and  O2_33 
ROOT
HETATM    1  C15 UNL     1      20.590  30.725  15.469  1.00  0.00     0.128 C 
ENDROOT
BRANCH   1   2
HETATM    2  C14 UNL     1      21.285  30.140  14.288  1.00  0.00     0.047 C 
BRANCH   2   3
HETATM    3  C13 UNL     1      21.097  28.727  13.971  1.00  0.00    -0.027 C 
HETATM    4  C12 UNL     1      21.937  27.968  13.071  1.00  0.00     0.000 C 
BRANCH   4   5
HETATM    5  C11 UNL     1      22.068  28.198  11.612  1.00  0.00     0.155 C 
HETATM    6  C7  UNL     1      20.625  28.050  11.057  1.00  0.00     0.015 C 
HETATM    7  N1  UNL     1      20.557  26.941  10.461  1.00  0.00    -0.338 N 
HETATM    8  C8  UNL     1      21.828  26.345  10.266  1.00  0.00     0.175 C 
ATOM      9  H1  UNL     1      19.682  26.519  10.152  1.00  0.00     0.168 HD
HETATM   10  S1  UNL     1      22.153  24.899   9.556  1.00  0.00    -0.041 SA
HETATM   11  N2  UNL     1      22.757  27.273  10.819  1.00  0.00    -0.337 N 
BRANCH   6  12
HETATM   12  C6  UNL     1      19.553  28.986  11.425  1.00  0.00     0.055 C 
BRANCH  12  13
HETATM   13  C5  UNL     1      18.216  28.488  10.977  1.00  0.00     0.006 C 
BRANCH  13  14
HETATM   14  C4  UNL     1      17.081  29.054  11.800  1.00  0.00     0.000 C 
BRANCH  14  15
HETATM   15  C3  UNL     1      17.542  29.846  12.979  1.00  0.00    -0.000 C 
BRANCH  15  16
HETATM   16  C2  UNL     1      17.509  29.092  14.266  1.00  0.00    -0.005 C 
HETATM   17  C1  UNL     1      17.485  27.600  14.100  1.00  0.00     0.005 C 
ENDBRANCH  15  16
ENDBRANCH  14  15
ENDBRANCH  13  14
ENDBRANCH  12  13
ENDBRANCH   6  12
BRANCH  11  18
HETATM   18  C9  UNL     1      24.174  27.222  10.472  1.00  0.00     0.226 C 
BRANCH  18  19
HETATM   19  C10 UNL     1      24.913  26.718  11.660  1.00  0.00     0.249 C 
HETATM   20  N3  UNL     1      25.679  27.660  12.408  1.00  0.00    -0.061 NA
HETATM   21  O1  UNL     1      24.834  25.503  11.948  1.00  0.00    -0.275 OA
ENDBRANCH  18  19
ENDBRANCH  11  18
ENDBRANCH   4   5
ENDBRANCH   2   3
ENDBRANCH   1   2
BRANCH   1  22
HETATM   22  N4  UNL     1      20.376  32.131  15.483  1.00  0.00    -0.361 N 
BRANCH  22  23
HETATM   23  C16 UNL     1      21.311  33.192  15.626  1.00  0.00     0.131 C 
BRANCH  23  24
HETATM   24  C17 UNL     1      21.331  33.691  17.072  1.00  0.00     0.078 C 
BRANCH  24  25
HETATM   25  C18 UNL     1      20.847  35.087  17.145  1.00  0.00     0.032 A 
HETATM   26  C19 UNL     1      21.460  36.219  16.605  1.00  0.00     0.117 A 
HETATM   27  N5  UNL     1      20.698  37.285  16.895  1.00  0.00    -0.330 N 
HETATM   28  C20 UNL     1      19.627  36.844  17.603  1.00  0.00     0.226 A 
ATOM     29  H5  UNL     1      20.890  38.252  16.632  1.00  0.00     0.168 HD
HETATM   30  N6  UNL     1      19.745  35.511  17.738  1.00  0.00    -0.313 N 
HETATM   31  O3  UNL     1      18.524  37.476  18.164  1.00  0.00    -0.319 OA
HETATM   32  C21 UNL     1      18.687  34.824  18.470  1.00  0.00     0.166 C 
HETATM   33  C22 UNL     1      17.339  35.399  18.038  1.00  0.00     0.161 C 
HETATM   34  C23 UNL     1      17.343  36.841  18.545  1.00  0.00     0.212 C 
BRANCH  33  35
HETATM   35  O2  UNL     1      16.299  34.672  18.587  1.00  0.00    -0.392 OA
ATOM     36  H2  UNL     1      15.483  35.156  18.528  1.00  0.00     0.210 HD
ENDBRANCH  33  35
ENDBRANCH  24  25
ENDBRANCH  23  24
ENDBRANCH  22  23
BRANCH  22  37
HETATM   37  C24 UNL     1      18.986  32.538  15.328  1.00  0.00     0.145 A 
HETATM   38  C25 UNL     1      18.486  33.495  14.476  1.00  0.00     0.059 A 
HETATM   39  C26 UNL     1      17.132  33.518  14.690  1.00  0.00     0.036 A 
HETATM   40  C27 UNL     1      16.901  32.569  15.663  1.00  0.00     0.051 A 
HETATM   41  C28 UNL     1      15.588  32.194  16.261  1.00  0.00     0.077 C 
HETATM   42  O4  UNL     1      18.037  32.001  16.022  1.00  0.00    -0.299 OA
ENDBRANCH  22  37
ENDBRANCH   1  22
TORSDOF 16
ENDMDL
