MODEL 1
REMARK VINA RESULT: -8.002048394      0.000      0.000
REMARK  17 active torsions:
REMARK  status: ('A' for Active; 'I' for Inactive)
REMARK    1  A    between atoms: C2_2  and  C3_3 
REMARK    2  A    between atoms: C3_3  and  N1_4 
REMARK       I    between atoms: N1_4  and  C4_5 
REMARK    3  A    between atoms: N1_4  and  C10_15 
REMARK    4  A    between atoms: C4_5  and  O2_7 
REMARK    5  A    between atoms: O2_7  and  C5_8 
REMARK    6  A    between atoms: C5_8  and  C6_9 
REMARK    7  A    between atoms: C8_11  and  C9_12 
REMARK    8  A    between atoms: C9_12  and  O3_13 
REMARK    9  A    between atoms: C13_18  and  C14_19 
REMARK       I    between atoms: C14_19  and  N2_21 
REMARK   10  A    between atoms: N2_21  and  C15_22 
REMARK   11  A    between atoms: N2_21  and  C17_24 
REMARK   12  A    between atoms: C17_24  and  C18_25 
REMARK   13  A    between atoms: C18_25  and  C19_26 
REMARK   14  A    between atoms: C19_26  and  C20_27 
REMARK   15  A    between atoms: C20_27  and  C21_28 
REMARK   16  A    between atoms: C21_28  and  C22_29 
REMARK   17  A    between atoms: C22_29  and  N3_30 
ROOT
HETATM    1  C10 UNL     1      20.878  30.062  14.867  1.00  0.00     0.115 C 
HETATM    2  C11 UNL     1      20.995  31.447  14.343  1.00  0.00     0.029 C 
HETATM    3  C12 UNL     1      20.085  32.491  14.835  1.00  0.00     0.045 C 
HETATM    4  C13 UNL     1      19.508  32.356  16.190  1.00  0.00     0.277 C 
HETATM    5  N4  UNL     1      20.170  31.215  16.857  1.00  0.00    -0.060 N 
ATOM      6  H41 UNL     1      19.882  31.105  17.829  1.00  0.00     0.278 HD
ATOM      7  H42 UNL     1      21.163  31.378  17.026  1.00  0.00     0.278 HD
HETATM    8  C31 UNL     1      19.921  30.012  16.050  1.00  0.00     0.258 C 
ENDROOT
BRANCH   4   9
HETATM    9  C14 UNL     1      19.669  33.572  17.040  1.00  0.00     0.251 C 
HETATM   10  O4  UNL     1      18.622  33.912  17.637  1.00  0.00    -0.271 OA
HETATM   11  N2  UNL     1      20.830  34.335  17.218  1.00  0.00    -0.341 N 
BRANCH  11  12
HETATM   12  C15 UNL     1      22.048  33.940  16.539  1.00  0.00     0.122 C 
HETATM   13  C16 UNL     1      22.898  32.943  17.248  1.00  0.00     0.026 C 
ENDBRANCH  11  12
BRANCH  11  14
HETATM   14  C17 UNL     1      20.772  35.541  18.072  1.00  0.00     0.035 C 
HETATM   15  C27 UNL     1      20.465  35.162  19.472  1.00  0.00     0.031 C 
HETATM   16  C28 UNL     1      21.541  35.681  20.395  1.00  0.00     0.002 C 
HETATM   17  C29 UNL     1      22.542  36.334  19.517  1.00  0.00     0.002 C 
HETATM   18  C30 UNL     1      22.203  36.103  18.089  1.00  0.00     0.031 C 
BRANCH  14  19
HETATM   19  C18 UNL     1      19.942  36.564  17.408  1.00  0.00     0.031 C 
BRANCH  19  20
HETATM   20  C19 UNL     1      19.517  37.805  18.032  1.00  0.00     0.002 C 
BRANCH  20  21
HETATM   21  C20 UNL     1      18.103  38.021  18.419  1.00  0.00     0.002 C 
BRANCH  21  22
HETATM   22  C21 UNL     1      17.137  37.474  17.347  1.00  0.00     0.019 C 
BRANCH  22  23
HETATM   23  C22 UNL     1      16.237  36.502  18.109  1.00  0.00     0.117 C 
BRANCH  23  24
HETATM   24  N3  UNL     1      15.522  35.743  17.129  1.00  0.00    -0.408 N 
HETATM   25  C23 UNL     1      16.213  35.686  15.889  1.00  0.00     0.143 C 
HETATM   26  C24 UNL     1      16.390  34.330  15.293  1.00  0.00     0.187 C 
HETATM   27  O5  UNL     1      15.410  33.420  15.612  1.00  0.00    -0.388 OA
HETATM   28  C25 UNL     1      15.454  33.275  17.018  1.00  0.00     0.187 C 
HETATM   29  C26 UNL     1      14.918  34.543  17.593  1.00  0.00     0.143 C 
ENDBRANCH  23  24
ENDBRANCH  22  23
ENDBRANCH  21  22
ENDBRANCH  20  21
ENDBRANCH  19  20
ENDBRANCH  14  19
ENDBRANCH  11  14
ENDBRANCH   4   9
BRANCH   1  30
HETATM   30  N1  UNL     1      20.701  29.025  13.894  1.00  0.00    -0.322 N 
HETATM   31  C4  UNL     1      21.874  28.423  13.360  1.00  0.00     0.363 C 
HETATM   32  O1  UNL     1      23.037  28.749  13.748  1.00  0.00    -0.238 OA
BRANCH  30  33
HETATM   33  C3  UNL     1      19.414  28.595  13.407  1.00  0.00     0.128 C 
BRANCH  33  34
HETATM   34  C2  UNL     1      18.839  29.489  12.368  1.00  0.00     0.015 C 
HETATM   35  C1  UNL     1      17.645  30.282  12.924  1.00  0.00     0.006 C 
ENDBRANCH  33  34
ENDBRANCH  30  33
BRANCH  31  36
HETATM   36  O2  UNL     1      21.791  27.446  12.384  1.00  0.00    -0.304 OA
BRANCH  36  37
HETATM   37  C5  UNL     1      22.689  27.476  11.304  1.00  0.00     0.185 C 
BRANCH  37  38
HETATM   38  C6  UNL     1      23.614  26.341  11.154  1.00  0.00     0.016 A 
HETATM   39  C7  UNL     1      24.512  26.258   9.931  1.00  0.00     0.014 A 
HETATM   40  C8  UNL     1      25.045  26.275  11.367  1.00  0.00     0.016 A 
BRANCH  40  41
HETATM   41  C9  UNL     1      25.911  27.423  11.732  1.00  0.00     0.169 C 
BRANCH  41  42
HETATM   42  O3  UNL     1      25.703  27.850  13.057  1.00  0.00    -0.400 OA
ATOM     43  H3  UNL     1      26.488  28.217  13.446  1.00  0.00     0.209 HD
ENDBRANCH  41  42
ENDBRANCH  40  41
ENDBRANCH  37  38
ENDBRANCH  36  37
ENDBRANCH  31  36
ENDBRANCH   1  30
TORSDOF 17
ENDMDL
MODEL 2
REMARK VINA RESULT: -7.927787526      1.828      4.400
REMARK  17 active torsions:
REMARK  status: ('A' for Active; 'I' for Inactive)
REMARK    1  A    between atoms: C2_2  and  C3_3 
REMARK    2  A    between atoms: C3_3  and  N1_4 
REMARK       I    between atoms: N1_4  and  C4_5 
REMARK    3  A    between atoms: N1_4  and  C10_15 
REMARK    4  A    between atoms: C4_5  and  O2_7 
REMARK    5  A    between atoms: O2_7  and  C5_8 
REMARK    6  A    between atoms: C5_8  and  C6_9 
REMARK    7  A    between atoms: C8_11  and  C9_12 
REMARK    8  A    between atoms: C9_12  and  O3_13 
REMARK    9  A    between atoms: C13_18  and  C14_19 
REMARK       I    between atoms: C14_19  and  N2_21 
REMARK   10  A    between atoms: N2_21  and  C15_22 
REMARK   11  A    between atoms: N2_21  and  C17_24 
REMARK   12  A    between atoms: C17_24  and  C18_25 
REMARK   13  A    between atoms: C18_25  and  C19_26 
REMARK   14  A    between atoms: C19_26  and  C20_27 
REMARK   15  A    between atoms: C20_27  and  C21_28 
REMARK   16  A    between atoms: C21_28  and  C22_29 
REMARK   17  A    between atoms: C22_29  and  N3_30 
ROOT
HETATM    1  C10 UNL     1      19.718  29.318  13.220  1.00  0.00     0.115 C 
HETATM    2  C11 UNL     1      19.723  30.664  12.593  1.00  0.00     0.029 C 
HETATM    3  C12 UNL     1      18.671  31.631  12.935  1.00  0.00     0.045 C 
HETATM    4  C13 UNL     1      18.010  31.533  14.254  1.00  0.00     0.277 C 
HETATM    5  N4  UNL     1      18.740  30.528  15.056  1.00  0.00    -0.060 N 
ATOM      6  H41 UNL     1      18.392  30.459  16.012  1.00  0.00     0.278 HD
ATOM      7  H42 UNL     1      19.693  30.816  15.277  1.00  0.00     0.278 HD
HETATM    8  C31 UNL     1      18.685  29.248  14.337  1.00  0.00     0.258 C 
ENDROOT
BRANCH   4   9
HETATM    9  C14 UNL     1      17.973  32.819  15.010  1.00  0.00     0.251 C 
HETATM   10  O4  UNL     1      18.783  33.676  14.588  1.00  0.00    -0.271 OA
HETATM   11  N2  UNL     1      17.157  33.137  16.103  1.00  0.00    -0.341 N 
BRANCH  11  12
HETATM   12  C15 UNL     1      16.209  32.155  16.590  1.00  0.00     0.122 C 
HETATM   13  C16 UNL     1      14.885  32.132  15.910  1.00  0.00     0.026 C 
ENDBRANCH  11  12
BRANCH  11  14
HETATM   14  C17 UNL     1      17.307  34.460  16.748  1.00  0.00     0.035 C 
HETATM   15  C27 UNL     1      16.506  35.477  16.023  1.00  0.00     0.031 C 
HETATM   16  C28 UNL     1      15.541  36.145  16.972  1.00  0.00     0.002 C 
HETATM   17  C29 UNL     1      15.729  35.471  18.279  1.00  0.00     0.002 C 
HETATM   18  C30 UNL     1      16.656  34.318  18.135  1.00  0.00     0.031 C 
BRANCH  14  19
HETATM   19  C18 UNL     1      18.737  34.717  16.996  1.00  0.00     0.031 C 
BRANCH  19  20
HETATM   20  C19 UNL     1      19.267  35.276  18.228  1.00  0.00     0.002 C 
BRANCH  20  21
HETATM   21  C20 UNL     1      20.508  36.085  18.229  1.00  0.00     0.002 C 
BRANCH  21  22
HETATM   22  C21 UNL     1      21.762  35.191  18.329  1.00  0.00     0.019 C 
BRANCH  22  23
HETATM   23  C22 UNL     1      22.382  35.251  16.933  1.00  0.00     0.117 C 
BRANCH  23  24
HETATM   24  N3  UNL     1      22.705  33.907  16.564  1.00  0.00    -0.408 N 
HETATM   25  C23 UNL     1      21.978  32.954  17.327  1.00  0.00     0.143 C 
HETATM   26  C24 UNL     1      21.272  31.891  16.557  1.00  0.00     0.187 C 
HETATM   27  O5  UNL     1      21.851  31.557  15.355  1.00  0.00    -0.388 OA
HETATM   28  C25 UNL     1      21.830  32.734  14.572  1.00  0.00     0.187 C 
HETATM   29  C26 UNL     1      22.836  33.661  15.170  1.00  0.00     0.143 C 
ENDBRANCH  23  24
ENDBRANCH  22  23
ENDBRANCH  21  22
ENDBRANCH  20  21
ENDBRANCH  19  20
ENDBRANCH  14  19
ENDBRANCH  11  14
ENDBRANCH   4   9
BRANCH   1  30
HETATM   30  N1  UNL     1      19.729  28.198  12.327  1.00  0.00    -0.322 N 
HETATM   31  C4  UNL     1      20.998  27.707  11.910  1.00  0.00     0.363 C 
HETATM   32  O1  UNL     1      22.086  28.201  12.336  1.00  0.00    -0.238 OA
BRANCH  30  33
HETATM   33  C3  UNL     1      18.537  27.578  11.805  1.00  0.00     0.128 C 
BRANCH  33  34
HETATM   34  C2  UNL     1      17.963  28.282  10.628  1.00  0.00     0.015 C 
HETATM   35  C1  UNL     1      16.693  29.055  11.015  1.00  0.00     0.006 C 
ENDBRANCH  33  34
ENDBRANCH  30  33
BRANCH  31  36
HETATM   36  O2  UNL     1      21.095  26.657  11.014  1.00  0.00    -0.304 OA
BRANCH  36  37
HETATM   37  C5  UNL     1      21.803  25.502  11.383  1.00  0.00     0.185 C 
BRANCH  37  38
HETATM   38  C6  UNL     1      22.761  24.949  10.412  1.00  0.00     0.016 A 
HETATM   39  C7  UNL     1      23.168  25.772   9.201  1.00  0.00     0.014 A 
HETATM   40  C8  UNL     1      24.169  25.236  10.230  1.00  0.00     0.016 A 
BRANCH  40  41
HETATM   41  C9  UNL     1      24.942  26.252  10.986  1.00  0.00     0.169 C 
BRANCH  41  42
HETATM   42  O3  UNL     1      25.121  25.893  12.335  1.00  0.00    -0.400 OA
ATOM     43  H3  UNL     1      25.056  26.640  12.919  1.00  0.00     0.209 HD
ENDBRANCH  41  42
ENDBRANCH  40  41
ENDBRANCH  37  38
ENDBRANCH  36  37
ENDBRANCH  31  36
ENDBRANCH   1  30
TORSDOF 17
ENDMDL
MODEL 3
REMARK VINA RESULT: -7.920297482      1.486      4.083
REMARK  17 active torsions:
REMARK  status: ('A' for Active; 'I' for Inactive)
REMARK    1  A    between atoms: C2_2  and  C3_3 
REMARK    2  A    between atoms: C3_3  and  N1_4 
REMARK       I    between atoms: N1_4  and  C4_5 
REMARK    3  A    between atoms: N1_4  and  C10_15 
REMARK    4  A    between atoms: C4_5  and  O2_7 
REMARK    5  A    between atoms: O2_7  and  C5_8 
REMARK    6  A    between atoms: C5_8  and  C6_9 
REMARK    7  A    between atoms: C8_11  and  C9_12 
REMARK    8  A    between atoms: C9_12  and  O3_13 
REMARK    9  A    between atoms: C13_18  and  C14_19 
REMARK       I    between atoms: C14_19  and  N2_21 
REMARK   10  A    between atoms: N2_21  and  C15_22 
REMARK   11  A    between atoms: N2_21  and  C17_24 
REMARK   12  A    between atoms: C17_24  and  C18_25 
REMARK   13  A    between atoms: C18_25  and  C19_26 
REMARK   14  A    between atoms: C19_26  and  C20_27 
REMARK   15  A    between atoms: C20_27  and  C21_28 
REMARK   16  A    between atoms: C21_28  and  C22_29 
REMARK   17  A    between atoms: C22_29  and  N3_30 
ROOT
HETATM    1  C10 UNL     1      20.271  30.220  13.565  1.00  0.00     0.115 C 
HETATM    2  C11 UNL     1      19.824  31.520  13.001  1.00  0.00     0.029 C 
HETATM    3  C12 UNL     1      18.652  32.198  13.574  1.00  0.00     0.045 C 
HETATM    4  C13 UNL     1      18.303  31.949  14.989  1.00  0.00     0.277 C 
HETATM    5  N4  UNL     1      19.398  31.164  15.598  1.00  0.00    -0.060 N 
ATOM      6  H41 UNL     1      19.269  31.019  16.600  1.00  0.00     0.278 HD
ATOM      7  H42 UNL     1      20.276  31.682  15.647  1.00  0.00     0.278 HD
HETATM    8  C31 UNL     1      19.522  29.905  14.853  1.00  0.00     0.258 C 
ENDROOT
BRANCH   4   9
HETATM    9  C14 UNL     1      18.098  33.192  15.789  1.00  0.00     0.251 C 
HETATM   10  O4  UNL     1      18.996  34.050  15.628  1.00  0.00    -0.271 OA
HETATM   11  N2  UNL     1      17.043  33.471  16.668  1.00  0.00    -0.341 N 
BRANCH  11  12
HETATM   12  C15 UNL     1      15.994  32.488  16.850  1.00  0.00     0.122 C 
HETATM   13  C16 UNL     1      14.966  32.422  15.775  1.00  0.00     0.026 C 
ENDBRANCH  11  12
BRANCH  11  14
HETATM   14  C17 UNL     1      17.046  34.752  17.408  1.00  0.00     0.035 C 
HETATM   15  C27 UNL     1      16.622  35.859  16.517  1.00  0.00     0.031 C 
HETATM   16  C28 UNL     1      15.433  36.573  17.111  1.00  0.00     0.002 C 
HETATM   17  C29 UNL     1      15.104  35.838  18.357  1.00  0.00     0.002 C 
HETATM   18  C30 UNL     1      15.941  34.615  18.470  1.00  0.00     0.031 C 
BRANCH  14  19
HETATM   19  C18 UNL     1      18.312  34.876  18.153  1.00  0.00     0.031 C 
BRANCH  19  20
HETATM   20  C19 UNL     1      18.880  36.137  18.596  1.00  0.00     0.002 C 
BRANCH  20  21
HETATM   21  C20 UNL     1      19.971  36.793  17.837  1.00  0.00     0.002 C 
BRANCH  21  22
HETATM   22  C21 UNL     1      21.337  36.586  18.523  1.00  0.00     0.019 C 
BRANCH  22  23
HETATM   23  C22 UNL     1      22.240  36.047  17.413  1.00  0.00     0.117 C 
BRANCH  23  24
HETATM   24  N3  UNL     1      21.644  34.834  16.944  1.00  0.00    -0.408 N 
HETATM   25  C23 UNL     1      21.845  34.646  15.550  1.00  0.00     0.143 C 
HETATM   26  C24 UNL     1      22.381  33.318  15.134  1.00  0.00     0.187 C 
HETATM   27  O5  UNL     1      22.052  32.270  15.960  1.00  0.00    -0.388 OA
HETATM   28  C25 UNL     1      22.612  32.577  17.222  1.00  0.00     0.187 C 
HETATM   29  C26 UNL     1      21.803  33.699  17.784  1.00  0.00     0.143 C 
ENDBRANCH  23  24
ENDBRANCH  22  23
ENDBRANCH  21  22
ENDBRANCH  20  21
ENDBRANCH  19  20
ENDBRANCH  14  19
ENDBRANCH  11  14
ENDBRANCH   4   9
BRANCH   1  30
HETATM   30  N1  UNL     1      20.385  29.130  12.641  1.00  0.00    -0.322 N 
HETATM   31  C4  UNL     1      21.560  28.331  12.716  1.00  0.00     0.363 C 
HETATM   32  O1  UNL     1      22.461  28.535  13.586  1.00  0.00    -0.238 OA
BRANCH  30  33
HETATM   33  C3  UNL     1      19.402  28.832  11.630  1.00  0.00     0.128 C 
BRANCH  33  34
HETATM   34  C2  UNL     1      18.107  28.352  12.178  1.00  0.00     0.015 C 
HETATM   35  C1  UNL     1      16.952  29.268  11.744  1.00  0.00     0.006 C 
ENDBRANCH  33  34
ENDBRANCH  30  33
BRANCH  31  36
HETATM   36  O2  UNL     1      21.767  27.288  11.831  1.00  0.00    -0.304 OA
BRANCH  36  37
HETATM   37  C5  UNL     1      22.815  27.375  10.900  1.00  0.00     0.185 C 
BRANCH  37  38
HETATM   38  C6  UNL     1      23.825  26.305  10.907  1.00  0.00     0.016 A 
HETATM   39  C7  UNL     1      24.907  26.283   9.840  1.00  0.00     0.014 A 
HETATM   40  C8  UNL     1      25.206  26.335  11.341  1.00  0.00     0.016 A 
BRANCH  40  41
HETATM   41  C9  UNL     1      25.927  27.537  11.827  1.00  0.00     0.169 C 
BRANCH  41  42
HETATM   42  O3  UNL     1      25.562  27.886  13.141  1.00  0.00    -0.400 OA
ATOM     43  H3  UNL     1      25.563  27.138  13.727  1.00  0.00     0.209 HD
ENDBRANCH  41  42
ENDBRANCH  40  41
ENDBRANCH  37  38
ENDBRANCH  36  37
ENDBRANCH  31  36
ENDBRANCH   1  30
TORSDOF 17
ENDMDL
MODEL 4
REMARK VINA RESULT: -7.812424620      1.979      4.079
REMARK  17 active torsions:
REMARK  status: ('A' for Active; 'I' for Inactive)
REMARK    1  A    between atoms: C2_2  and  C3_3 
REMARK    2  A    between atoms: C3_3  and  N1_4 
REMARK       I    between atoms: N1_4  and  C4_5 
REMARK    3  A    between atoms: N1_4  and  C10_15 
REMARK    4  A    between atoms: C4_5  and  O2_7 
REMARK    5  A    between atoms: O2_7  and  C5_8 
REMARK    6  A    between atoms: C5_8  and  C6_9 
REMARK    7  A    between atoms: C8_11  and  C9_12 
REMARK    8  A    between atoms: C9_12  and  O3_13 
REMARK    9  A    between atoms: C13_18  and  C14_19 
REMARK       I    between atoms: C14_19  and  N2_21 
REMARK   10  A    between atoms: N2_21  and  C15_22 
REMARK   11  A    between atoms: N2_21  and  C17_24 
REMARK   12  A    between atoms: C17_24  and  C18_25 
REMARK   13  A    between atoms: C18_25  and  C19_26 
REMARK   14  A    between atoms: C19_26  and  C20_27 
REMARK   15  A    between atoms: C20_27  and  C21_28 
REMARK   16  A    between atoms: C21_28  and  C22_29 
REMARK   17  A    between atoms: C22_29  and  N3_30 
ROOT
HETATM    1  C10 UNL     1      20.491  30.374  13.682  1.00  0.00     0.115 C 
HETATM    2  C11 UNL     1      19.936  31.658  13.185  1.00  0.00     0.029 C 
HETATM    3  C12 UNL     1      18.834  32.305  13.911  1.00  0.00     0.045 C 
HETATM    4  C13 UNL     1      18.686  32.052  15.361  1.00  0.00     0.277 C 
HETATM    5  N4  UNL     1      19.875  31.300  15.816  1.00  0.00    -0.060 N 
ATOM      6  H41 UNL     1      19.887  31.155  16.825  1.00  0.00     0.278 HD
ATOM      7  H42 UNL     1      20.736  31.843  15.745  1.00  0.00     0.278 HD
HETATM    8  C31 UNL     1      19.932  30.042  15.059  1.00  0.00     0.258 C 
ENDROOT
BRANCH   4   9
HETATM    9  C14 UNL     1      18.556  33.292  16.181  1.00  0.00     0.251 C 
HETATM   10  O4  UNL     1      19.604  33.975  16.232  1.00  0.00    -0.271 OA
HETATM   11  N2  UNL     1      17.421  33.736  16.873  1.00  0.00    -0.341 N 
BRANCH  11  12
HETATM   12  C15 UNL     1      16.202  32.956  16.808  1.00  0.00     0.122 C 
HETATM   13  C16 UNL     1      15.365  33.152  15.592  1.00  0.00     0.026 C 
ENDBRANCH  11  12
BRANCH  11  14
HETATM   14  C17 UNL     1      17.510  34.977  17.674  1.00  0.00     0.035 C 
HETATM   15  C27 UNL     1      17.517  36.162  16.783  1.00  0.00     0.031 C 
HETATM   16  C28 UNL     1      16.388  37.092  17.155  1.00  0.00     0.002 C 
HETATM   17  C29 UNL     1      15.656  36.418  18.254  1.00  0.00     0.002 C 
HETATM   18  C30 UNL     1      16.195  35.049  18.467  1.00  0.00     0.031 C 
BRANCH  14  19
HETATM   19  C18 UNL     1      18.581  34.828  18.677  1.00  0.00     0.031 C 
BRANCH  19  20
HETATM   20  C19 UNL     1      19.509  35.883  19.045  1.00  0.00     0.002 C 
BRANCH  20  21
HETATM   21  C20 UNL     1      20.969  35.634  19.093  1.00  0.00     0.002 C 
BRANCH  21  22
HETATM   22  C21 UNL     1      21.763  36.844  18.556  1.00  0.00     0.019 C 
BRANCH  22  23
HETATM   23  C22 UNL     1      21.083  37.185  17.230  1.00  0.00     0.117 C 
BRANCH  23  24
HETATM   24  N3  UNL     1      20.986  38.611  17.168  1.00  0.00    -0.408 N 
HETATM   25  C23 UNL     1      21.613  39.138  16.007  1.00  0.00     0.143 C 
HETATM   26  C24 UNL     1      20.804  40.089  15.193  1.00  0.00     0.187 C 
HETATM   27  O5  UNL     1      19.871  40.814  15.896  1.00  0.00    -0.388 OA
HETATM   28  C25 UNL     1      18.980  39.867  16.454  1.00  0.00     0.187 C 
HETATM   29  C26 UNL     1      19.730  39.164  17.537  1.00  0.00     0.143 C 
ENDBRANCH  23  24
ENDBRANCH  22  23
ENDBRANCH  21  22
ENDBRANCH  20  21
ENDBRANCH  19  20
ENDBRANCH  14  19
ENDBRANCH  11  14
ENDBRANCH   4   9
BRANCH   1  30
HETATM   30  N1  UNL     1      20.509  29.284  12.751  1.00  0.00    -0.322 N 
HETATM   31  C4  UNL     1      21.647  28.430  12.768  1.00  0.00     0.363 C 
HETATM   32  O1  UNL     1      22.597  28.587  13.595  1.00  0.00    -0.238 OA
BRANCH  30  33
HETATM   33  C3  UNL     1      19.467  29.037  11.787  1.00  0.00     0.128 C 
BRANCH  33  34
HETATM   34  C2  UNL     1      18.194  28.565  12.390  1.00  0.00     0.015 C 
HETATM   35  C1  UNL     1      16.996  29.346  11.828  1.00  0.00     0.006 C 
ENDBRANCH  33  34
ENDBRANCH  30  33
BRANCH  31  36
HETATM   36  O2  UNL     1      21.764  27.382  11.872  1.00  0.00    -0.304 OA
BRANCH  36  37
HETATM   37  C5  UNL     1      22.783  27.414  10.906  1.00  0.00     0.185 C 
BRANCH  37  38
HETATM   38  C6  UNL     1      23.770  26.323  10.919  1.00  0.00     0.016 A 
HETATM   39  C7  UNL     1      24.844  26.265   9.846  1.00  0.00     0.014 A 
HETATM   40  C8  UNL     1      25.154  26.329  11.344  1.00  0.00     0.016 A 
BRANCH  40  41
HETATM   41  C9  UNL     1      25.904  27.521  11.809  1.00  0.00     0.169 C 
BRANCH  41  42
HETATM   42  O3  UNL     1      25.583  27.872  13.134  1.00  0.00    -0.400 OA
ATOM     43  H3  UNL     1      26.316  27.750  13.728  1.00  0.00     0.209 HD
ENDBRANCH  41  42
ENDBRANCH  40  41
ENDBRANCH  37  38
ENDBRANCH  36  37
ENDBRANCH  31  36
ENDBRANCH   1  30
TORSDOF 17
ENDMDL
MODEL 5
REMARK VINA RESULT: -7.786320485      1.982      4.000
REMARK  17 active torsions:
REMARK  status: ('A' for Active; 'I' for Inactive)
REMARK    1  A    between atoms: C2_2  and  C3_3 
REMARK    2  A    between atoms: C3_3  and  N1_4 
REMARK       I    between atoms: N1_4  and  C4_5 
REMARK    3  A    between atoms: N1_4  and  C10_15 
REMARK    4  A    between atoms: C4_5  and  O2_7 
REMARK    5  A    between atoms: O2_7  and  C5_8 
REMARK    6  A    between atoms: C5_8  and  C6_9 
REMARK    7  A    between atoms: C8_11  and  C9_12 
REMARK    8  A    between atoms: C9_12  and  O3_13 
REMARK    9  A    between atoms: C13_18  and  C14_19 
REMARK       I    between atoms: C14_19  and  N2_21 
REMARK   10  A    between atoms: N2_21  and  C15_22 
REMARK   11  A    between atoms: N2_21  and  C17_24 
REMARK   12  A    between atoms: C17_24  and  C18_25 
REMARK   13  A    between atoms: C18_25  and  C19_26 
REMARK   14  A    between atoms: C19_26  and  C20_27 
REMARK   15  A    between atoms: C20_27  and  C21_28 
REMARK   16  A    between atoms: C21_28  and  C22_29 
REMARK   17  A    between atoms: C22_29  and  N3_30 
ROOT
HETATM    1  C10 UNL     1      20.541  30.189  13.389  1.00  0.00     0.115 C 
HETATM    2  C11 UNL     1      19.967  31.431  12.812  1.00  0.00     0.029 C 
HETATM    3  C12 UNL     1      18.866  32.115  13.504  1.00  0.00     0.045 C 
HETATM    4  C13 UNL     1      18.737  31.961  14.969  1.00  0.00     0.277 C 
HETATM    5  N4  UNL     1      19.938  31.254  15.461  1.00  0.00    -0.060 N 
ATOM      6  H41 UNL     1      19.962  31.178  16.478  1.00  0.00     0.278 HD
ATOM      7  H42 UNL     1      20.793  31.799  15.344  1.00  0.00     0.278 HD
HETATM    8  C31 UNL     1      20.001  29.947  14.792  1.00  0.00     0.258 C 
ENDROOT
BRANCH   4   9
HETATM    9  C14 UNL     1      18.602  33.252  15.704  1.00  0.00     0.251 C 
HETATM   10  O4  UNL     1      19.559  34.038  15.522  1.00  0.00    -0.271 OA
HETATM   11  N2  UNL     1      17.553  33.644  16.546  1.00  0.00    -0.341 N 
BRANCH  11  12
HETATM   12  C15 UNL     1      16.436  32.743  16.752  1.00  0.00     0.122 C 
HETATM   13  C16 UNL     1      15.372  32.773  15.711  1.00  0.00     0.026 C 
ENDBRANCH  11  12
BRANCH  11  14
HETATM   14  C17 UNL     1      17.629  34.956  17.224  1.00  0.00     0.035 C 
HETATM   15  C27 UNL     1      16.957  35.995  16.407  1.00  0.00     0.031 C 
HETATM   16  C28 UNL     1      15.877  36.669  17.217  1.00  0.00     0.002 C 
HETATM   17  C29 UNL     1      15.865  35.977  18.528  1.00  0.00     0.002 C 
HETATM   18  C30 UNL     1      16.785  34.809  18.501  1.00  0.00     0.031 C 
BRANCH  14  19
HETATM   19  C18 UNL     1      19.014  35.185  17.677  1.00  0.00     0.031 C 
BRANCH  19  20
HETATM   20  C19 UNL     1      19.417  35.259  19.071  1.00  0.00     0.002 C 
BRANCH  20  21
HETATM   21  C20 UNL     1      20.467  36.206  19.514  1.00  0.00     0.002 C 
BRANCH  21  22
HETATM   22  C21 UNL     1      21.195  36.840  18.311  1.00  0.00     0.019 C 
BRANCH  22  23
HETATM   23  C22 UNL     1      20.848  38.326  18.398  1.00  0.00     0.117 C 
BRANCH  23  24
HETATM   24  N3  UNL     1      19.971  38.613  17.304  1.00  0.00    -0.408 N 
HETATM   25  C23 UNL     1      18.678  39.003  17.744  1.00  0.00     0.143 C 
HETATM   26  C24 UNL     1      18.129  40.258  17.155  1.00  0.00     0.187 C 
HETATM   27  O5  UNL     1      18.575  40.551  15.888  1.00  0.00    -0.388 OA
HETATM   28  C25 UNL     1      19.976  40.709  15.993  1.00  0.00     0.187 C 
HETATM   29  C26 UNL     1      20.541  39.347  16.228  1.00  0.00     0.143 C 
ENDBRANCH  23  24
ENDBRANCH  22  23
ENDBRANCH  21  22
ENDBRANCH  20  21
ENDBRANCH  19  20
ENDBRANCH  14  19
ENDBRANCH  11  14
ENDBRANCH   4   9
BRANCH   1  30
HETATM   30  N1  UNL     1      20.561  29.038  12.536  1.00  0.00    -0.322 N 
HETATM   31  C4  UNL     1      21.715  28.207  12.587  1.00  0.00     0.363 C 
HETATM   32  O1  UNL     1      22.678  28.436  13.381  1.00  0.00    -0.238 OA
BRANCH  30  33
HETATM   33  C3  UNL     1      19.506  28.708  11.612  1.00  0.00     0.128 C 
BRANCH  33  34
HETATM   34  C2  UNL     1      18.247  28.273  12.273  1.00  0.00     0.015 C 
HETATM   35  C1  UNL     1      17.068  29.164  11.852  1.00  0.00     0.006 C 
ENDBRANCH  33  34
ENDBRANCH  30  33
BRANCH  31  36
HETATM   36  O2  UNL     1      21.833  27.102  11.763  1.00  0.00    -0.304 OA
BRANCH  36  37
HETATM   37  C5  UNL     1      22.832  27.085  10.776  1.00  0.00     0.185 C 
BRANCH  37  38
HETATM   38  C6  UNL     1      23.927  26.115  10.931  1.00  0.00     0.016 A 
HETATM   39  C7  UNL     1      25.063  26.091   9.921  1.00  0.00     0.014 A 
HETATM   40  C8  UNL     1      25.276  26.307  11.422  1.00  0.00     0.016 A 
BRANCH  40  41
HETATM   41  C9  UNL     1      25.866  27.609  11.821  1.00  0.00     0.169 C 
BRANCH  41  42
HETATM   42  O3  UNL     1      25.671  27.888  13.187  1.00  0.00    -0.400 OA
ATOM     43  H3  UNL     1      26.312  27.456  13.739  1.00  0.00     0.209 HD
ENDBRANCH  41  42
ENDBRANCH  40  41
ENDBRANCH  37  38
ENDBRANCH  36  37
ENDBRANCH  31  36
ENDBRANCH   1  30
TORSDOF 17
ENDMDL
