MODEL 1
REMARK VINA RESULT: -7.986120388      0.000      0.000
REMARK  15 active torsions:
REMARK  status: ('A' for Active; 'I' for Inactive)
REMARK    1  A    between atoms: C2_2  and  C3_3 
REMARK    2  A    between atoms: C3_3  and  C4_4 
REMARK    3  A    between atoms: C4_4  and  C5_5 
REMARK    4  A    between atoms: C6_6  and  O1_7 
REMARK    5  A    between atoms: O1_7  and  C7_8 
REMARK    6  A    between atoms: C7_8  and  C8_9 
REMARK    7  A    between atoms: C8_9  and  C9_10 
REMARK    8  A    between atoms: C9_10  and  O2_11 
REMARK    9  A    between atoms: O2_11  and  C10_12 
REMARK   10  A    between atoms: C10_12  and  C11_13 
REMARK   11  A    between atoms: C11_13  and  O3_14 
REMARK   12  A    between atoms: O3_14  and  C12_15 
REMARK   13  A    between atoms: C12_15  and  C13_16 
REMARK   14  A    between atoms: N2_24  and  C19_25 
REMARK   15  A    between atoms: C22_31  and  N4_32 
ROOT
HETATM    1  O1  UNL     1      18.970  32.265  13.559  1.00  0.00    -0.335 OA
ENDROOT
BRANCH   1   2
HETATM    2  C6  UNL     1      19.481  30.985  13.486  1.00  0.00     0.169 A 
HETATM    3  C5  UNL     1      20.694  30.722  14.076  1.00  0.00     0.062 A 
HETATM    4  C27 UNL     1      21.156  29.399  13.970  1.00  0.00     0.270 A 
HETATM    5  N5  UNL     1      20.430  28.476  13.324  1.00  0.00    -0.155 N 
HETATM    6  O6  UNL     1      22.270  29.135  14.508  1.00  0.00    -0.267 OA
HETATM    7  C22 UNL     1      19.248  28.736  12.749  1.00  0.00     0.692 A 
ATOM      8  H5  UNL     1      20.797  27.526  13.267  1.00  0.00     0.187 HD
HETATM    9  N3  UNL     1      18.797  29.991  12.842  1.00  0.00    -0.169 N 
ATOM     10  H3  UNL     1      17.901  30.219  12.412  1.00  0.00     0.186 HD
BRANCH   3  11
HETATM   11  C4  UNL     1      21.547  31.702  14.776  1.00  0.00     0.049 C 
BRANCH  11  12
HETATM   12  C3  UNL     1      21.219  31.995  16.183  1.00  0.00     0.004 C 
BRANCH  12  13
HETATM   13  C2  UNL     1      22.232  32.686  17.021  1.00  0.00    -0.004 C 
HETATM   14  C1  UNL     1      22.647  34.031  16.370  1.00  0.00     0.005 C 
ENDBRANCH  12  13
ENDBRANCH  11  12
ENDBRANCH   3  11
BRANCH   7  15
HETATM   15  N4  UNL     1      18.463  27.727  12.071  1.00  0.00    -0.140 N 
HETATM   16  C23 UNL     1      18.024  26.553  12.799  1.00  0.00     0.225 C 
HETATM   17  S1  UNL     1      17.937  25.309  11.479  1.00  0.00    -0.134 SA
HETATM   18  C24 UNL     1      18.223  26.430  10.050  1.00  0.00     0.138 C 
HETATM   19  C25 UNL     1      17.203  26.181   8.960  1.00  0.00     0.031 C 
HETATM   20  C26 UNL     1      18.036  27.735  10.727  1.00  0.00     0.252 C 
HETATM   21  O5  UNL     1      17.549  28.787  10.201  1.00  0.00    -0.271 OA
ENDBRANCH   7  15
ENDBRANCH   1   2
BRANCH   1  22
HETATM   22  C7  UNL     1      17.724  32.618  14.080  1.00  0.00     0.179 C 
BRANCH  22  23
HETATM   23  C8  UNL     1      17.501  32.313  15.527  1.00  0.00     0.053 C 
BRANCH  23  24
HETATM   24  C9  UNL     1      16.070  31.911  15.771  1.00  0.00     0.169 C 
BRANCH  24  25
HETATM   25  O2  UNL     1      15.508  32.611  16.813  1.00  0.00    -0.389 OA
BRANCH  25  26
HETATM   26  C10 UNL     1      15.526  33.965  16.572  1.00  0.00     0.193 C 
BRANCH  26  27
HETATM   27  C11 UNL     1      15.256  34.623  17.938  1.00  0.00     0.194 C 
BRANCH  27  28
HETATM   28  O3  UNL     1      16.492  34.894  18.481  1.00  0.00    -0.383 OA
BRANCH  28  29
HETATM   29  C12 UNL     1      17.311  35.524  17.587  1.00  0.00     0.224 C 
BRANCH  29  30
HETATM   30  C13 UNL     1      18.669  35.711  18.127  1.00  0.00     0.034 A 
HETATM   31  C14 UNL     1      19.196  35.109  19.275  1.00  0.00     0.046 A 
HETATM   32  C15 UNL     1      20.479  35.578  19.455  1.00  0.00     0.056 A 
HETATM   33  C16 UNL     1      20.741  36.452  18.432  1.00  0.00     0.026 A 
HETATM   34  C21 UNL     1      21.490  35.360  20.505  1.00  0.00     0.255 C 
HETATM   35  N1  UNL     1      19.620  36.509  17.646  1.00  0.00    -0.360 N 
HETATM   36  C17 UNL     1      22.066  37.098  18.335  1.00  0.00     0.078 C 
ATOM     37  H1  UNL     1      19.528  37.084  16.808  1.00  0.00     0.165 HD
HETATM   38  C18 UNL     1      22.714  37.283  19.669  1.00  0.00     0.132 C 
HETATM   39  N2  UNL     1      22.722  36.068  20.444  1.00  0.00    -0.348 N 
HETATM   40  O4  UNL     1      21.229  34.560  21.416  1.00  0.00    -0.267 OA
BRANCH  39  41
HETATM   41  C19 UNL     1      23.888  35.600  21.138  1.00  0.00     0.121 C 
HETATM   42  C20 UNL     1      24.820  36.665  21.612  1.00  0.00     0.026 C 
ENDBRANCH  39  41
ENDBRANCH  29  30
ENDBRANCH  28  29
ENDBRANCH  27  28
ENDBRANCH  26  27
ENDBRANCH  25  26
ENDBRANCH  24  25
ENDBRANCH  23  24
ENDBRANCH  22  23
ENDBRANCH   1  22
TORSDOF 15
ENDMDL
MODEL 2
REMARK VINA RESULT: -7.982563024      4.106     10.197
REMARK  15 active torsions:
REMARK  status: ('A' for Active; 'I' for Inactive)
REMARK    1  A    between atoms: C2_2  and  C3_3 
REMARK    2  A    between atoms: C3_3  and  C4_4 
REMARK    3  A    between atoms: C4_4  and  C5_5 
REMARK    4  A    between atoms: C6_6  and  O1_7 
REMARK    5  A    between atoms: O1_7  and  C7_8 
REMARK    6  A    between atoms: C7_8  and  C8_9 
REMARK    7  A    between atoms: C8_9  and  C9_10 
REMARK    8  A    between atoms: C9_10  and  O2_11 
REMARK    9  A    between atoms: O2_11  and  C10_12 
REMARK   10  A    between atoms: C10_12  and  C11_13 
REMARK   11  A    between atoms: C11_13  and  O3_14 
REMARK   12  A    between atoms: O3_14  and  C12_15 
REMARK   13  A    between atoms: C12_15  and  C13_16 
REMARK   14  A    between atoms: N2_24  and  C19_25 
REMARK   15  A    between atoms: C22_31  and  N4_32 
ROOT
HETATM    1  O1  UNL     1      17.820  34.579  18.565  1.00  0.00    -0.335 OA
ENDROOT
BRANCH   1   2
HETATM    2  C6  UNL     1      16.761  35.462  18.534  1.00  0.00     0.169 A 
HETATM    3  C5  UNL     1      15.548  35.026  18.058  1.00  0.00     0.062 A 
HETATM    4  C27 UNL     1      14.510  35.972  18.058  1.00  0.00     0.270 A 
HETATM    5  N5  UNL     1      14.727  37.218  18.501  1.00  0.00    -0.155 N 
HETATM    6  O6  UNL     1      13.384  35.591  17.625  1.00  0.00    -0.267 OA
HETATM    7  C22 UNL     1      15.911  37.642  18.964  1.00  0.00     0.692 A 
ATOM      8  H5  UNL     1      13.950  37.879  18.486  1.00  0.00     0.187 HD
HETATM    9  N3  UNL     1      16.908  36.750  18.969  1.00  0.00    -0.169 N 
ATOM     10  H3  UNL     1      17.821  37.045  19.314  1.00  0.00     0.186 HD
BRANCH   3  11
HETATM   11  C4  UNL     1      15.258  33.676  17.534  1.00  0.00     0.049 C 
BRANCH  11  12
HETATM   12  C3  UNL     1      15.525  33.438  16.105  1.00  0.00     0.004 C 
BRANCH  12  13
HETATM   13  C2  UNL     1      16.795  32.772  15.719  1.00  0.00    -0.004 C 
HETATM   14  C1  UNL     1      17.636  33.699  14.802  1.00  0.00     0.005 C 
ENDBRANCH  12  13
ENDBRANCH  11  12
ENDBRANCH   3  11
BRANCH   7  15
HETATM   15  N4  UNL     1      16.130  38.983  19.458  1.00  0.00    -0.140 N 
HETATM   16  C23 UNL     1      15.233  39.534  20.456  1.00  0.00     0.225 C 
HETATM   17  S1  UNL     1      15.312  41.309  20.087  1.00  0.00    -0.134 SA
HETATM   18  C24 UNL     1      16.673  41.256  18.853  1.00  0.00     0.138 C 
HETATM   19  C25 UNL     1      17.717  42.308  19.159  1.00  0.00     0.031 C 
HETATM   20  C26 UNL     1      17.158  39.876  19.090  1.00  0.00     0.252 C 
HETATM   21  O5  UNL     1      18.363  39.478  18.984  1.00  0.00    -0.271 OA
ENDBRANCH   7  15
ENDBRANCH   1   2
BRANCH   1  22
HETATM   22  C7  UNL     1      19.138  34.870  18.209  1.00  0.00     0.179 C 
BRANCH  22  23
HETATM   23  C8  UNL     1      20.069  35.207  19.330  1.00  0.00     0.053 C 
BRANCH  23  24
HETATM   24  C9  UNL     1      20.458  36.661  19.279  1.00  0.00     0.169 C 
BRANCH  24  25
HETATM   25  O2  UNL     1      21.749  36.834  18.839  1.00  0.00    -0.389 OA
BRANCH  25  26
HETATM   26  C10 UNL     1      21.797  36.960  17.470  1.00  0.00     0.193 C 
BRANCH  26  27
HETATM   27  C11 UNL     1      22.763  35.859  16.994  1.00  0.00     0.194 C 
BRANCH  27  28
HETATM   28  O3  UNL     1      21.989  34.930  16.337  1.00  0.00    -0.383 OA
BRANCH  28  29
HETATM   29  C12 UNL     1      22.543  33.682  16.389  1.00  0.00     0.224 C 
BRANCH  29  30
HETATM   30  C13 UNL     1      21.715  32.686  15.687  1.00  0.00     0.034 A 
HETATM   31  C14 UNL     1      21.338  32.723  14.340  1.00  0.00     0.046 A 
HETATM   32  C15 UNL     1      20.534  31.631  14.091  1.00  0.00     0.056 A 
HETATM   33  C16 UNL     1      20.421  30.931  15.264  1.00  0.00     0.026 A 
HETATM   34  C21 UNL     1      19.796  31.179  12.897  1.00  0.00     0.255 C 
HETATM   35  N1  UNL     1      21.149  31.601  16.211  1.00  0.00    -0.360 N 
HETATM   36  C17 UNL     1      19.639  29.679  15.302  1.00  0.00     0.078 C 
ATOM     37  H1  UNL     1      21.245  31.308  17.184  1.00  0.00     0.165 HD
HETATM   38  C18 UNL     1      18.524  29.666  14.306  1.00  0.00     0.132 C 
HETATM   39  N2  UNL     1      18.972  30.024  12.984  1.00  0.00    -0.348 N 
HETATM   40  O4  UNL     1      19.921  31.828  11.847  1.00  0.00    -0.267 OA
BRANCH  39  41
HETATM   41  C19 UNL     1      18.595  29.285  11.813  1.00  0.00     0.121 C 
HETATM   42  C20 UNL     1      17.128  29.199  11.554  1.00  0.00     0.026 C 
ENDBRANCH  39  41
ENDBRANCH  29  30
ENDBRANCH  28  29
ENDBRANCH  27  28
ENDBRANCH  26  27
ENDBRANCH  25  26
ENDBRANCH  24  25
ENDBRANCH  23  24
ENDBRANCH  22  23
ENDBRANCH   1  22
TORSDOF 15
ENDMDL
MODEL 3
REMARK VINA RESULT: -7.886663316      4.062     11.004
REMARK  15 active torsions:
REMARK  status: ('A' for Active; 'I' for Inactive)
REMARK    1  A    between atoms: C2_2  and  C3_3 
REMARK    2  A    between atoms: C3_3  and  C4_4 
REMARK    3  A    between atoms: C4_4  and  C5_5 
REMARK    4  A    between atoms: C6_6  and  O1_7 
REMARK    5  A    between atoms: O1_7  and  C7_8 
REMARK    6  A    between atoms: C7_8  and  C8_9 
REMARK    7  A    between atoms: C8_9  and  C9_10 
REMARK    8  A    between atoms: C9_10  and  O2_11 
REMARK    9  A    between atoms: O2_11  and  C10_12 
REMARK   10  A    between atoms: C10_12  and  C11_13 
REMARK   11  A    between atoms: C11_13  and  O3_14 
REMARK   12  A    between atoms: O3_14  and  C12_15 
REMARK   13  A    between atoms: C12_15  and  C13_16 
REMARK   14  A    between atoms: N2_24  and  C19_25 
REMARK   15  A    between atoms: C22_31  and  N4_32 
ROOT
HETATM    1  O1  UNL     1      18.036  34.871  18.584  1.00  0.00    -0.335 OA
ENDROOT
BRANCH   1   2
HETATM    2  C6  UNL     1      16.958  35.732  18.548  1.00  0.00     0.169 A 
HETATM    3  C5  UNL     1      15.737  35.247  18.144  1.00  0.00     0.062 A 
HETATM    4  C27 UNL     1      14.680  36.173  18.135  1.00  0.00     0.270 A 
HETATM    5  N5  UNL     1      14.888  37.445  18.504  1.00  0.00    -0.155 N 
HETATM    6  O6  UNL     1      13.547  35.748  17.768  1.00  0.00    -0.267 OA
HETATM    7  C22 UNL     1      16.080  37.915  18.896  1.00  0.00     0.692 A 
ATOM      8  H5  UNL     1      14.097  38.089  18.485  1.00  0.00     0.187 HD
HETATM    9  N3  UNL     1      17.095  37.044  18.909  1.00  0.00    -0.169 N 
ATOM     10  H3  UNL     1      18.014  37.374  19.201  1.00  0.00     0.186 HD
BRANCH   3  11
HETATM   11  C4  UNL     1      15.456  33.867  17.704  1.00  0.00     0.049 C 
BRANCH  11  12
HETATM   12  C3  UNL     1      15.675  33.558  16.280  1.00  0.00     0.004 C 
BRANCH  12  13
HETATM   13  C2  UNL     1      15.920  32.147  15.887  1.00  0.00    -0.004 C 
HETATM   14  C1  UNL     1      17.354  31.714  16.289  1.00  0.00     0.005 C 
ENDBRANCH  12  13
ENDBRANCH  11  12
ENDBRANCH   3  11
BRANCH   7  15
HETATM   15  N4  UNL     1      16.289  39.284  19.311  1.00  0.00    -0.140 N 
HETATM   16  C23 UNL     1      15.191  40.032  19.893  1.00  0.00     0.225 C 
HETATM   17  S1  UNL     1      15.605  41.733  19.411  1.00  0.00    -0.134 SA
HETATM   18  C24 UNL     1      17.275  41.406  18.720  1.00  0.00     0.138 C 
HETATM   19  C25 UNL     1      18.285  42.395  19.262  1.00  0.00     0.031 C 
HETATM   20  C26 UNL     1      17.483  40.031  19.232  1.00  0.00     0.252 C 
HETATM   21  O5  UNL     1      18.597  39.521  19.575  1.00  0.00    -0.271 OA
ENDBRANCH   7  15
ENDBRANCH   1   2
BRANCH   1  22
HETATM   22  C7  UNL     1      19.046  34.786  17.623  1.00  0.00     0.179 C 
BRANCH  22  23
HETATM   23  C8  UNL     1      20.282  35.586  17.889  1.00  0.00     0.053 C 
BRANCH  23  24
HETATM   24  C9  UNL     1      21.468  34.680  18.088  1.00  0.00     0.169 C 
BRANCH  24  25
HETATM   25  O2  UNL     1      21.945  34.185  16.897  1.00  0.00    -0.389 OA
BRANCH  25  26
HETATM   26  C10 UNL     1      22.280  32.856  17.007  1.00  0.00     0.193 C 
BRANCH  26  27
HETATM   27  C11 UNL     1      21.221  32.101  16.182  1.00  0.00     0.194 C 
BRANCH  27  28
HETATM   28  O3  UNL     1      21.859  31.677  15.039  1.00  0.00    -0.383 OA
BRANCH  28  29
HETATM   29  C12 UNL     1      21.245  32.147  13.913  1.00  0.00     0.224 C 
BRANCH  29  30
HETATM   30  C13 UNL     1      20.416  31.112  13.270  1.00  0.00     0.034 A 
HETATM   31  C14 UNL     1      20.881  29.982  12.589  1.00  0.00     0.046 A 
HETATM   32  C15 UNL     1      19.789  29.295  12.104  1.00  0.00     0.056 A 
HETATM   33  C16 UNL     1      18.669  29.989  12.482  1.00  0.00     0.026 A 
HETATM   34  C21 UNL     1      19.651  28.087  11.269  1.00  0.00     0.255 C 
HETATM   35  N1  UNL     1      19.087  31.087  13.187  1.00  0.00    -0.360 N 
HETATM   36  C17 UNL     1      17.329  29.474  12.133  1.00  0.00     0.078 C 
ATOM     37  H1  UNL     1      18.466  31.787  13.592  1.00  0.00     0.165 HD
HETATM   38  C18 UNL     1      17.331  28.678  10.867  1.00  0.00     0.132 C 
HETATM   39  N2  UNL     1      18.356  27.665  10.863  1.00  0.00    -0.348 N 
HETATM   40  O4  UNL     1      20.681  27.475  10.946  1.00  0.00    -0.267 OA
BRANCH  39  41
HETATM   41  C19 UNL     1      18.105  26.313  10.452  1.00  0.00     0.121 C 
HETATM   42  C20 UNL     1      17.938  25.328  11.560  1.00  0.00     0.026 C 
ENDBRANCH  39  41
ENDBRANCH  29  30
ENDBRANCH  28  29
ENDBRANCH  27  28
ENDBRANCH  26  27
ENDBRANCH  25  26
ENDBRANCH  24  25
ENDBRANCH  23  24
ENDBRANCH  22  23
ENDBRANCH   1  22
TORSDOF 15
ENDMDL
MODEL 4
REMARK VINA RESULT: -7.841817125      3.363      9.338
REMARK  15 active torsions:
REMARK  status: ('A' for Active; 'I' for Inactive)
REMARK    1  A    between atoms: C2_2  and  C3_3 
REMARK    2  A    between atoms: C3_3  and  C4_4 
REMARK    3  A    between atoms: C4_4  and  C5_5 
REMARK    4  A    between atoms: C6_6  and  O1_7 
REMARK    5  A    between atoms: O1_7  and  C7_8 
REMARK    6  A    between atoms: C7_8  and  C8_9 
REMARK    7  A    between atoms: C8_9  and  C9_10 
REMARK    8  A    between atoms: C9_10  and  O2_11 
REMARK    9  A    between atoms: O2_11  and  C10_12 
REMARK   10  A    between atoms: C10_12  and  C11_13 
REMARK   11  A    between atoms: C11_13  and  O3_14 
REMARK   12  A    between atoms: O3_14  and  C12_15 
REMARK   13  A    between atoms: C12_15  and  C13_16 
REMARK   14  A    between atoms: N2_24  and  C19_25 
REMARK   15  A    between atoms: C22_31  and  N4_32 
ROOT
HETATM    1  O1  UNL     1      19.472  39.196  19.117  1.00  0.00    -0.335 OA
ENDROOT
BRANCH   1   2
HETATM    2  C6  UNL     1      18.268  38.556  18.908  1.00  0.00     0.169 A 
HETATM    3  C5  UNL     1      17.105  39.279  19.020  1.00  0.00     0.062 A 
HETATM    4  C27 UNL     1      15.914  38.570  18.790  1.00  0.00     0.270 A 
HETATM    5  N5  UNL     1      15.949  37.266  18.482  1.00  0.00    -0.155 N 
HETATM    6  O6  UNL     1      14.832  39.218  18.886  1.00  0.00    -0.267 OA
HETATM    7  C22 UNL     1      17.085  36.563  18.374  1.00  0.00     0.692 A 
ATOM      8  H5  UNL     1      15.065  36.783  18.321  1.00  0.00     0.187 HD
HETATM    9  N3  UNL     1      18.225  37.226  18.591  1.00  0.00    -0.169 N 
ATOM     10  H3  UNL     1      19.105  36.716  18.518  1.00  0.00     0.186 HD
BRANCH   3  11
HETATM   11  C4  UNL     1      17.005  40.707  19.380  1.00  0.00     0.049 C 
BRANCH  11  12
HETATM   12  C3  UNL     1      17.357  41.690  18.340  1.00  0.00     0.004 C 
BRANCH  12  13
HETATM   13  C2  UNL     1      17.291  41.274  16.916  1.00  0.00    -0.004 C 
HETATM   14  C1  UNL     1      18.710  41.255  16.291  1.00  0.00     0.005 C 
ENDBRANCH  12  13
ENDBRANCH  11  12
ENDBRANCH   3  11
BRANCH   7  15
HETATM   15  N4  UNL     1      17.112  35.160  18.022  1.00  0.00    -0.140 N 
HETATM   16  C23 UNL     1      18.374  34.445  18.031  1.00  0.00     0.225 C 
HETATM   17  S1  UNL     1      18.090  33.177  16.763  1.00  0.00    -0.134 SA
HETATM   18  C24 UNL     1      16.299  33.485  16.487  1.00  0.00     0.138 C 
HETATM   19  C25 UNL     1      15.521  32.187  16.510  1.00  0.00     0.031 C 
HETATM   20  C26 UNL     1      16.019  34.345  17.660  1.00  0.00     0.252 C 
HETATM   21  O5  UNL     1      14.927  34.390  18.311  1.00  0.00    -0.271 OA
ENDBRANCH   7  15
ENDBRANCH   1   2
BRANCH   1  22
HETATM   22  C7  UNL     1      20.736  38.665  18.853  1.00  0.00     0.179 C 
BRANCH  22  23
HETATM   23  C8  UNL     1      21.405  39.140  17.602  1.00  0.00     0.053 C 
BRANCH  23  24
HETATM   24  C9  UNL     1      21.453  38.040  16.575  1.00  0.00     0.169 C 
BRANCH  24  25
HETATM   25  O2  UNL     1      20.886  36.876  17.039  1.00  0.00    -0.389 OA
BRANCH  25  26
HETATM   26  C10 UNL     1      21.577  35.772  16.594  1.00  0.00     0.193 C 
BRANCH  26  27
HETATM   27  C11 UNL     1      22.081  35.069  17.868  1.00  0.00     0.194 C 
BRANCH  27  28
HETATM   28  O3  UNL     1      21.927  33.719  17.644  1.00  0.00    -0.383 OA
BRANCH  28  29
HETATM   29  C12 UNL     1      22.557  33.321  16.500  1.00  0.00     0.224 C 
BRANCH  29  30
HETATM   30  C13 UNL     1      21.746  32.358  15.735  1.00  0.00     0.034 A 
HETATM   31  C14 UNL     1      21.302  32.509  14.417  1.00  0.00     0.046 A 
HETATM   32  C15 UNL     1      20.541  31.407  14.091  1.00  0.00     0.056 A 
HETATM   33  C16 UNL     1      20.519  30.588  15.189  1.00  0.00     0.026 A 
HETATM   34  C21 UNL     1      19.769  31.039  12.890  1.00  0.00     0.255 C 
HETATM   35  N1  UNL     1      21.259  31.196  16.169  1.00  0.00    -0.360 N 
HETATM   36  C17 UNL     1      19.802  29.297  15.132  1.00  0.00     0.078 C 
ATOM     37  H1  UNL     1      21.416  30.812  17.101  1.00  0.00     0.165 HD
HETATM   38  C18 UNL     1      18.642  29.326  14.190  1.00  0.00     0.132 C 
HETATM   39  N2  UNL     1      19.007  29.839  12.893  1.00  0.00    -0.348 N 
HETATM   40  O4  UNL     1      19.811  31.796  11.909  1.00  0.00    -0.267 OA
BRANCH  39  41
HETATM   41  C19 UNL     1      18.611  29.202  11.670  1.00  0.00     0.121 C 
HETATM   42  C20 UNL     1      17.140  29.135  11.431  1.00  0.00     0.026 C 
ENDBRANCH  39  41
ENDBRANCH  29  30
ENDBRANCH  28  29
ENDBRANCH  27  28
ENDBRANCH  26  27
ENDBRANCH  25  26
ENDBRANCH  24  25
ENDBRANCH  23  24
ENDBRANCH  22  23
ENDBRANCH   1  22
TORSDOF 15
ENDMDL
MODEL 5
REMARK VINA RESULT: -7.790782153      2.135      2.953
REMARK  15 active torsions:
REMARK  status: ('A' for Active; 'I' for Inactive)
REMARK    1  A    between atoms: C2_2  and  C3_3 
REMARK    2  A    between atoms: C3_3  and  C4_4 
REMARK    3  A    between atoms: C4_4  and  C5_5 
REMARK    4  A    between atoms: C6_6  and  O1_7 
REMARK    5  A    between atoms: O1_7  and  C7_8 
REMARK    6  A    between atoms: C7_8  and  C8_9 
REMARK    7  A    between atoms: C8_9  and  C9_10 
REMARK    8  A    between atoms: C9_10  and  O2_11 
REMARK    9  A    between atoms: O2_11  and  C10_12 
REMARK   10  A    between atoms: C10_12  and  C11_13 
REMARK   11  A    between atoms: C11_13  and  O3_14 
REMARK   12  A    between atoms: O3_14  and  C12_15 
REMARK   13  A    between atoms: C12_15  and  C13_16 
REMARK   14  A    between atoms: N2_24  and  C19_25 
REMARK   15  A    between atoms: C22_31  and  N4_32 
ROOT
HETATM    1  O1  UNL     1      19.067  32.476  13.387  1.00  0.00    -0.335 OA
ENDROOT
BRANCH   1   2
HETATM    2  C6  UNL     1      19.608  31.209  13.301  1.00  0.00     0.169 A 
HETATM    3  C5  UNL     1      20.880  30.997  13.778  1.00  0.00     0.062 A 
HETATM    4  C27 UNL     1      21.369  29.685  13.666  1.00  0.00     0.270 A 
HETATM    5  N5  UNL     1      20.613  28.723  13.119  1.00  0.00    -0.155 N 
HETATM    6  O6  UNL     1      22.536  29.468  14.100  1.00  0.00    -0.267 OA
HETATM    7  C22 UNL     1      19.374  28.932  12.653  1.00  0.00     0.692 A 
ATOM      8  H5  UNL     1      21.001  27.782  13.053  1.00  0.00     0.187 HD
HETATM    9  N3  UNL     1      18.896  30.177  12.754  1.00  0.00    -0.169 N 
ATOM     10  H3  UNL     1      17.956  30.367  12.406  1.00  0.00     0.186 HD
BRANCH   3  11
HETATM   11  C4  UNL     1      21.765  32.021  14.366  1.00  0.00     0.049 C 
BRANCH  11  12
HETATM   12  C3  UNL     1      21.535  32.381  15.776  1.00  0.00     0.004 C 
BRANCH  12  13
HETATM   13  C2  UNL     1      21.291  33.806  16.117  1.00  0.00    -0.004 C 
HETATM   14  C1  UNL     1      22.193  34.241  17.301  1.00  0.00     0.005 C 
ENDBRANCH  12  13
ENDBRANCH  11  12
ENDBRANCH   3  11
BRANCH   7  15
HETATM   15  N4  UNL     1      18.559  27.883  12.082  1.00  0.00    -0.140 N 
HETATM   16  C23 UNL     1      18.168  26.753  12.903  1.00  0.00     0.225 C 
HETATM   17  S1  UNL     1      18.015  25.432  11.668  1.00  0.00    -0.134 SA
HETATM   18  C24 UNL     1      18.214  26.464  10.161  1.00  0.00     0.138 C 
HETATM   19  C25 UNL     1      17.136  26.146   9.146  1.00  0.00     0.031 C 
HETATM   20  C26 UNL     1      18.057  27.807  10.766  1.00  0.00     0.252 C 
HETATM   21  O5  UNL     1      17.535  28.824  10.206  1.00  0.00    -0.271 OA
ENDBRANCH   7  15
ENDBRANCH   1   2
BRANCH   1  22
HETATM   22  C7  UNL     1      17.899  32.821  14.069  1.00  0.00     0.179 C 
BRANCH  22  23
HETATM   23  C8  UNL     1      17.886  32.548  15.539  1.00  0.00     0.053 C 
BRANCH  23  24
HETATM   24  C9  UNL     1      16.658  31.763  15.922  1.00  0.00     0.169 C 
BRANCH  24  25
HETATM   25  O2  UNL     1      15.662  32.572  16.415  1.00  0.00    -0.389 OA
BRANCH  25  26
HETATM   26  C10 UNL     1      16.179  33.594  17.178  1.00  0.00     0.193 C 
BRANCH  26  27
HETATM   27  C11 UNL     1      14.959  34.270  17.830  1.00  0.00     0.194 C 
BRANCH  27  28
HETATM   28  O3  UNL     1      15.443  34.956  18.922  1.00  0.00    -0.383 OA
BRANCH  28  29
HETATM   29  C12 UNL     1      15.254  36.303  18.797  1.00  0.00     0.224 C 
BRANCH  29  30
HETATM   30  C13 UNL     1      16.502  36.999  18.437  1.00  0.00     0.034 A 
HETATM   31  C14 UNL     1      16.615  38.127  17.617  1.00  0.00     0.046 A 
HETATM   32  C15 UNL     1      17.953  38.439  17.499  1.00  0.00     0.056 A 
HETATM   33  C16 UNL     1      18.652  37.520  18.237  1.00  0.00     0.026 A 
HETATM   34  C21 UNL     1      18.681  39.463  16.728  1.00  0.00     0.255 C 
HETATM   35  N1  UNL     1      17.740  36.661  18.792  1.00  0.00    -0.360 N 
HETATM   36  C17 UNL     1      20.123  37.617  18.333  1.00  0.00     0.078 C 
ATOM     37  H1  UNL     1      17.977  35.872  19.393  1.00  0.00     0.165 HD
HETATM   38  C18 UNL     1      20.738  38.234  17.118  1.00  0.00     0.132 C 
HETATM   39  N2  UNL     1      20.103  39.476  16.757  1.00  0.00    -0.348 N 
HETATM   40  O4  UNL     1      18.023  40.285  16.073  1.00  0.00    -0.267 OA
BRANCH  39  41
HETATM   41  C19 UNL     1      20.846  40.657  16.420  1.00  0.00     0.121 C 
HETATM   42  C20 UNL     1      22.162  40.417  15.759  1.00  0.00     0.026 C 
ENDBRANCH  39  41
ENDBRANCH  29  30
ENDBRANCH  28  29
ENDBRANCH  27  28
ENDBRANCH  26  27
ENDBRANCH  25  26
ENDBRANCH  24  25
ENDBRANCH  23  24
ENDBRANCH  22  23
ENDBRANCH   1  22
TORSDOF 15
ENDMDL
