MODEL 1
REMARK VINA RESULT: -7.458713464      0.000      0.000
REMARK  18 active torsions:
REMARK  status: ('A' for Active; 'I' for Inactive)
REMARK    1  A    between atoms: C2_2  and  C3_3 
REMARK    2  A    between atoms: C11_14  and  C12_15 
REMARK    3  A    between atoms: C12_15  and  C13_16 
REMARK    4  A    between atoms: C13_16  and  C14_17 
REMARK    5  A    between atoms: C14_17  and  C15_18 
REMARK    6  A    between atoms: C15_18  and  C16_19 
REMARK    7  A    between atoms: C16_19  and  C17_20 
REMARK       I    between atoms: C17_20  and  N1_22 
REMARK    8  A    between atoms: N1_22  and  C18_24 
REMARK    9  A    between atoms: C18_24  and  C19_25 
REMARK   10  A    between atoms: C19_25  and  N2_26 
REMARK   11  A    between atoms: N2_26  and  C21_28 
REMARK   12  A    between atoms: C21_28  and  C22_29 
REMARK   13  A    between atoms: C22_29  and  N3_30 
REMARK       I    between atoms: N3_30  and  C23_32 
REMARK   14  A    between atoms: C23_32  and  O6_34 
REMARK   15  A    between atoms: O6_34  and  C24_35 
REMARK   16  A    between atoms: C24_35  and  C25_36 
REMARK   17  A    between atoms: C26_37  and  C27_38 
REMARK   18  A    between atoms: C27_38  and  S1_39 
ROOT
HETATM    1  C17 UNL     1      21.821  33.254  16.037  1.00  0.00     0.217 C 
HETATM    2  O4  UNL     1      21.927  32.531  17.053  1.00  0.00    -0.274 OA
HETATM    3  N1  UNL     1      21.809  32.657  14.752  1.00  0.00    -0.359 N 
ATOM      4  H1  UNL     1      21.711  33.292  13.961  1.00  0.00     0.162 HD
ENDROOT
BRANCH   1   5
HETATM    5  C16 UNL     1      21.712  34.706  16.199  1.00  0.00     0.103 C 
BRANCH   5   6
HETATM    6  C15 UNL     1      22.074  35.213  17.578  1.00  0.00     0.009 C 
BRANCH   6   7
HETATM    7  C14 UNL     1      20.914  36.068  18.013  1.00  0.00     0.000 C 
BRANCH   7   8
HETATM    8  C13 UNL     1      20.145  35.633  19.180  1.00  0.00     0.000 C 
BRANCH   8   9
HETATM    9  C12 UNL     1      18.941  34.803  18.940  1.00  0.00     0.008 C 
BRANCH   9  10
HETATM   10  C11 UNL     1      17.998  35.386  17.915  1.00  0.00     0.024 C 
HETATM   11  C10 UNL     1      17.845  34.513  16.701  1.00  0.00     0.159 C 
HETATM   12  C6  UNL     1      16.435  33.960  16.733  1.00  0.00     0.161 C 
HETATM   13  O3  UNL     1      18.598  33.364  16.725  1.00  0.00    -0.348 OA
HETATM   14  C5  UNL     1      15.829  34.349  18.059  1.00  0.00     0.048 C 
HETATM   15  O2  UNL     1      16.569  32.596  16.585  1.00  0.00    -0.348 OA
HETATM   16  C4  UNL     1      14.457  34.920  17.850  1.00  0.00     0.176 C 
HETATM   17  C29 UNL     1      16.618  35.597  18.397  1.00  0.00     0.034 C 
HETATM   18  O1  UNL     1      14.565  36.283  17.634  1.00  0.00    -0.381 OA
HETATM   19  C3  UNL     1      15.901  36.590  17.492  1.00  0.00     0.148 C 
HETATM   20  C7  UNL     1      17.809  32.485  15.964  1.00  0.00     0.158 C 
HETATM   21  C8  UNL     1      18.352  31.080  16.058  1.00  0.00     0.078 C 
HETATM   22  C9  UNL     1      17.756  32.876  14.510  1.00  0.00     0.078 C 
BRANCH  19  23
HETATM   23  C2  UNL     1      16.263  37.984  17.725  1.00  0.00    -0.005 C 
HETATM   24  C1  UNL     1      15.981  38.569  18.871  1.00  0.00     0.009 C 
ENDBRANCH  19  23
ENDBRANCH   9  10
ENDBRANCH   8   9
ENDBRANCH   7   8
ENDBRANCH   6   7
ENDBRANCH   5   6
ENDBRANCH   1   5
BRANCH   3  25
HETATM   25  C18 UNL     1      21.917  31.279  14.439  1.00  0.00     0.152 C 
BRANCH  25  26
HETATM   26  C19 UNL     1      21.012  30.808  13.316  1.00  0.00     0.291 C 
BRANCH  26  27
HETATM   27  N2  UNL     1      21.015  29.380  13.250  1.00  0.00     0.087 N 
HETATM   28  C20 UNL     1      21.566  28.795  14.434  1.00  0.00     0.310 C 
BRANCH  27  29
HETATM   29  C21 UNL     1      21.560  28.785  12.080  1.00  0.00     0.291 C 
BRANCH  29  30
HETATM   30  C22 UNL     1      21.696  27.286  12.308  1.00  0.00     0.155 C 
BRANCH  30  31
HETATM   31  N3  UNL     1      20.521  26.593  11.874  1.00  0.00    -0.335 N 
HETATM   32  C23 UNL     1      20.498  25.822  10.699  1.00  0.00     0.361 C 
HETATM   33  O5  UNL     1      21.511  25.716   9.969  1.00  0.00    -0.238 OA
ATOM     34  H3  UNL     1      19.674  26.660  12.437  1.00  0.00     0.164 HD
BRANCH  32  35
HETATM   35  O6  UNL     1      19.313  25.158  10.343  1.00  0.00    -0.292 OA
BRANCH  35  36
HETATM   36  C24 UNL     1      18.579  25.697   9.261  1.00  0.00     0.274 C 
BRANCH  36  37
HETATM   37  C25 UNL     1      17.880  26.884   9.805  1.00  0.00    -0.079 C 
HETATM   38  C26 UNL     1      17.334  27.858  10.254  1.00  0.00    -0.094 C 
BRANCH  38  39
HETATM   39  C27 UNL     1      16.698  29.051  10.808  1.00  0.00     0.167 C 
BRANCH  39  40
HETATM   40  S1  UNL     1      17.483  29.500  12.373  1.00  0.00    -0.161 SA
HETATM   41  C28 UNL     1      17.647  28.031  13.404  1.00  0.00     0.090 C 
ENDBRANCH  39  40
ENDBRANCH  38  39
ENDBRANCH  36  37
ENDBRANCH  35  36
ENDBRANCH  32  35
ENDBRANCH  30  31
ENDBRANCH  29  30
ENDBRANCH  27  29
ENDBRANCH  26  27
ENDBRANCH  25  26
ENDBRANCH   3  25
TORSDOF 18
ENDMDL
MODEL 2
REMARK VINA RESULT: -7.443467409      2.251      5.000
REMARK  18 active torsions:
REMARK  status: ('A' for Active; 'I' for Inactive)
REMARK    1  A    between atoms: C2_2  and  C3_3 
REMARK    2  A    between atoms: C11_14  and  C12_15 
REMARK    3  A    between atoms: C12_15  and  C13_16 
REMARK    4  A    between atoms: C13_16  and  C14_17 
REMARK    5  A    between atoms: C14_17  and  C15_18 
REMARK    6  A    between atoms: C15_18  and  C16_19 
REMARK    7  A    between atoms: C16_19  and  C17_20 
REMARK       I    between atoms: C17_20  and  N1_22 
REMARK    8  A    between atoms: N1_22  and  C18_24 
REMARK    9  A    between atoms: C18_24  and  C19_25 
REMARK   10  A    between atoms: C19_25  and  N2_26 
REMARK   11  A    between atoms: N2_26  and  C21_28 
REMARK   12  A    between atoms: C21_28  and  C22_29 
REMARK   13  A    between atoms: C22_29  and  N3_30 
REMARK       I    between atoms: N3_30  and  C23_32 
REMARK   14  A    between atoms: C23_32  and  O6_34 
REMARK   15  A    between atoms: O6_34  and  C24_35 
REMARK   16  A    between atoms: C24_35  and  C25_36 
REMARK   17  A    between atoms: C26_37  and  C27_38 
REMARK   18  A    between atoms: C27_38  and  S1_39 
ROOT
HETATM    1  C17 UNL     1      17.804  29.717  13.443  1.00  0.00     0.217 C 
HETATM    2  O4  UNL     1      17.941  28.912  14.391  1.00  0.00    -0.274 OA
HETATM    3  N1  UNL     1      17.878  29.246  12.108  1.00  0.00    -0.359 N 
ATOM      4  H1  UNL     1      17.750  29.944  11.377  1.00  0.00     0.162 HD
ENDROOT
BRANCH   1   5
HETATM    5  C16 UNL     1      17.571  31.134  13.734  1.00  0.00     0.103 C 
BRANCH   5   6
HETATM    6  C15 UNL     1      17.438  31.459  15.207  1.00  0.00     0.009 C 
BRANCH   6   7
HETATM    7  C14 UNL     1      16.641  32.734  15.271  1.00  0.00     0.000 C 
BRANCH   7   8
HETATM    8  C13 UNL     1      17.359  33.997  15.091  1.00  0.00     0.000 C 
BRANCH   8   9
HETATM    9  C12 UNL     1      18.398  34.346  16.088  1.00  0.00     0.008 C 
BRANCH   9  10
HETATM   10  C11 UNL     1      17.836  34.811  17.411  1.00  0.00     0.024 C 
HETATM   11  C10 UNL     1      18.906  35.153  18.410  1.00  0.00     0.159 C 
HETATM   12  C6  UNL     1      18.864  36.655  18.600  1.00  0.00     0.161 C 
HETATM   13  O3  UNL     1      20.191  34.962  17.960  1.00  0.00    -0.348 OA
HETATM   14  C5  UNL     1      17.909  37.212  17.575  1.00  0.00     0.048 C 
HETATM   15  O2  UNL     1      20.160  37.088  18.416  1.00  0.00    -0.348 OA
HETATM   16  C4  UNL     1      16.960  38.176  18.225  1.00  0.00     0.176 C 
HETATM   17  C29 UNL     1      17.000  36.025  17.332  1.00  0.00     0.034 C 
HETATM   18  O1  UNL     1      15.861  37.478  18.696  1.00  0.00    -0.381 OA
HETATM   19  C3  UNL     1      16.125  36.131  18.574  1.00  0.00     0.148 C 
HETATM   20  C7  UNL     1      20.898  35.939  18.682  1.00  0.00     0.158 C 
HETATM   21  C8  UNL     1      22.310  36.054  18.161  1.00  0.00     0.078 C 
HETATM   22  C9  UNL     1      20.960  35.628  20.155  1.00  0.00     0.078 C 
BRANCH  19  23
HETATM   23  C2  UNL     1      14.961  35.251  18.564  1.00  0.00    -0.005 C 
HETATM   24  C1  UNL     1      14.109  35.275  17.560  1.00  0.00     0.009 C 
ENDBRANCH  19  23
ENDBRANCH   9  10
ENDBRANCH   8   9
ENDBRANCH   7   8
ENDBRANCH   6   7
ENDBRANCH   5   6
ENDBRANCH   1   5
BRANCH   3  25
HETATM   25  C18 UNL     1      18.108  27.917  11.673  1.00  0.00     0.152 C 
BRANCH  25  26
HETATM   26  C19 UNL     1      18.241  27.752  10.172  1.00  0.00     0.291 C 
BRANCH  26  27
HETATM   27  N2  UNL     1      18.935  26.540   9.871  1.00  0.00     0.087 N 
HETATM   28  C20 UNL     1      18.237  25.754   8.901  1.00  0.00     0.310 C 
BRANCH  27  29
HETATM   29  C21 UNL     1      19.359  25.744  10.970  1.00  0.00     0.291 C 
BRANCH  29  30
HETATM   30  C22 UNL     1      20.877  25.639  10.946  1.00  0.00     0.155 C 
BRANCH  30  31
HETATM   31  N3  UNL     1      21.456  26.315  12.067  1.00  0.00    -0.335 N 
HETATM   32  C23 UNL     1      21.870  27.657  12.001  1.00  0.00     0.361 C 
HETATM   33  O5  UNL     1      21.758  28.322  10.944  1.00  0.00    -0.238 OA
ATOM     34  H3  UNL     1      21.571  25.807  12.944  1.00  0.00     0.164 HD
BRANCH  32  35
HETATM   35  O6  UNL     1      22.416  28.258  13.146  1.00  0.00    -0.292 OA
BRANCH  35  36
HETATM   36  C24 UNL     1      21.525  28.536  14.209  1.00  0.00     0.274 C 
BRANCH  36  37
HETATM   37  C25 UNL     1      21.361  30.008  14.216  1.00  0.00    -0.079 C 
HETATM   38  C26 UNL     1      21.252  31.207  14.227  1.00  0.00    -0.094 C 
BRANCH  38  39
HETATM   39  C27 UNL     1      21.148  32.664  14.246  1.00  0.00     0.167 C 
BRANCH  39  40
HETATM   40  S1  UNL     1      22.311  33.350  15.448  1.00  0.00    -0.161 SA
HETATM   41  C28 UNL     1      22.159  32.457  17.006  1.00  0.00     0.090 C 
ENDBRANCH  39  40
ENDBRANCH  38  39
ENDBRANCH  36  37
ENDBRANCH  35  36
ENDBRANCH  32  35
ENDBRANCH  30  31
ENDBRANCH  29  30
ENDBRANCH  27  29
ENDBRANCH  26  27
ENDBRANCH  25  26
ENDBRANCH   3  25
TORSDOF 18
ENDMDL
MODEL 3
REMARK VINA RESULT: -7.438654948      1.901      3.028
REMARK  18 active torsions:
REMARK  status: ('A' for Active; 'I' for Inactive)
REMARK    1  A    between atoms: C2_2  and  C3_3 
REMARK    2  A    between atoms: C11_14  and  C12_15 
REMARK    3  A    between atoms: C12_15  and  C13_16 
REMARK    4  A    between atoms: C13_16  and  C14_17 
REMARK    5  A    between atoms: C14_17  and  C15_18 
REMARK    6  A    between atoms: C15_18  and  C16_19 
REMARK    7  A    between atoms: C16_19  and  C17_20 
REMARK       I    between atoms: C17_20  and  N1_22 
REMARK    8  A    between atoms: N1_22  and  C18_24 
REMARK    9  A    between atoms: C18_24  and  C19_25 
REMARK   10  A    between atoms: C19_25  and  N2_26 
REMARK   11  A    between atoms: N2_26  and  C21_28 
REMARK   12  A    between atoms: C21_28  and  C22_29 
REMARK   13  A    between atoms: C22_29  and  N3_30 
REMARK       I    between atoms: N3_30  and  C23_32 
REMARK   14  A    between atoms: C23_32  and  O6_34 
REMARK   15  A    between atoms: O6_34  and  C24_35 
REMARK   16  A    between atoms: C24_35  and  C25_36 
REMARK   17  A    between atoms: C26_37  and  C27_38 
REMARK   18  A    between atoms: C27_38  and  S1_39 
ROOT
HETATM    1  C17 UNL     1      21.709  32.185  15.460  1.00  0.00     0.217 C 
HETATM    2  O4  UNL     1      21.143  32.895  14.599  1.00  0.00    -0.274 OA
HETATM    3  N1  UNL     1      21.878  30.798  15.222  1.00  0.00    -0.359 N 
ATOM      4  H1  UNL     1      22.353  30.270  15.953  1.00  0.00     0.162 HD
ENDROOT
BRANCH   1   5
HETATM    5  C16 UNL     1      22.184  32.804  16.700  1.00  0.00     0.103 C 
BRANCH   5   6
HETATM    6  C15 UNL     1      22.108  34.316  16.716  1.00  0.00     0.009 C 
BRANCH   6   7
HETATM    7  C14 UNL     1      21.871  34.695  18.153  1.00  0.00     0.000 C 
BRANCH   7   8
HETATM    8  C13 UNL     1      20.836  35.690  18.434  1.00  0.00     0.000 C 
BRANCH   8   9
HETATM    9  C12 UNL     1      19.462  35.199  18.700  1.00  0.00     0.008 C 
BRANCH   9  10
HETATM   10  C11 UNL     1      18.438  35.700  17.709  1.00  0.00     0.024 C 
HETATM   11  C10 UNL     1      18.078  34.671  16.674  1.00  0.00     0.159 C 
HETATM   12  C6  UNL     1      16.651  34.248  16.953  1.00  0.00     0.161 C 
HETATM   13  O3  UNL     1      18.753  33.480  16.793  1.00  0.00    -0.348 OA
HETATM   14  C5  UNL     1      16.242  34.879  18.260  1.00  0.00     0.048 C 
HETATM   15  O2  UNL     1      16.677  32.871  17.007  1.00  0.00    -0.348 OA
HETATM   16  C4  UNL     1      14.894  35.525  18.121  1.00  0.00     0.176 C 
HETATM   17  C29 UNL     1      17.146  36.094  18.305  1.00  0.00     0.034 C 
HETATM   18  O1  UNL     1      15.062  36.826  17.682  1.00  0.00    -0.381 OA
HETATM   19  C3  UNL     1      16.387  36.997  17.342  1.00  0.00     0.148 C 
HETATM   20  C7  UNL     1      17.820  32.566  16.275  1.00  0.00     0.158 C 
HETATM   21  C8  UNL     1      18.279  31.150  16.527  1.00  0.00     0.078 C 
HETATM   22  C9  UNL     1      17.611  32.739  14.793  1.00  0.00     0.078 C 
BRANCH  19  23
HETATM   23  C2  UNL     1      16.865  38.375  17.310  1.00  0.00    -0.005 C 
HETATM   24  C1  UNL     1      16.202  39.332  17.928  1.00  0.00     0.009 C 
ENDBRANCH  19  23
ENDBRANCH   9  10
ENDBRANCH   8   9
ENDBRANCH   7   8
ENDBRANCH   6   7
ENDBRANCH   5   6
ENDBRANCH   1   5
BRANCH   3  25
HETATM   25  C18 UNL     1      21.464  30.060  14.085  1.00  0.00     0.152 C 
BRANCH  25  26
HETATM   26  C19 UNL     1      20.580  28.867  14.388  1.00  0.00     0.291 C 
BRANCH  26  27
HETATM   27  N2  UNL     1      19.465  28.843  13.495  1.00  0.00     0.087 N 
HETATM   28  C20 UNL     1      19.290  30.098  12.829  1.00  0.00     0.310 C 
BRANCH  27  29
HETATM   29  C21 UNL     1      18.232  28.357  14.008  1.00  0.00     0.291 C 
BRANCH  29  30
HETATM   30  C22 UNL     1      17.734  27.233  13.110  1.00  0.00     0.155 C 
BRANCH  30  31
HETATM   31  N3  UNL     1      18.754  26.815  12.198  1.00  0.00    -0.335 N 
HETATM   32  C23 UNL     1      18.710  25.572  11.543  1.00  0.00     0.361 C 
HETATM   33  O5  UNL     1      17.771  24.765  11.739  1.00  0.00    -0.238 OA
ATOM     34  H3  UNL     1      19.540  27.440  12.017  1.00  0.00     0.164 HD
BRANCH  32  35
HETATM   35  O6  UNL     1      19.740  25.235  10.651  1.00  0.00    -0.292 OA
BRANCH  35  36
HETATM   36  C24 UNL     1      20.865  24.572  11.194  1.00  0.00     0.274 C 
BRANCH  36  37
HETATM   37  C25 UNL     1      21.834  25.641  11.532  1.00  0.00    -0.079 C 
HETATM   38  C26 UNL     1      22.626  26.512  11.781  1.00  0.00    -0.094 C 
BRANCH  38  39
HETATM   39  C27 UNL     1      23.595  27.571  12.056  1.00  0.00     0.167 C 
BRANCH  39  40
HETATM   40  S1  UNL     1      25.263  26.999  11.661  1.00  0.00    -0.161 SA
HETATM   41  C28 UNL     1      25.243  26.145  10.073  1.00  0.00     0.090 C 
ENDBRANCH  39  40
ENDBRANCH  38  39
ENDBRANCH  36  37
ENDBRANCH  35  36
ENDBRANCH  32  35
ENDBRANCH  30  31
ENDBRANCH  29  30
ENDBRANCH  27  29
ENDBRANCH  26  27
ENDBRANCH  25  26
ENDBRANCH   3  25
TORSDOF 18
ENDMDL
MODEL 4
REMARK VINA RESULT: -7.369070435      2.507      9.730
REMARK  18 active torsions:
REMARK  status: ('A' for Active; 'I' for Inactive)
REMARK    1  A    between atoms: C2_2  and  C3_3 
REMARK    2  A    between atoms: C11_14  and  C12_15 
REMARK    3  A    between atoms: C12_15  and  C13_16 
REMARK    4  A    between atoms: C13_16  and  C14_17 
REMARK    5  A    between atoms: C14_17  and  C15_18 
REMARK    6  A    between atoms: C15_18  and  C16_19 
REMARK    7  A    between atoms: C16_19  and  C17_20 
REMARK       I    between atoms: C17_20  and  N1_22 
REMARK    8  A    between atoms: N1_22  and  C18_24 
REMARK    9  A    between atoms: C18_24  and  C19_25 
REMARK   10  A    between atoms: C19_25  and  N2_26 
REMARK   11  A    between atoms: N2_26  and  C21_28 
REMARK   12  A    between atoms: C21_28  and  C22_29 
REMARK   13  A    between atoms: C22_29  and  N3_30 
REMARK       I    between atoms: N3_30  and  C23_32 
REMARK   14  A    between atoms: C23_32  and  O6_34 
REMARK   15  A    between atoms: O6_34  and  C24_35 
REMARK   16  A    between atoms: C24_35  and  C25_36 
REMARK   17  A    between atoms: C26_37  and  C27_38 
REMARK   18  A    between atoms: C27_38  and  S1_39 
ROOT
HETATM    1  C17 UNL     1      21.134  33.296  16.598  1.00  0.00     0.217 C 
HETATM    2  O4  UNL     1      20.167  34.020  16.271  1.00  0.00    -0.274 OA
HETATM    3  N1  UNL     1      21.908  33.636  17.736  1.00  0.00    -0.359 N 
ATOM      4  H1  UNL     1      22.678  33.006  17.961  1.00  0.00     0.162 HD
ENDROOT
BRANCH   1   5
HETATM    5  C16 UNL     1      21.446  32.110  15.796  1.00  0.00     0.103 C 
BRANCH   5   6
HETATM    6  C15 UNL     1      21.661  32.387  14.324  1.00  0.00     0.009 C 
BRANCH   6   7
HETATM    7  C14 UNL     1      21.352  31.093  13.619  1.00  0.00     0.000 C 
BRANCH   7   8
HETATM    8  C13 UNL     1      20.962  29.946  14.439  1.00  0.00     0.000 C 
BRANCH   8   9
HETATM    9  C12 UNL     1      21.123  28.594  13.852  1.00  0.00     0.008 C 
BRANCH   9  10
HETATM   10  C11 UNL     1      20.646  28.493  12.422  1.00  0.00     0.024 C 
HETATM   11  C10 UNL     1      21.744  28.110  11.469  1.00  0.00     0.159 C 
HETATM   12  C6  UNL     1      21.437  26.707  10.988  1.00  0.00     0.161 C 
HETATM   13  O3  UNL     1      22.976  27.945  12.053  1.00  0.00    -0.348 OA
HETATM   14  C5  UNL     1      20.275  26.196  11.803  1.00  0.00     0.048 C 
HETATM   15  O2  UNL     1      22.593  25.985  11.193  1.00  0.00    -0.348 OA
HETATM   16  C4  UNL     1      19.245  25.582  10.901  1.00  0.00     0.176 C 
HETATM   17  C29 UNL     1      19.589  27.488  12.194  1.00  0.00     0.034 C 
HETATM   18  O1  UNL     1      18.366  26.566  10.485  1.00  0.00    -0.381 OA
HETATM   19  C3  UNL     1      18.867  27.785  10.887  1.00  0.00     0.148 C 
HETATM   20  C7  UNL     1      23.565  26.981  11.217  1.00  0.00     0.158 C 
HETATM   21  C8  UNL     1      24.855  26.481  11.821  1.00  0.00     0.078 C 
HETATM   22  C9  UNL     1      23.864  27.520   9.842  1.00  0.00     0.078 C 
BRANCH  19  23
HETATM   23  C2  UNL     1      17.901  28.876  10.970  1.00  0.00    -0.005 C 
HETATM   24  C1  UNL     1      17.136  29.017  12.033  1.00  0.00     0.009 C 
ENDBRANCH  19  23
ENDBRANCH   9  10
ENDBRANCH   8   9
ENDBRANCH   7   8
ENDBRANCH   6   7
ENDBRANCH   5   6
ENDBRANCH   1   5
BRANCH   3  25
HETATM   25  C18 UNL     1      21.737  34.750  18.596  1.00  0.00     0.152 C 
BRANCH  25  26
HETATM   26  C19 UNL     1      22.263  36.063  18.049  1.00  0.00     0.291 C 
BRANCH  26  27
HETATM   27  N2  UNL     1      21.334  37.114  18.323  1.00  0.00     0.087 N 
HETATM   28  C20 UNL     1      21.959  38.214  18.993  1.00  0.00     0.310 C 
BRANCH  27  29
HETATM   29  C21 UNL     1      20.112  36.754  18.952  1.00  0.00     0.291 C 
BRANCH  29  30
HETATM   30  C22 UNL     1      19.038  37.757  18.553  1.00  0.00     0.155 C 
BRANCH  30  31
HETATM   31  N3  UNL     1      17.743  37.148  18.552  1.00  0.00    -0.335 N 
HETATM   32  C23 UNL     1      16.782  37.432  17.566  1.00  0.00     0.361 C 
HETATM   33  O5  UNL     1      17.017  38.246  16.643  1.00  0.00    -0.238 OA
ATOM     34  H3  UNL     1      17.510  36.486  19.292  1.00  0.00     0.164 HD
BRANCH  32  35
HETATM   35  O6  UNL     1      15.537  36.786  17.623  1.00  0.00    -0.292 OA
BRANCH  35  36
HETATM   36  C24 UNL     1      15.417  35.708  18.531  1.00  0.00     0.274 C 
BRANCH  36  37
HETATM   37  C25 UNL     1      15.442  34.483  17.698  1.00  0.00    -0.079 C 
HETATM   38  C26 UNL     1      15.484  33.480  17.033  1.00  0.00    -0.094 C 
BRANCH  38  39
HETATM   39  C27 UNL     1      15.559  32.256  16.239  1.00  0.00     0.167 C 
BRANCH  39  40
HETATM   40  S1  UNL     1      17.287  31.795  15.978  1.00  0.00    -0.161 SA
HETATM   41  C28 UNL     1      17.793  32.283  14.319  1.00  0.00     0.090 C 
ENDBRANCH  39  40
ENDBRANCH  38  39
ENDBRANCH  36  37
ENDBRANCH  35  36
ENDBRANCH  32  35
ENDBRANCH  30  31
ENDBRANCH  29  30
ENDBRANCH  27  29
ENDBRANCH  26  27
ENDBRANCH  25  26
ENDBRANCH   3  25
TORSDOF 18
ENDMDL
MODEL 5
REMARK VINA RESULT: -7.357517958      4.173      9.094
REMARK  18 active torsions:
REMARK  status: ('A' for Active; 'I' for Inactive)
REMARK    1  A    between atoms: C2_2  and  C3_3 
REMARK    2  A    between atoms: C11_14  and  C12_15 
REMARK    3  A    between atoms: C12_15  and  C13_16 
REMARK    4  A    between atoms: C13_16  and  C14_17 
REMARK    5  A    between atoms: C14_17  and  C15_18 
REMARK    6  A    between atoms: C15_18  and  C16_19 
REMARK    7  A    between atoms: C16_19  and  C17_20 
REMARK       I    between atoms: C17_20  and  N1_22 
REMARK    8  A    between atoms: N1_22  and  C18_24 
REMARK    9  A    between atoms: C18_24  and  C19_25 
REMARK   10  A    between atoms: C19_25  and  N2_26 
REMARK   11  A    between atoms: N2_26  and  C21_28 
REMARK   12  A    between atoms: C21_28  and  C22_29 
REMARK   13  A    between atoms: C22_29  and  N3_30 
REMARK       I    between atoms: N3_30  and  C23_32 
REMARK   14  A    between atoms: C23_32  and  O6_34 
REMARK   15  A    between atoms: O6_34  and  C24_35 
REMARK   16  A    between atoms: C24_35  and  C25_36 
REMARK   17  A    between atoms: C26_37  and  C27_38 
REMARK   18  A    between atoms: C27_38  and  S1_39 
ROOT
HETATM    1  C17 UNL     1      20.569  34.527  17.024  1.00  0.00     0.217 C 
HETATM    2  O4  UNL     1      21.033  35.677  16.855  1.00  0.00    -0.274 OA
HETATM    3  N1  UNL     1      19.473  34.338  17.903  1.00  0.00    -0.359 N 
ATOM      4  H1  UNL     1      19.130  33.382  17.996  1.00  0.00     0.162 HD
ENDROOT
BRANCH   1   5
HETATM    5  C16 UNL     1      21.170  33.398  16.309  1.00  0.00     0.103 C 
BRANCH   5   6
HETATM    6  C15 UNL     1      22.407  33.749  15.510  1.00  0.00     0.009 C 
BRANCH   6   7
HETATM    7  C14 UNL     1      22.330  32.917  14.258  1.00  0.00     0.000 C 
BRANCH   7   8
HETATM    8  C13 UNL     1      21.473  31.731  14.279  1.00  0.00     0.000 C 
BRANCH   8   9
HETATM    9  C12 UNL     1      20.665  31.444  13.070  1.00  0.00     0.008 C 
BRANCH   9  10
HETATM   10  C11 UNL     1      19.200  31.774  13.228  1.00  0.00     0.024 C 
HETATM   11  C10 UNL     1      18.303  30.803  12.512  1.00  0.00     0.159 C 
HETATM   12  C6  UNL     1      17.575  30.010  13.577  1.00  0.00     0.161 C 
HETATM   13  O3  UNL     1      18.965  29.813  11.827  1.00  0.00    -0.348 OA
HETATM   14  C5  UNL     1      18.185  30.377  14.907  1.00  0.00     0.048 C 
HETATM   15  O2  UNL     1      17.767  28.686  13.248  1.00  0.00    -0.348 OA
HETATM   16  C4  UNL     1      17.104  30.677  15.904  1.00  0.00     0.176 C 
HETATM   17  C29 UNL     1      18.715  31.768  14.623  1.00  0.00     0.034 C 
HETATM   18  O1  UNL     1      16.772  32.018  15.820  1.00  0.00    -0.381 OA
HETATM   19  C3  UNL     1      17.411  32.549  14.720  1.00  0.00     0.148 C 
HETATM   20  C7  UNL     1      18.043  28.755  11.886  1.00  0.00     0.158 C 
HETATM   21  C8  UNL     1      18.676  27.480  11.383  1.00  0.00     0.078 C 
HETATM   22  C9  UNL     1      16.808  29.025  11.066  1.00  0.00     0.078 C 
BRANCH  19  23
HETATM   23  C2  UNL     1      17.579  33.998  14.718  1.00  0.00    -0.005 C 
HETATM   24  C1  UNL     1      16.536  34.797  14.815  1.00  0.00     0.009 C 
ENDBRANCH  19  23
ENDBRANCH   9  10
ENDBRANCH   8   9
ENDBRANCH   7   8
ENDBRANCH   6   7
ENDBRANCH   5   6
ENDBRANCH   1   5
BRANCH   3  25
HETATM   25  C18 UNL     1      18.798  35.323  18.667  1.00  0.00     0.152 C 
BRANCH  25  26
HETATM   26  C19 UNL     1      17.303  35.399  18.429  1.00  0.00     0.291 C 
BRANCH  26  27
HETATM   27  N2  UNL     1      16.870  36.761  18.463  1.00  0.00     0.087 N 
HETATM   28  C20 UNL     1      15.539  36.883  18.975  1.00  0.00     0.310 C 
BRANCH  27  29
HETATM   29  C21 UNL     1      17.037  37.525  17.276  1.00  0.00     0.291 C 
BRANCH  29  30
HETATM   30  C22 UNL     1      17.909  38.733  17.587  1.00  0.00     0.155 C 
BRANCH  30  31
HETATM   31  N3  UNL     1      18.965  38.865  16.630  1.00  0.00    -0.335 N 
HETATM   32  C23 UNL     1      20.317  38.923  17.009  1.00  0.00     0.361 C 
HETATM   33  O5  UNL     1      20.659  38.873  18.213  1.00  0.00    -0.238 OA
ATOM     34  H3  UNL     1      18.727  38.917  15.639  1.00  0.00     0.164 HD
BRANCH  32  35
HETATM   35  O6  UNL     1      21.299  39.039  16.012  1.00  0.00    -0.292 OA
BRANCH  35  36
HETATM   36  C24 UNL     1      21.431  40.301  15.387  1.00  0.00     0.274 C 
BRANCH  36  37
HETATM   37  C25 UNL     1      21.648  40.013  13.950  1.00  0.00    -0.079 C 
HETATM   38  C26 UNL     1      21.849  39.778  12.787  1.00  0.00    -0.094 C 
BRANCH  38  39
HETATM   39  C27 UNL     1      22.122  39.493  11.380  1.00  0.00     0.167 C 
BRANCH  39  40
HETATM   40  S1  UNL     1      23.903  39.350  11.114  1.00  0.00    -0.161 SA
HETATM   41  C28 UNL     1      24.505  40.830  10.278  1.00  0.00     0.090 C 
ENDBRANCH  39  40
ENDBRANCH  38  39
ENDBRANCH  36  37
ENDBRANCH  35  36
ENDBRANCH  32  35
ENDBRANCH  30  31
ENDBRANCH  29  30
ENDBRANCH  27  29
ENDBRANCH  26  27
ENDBRANCH  25  26
ENDBRANCH   3  25
TORSDOF 18
ENDMDL
