MODEL 1
REMARK VINA RESULT: -8.677490038      0.000      0.000
REMARK  18 active torsions:
REMARK  status: ('A' for Active; 'I' for Inactive)
REMARK    1  A    between atoms: O1_2  and  C2_3 
REMARK    2  A    between atoms: C2_3  and  C3_5 
REMARK    3  A    between atoms: C3_5  and  C4_6 
REMARK    4  A    between atoms: C4_6  and  C5_7 
REMARK    5  A    between atoms: C5_7  and  C6_8 
REMARK    6  A    between atoms: C6_8  and  C7_9 
REMARK    7  A    between atoms: C7_9  and  N1_10 
REMARK    8  A    between atoms: C7_9  and  C24_37 
REMARK    9  A    between atoms: N1_10  and  C8_12 
REMARK   10  A    between atoms: C8_12  and  C10_14 
REMARK   11  A    between atoms: C10_14  and  N2_15 
REMARK       I    between atoms: N2_15  and  C11_17 
REMARK   12  A    between atoms: C11_17  and  C12_19 
REMARK       I    between atoms: N3_23  and  C16_24 
REMARK   13  A    between atoms: C16_24  and  C17_26 
REMARK   14  A    between atoms: C17_26  and  C18_27 
REMARK   15  A    between atoms: C18_27  and  C19_29 
REMARK       I    between atoms: C19_29  and  N4_31 
REMARK   16  A    between atoms: N4_31  and  C20_33 
REMARK   17  A    between atoms: C24_37  and  C25_39 
REMARK   18  A    between atoms: C25_39  and  C26_40 
ROOT
HETATM    1  C10 UNL     1      -5.304   0.449 -15.299  1.00  0.00     0.147 C 
ENDROOT
BRANCH   1   2
HETATM    2  C8  UNL     1      -5.410  -1.062 -15.493  1.00  0.00     0.091 C 
HETATM    3  C9  UNL     1      -5.428  -1.397 -16.942  1.00  0.00     0.033 C 
BRANCH   2   4
HETATM    4  N1  UNL     1      -4.489  -1.717 -14.664  1.00  0.00    -0.405 N 
ATOM      5  H1  UNL     1      -3.728  -1.197 -14.228  1.00  0.00     0.154 HD
BRANCH   4   6
HETATM    6  C7  UNL     1      -4.627  -3.119 -14.435  1.00  0.00     0.147 C 
BRANCH   6   7
HETATM    7  C6  UNL     1      -3.309  -3.570 -13.826  1.00  0.00     0.033 C 
BRANCH   7   8
HETATM    8  C5  UNL     1      -2.118  -3.422 -14.692  1.00  0.00     0.003 C 
BRANCH   8   9
HETATM    9  C4  UNL     1      -1.926  -4.593 -15.661  1.00  0.00     0.010 C 
BRANCH   9  10
HETATM   10  C3  UNL     1      -2.397  -4.169 -17.052  1.00  0.00     0.111 C 
BRANCH  10  11
HETATM   11  C2  UNL     1      -3.279  -5.174 -17.654  1.00  0.00     0.258 C 
HETATM   12  O2  UNL     1      -2.857  -6.010 -18.500  1.00  0.00    -0.265 OA
BRANCH  11  13
HETATM   13  O1  UNL     1      -4.606  -5.192 -17.272  1.00  0.00    -0.326 OA
HETATM   14  C1  UNL     1      -5.550  -6.097 -17.763  1.00  0.00     0.213 C 
ENDBRANCH  11  13
ENDBRANCH  10  11
ENDBRANCH   9  10
ENDBRANCH   8   9
ENDBRANCH   7   8
ENDBRANCH   6   7
BRANCH   6  15
HETATM   15  C24 UNL     1      -5.738  -3.262 -13.431  1.00  0.00     0.149 C 
HETATM   16  O7  UNL     1      -5.460  -3.183 -12.237  1.00  0.00    -0.296 OA
BRANCH  15  17
HETATM   17  C25 UNL     1      -7.156  -3.489 -13.797  1.00  0.00     0.085 C 
BRANCH  17  18
HETATM   18  C26 UNL     1      -7.344  -4.375 -14.995  1.00  0.00    -0.007 C 
HETATM   19  C27 UNL     1      -8.341  -5.461 -14.555  1.00  0.00     0.005 C 
HETATM   20  C28 UNL     1      -9.040  -6.052 -15.776  1.00  0.00     0.000 C 
HETATM   21  C29 UNL     1     -10.029  -5.048 -16.346  1.00  0.00     0.000 C 
HETATM   22  C30 UNL     1      -9.528  -3.649 -16.021  1.00  0.00     0.000 C 
HETATM   23  C31 UNL     1      -8.014  -3.666 -16.141  1.00  0.00     0.005 C 
ENDBRANCH  17  18
ENDBRANCH  15  17
ENDBRANCH   6  15
ENDBRANCH   4   6
ENDBRANCH   2   4
ENDBRANCH   1   2
BRANCH   1  24
HETATM   24  N2  UNL     1      -6.311   1.003 -14.467  1.00  0.00    -0.357 N 
HETATM   25  C11 UNL     1      -6.341   0.971 -13.063  1.00  0.00     0.240 C 
HETATM   26  O3  UNL     1      -5.423   0.418 -12.425  1.00  0.00    -0.271 OA
ATOM     27  H2  UNL     1      -7.089   1.470 -14.934  1.00  0.00     0.162 HD
BRANCH  25  28
HETATM   28  C12 UNL     1      -7.445   1.579 -12.277  1.00  0.00     0.179 C 
HETATM   29  C13 UNL     1      -8.520   0.546 -11.951  1.00  0.00     0.037 C 
HETATM   30  C14 UNL     1      -8.221   0.075 -10.569  1.00  0.00     0.022 C 
HETATM   31  C15 UNL     1      -7.157   0.977 -10.052  1.00  0.00     0.127 C 
HETATM   32  N3  UNL     1      -7.013   2.047 -10.991  1.00  0.00    -0.338 N 
HETATM   33  C16 UNL     1      -6.531   3.353 -10.722  1.00  0.00     0.228 C 
HETATM   34  O4  UNL     1      -6.452   4.229 -11.646  1.00  0.00    -0.273 OA
BRANCH  33  35
HETATM   35  C17 UNL     1      -6.094   3.769  -9.364  1.00  0.00     0.192 C 
BRANCH  35  36
HETATM   36  C18 UNL     1      -4.772   4.427  -9.491  1.00  0.00     0.225 C 
HETATM   37  O5  UNL     1      -4.597   5.570  -9.013  1.00  0.00    -0.287 OA
BRANCH  36  38
HETATM   38  C19 UNL     1      -3.646   3.787 -10.162  1.00  0.00     0.288 C 
HETATM   39  O6  UNL     1      -3.140   4.315 -11.199  1.00  0.00    -0.264 OA
HETATM   40  N4  UNL     1      -3.104   2.576  -9.678  1.00  0.00    -0.346 N 
ATOM     41  H4  UNL     1      -3.509   2.146  -8.847  1.00  0.00     0.163 HD
BRANCH  40  42
HETATM   42  C20 UNL     1      -1.994   1.939 -10.331  1.00  0.00     0.022 C 
HETATM   43  C21 UNL     1      -2.268   1.621 -11.770  1.00  0.00     0.037 C 
HETATM   44  C22 UNL     1      -1.647   0.621  -9.652  1.00  0.00     0.037 C 
HETATM   45  C23 UNL     1      -0.778   2.835 -10.218  1.00  0.00     0.037 C 
ENDBRANCH  40  42
ENDBRANCH  36  38
ENDBRANCH  35  36
ENDBRANCH  33  35
ENDBRANCH  25  28
ENDBRANCH   1  24
TORSDOF 18
ENDMDL
MODEL 2
REMARK VINA RESULT: -8.620144907      2.242      4.876
REMARK  18 active torsions:
REMARK  status: ('A' for Active; 'I' for Inactive)
REMARK    1  A    between atoms: O1_2  and  C2_3 
REMARK    2  A    between atoms: C2_3  and  C3_5 
REMARK    3  A    between atoms: C3_5  and  C4_6 
REMARK    4  A    between atoms: C4_6  and  C5_7 
REMARK    5  A    between atoms: C5_7  and  C6_8 
REMARK    6  A    between atoms: C6_8  and  C7_9 
REMARK    7  A    between atoms: C7_9  and  N1_10 
REMARK    8  A    between atoms: C7_9  and  C24_37 
REMARK    9  A    between atoms: N1_10  and  C8_12 
REMARK   10  A    between atoms: C8_12  and  C10_14 
REMARK   11  A    between atoms: C10_14  and  N2_15 
REMARK       I    between atoms: N2_15  and  C11_17 
REMARK   12  A    between atoms: C11_17  and  C12_19 
REMARK       I    between atoms: N3_23  and  C16_24 
REMARK   13  A    between atoms: C16_24  and  C17_26 
REMARK   14  A    between atoms: C17_26  and  C18_27 
REMARK   15  A    between atoms: C18_27  and  C19_29 
REMARK       I    between atoms: C19_29  and  N4_31 
REMARK   16  A    between atoms: N4_31  and  C20_33 
REMARK   17  A    between atoms: C24_37  and  C25_39 
REMARK   18  A    between atoms: C25_39  and  C26_40 
ROOT
HETATM    1  C10 UNL     1      -7.566  -2.475 -14.413  1.00  0.00     0.147 C 
ENDROOT
BRANCH   1   2
HETATM    2  C8  UNL     1      -7.484  -2.310 -15.929  1.00  0.00     0.091 C 
HETATM    3  C9  UNL     1      -6.198  -1.669 -16.311  1.00  0.00     0.033 C 
BRANCH   2   4
HETATM    4  N1  UNL     1      -7.853  -3.506 -16.560  1.00  0.00    -0.405 N 
ATOM      5  H1  UNL     1      -8.419  -3.487 -17.409  1.00  0.00     0.154 HD
BRANCH   4   6
HETATM    6  C7  UNL     1      -7.430  -4.750 -16.005  1.00  0.00     0.147 C 
BRANCH   6   7
HETATM    7  C6  UNL     1      -8.679  -5.613 -15.922  1.00  0.00     0.033 C 
BRANCH   7   8
HETATM    8  C5  UNL     1      -9.885  -5.062 -16.580  1.00  0.00     0.003 C 
BRANCH   8   9
HETATM    9  C4  UNL     1     -10.205  -5.737 -17.919  1.00  0.00     0.010 C 
BRANCH   9  10
HETATM   10  C3  UNL     1     -10.773  -7.129 -17.649  1.00  0.00     0.111 C 
BRANCH  10  11
HETATM   11  C2  UNL     1      -9.923  -8.180 -18.216  1.00  0.00     0.258 C 
HETATM   12  O2  UNL     1      -9.872  -8.399 -19.458  1.00  0.00    -0.265 OA
BRANCH  11  13
HETATM   13  O1  UNL     1      -9.162  -8.942 -17.351  1.00  0.00    -0.326 OA
HETATM   14  C1  UNL     1      -7.770  -8.859 -17.253  1.00  0.00     0.213 C 
ENDBRANCH  11  13
ENDBRANCH  10  11
ENDBRANCH   9  10
ENDBRANCH   8   9
ENDBRANCH   7   8
ENDBRANCH   6   7
BRANCH   6  15
HETATM   15  C24 UNL     1      -6.462  -5.333 -16.998  1.00  0.00     0.149 C 
HETATM   16  O7  UNL     1      -6.849  -5.522 -18.149  1.00  0.00    -0.296 OA
BRANCH  15  17
HETATM   17  C25 UNL     1      -5.062  -5.691 -16.671  1.00  0.00     0.085 C 
BRANCH  17  18
HETATM   18  C26 UNL     1      -4.128  -4.516 -16.611  1.00  0.00    -0.007 C 
HETATM   19  C27 UNL     1      -3.730  -4.380 -15.130  1.00  0.00     0.005 C 
HETATM   20  C28 UNL     1      -2.400  -3.639 -15.015  1.00  0.00     0.000 C 
HETATM   21  C29 UNL     1      -1.264  -4.536 -15.478  1.00  0.00     0.000 C 
HETATM   22  C30 UNL     1      -1.815  -5.511 -16.506  1.00  0.00     0.000 C 
HETATM   23  C31 UNL     1      -2.837  -4.763 -17.344  1.00  0.00     0.005 C 
ENDBRANCH  17  18
ENDBRANCH  15  17
ENDBRANCH   6  15
ENDBRANCH   4   6
ENDBRANCH   2   4
ENDBRANCH   1   2
BRANCH   1  24
HETATM   24  N2  UNL     1      -6.682  -1.636 -13.686  1.00  0.00    -0.357 N 
HETATM   25  C11 UNL     1      -5.779  -2.045 -12.690  1.00  0.00     0.240 C 
HETATM   26  O3  UNL     1      -5.696  -3.247 -12.368  1.00  0.00    -0.271 OA
ATOM     27  H2  UNL     1      -6.704  -0.641 -13.907  1.00  0.00     0.162 HD
BRANCH  25  28
HETATM   28  C12 UNL     1      -4.892  -1.089 -11.980  1.00  0.00     0.179 C 
HETATM   29  C13 UNL     1      -3.449  -1.220 -12.458  1.00  0.00     0.037 C 
HETATM   30  C14 UNL     1      -3.262  -0.145 -13.474  1.00  0.00     0.022 C 
HETATM   31  C15 UNL     1      -4.482   0.703 -13.400  1.00  0.00     0.127 C 
HETATM   32  N3  UNL     1      -5.225   0.280 -12.252  1.00  0.00    -0.338 N 
HETATM   33  C16 UNL     1      -6.137   1.060 -11.496  1.00  0.00     0.228 C 
HETATM   34  O4  UNL     1      -6.739   0.571 -10.483  1.00  0.00    -0.273 OA
BRANCH  33  35
HETATM   35  C17 UNL     1      -6.439   2.474 -11.839  1.00  0.00     0.192 C 
BRANCH  35  36
HETATM   36  C18 UNL     1      -5.692   3.342 -10.898  1.00  0.00     0.225 C 
HETATM   37  O5  UNL     1      -6.315   4.062 -10.088  1.00  0.00    -0.287 OA
BRANCH  36  38
HETATM   38  C19 UNL     1      -4.234   3.392 -10.878  1.00  0.00     0.288 C 
HETATM   39  O6  UNL     1      -3.622   4.328 -11.478  1.00  0.00    -0.264 OA
HETATM   40  N4  UNL     1      -3.482   2.409 -10.199  1.00  0.00    -0.346 N 
ATOM     41  H4  UNL     1      -3.968   1.653  -9.718  1.00  0.00     0.163 HD
BRANCH  40  42
HETATM   42  C20 UNL     1      -2.046   2.451 -10.172  1.00  0.00     0.022 C 
HETATM   43  C21 UNL     1      -1.511   3.517  -9.263  1.00  0.00     0.037 C 
HETATM   44  C22 UNL     1      -1.483   2.738 -11.557  1.00  0.00     0.037 C 
HETATM   45  C23 UNL     1      -1.523   1.094  -9.748  1.00  0.00     0.037 C 
ENDBRANCH  40  42
ENDBRANCH  36  38
ENDBRANCH  35  36
ENDBRANCH  33  35
ENDBRANCH  25  28
ENDBRANCH   1  24
TORSDOF 18
ENDMDL
MODEL 3
REMARK VINA RESULT: -8.398533154      2.307      3.659
REMARK  18 active torsions:
REMARK  status: ('A' for Active; 'I' for Inactive)
REMARK    1  A    between atoms: O1_2  and  C2_3 
REMARK    2  A    between atoms: C2_3  and  C3_5 
REMARK    3  A    between atoms: C3_5  and  C4_6 
REMARK    4  A    between atoms: C4_6  and  C5_7 
REMARK    5  A    between atoms: C5_7  and  C6_8 
REMARK    6  A    between atoms: C6_8  and  C7_9 
REMARK    7  A    between atoms: C7_9  and  N1_10 
REMARK    8  A    between atoms: C7_9  and  C24_37 
REMARK    9  A    between atoms: N1_10  and  C8_12 
REMARK   10  A    between atoms: C8_12  and  C10_14 
REMARK   11  A    between atoms: C10_14  and  N2_15 
REMARK       I    between atoms: N2_15  and  C11_17 
REMARK   12  A    between atoms: C11_17  and  C12_19 
REMARK       I    between atoms: N3_23  and  C16_24 
REMARK   13  A    between atoms: C16_24  and  C17_26 
REMARK   14  A    between atoms: C17_26  and  C18_27 
REMARK   15  A    between atoms: C18_27  and  C19_29 
REMARK       I    between atoms: C19_29  and  N4_31 
REMARK   16  A    between atoms: N4_31  and  C20_33 
REMARK   17  A    between atoms: C24_37  and  C25_39 
REMARK   18  A    between atoms: C25_39  and  C26_40 
ROOT
HETATM    1  C10 UNL     1      -5.831   1.028 -10.473  1.00  0.00     0.147 C 
ENDROOT
BRANCH   1   2
HETATM    2  C8  UNL     1      -6.812   0.806 -11.623  1.00  0.00     0.091 C 
HETATM    3  C9  UNL     1      -7.220   2.108 -12.213  1.00  0.00     0.033 C 
BRANCH   2   4
HETATM    4  N1  UNL     1      -6.330  -0.197 -12.475  1.00  0.00    -0.405 N 
ATOM      5  H1  UNL     1      -6.612  -1.168 -12.339  1.00  0.00     0.154 HD
BRANCH   4   6
HETATM    6  C7  UNL     1      -5.442   0.153 -13.536  1.00  0.00     0.147 C 
BRANCH   6   7
HETATM    7  C6  UNL     1      -4.105  -0.479 -13.180  1.00  0.00     0.033 C 
BRANCH   7   8
HETATM    8  C5  UNL     1      -4.175  -1.793 -12.503  1.00  0.00     0.003 C 
BRANCH   8   9
HETATM    9  C4  UNL     1      -3.787  -2.963 -13.413  1.00  0.00     0.010 C 
BRANCH   9  10
HETATM   10  C3  UNL     1      -2.770  -2.474 -14.444  1.00  0.00     0.111 C 
BRANCH  10  11
HETATM   11  C2  UNL     1      -1.995  -3.584 -15.008  1.00  0.00     0.258 C 
HETATM   12  O2  UNL     1      -0.902  -3.960 -14.501  1.00  0.00    -0.265 OA
BRANCH  11  13
HETATM   13  O1  UNL     1      -2.492  -4.226 -16.126  1.00  0.00    -0.326 OA
HETATM   14  C1  UNL     1      -2.003  -5.440 -16.613  1.00  0.00     0.213 C 
ENDBRANCH  11  13
ENDBRANCH  10  11
ENDBRANCH   9  10
ENDBRANCH   8   9
ENDBRANCH   7   8
ENDBRANCH   6   7
BRANCH   6  15
HETATM   15  C24 UNL     1      -6.007  -0.490 -14.772  1.00  0.00     0.149 C 
HETATM   16  O7  UNL     1      -5.390  -0.369 -15.828  1.00  0.00    -0.296 OA
BRANCH  15  17
HETATM   17  C25 UNL     1      -7.267  -1.269 -14.793  1.00  0.00     0.085 C 
BRANCH  17  18
HETATM   18  C26 UNL     1      -7.116  -2.664 -15.328  1.00  0.00    -0.007 C 
HETATM   19  C27 UNL     1      -7.441  -3.597 -14.148  1.00  0.00     0.005 C 
HETATM   20  C28 UNL     1      -7.879  -4.963 -14.670  1.00  0.00     0.000 C 
HETATM   21  C29 UNL     1      -9.269  -4.866 -15.278  1.00  0.00     0.000 C 
HETATM   22  C30 UNL     1      -9.462  -3.451 -15.802  1.00  0.00     0.000 C 
HETATM   23  C31 UNL     1      -8.136  -2.995 -16.384  1.00  0.00     0.005 C 
ENDBRANCH  17  18
ENDBRANCH  15  17
ENDBRANCH   6  15
ENDBRANCH   4   6
ENDBRANCH   2   4
ENDBRANCH   1   2
BRANCH   1  24
HETATM   24  N2  UNL     1      -6.104   2.176  -9.685  1.00  0.00    -0.357 N 
HETATM   25  C11 UNL     1      -6.893   2.218  -8.524  1.00  0.00     0.240 C 
HETATM   26  O3  UNL     1      -7.433   1.180  -8.089  1.00  0.00    -0.271 OA
ATOM     27  H2  UNL     1      -5.688   3.055  -9.992  1.00  0.00     0.162 HD
BRANCH  25  28
HETATM   28  C12 UNL     1      -7.126   3.473  -7.765  1.00  0.00     0.179 C 
HETATM   29  C13 UNL     1      -8.098   3.245  -6.611  1.00  0.00     0.037 C 
HETATM   30  C14 UNL     1      -7.249   3.046  -5.403  1.00  0.00     0.022 C 
HETATM   31  C15 UNL     1      -5.860   3.380  -5.819  1.00  0.00     0.127 C 
HETATM   32  N3  UNL     1      -5.936   3.959  -7.125  1.00  0.00    -0.338 N 
HETATM   33  C16 UNL     1      -5.011   4.861  -7.710  1.00  0.00     0.228 C 
HETATM   34  O4  UNL     1      -5.190   5.317  -8.888  1.00  0.00    -0.273 OA
BRANCH  33  35
HETATM   35  C17 UNL     1      -3.795   5.320  -6.990  1.00  0.00     0.192 C 
BRANCH  35  36
HETATM   36  C18 UNL     1      -2.738   4.298  -7.182  1.00  0.00     0.225 C 
HETATM   37  O5  UNL     1      -2.216   3.749  -6.187  1.00  0.00    -0.287 OA
BRANCH  36  38
HETATM   38  C19 UNL     1      -2.273   3.900  -8.507  1.00  0.00     0.288 C 
HETATM   39  O6  UNL     1      -1.877   4.778  -9.332  1.00  0.00    -0.264 OA
HETATM   40  N4  UNL     1      -2.257   2.542  -8.893  1.00  0.00    -0.346 N 
ATOM     41  H4  UNL     1      -2.577   1.832  -8.235  1.00  0.00     0.163 HD
BRANCH  40  42
HETATM   42  C20 UNL     1      -1.800   2.140 -10.195  1.00  0.00     0.022 C 
HETATM   43  C21 UNL     1      -0.363   2.490 -10.442  1.00  0.00     0.037 C 
HETATM   44  C22 UNL     1      -2.608   2.821 -11.290  1.00  0.00     0.037 C 
HETATM   45  C23 UNL     1      -2.006   0.647 -10.347  1.00  0.00     0.037 C 
ENDBRANCH  40  42
ENDBRANCH  36  38
ENDBRANCH  35  36
ENDBRANCH  33  35
ENDBRANCH  25  28
ENDBRANCH   1  24
TORSDOF 18
ENDMDL
MODEL 4
REMARK VINA RESULT: -8.395495371      1.712      3.523
REMARK  18 active torsions:
REMARK  status: ('A' for Active; 'I' for Inactive)
REMARK    1  A    between atoms: O1_2  and  C2_3 
REMARK    2  A    between atoms: C2_3  and  C3_5 
REMARK    3  A    between atoms: C3_5  and  C4_6 
REMARK    4  A    between atoms: C4_6  and  C5_7 
REMARK    5  A    between atoms: C5_7  and  C6_8 
REMARK    6  A    between atoms: C6_8  and  C7_9 
REMARK    7  A    between atoms: C7_9  and  N1_10 
REMARK    8  A    between atoms: C7_9  and  C24_37 
REMARK    9  A    between atoms: N1_10  and  C8_12 
REMARK   10  A    between atoms: C8_12  and  C10_14 
REMARK   11  A    between atoms: C10_14  and  N2_15 
REMARK       I    between atoms: N2_15  and  C11_17 
REMARK   12  A    between atoms: C11_17  and  C12_19 
REMARK       I    between atoms: N3_23  and  C16_24 
REMARK   13  A    between atoms: C16_24  and  C17_26 
REMARK   14  A    between atoms: C17_26  and  C18_27 
REMARK   15  A    between atoms: C18_27  and  C19_29 
REMARK       I    between atoms: C19_29  and  N4_31 
REMARK   16  A    between atoms: N4_31  and  C20_33 
REMARK   17  A    between atoms: C24_37  and  C25_39 
REMARK   18  A    between atoms: C25_39  and  C26_40 
ROOT
HETATM    1  C10 UNL     1      -4.131   0.594 -13.986  1.00  0.00     0.147 C 
ENDROOT
BRANCH   1   2
HETATM    2  C8  UNL     1      -3.803  -0.878 -13.743  1.00  0.00     0.091 C 
HETATM    3  C9  UNL     1      -3.910  -1.199 -12.295  1.00  0.00     0.033 C 
BRANCH   2   4
HETATM    4  N1  UNL     1      -4.492  -1.679 -14.662  1.00  0.00    -0.405 N 
ATOM      5  H1  UNL     1      -4.696  -1.331 -15.599  1.00  0.00     0.154 HD
BRANCH   4   6
HETATM    6  C7  UNL     1      -4.907  -2.989 -14.275  1.00  0.00     0.147 C 
BRANCH   6   7
HETATM    7  C6  UNL     1      -6.175  -3.271 -15.066  1.00  0.00     0.033 C 
BRANCH   7   8
HETATM    8  C5  UNL     1      -7.020  -4.373 -14.553  1.00  0.00     0.003 C 
BRANCH   8   9
HETATM    9  C4  UNL     1      -8.427  -4.387 -15.160  1.00  0.00     0.010 C 
BRANCH   9  10
HETATM   10  C3  UNL     1      -8.312  -4.379 -16.683  1.00  0.00     0.111 C 
BRANCH  10  11
HETATM   11  C2  UNL     1      -9.195  -5.374 -17.298  1.00  0.00     0.258 C 
HETATM   12  O2  UNL     1      -9.749  -5.175 -18.415  1.00  0.00    -0.265 OA
BRANCH  11  13
HETATM   13  O1  UNL     1      -9.416  -6.558 -16.622  1.00  0.00    -0.326 OA
HETATM   14  C1  UNL     1      -8.678  -7.727 -16.829  1.00  0.00     0.213 C 
ENDBRANCH  11  13
ENDBRANCH  10  11
ENDBRANCH   9  10
ENDBRANCH   8   9
ENDBRANCH   7   8
ENDBRANCH   6   7
BRANCH   6  15
HETATM   15  C24 UNL     1      -3.805  -3.913 -14.715  1.00  0.00     0.149 C 
HETATM   16  O7  UNL     1      -2.999  -4.304 -13.873  1.00  0.00    -0.296 OA
BRANCH  15  17
HETATM   17  C25 UNL     1      -3.633  -4.386 -16.109  1.00  0.00     0.085 C 
BRANCH  17  18
HETATM   18  C26 UNL     1      -3.722  -5.877 -16.264  1.00  0.00    -0.007 C 
HETATM   19  C27 UNL     1      -4.964  -6.128 -17.138  1.00  0.00     0.005 C 
HETATM   20  C28 UNL     1      -4.848  -7.484 -17.830  1.00  0.00     0.000 C 
HETATM   21  C29 UNL     1      -3.801  -7.418 -18.931  1.00  0.00     0.000 C 
HETATM   22  C30 UNL     1      -2.774  -6.364 -18.547  1.00  0.00     0.000 C 
HETATM   23  C31 UNL     1      -2.569  -6.449 -17.045  1.00  0.00     0.005 C 
ENDBRANCH  17  18
ENDBRANCH  15  17
ENDBRANCH   6  15
ENDBRANCH   4   6
ENDBRANCH   2   4
ENDBRANCH   1   2
BRANCH   1  24
HETATM   24  N2  UNL     1      -5.195   1.094 -13.192  1.00  0.00    -0.357 N 
HETATM   25  C11 UNL     1      -6.566   0.874 -13.406  1.00  0.00     0.240 C 
HETATM   26  O3  UNL     1      -6.951   0.178 -14.367  1.00  0.00    -0.271 OA
ATOM     27  H2  UNL     1      -4.941   1.670 -12.389  1.00  0.00     0.162 HD
BRANCH  25  28
HETATM   28  C12 UNL     1      -7.612   1.444 -12.518  1.00  0.00     0.179 C 
HETATM   29  C13 UNL     1      -8.654   0.391 -12.152  1.00  0.00     0.037 C 
HETATM   30  C14 UNL     1      -8.251  -0.127 -10.814  1.00  0.00     0.022 C 
HETATM   31  C15 UNL     1      -7.157   0.764 -10.344  1.00  0.00     0.127 C 
HETATM   32  N3  UNL     1      -7.088   1.869 -11.251  1.00  0.00    -0.338 N 
HETATM   33  C16 UNL     1      -6.595   3.168 -10.971  1.00  0.00     0.228 C 
HETATM   34  O4  UNL     1      -6.589   4.077 -11.866  1.00  0.00    -0.273 OA
BRANCH  33  35
HETATM   35  C17 UNL     1      -6.062   3.539  -9.634  1.00  0.00     0.192 C 
BRANCH  35  36
HETATM   36  C18 UNL     1      -4.832   4.340  -9.839  1.00  0.00     0.225 C 
HETATM   37  O5  UNL     1      -4.843   5.568  -9.604  1.00  0.00    -0.287 OA
BRANCH  36  38
HETATM   38  C19 UNL     1      -3.586   3.745 -10.313  1.00  0.00     0.288 C 
HETATM   39  O6  UNL     1      -2.938   4.294 -11.256  1.00  0.00    -0.264 OA
HETATM   40  N4  UNL     1      -3.084   2.557  -9.739  1.00  0.00    -0.346 N 
ATOM     41  H4  UNL     1      -3.602   2.110  -8.983  1.00  0.00     0.163 HD
BRANCH  40  42
HETATM   42  C20 UNL     1      -1.858   1.965 -10.198  1.00  0.00     0.022 C 
HETATM   43  C21 UNL     1      -1.766   1.897 -11.692  1.00  0.00     0.037 C 
HETATM   44  C22 UNL     1      -1.719   0.537  -9.687  1.00  0.00     0.037 C 
HETATM   45  C23 UNL     1      -0.692   2.756  -9.639  1.00  0.00     0.037 C 
ENDBRANCH  40  42
ENDBRANCH  36  38
ENDBRANCH  35  36
ENDBRANCH  33  35
ENDBRANCH  25  28
ENDBRANCH   1  24
TORSDOF 18
ENDMDL
MODEL 5
REMARK VINA RESULT: -8.394922304      2.469      4.896
REMARK  18 active torsions:
REMARK  status: ('A' for Active; 'I' for Inactive)
REMARK    1  A    between atoms: O1_2  and  C2_3 
REMARK    2  A    between atoms: C2_3  and  C3_5 
REMARK    3  A    between atoms: C3_5  and  C4_6 
REMARK    4  A    between atoms: C4_6  and  C5_7 
REMARK    5  A    between atoms: C5_7  and  C6_8 
REMARK    6  A    between atoms: C6_8  and  C7_9 
REMARK    7  A    between atoms: C7_9  and  N1_10 
REMARK    8  A    between atoms: C7_9  and  C24_37 
REMARK    9  A    between atoms: N1_10  and  C8_12 
REMARK   10  A    between atoms: C8_12  and  C10_14 
REMARK   11  A    between atoms: C10_14  and  N2_15 
REMARK       I    between atoms: N2_15  and  C11_17 
REMARK   12  A    between atoms: C11_17  and  C12_19 
REMARK       I    between atoms: N3_23  and  C16_24 
REMARK   13  A    between atoms: C16_24  and  C17_26 
REMARK   14  A    between atoms: C17_26  and  C18_27 
REMARK   15  A    between atoms: C18_27  and  C19_29 
REMARK       I    between atoms: C19_29  and  N4_31 
REMARK   16  A    between atoms: N4_31  and  C20_33 
REMARK   17  A    between atoms: C24_37  and  C25_39 
REMARK   18  A    between atoms: C25_39  and  C26_40 
ROOT
HETATM    1  C10 UNL     1      -6.224   1.333 -10.369  1.00  0.00     0.147 C 
ENDROOT
BRANCH   1   2
HETATM    2  C8  UNL     1      -6.748   1.675 -11.763  1.00  0.00     0.091 C 
HETATM    3  C9  UNL     1      -7.267   3.068 -11.792  1.00  0.00     0.033 C 
BRANCH   2   4
HETATM    4  N1  UNL     1      -5.816   1.283 -12.733  1.00  0.00    -0.405 N 
ATOM      5  H1  UNL     1      -5.229   1.979 -13.194  1.00  0.00     0.154 HD
BRANCH   4   6
HETATM    6  C7  UNL     1      -5.696  -0.098 -13.071  1.00  0.00     0.147 C 
BRANCH   6   7
HETATM    7  C6  UNL     1      -6.989  -0.464 -13.783  1.00  0.00     0.033 C 
BRANCH   7   8
HETATM    8  C5  UNL     1      -7.493  -1.833 -13.537  1.00  0.00     0.003 C 
BRANCH   8   9
HETATM    9  C4  UNL     1      -7.764  -2.618 -14.824  1.00  0.00     0.010 C 
BRANCH   9  10
HETATM   10  C3  UNL     1      -7.544  -4.106 -14.554  1.00  0.00     0.111 C 
BRANCH  10  11
HETATM   11  C2  UNL     1      -8.685  -4.911 -15.002  1.00  0.00     0.258 C 
HETATM   12  O2  UNL     1      -8.868  -6.092 -14.596  1.00  0.00    -0.265 OA
BRANCH  11  13
HETATM   13  O1  UNL     1      -9.575  -4.344 -15.893  1.00  0.00    -0.326 OA
HETATM   14  C1  UNL     1      -9.728  -4.760 -17.218  1.00  0.00     0.213 C 
ENDBRANCH  11  13
ENDBRANCH  10  11
ENDBRANCH   9  10
ENDBRANCH   8   9
ENDBRANCH   7   8
ENDBRANCH   6   7
BRANCH   6  15
HETATM   15  C24 UNL     1      -4.536  -0.187 -14.024  1.00  0.00     0.149 C 
HETATM   16  O7  UNL     1      -4.460   0.641 -14.930  1.00  0.00    -0.296 OA
BRANCH  15  17
HETATM   17  C25 UNL     1      -3.472  -1.214 -13.935  1.00  0.00     0.085 C 
BRANCH  17  18
HETATM   18  C26 UNL     1      -3.945  -2.610 -14.221  1.00  0.00    -0.007 C 
HETATM   19  C27 UNL     1      -4.101  -2.690 -15.750  1.00  0.00     0.005 C 
HETATM   20  C28 UNL     1      -4.012  -4.143 -16.207  1.00  0.00     0.000 C 
HETATM   21  C29 UNL     1      -2.578  -4.636 -16.096  1.00  0.00     0.000 C 
HETATM   22  C30 UNL     1      -1.894  -3.862 -14.980  1.00  0.00     0.000 C 
HETATM   23  C31 UNL     1      -2.915  -3.653 -13.876  1.00  0.00     0.005 C 
ENDBRANCH  17  18
ENDBRANCH  15  17
ENDBRANCH   6  15
ENDBRANCH   4   6
ENDBRANCH   2   4
ENDBRANCH   1   2
BRANCH   1  24
HETATM   24  N2  UNL     1      -6.333   2.390  -9.429  1.00  0.00    -0.357 N 
HETATM   25  C11 UNL     1      -6.916   2.311  -8.154  1.00  0.00     0.240 C 
HETATM   26  O3  UNL     1      -7.403   1.237  -7.747  1.00  0.00    -0.271 OA
ATOM     27  H2  UNL     1      -5.950   3.294  -9.705  1.00  0.00     0.162 HD
BRANCH  25  28
HETATM   28  C12 UNL     1      -6.986   3.478  -7.236  1.00  0.00     0.179 C 
HETATM   29  C13 UNL     1      -7.741   3.126  -5.958  1.00  0.00     0.037 C 
HETATM   30  C14 UNL     1      -6.695   2.799  -4.949  1.00  0.00     0.022 C 
HETATM   31  C15 UNL     1      -5.397   3.176  -5.570  1.00  0.00     0.127 C 
HETATM   32  N3  UNL     1      -5.693   3.892  -6.772  1.00  0.00    -0.338 N 
HETATM   33  C16 UNL     1      -4.869   4.852  -7.414  1.00  0.00     0.228 C 
HETATM   34  O4  UNL     1      -5.245   5.431  -8.486  1.00  0.00    -0.273 OA
BRANCH  33  35
HETATM   35  C17 UNL     1      -3.536   5.231  -6.879  1.00  0.00     0.192 C 
BRANCH  35  36
HETATM   36  C18 UNL     1      -2.573   4.169  -7.258  1.00  0.00     0.225 C 
HETATM   37  O5  UNL     1      -1.967   3.533  -6.368  1.00  0.00    -0.287 OA
BRANCH  36  38
HETATM   38  C19 UNL     1      -2.298   3.830  -8.650  1.00  0.00     0.288 C 
HETATM   39  O6  UNL     1      -1.951   4.736  -9.469  1.00  0.00    -0.264 OA
HETATM   40  N4  UNL     1      -2.413   2.501  -9.110  1.00  0.00    -0.346 N 
ATOM     41  H4  UNL     1      -2.694   1.769  -8.458  1.00  0.00     0.163 HD
BRANCH  40  42
HETATM   42  C20 UNL     1      -2.142   2.156 -10.479  1.00  0.00     0.022 C 
HETATM   43  C21 UNL     1      -0.698   2.316 -10.846  1.00  0.00     0.037 C 
HETATM   44  C22 UNL     1      -2.933   3.044 -11.430  1.00  0.00     0.037 C 
HETATM   45  C23 UNL     1      -2.588   0.729 -10.723  1.00  0.00     0.037 C 
ENDBRANCH  40  42
ENDBRANCH  36  38
ENDBRANCH  35  36
ENDBRANCH  33  35
ENDBRANCH  25  28
ENDBRANCH   1  24
TORSDOF 18
ENDMDL
