MODEL 1
REMARK VINA RESULT: -8.139465013      0.000      0.000
REMARK  17 active torsions:
REMARK  status: ('A' for Active; 'I' for Inactive)
REMARK    1  A    between atoms: C2_2  and  C3_3 
REMARK    2  A    between atoms: C3_3  and  C4_4 
REMARK    3  A    between atoms: C4_4  and  C5_5 
REMARK    4  A    between atoms: C5_5  and  N1_6 
REMARK    5  A    between atoms: C5_5  and  C6_10 
REMARK       I    between atoms: C6_10  and  N2_12 
REMARK    6  A    between atoms: C10_16  and  C11_17 
REMARK       I    between atoms: C11_17  and  N3_19 
REMARK    7  A    between atoms: N3_19  and  C12_21 
REMARK    8  A    between atoms: C12_21  and  C13_22 
REMARK    9  A    between atoms: C13_22  and  C14_23 
REMARK   10  A    between atoms: C14_23  and  N4_24 
REMARK   11  A    between atoms: C14_23  and  C27_43 
REMARK   12  A    between atoms: N4_24  and  C15_26 
REMARK   13  A    between atoms: C15_26  and  C16_27 
REMARK   14  A    between atoms: C15_26  and  C20_31 
REMARK   15  A    between atoms: C16_27  and  C17_28 
REMARK   16  A    between atoms: C17_28  and  C18_29 
REMARK       I    between atoms: C20_31  and  N5_33 
REMARK       I    between atoms: N6_36  and  C23_37 
REMARK   17  A    between atoms: C23_37  and  O5_39 
ROOT
HETATM    1  C14 UNL     1      -5.677   0.577 -13.453  1.00  0.00     0.086 C 
ENDROOT
BRANCH   1   2
HETATM    2  C13 UNL     1      -4.676   0.302 -14.540  1.00  0.00     0.045 C 
BRANCH   2   3
HETATM    3  C12 UNL     1      -3.369  -0.247 -14.175  1.00  0.00     0.124 C 
BRANCH   3   4
HETATM    4  N3  UNL     1      -3.292  -1.642 -14.591  1.00  0.00    -0.359 N 
HETATM    5  C11 UNL     1      -3.632  -2.751 -13.807  1.00  0.00     0.240 C 
HETATM    6  O2  UNL     1      -4.040  -2.606 -12.634  1.00  0.00    -0.271 OA
ATOM      7  H3  UNL     1      -2.961  -1.826 -15.538  1.00  0.00     0.162 HD
BRANCH   5   8
HETATM    8  C10 UNL     1      -3.529  -4.159 -14.314  1.00  0.00     0.179 C 
HETATM    9  N2  UNL     1      -4.502  -4.434 -15.349  1.00  0.00    -0.337 N 
HETATM   10  C6  UNL     1      -5.905  -4.450 -15.224  1.00  0.00     0.251 C 
HETATM   11  C7  UNL     1      -3.795  -4.696 -16.603  1.00  0.00     0.127 C 
HETATM   12  O1  UNL     1      -6.406  -4.213 -14.095  1.00  0.00    -0.271 OA
HETATM   13  C8  UNL     1      -2.475  -3.950 -16.388  1.00  0.00     0.022 C 
HETATM   14  C9  UNL     1      -2.173  -4.377 -14.964  1.00  0.00     0.037 C 
BRANCH  10  15
HETATM   15  C5  UNL     1      -6.843  -4.729 -16.351  1.00  0.00     0.275 C 
BRANCH  15  16
HETATM   16  C4  UNL     1      -8.216  -5.072 -15.858  1.00  0.00     0.042 C 
BRANCH  16  17
HETATM   17  C3  UNL     1      -9.351  -4.340 -16.453  1.00  0.00     0.002 C 
BRANCH  17  18
HETATM   18  C2  UNL     1     -10.097  -5.002 -17.566  1.00  0.00    -0.004 C 
HETATM   19  C1  UNL     1     -10.165  -6.527 -17.266  1.00  0.00     0.005 C 
ENDBRANCH  17  18
ENDBRANCH  16  17
ENDBRANCH  15  16
BRANCH  15  20
HETATM   20  N1  UNL     1      -6.921  -3.528 -17.155  1.00  0.00    -0.067 N 
ATOM     21  H13 UNL     1      -7.881  -3.291 -17.408  1.00  0.00     0.275 HD
ATOM     22  H12 UNL     1      -6.704  -2.687 -16.620  1.00  0.00     0.275 HD
ATOM     23  H11 UNL     1      -6.318  -3.637 -17.970  1.00  0.00     0.275 HD
ENDBRANCH  15  20
ENDBRANCH  10  15
ENDBRANCH   5   8
ENDBRANCH   3   4
ENDBRANCH   2   3
ENDBRANCH   1   2
BRANCH   1  24
HETATM   24  N4  UNL     1      -5.150   0.386 -12.145  1.00  0.00    -0.404 N 
ATOM     25  H4  UNL     1      -4.861  -0.536 -11.818  1.00  0.00     0.154 HD
BRANCH  24  26
HETATM   26  C15 UNL     1      -5.042   1.541 -11.308  1.00  0.00     0.170 C 
BRANCH  26  27
HETATM   27  C16 UNL     1      -6.069   1.584 -10.212  1.00  0.00     0.034 C 
BRANCH  27  28
HETATM   28  C17 UNL     1      -7.319   2.338 -10.550  1.00  0.00     0.002 C 
BRANCH  28  29
HETATM   29  C18 UNL     1      -6.879   3.520 -11.419  1.00  0.00    -0.004 C 
HETATM   30  C19 UNL     1      -7.734   4.728 -11.216  1.00  0.00     0.005 C 
ENDBRANCH  28  29
ENDBRANCH  27  28
ENDBRANCH  26  27
BRANCH  26  31
HETATM   31  C20 UNL     1      -3.660   1.614 -10.757  1.00  0.00     0.242 C 
HETATM   32  O3  UNL     1      -3.044   0.494 -10.691  1.00  0.00    -0.271 OA
HETATM   33  N5  UNL     1      -2.976   2.740 -10.317  1.00  0.00    -0.347 N 
HETATM   34  C21 UNL     1      -1.624   2.549  -9.757  1.00  0.00     0.146 C 
HETATM   35  C26 UNL     1      -3.398   4.122 -10.359  1.00  0.00     0.146 C 
HETATM   36  C22 UNL     1      -1.419   3.408  -8.528  1.00  0.00     0.148 C 
HETATM   37  N6  UNL     1      -2.599   4.055  -8.063  1.00  0.00    -0.325 N 
HETATM   38  C23 UNL     1      -2.912   4.049  -6.683  1.00  0.00     0.362 C 
HETATM   39  C25 UNL     1      -3.520   4.739  -8.966  1.00  0.00     0.148 C 
HETATM   40  O4  UNL     1      -2.170   3.483  -5.833  1.00  0.00    -0.238 OA
BRANCH  38  41
HETATM   41  O5  UNL     1      -4.059   4.669  -6.177  1.00  0.00    -0.309 OA
HETATM   42  C24 UNL     1      -5.140   3.984  -5.602  1.00  0.00     0.215 C 
ENDBRANCH  38  41
ENDBRANCH  26  31
ENDBRANCH  24  26
ENDBRANCH   1  24
BRANCH   1  43
HETATM   43  C27 UNL     1      -7.031  -0.035 -13.683  1.00  0.00    -0.031 C 
HETATM   44  C28 UNL     1      -8.016   1.107 -13.975  1.00  0.00     0.016 C 
HETATM   45  C29 UNL     1      -7.004  -0.889 -14.927  1.00  0.00     0.016 C 
HETATM   46  C30 UNL     1      -7.617  -0.788 -12.544  1.00  0.00     0.016 C 
ENDBRANCH   1  43
TORSDOF 17
ENDMDL
MODEL 2
REMARK VINA RESULT: -7.939628394      1.535      2.844
REMARK  17 active torsions:
REMARK  status: ('A' for Active; 'I' for Inactive)
REMARK    1  A    between atoms: C2_2  and  C3_3 
REMARK    2  A    between atoms: C3_3  and  C4_4 
REMARK    3  A    between atoms: C4_4  and  C5_5 
REMARK    4  A    between atoms: C5_5  and  N1_6 
REMARK    5  A    between atoms: C5_5  and  C6_10 
REMARK       I    between atoms: C6_10  and  N2_12 
REMARK    6  A    between atoms: C10_16  and  C11_17 
REMARK       I    between atoms: C11_17  and  N3_19 
REMARK    7  A    between atoms: N3_19  and  C12_21 
REMARK    8  A    between atoms: C12_21  and  C13_22 
REMARK    9  A    between atoms: C13_22  and  C14_23 
REMARK   10  A    between atoms: C14_23  and  N4_24 
REMARK   11  A    between atoms: C14_23  and  C27_43 
REMARK   12  A    between atoms: N4_24  and  C15_26 
REMARK   13  A    between atoms: C15_26  and  C16_27 
REMARK   14  A    between atoms: C15_26  and  C20_31 
REMARK   15  A    between atoms: C16_27  and  C17_28 
REMARK   16  A    between atoms: C17_28  and  C18_29 
REMARK       I    between atoms: C20_31  and  N5_33 
REMARK       I    between atoms: N6_36  and  C23_37 
REMARK   17  A    between atoms: C23_37  and  O5_39 
ROOT
HETATM    1  C14 UNL     1      -5.367   0.659 -12.965  1.00  0.00     0.086 C 
ENDROOT
BRANCH   1   2
HETATM    2  C13 UNL     1      -4.560   0.437 -14.214  1.00  0.00     0.045 C 
BRANCH   2   3
HETATM    3  C12 UNL     1      -3.233  -0.170 -14.100  1.00  0.00     0.124 C 
BRANCH   3   4
HETATM    4  N3  UNL     1      -3.280  -1.541 -14.592  1.00  0.00    -0.359 N 
HETATM    5  C11 UNL     1      -3.545  -2.681 -13.822  1.00  0.00     0.240 C 
HETATM    6  O2  UNL     1      -3.765  -2.587 -12.595  1.00  0.00    -0.271 OA
ATOM      7  H3  UNL     1      -3.104  -1.684 -15.586  1.00  0.00     0.162 HD
BRANCH   5   8
HETATM    8  C10 UNL     1      -3.580  -4.060 -14.409  1.00  0.00     0.179 C 
HETATM    9  N2  UNL     1      -4.671  -4.223 -15.345  1.00  0.00    -0.337 N 
HETATM   10  C6  UNL     1      -6.052  -4.170 -15.070  1.00  0.00     0.251 C 
HETATM   11  C7  UNL     1      -4.117  -4.450 -16.680  1.00  0.00     0.127 C 
HETATM   12  O1  UNL     1      -6.417  -3.971 -13.884  1.00  0.00    -0.271 OA
HETATM   13  C8  UNL     1      -2.739  -3.791 -16.571  1.00  0.00     0.022 C 
HETATM   14  C9  UNL     1      -2.316  -4.314 -15.211  1.00  0.00     0.037 C 
BRANCH  10  15
HETATM   15  C5  UNL     1      -7.117  -4.333 -16.103  1.00  0.00     0.275 C 
BRANCH  15  16
HETATM   16  C4  UNL     1      -8.468  -4.525 -15.480  1.00  0.00     0.042 C 
BRANCH  16  17
HETATM   17  C3  UNL     1      -8.972  -5.908 -15.373  1.00  0.00     0.002 C 
BRANCH  17  18
HETATM   18  C2  UNL     1      -9.464  -6.567 -16.619  1.00  0.00    -0.004 C 
HETATM   19  C1  UNL     1     -10.355  -5.549 -17.388  1.00  0.00     0.005 C 
ENDBRANCH  17  18
ENDBRANCH  16  17
ENDBRANCH  15  16
BRANCH  15  20
HETATM   20  N1  UNL     1      -7.137  -3.122 -16.897  1.00  0.00    -0.067 N 
ATOM     21  H13 UNL     1      -8.033  -2.636 -16.843  1.00  0.00     0.275 HD
ATOM     22  H12 UNL     1      -6.553  -2.386 -16.500  1.00  0.00     0.275 HD
ATOM     23  H11 UNL     1      -6.876  -3.353 -17.855  1.00  0.00     0.275 HD
ENDBRANCH  15  20
ENDBRANCH  10  15
ENDBRANCH   5   8
ENDBRANCH   3   4
ENDBRANCH   2   3
ENDBRANCH   1   2
BRANCH   1  24
HETATM   24  N4  UNL     1      -4.753   0.123 -11.799  1.00  0.00    -0.404 N 
ATOM     25  H4  UNL     1      -4.818  -0.869 -11.573  1.00  0.00     0.154 HD
BRANCH  24  26
HETATM   26  C15 UNL     1      -4.040   1.033 -10.957  1.00  0.00     0.170 C 
BRANCH  26  27
HETATM   27  C16 UNL     1      -2.557   1.036 -11.198  1.00  0.00     0.034 C 
BRANCH  27  28
HETATM   28  C17 UNL     1      -1.720   1.173  -9.963  1.00  0.00     0.002 C 
BRANCH  28  29
HETATM   29  C18 UNL     1      -0.731   2.308 -10.243  1.00  0.00    -0.004 C 
HETATM   30  C19 UNL     1      -0.442   2.468 -11.699  1.00  0.00     0.005 C 
ENDBRANCH  28  29
ENDBRANCH  27  28
ENDBRANCH  26  27
BRANCH  26  31
HETATM   31  C20 UNL     1      -4.616   2.398 -11.119  1.00  0.00     0.242 C 
HETATM   32  O3  UNL     1      -3.955   3.176 -11.890  1.00  0.00    -0.271 OA
HETATM   33  N5  UNL     1      -5.769   2.911 -10.539  1.00  0.00    -0.347 N 
HETATM   34  C21 UNL     1      -6.108   4.321 -10.810  1.00  0.00     0.146 C 
HETATM   35  C26 UNL     1      -6.736   2.230  -9.707  1.00  0.00     0.146 C 
HETATM   36  C22 UNL     1      -6.600   5.012  -9.557  1.00  0.00     0.148 C 
HETATM   37  N6  UNL     1      -6.455   4.241  -8.369  1.00  0.00    -0.325 N 
HETATM   38  C23 UNL     1      -5.935   4.840  -7.196  1.00  0.00     0.362 C 
HETATM   39  C25 UNL     1      -6.826   2.831  -8.304  1.00  0.00     0.148 C 
HETATM   40  O4  UNL     1      -5.591   6.053  -7.163  1.00  0.00    -0.238 OA
BRANCH  38  41
HETATM   41  O5  UNL     1      -5.772   4.125  -6.005  1.00  0.00    -0.309 OA
HETATM   42  C24 UNL     1      -5.644   4.718  -4.739  1.00  0.00     0.215 C 
ENDBRANCH  38  41
ENDBRANCH  26  31
ENDBRANCH  24  26
ENDBRANCH   1  24
BRANCH   1  43
HETATM   43  C27 UNL     1      -6.831   0.350 -13.106  1.00  0.00    -0.031 C 
HETATM   44  C28 UNL     1      -7.007  -0.513 -14.364  1.00  0.00     0.016 C 
HETATM   45  C29 UNL     1      -7.289  -0.504 -11.949  1.00  0.00     0.016 C 
HETATM   46  C30 UNL     1      -7.737   1.514 -13.288  1.00  0.00     0.016 C 
ENDBRANCH   1  43
TORSDOF 17
ENDMDL
MODEL 3
REMARK VINA RESULT: -7.939573779      2.391      5.509
REMARK  17 active torsions:
REMARK  status: ('A' for Active; 'I' for Inactive)
REMARK    1  A    between atoms: C2_2  and  C3_3 
REMARK    2  A    between atoms: C3_3  and  C4_4 
REMARK    3  A    between atoms: C4_4  and  C5_5 
REMARK    4  A    between atoms: C5_5  and  N1_6 
REMARK    5  A    between atoms: C5_5  and  C6_10 
REMARK       I    between atoms: C6_10  and  N2_12 
REMARK    6  A    between atoms: C10_16  and  C11_17 
REMARK       I    between atoms: C11_17  and  N3_19 
REMARK    7  A    between atoms: N3_19  and  C12_21 
REMARK    8  A    between atoms: C12_21  and  C13_22 
REMARK    9  A    between atoms: C13_22  and  C14_23 
REMARK   10  A    between atoms: C14_23  and  N4_24 
REMARK   11  A    between atoms: C14_23  and  C27_43 
REMARK   12  A    between atoms: N4_24  and  C15_26 
REMARK   13  A    between atoms: C15_26  and  C16_27 
REMARK   14  A    between atoms: C15_26  and  C20_31 
REMARK   15  A    between atoms: C16_27  and  C17_28 
REMARK   16  A    between atoms: C17_28  and  C18_29 
REMARK       I    between atoms: C20_31  and  N5_33 
REMARK       I    between atoms: N6_36  and  C23_37 
REMARK   17  A    between atoms: C23_37  and  O5_39 
ROOT
HETATM    1  C14 UNL     1      -5.507  -3.087 -13.985  1.00  0.00     0.086 C 
ENDROOT
BRANCH   1   2
HETATM    2  C13 UNL     1      -6.821  -3.803 -14.134  1.00  0.00     0.045 C 
BRANCH   2   3
HETATM    3  C12 UNL     1      -7.948  -3.094 -14.741  1.00  0.00     0.124 C 
BRANCH   3   4
HETATM    4  N3  UNL     1      -8.205  -3.634 -16.070  1.00  0.00    -0.359 N 
HETATM    5  C11 UNL     1      -9.123  -4.644 -16.381  1.00  0.00     0.240 C 
HETATM    6  O2  UNL     1      -9.815  -5.179 -15.488  1.00  0.00    -0.271 OA
ATOM      7  H3  UNL     1      -7.668  -3.240 -16.843  1.00  0.00     0.162 HD
BRANCH   5   8
HETATM    8  C10 UNL     1      -9.332  -5.140 -17.781  1.00  0.00     0.179 C 
HETATM    9  N2  UNL     1      -8.422  -6.213 -18.117  1.00  0.00    -0.337 N 
HETATM   10  C6  UNL     1      -7.018  -6.147 -18.217  1.00  0.00     0.251 C 
HETATM   11  C7  UNL     1      -9.195  -7.436 -18.338  1.00  0.00     0.127 C 
HETATM   12  O1  UNL     1      -6.456  -5.042 -18.008  1.00  0.00    -0.271 OA
HETATM   13  C8  UNL     1     -10.458  -7.169 -17.514  1.00  0.00     0.022 C 
HETATM   14  C9  UNL     1     -10.725  -5.732 -17.918  1.00  0.00     0.037 C 
BRANCH  10  15
HETATM   15  C5  UNL     1      -6.148  -7.312 -18.555  1.00  0.00     0.275 C 
BRANCH  15  16
HETATM   16  C4  UNL     1      -4.911  -6.885 -19.288  1.00  0.00     0.042 C 
BRANCH  16  17
HETATM   17  C3  UNL     1      -3.632  -6.959 -18.556  1.00  0.00     0.002 C 
BRANCH  17  18
HETATM   18  C2  UNL     1      -2.901  -5.681 -18.304  1.00  0.00    -0.004 C 
HETATM   19  C1  UNL     1      -1.993  -5.878 -17.056  1.00  0.00     0.005 C 
ENDBRANCH  17  18
ENDBRANCH  16  17
ENDBRANCH  15  16
BRANCH  15  20
HETATM   20  N1  UNL     1      -5.759  -7.937 -17.308  1.00  0.00    -0.067 N 
ATOM     21  H13 UNL     1      -5.849  -7.305 -16.512  1.00  0.00     0.275 HD
ATOM     22  H12 UNL     1      -6.427  -8.645 -17.003  1.00  0.00     0.275 HD
ATOM     23  H11 UNL     1      -4.815  -8.309 -17.407  1.00  0.00     0.275 HD
ENDBRANCH  15  20
ENDBRANCH  10  15
ENDBRANCH   5   8
ENDBRANCH   3   4
ENDBRANCH   2   3
ENDBRANCH   1   2
BRANCH   1  24
HETATM   24  N4  UNL     1      -5.632  -1.670 -14.040  1.00  0.00    -0.404 N 
ATOM     25  H4  UNL     1      -5.691  -1.176 -14.930  1.00  0.00     0.154 HD
BRANCH  24  26
HETATM   26  C15 UNL     1      -5.673  -0.968 -12.794  1.00  0.00     0.170 C 
BRANCH  26  27
HETATM   27  C16 UNL     1      -4.315  -0.728 -12.199  1.00  0.00     0.034 C 
BRANCH  27  28
HETATM   28  C17 UNL     1      -3.334  -0.064 -13.117  1.00  0.00     0.002 C 
BRANCH  28  29
HETATM   29  C18 UNL     1      -2.542   0.921 -12.253  1.00  0.00    -0.004 C 
HETATM   30  C19 UNL     1      -2.766   0.709 -10.793  1.00  0.00     0.005 C 
ENDBRANCH  28  29
ENDBRANCH  27  28
ENDBRANCH  26  27
BRANCH  26  31
HETATM   31  C20 UNL     1      -6.415   0.310 -12.981  1.00  0.00     0.242 C 
HETATM   32  O3  UNL     1      -6.600   0.655 -14.199  1.00  0.00    -0.271 OA
HETATM   33  N5  UNL     1      -6.922   1.153 -12.000  1.00  0.00    -0.347 N 
HETATM   34  C21 UNL     1      -7.577   2.400 -12.436  1.00  0.00     0.146 C 
HETATM   35  C26 UNL     1      -6.929   0.962 -10.567  1.00  0.00     0.146 C 
HETATM   36  C22 UNL     1      -7.182   3.561 -11.549  1.00  0.00     0.148 C 
HETATM   37  N6  UNL     1      -6.141   3.262 -10.625  1.00  0.00    -0.325 N 
HETATM   38  C23 UNL     1      -5.066   4.167 -10.453  1.00  0.00     0.362 C 
HETATM   39  C25 UNL     1      -6.131   2.037  -9.831  1.00  0.00     0.148 C 
HETATM   40  O4  UNL     1      -4.996   5.249 -11.098  1.00  0.00    -0.238 OA
BRANCH  38  41
HETATM   41  O5  UNL     1      -4.019   3.919  -9.560  1.00  0.00    -0.309 OA
HETATM   42  C24 UNL     1      -2.681   4.274  -9.791  1.00  0.00     0.215 C 
ENDBRANCH  38  41
ENDBRANCH  26  31
ENDBRANCH  24  26
ENDBRANCH   1  24
BRANCH   1  43
HETATM   43  C27 UNL     1      -4.391  -3.654 -14.817  1.00  0.00    -0.031 C 
HETATM   44  C28 UNL     1      -4.765  -5.099 -15.178  1.00  0.00     0.016 C 
HETATM   45  C29 UNL     1      -4.298  -2.910 -16.127  1.00  0.00     0.016 C 
HETATM   46  C30 UNL     1      -3.058  -3.735 -14.166  1.00  0.00     0.016 C 
ENDBRANCH   1  43
TORSDOF 17
ENDMDL
MODEL 4
REMARK VINA RESULT: -7.839764173      2.532     10.964
REMARK  17 active torsions:
REMARK  status: ('A' for Active; 'I' for Inactive)
REMARK    1  A    between atoms: C2_2  and  C3_3 
REMARK    2  A    between atoms: C3_3  and  C4_4 
REMARK    3  A    between atoms: C4_4  and  C5_5 
REMARK    4  A    between atoms: C5_5  and  N1_6 
REMARK    5  A    between atoms: C5_5  and  C6_10 
REMARK       I    between atoms: C6_10  and  N2_12 
REMARK    6  A    between atoms: C10_16  and  C11_17 
REMARK       I    between atoms: C11_17  and  N3_19 
REMARK    7  A    between atoms: N3_19  and  C12_21 
REMARK    8  A    between atoms: C12_21  and  C13_22 
REMARK    9  A    between atoms: C13_22  and  C14_23 
REMARK   10  A    between atoms: C14_23  and  N4_24 
REMARK   11  A    between atoms: C14_23  and  C27_43 
REMARK   12  A    between atoms: N4_24  and  C15_26 
REMARK   13  A    between atoms: C15_26  and  C16_27 
REMARK   14  A    between atoms: C15_26  and  C20_31 
REMARK   15  A    between atoms: C16_27  and  C17_28 
REMARK   16  A    between atoms: C17_28  and  C18_29 
REMARK       I    between atoms: C20_31  and  N5_33 
REMARK       I    between atoms: N6_36  and  C23_37 
REMARK   17  A    between atoms: C23_37  and  O5_39 
ROOT
HETATM    1  C14 UNL     1      -5.042  -1.906 -14.762  1.00  0.00     0.086 C 
ENDROOT
BRANCH   1   2
HETATM    2  C13 UNL     1      -6.058  -0.799 -14.785  1.00  0.00     0.045 C 
BRANCH   2   3
HETATM    3  C12 UNL     1      -7.221  -0.887 -13.899  1.00  0.00     0.124 C 
BRANCH   3   4
HETATM    4  N3  UNL     1      -6.821  -0.560 -12.536  1.00  0.00    -0.359 N 
HETATM    5  C11 UNL     1      -6.832   0.717 -11.962  1.00  0.00     0.240 C 
HETATM    6  O2  UNL     1      -7.202   1.713 -12.621  1.00  0.00    -0.271 OA
ATOM      7  H3  UNL     1      -6.505  -1.331 -11.947  1.00  0.00     0.162 HD
BRANCH   5   8
HETATM    8  C10 UNL     1      -6.409   0.967 -10.545  1.00  0.00     0.179 C 
HETATM    9  N2  UNL     1      -5.810   2.274 -10.381  1.00  0.00    -0.337 N 
HETATM   10  C6  UNL     1      -4.612   2.746 -10.953  1.00  0.00     0.251 C 
HETATM   11  C7  UNL     1      -6.665   3.078  -9.507  1.00  0.00     0.127 C 
HETATM   12  O1  UNL     1      -3.954   1.966 -11.688  1.00  0.00    -0.271 OA
HETATM   13  C8  UNL     1      -8.033   2.420  -9.704  1.00  0.00     0.022 C 
HETATM   14  C9  UNL     1      -7.624   0.961  -9.633  1.00  0.00     0.037 C 
BRANCH  10  15
HETATM   15  C5  UNL     1      -4.070   4.121 -10.745  1.00  0.00     0.275 C 
BRANCH  15  16
HETATM   16  C4  UNL     1      -2.572   4.141 -10.804  1.00  0.00     0.042 C 
BRANCH  16  17
HETATM   17  C3  UNL     1      -1.841   3.780  -9.574  1.00  0.00     0.002 C 
BRANCH  17  18
HETATM   18  C2  UNL     1      -0.885   2.635  -9.645  1.00  0.00    -0.004 C 
HETATM   19  C1  UNL     1      -0.381   2.513 -11.113  1.00  0.00     0.005 C 
ENDBRANCH  17  18
ENDBRANCH  16  17
ENDBRANCH  15  16
BRANCH  15  20
HETATM   20  N1  UNL     1      -4.591   4.956 -11.807  1.00  0.00    -0.067 N 
ATOM     21  H13 UNL     1      -5.140   5.739 -11.452  1.00  0.00     0.275 HD
ATOM     22  H12 UNL     1      -3.861   5.494 -12.273  1.00  0.00     0.275 HD
ATOM     23  H11 UNL     1      -5.119   4.372 -12.456  1.00  0.00     0.275 HD
ENDBRANCH  15  20
ENDBRANCH  10  15
ENDBRANCH   5   8
ENDBRANCH   3   4
ENDBRANCH   2   3
ENDBRANCH   1   2
BRANCH   1  24
HETATM   24  N4  UNL     1      -5.614  -3.186 -14.517  1.00  0.00    -0.404 N 
ATOM     25  H4  UNL     1      -5.883  -3.477 -13.577  1.00  0.00     0.154 HD
BRANCH  24  26
HETATM   26  C15 UNL     1      -5.796  -4.048 -15.644  1.00  0.00     0.170 C 
BRANCH  26  27
HETATM   27  C16 UNL     1      -4.684  -5.043 -15.821  1.00  0.00     0.034 C 
BRANCH  27  28
HETATM   28  C17 UNL     1      -3.902  -4.892 -17.091  1.00  0.00     0.002 C 
BRANCH  28  29
HETATM   29  C18 UNL     1      -2.741  -5.886 -16.996  1.00  0.00    -0.004 C 
HETATM   30  C19 UNL     1      -1.527  -5.289 -16.367  1.00  0.00     0.005 C 
ENDBRANCH  28  29
ENDBRANCH  27  28
ENDBRANCH  26  27
BRANCH  26  31
HETATM   31  C20 UNL     1      -7.116  -4.728 -15.527  1.00  0.00     0.242 C 
HETATM   32  O3  UNL     1      -7.649  -4.679 -14.365  1.00  0.00    -0.271 OA
HETATM   33  N5  UNL     1      -7.822  -5.395 -16.520  1.00  0.00    -0.347 N 
HETATM   34  C21 UNL     1      -9.095  -6.040 -16.145  1.00  0.00     0.146 C 
HETATM   35  C26 UNL     1      -7.496  -5.524 -17.922  1.00  0.00     0.146 C 
HETATM   36  C22 UNL     1      -9.228  -7.399 -16.797  1.00  0.00     0.148 C 
HETATM   37  N6  UNL     1      -8.050  -7.847 -17.461  1.00  0.00    -0.325 N 
HETATM   38  C23 UNL     1      -7.598  -9.176 -17.279  1.00  0.00     0.362 C 
HETATM   39  C25 UNL     1      -7.272  -6.979 -18.338  1.00  0.00     0.148 C 
HETATM   40  O4  UNL     1      -8.211  -9.994 -16.539  1.00  0.00    -0.238 OA
BRANCH  38  41
HETATM   41  O5  UNL     1      -6.448  -9.663 -17.908  1.00  0.00    -0.309 OA
HETATM   42  C24 UNL     1      -5.279 -10.046 -17.231  1.00  0.00     0.215 C 
ENDBRANCH  38  41
ENDBRANCH  26  31
ENDBRANCH  24  26
ENDBRANCH   1  24
BRANCH   1  43
HETATM   43  C27 UNL     1      -3.808  -1.603 -13.959  1.00  0.00    -0.031 C 
HETATM   44  C28 UNL     1      -2.644  -2.394 -14.575  1.00  0.00     0.016 C 
HETATM   45  C29 UNL     1      -3.444  -0.146 -14.107  1.00  0.00     0.016 C 
HETATM   46  C30 UNL     1      -3.841  -1.991 -12.525  1.00  0.00     0.016 C 
ENDBRANCH   1  43
TORSDOF 17
ENDMDL
MODEL 5
REMARK VINA RESULT: -7.812799167      2.561      5.883
REMARK  17 active torsions:
REMARK  status: ('A' for Active; 'I' for Inactive)
REMARK    1  A    between atoms: C2_2  and  C3_3 
REMARK    2  A    between atoms: C3_3  and  C4_4 
REMARK    3  A    between atoms: C4_4  and  C5_5 
REMARK    4  A    between atoms: C5_5  and  N1_6 
REMARK    5  A    between atoms: C5_5  and  C6_10 
REMARK       I    between atoms: C6_10  and  N2_12 
REMARK    6  A    between atoms: C10_16  and  C11_17 
REMARK       I    between atoms: C11_17  and  N3_19 
REMARK    7  A    between atoms: N3_19  and  C12_21 
REMARK    8  A    between atoms: C12_21  and  C13_22 
REMARK    9  A    between atoms: C13_22  and  C14_23 
REMARK   10  A    between atoms: C14_23  and  N4_24 
REMARK   11  A    between atoms: C14_23  and  C27_43 
REMARK   12  A    between atoms: N4_24  and  C15_26 
REMARK   13  A    between atoms: C15_26  and  C16_27 
REMARK   14  A    between atoms: C15_26  and  C20_31 
REMARK   15  A    between atoms: C16_27  and  C17_28 
REMARK   16  A    between atoms: C17_28  and  C18_29 
REMARK       I    between atoms: C20_31  and  N5_33 
REMARK       I    between atoms: N6_36  and  C23_37 
REMARK   17  A    between atoms: C23_37  and  O5_39 
ROOT
HETATM    1  C14 UNL     1      -4.160  -3.204 -14.861  1.00  0.00     0.086 C 
ENDROOT
BRANCH   1   2
HETATM    2  C13 UNL     1      -5.587  -3.678 -14.904  1.00  0.00     0.045 C 
BRANCH   2   3
HETATM    3  C12 UNL     1      -6.553  -2.941 -15.719  1.00  0.00     0.124 C 
BRANCH   3   4
HETATM    4  N3  UNL     1      -6.995  -3.780 -16.827  1.00  0.00    -0.359 N 
HETATM    5  C11 UNL     1      -8.177  -4.531 -16.866  1.00  0.00     0.240 C 
HETATM    6  O2  UNL     1      -8.967  -4.532 -15.898  1.00  0.00    -0.271 OA
ATOM      7  H3  UNL     1      -6.390  -3.823 -17.647  1.00  0.00     0.162 HD
BRANCH   5   8
HETATM    8  C10 UNL     1      -8.562  -5.365 -18.051  1.00  0.00     0.179 C 
HETATM    9  N2  UNL     1      -7.836  -6.615 -18.092  1.00  0.00    -0.337 N 
HETATM   10  C6  UNL     1      -6.449  -6.795 -18.260  1.00  0.00     0.251 C 
HETATM   11  C7  UNL     1      -8.783  -7.717 -17.918  1.00  0.00     0.127 C 
HETATM   12  O1  UNL     1      -5.728  -5.776 -18.405  1.00  0.00    -0.271 OA
HETATM   13  C8  UNL     1      -9.927  -7.038 -17.161  1.00  0.00     0.022 C 
HETATM   14  C9  UNL     1     -10.029  -5.751 -17.957  1.00  0.00     0.037 C 
BRANCH  10  15
HETATM   15  C5  UNL     1      -5.773  -8.127 -18.276  1.00  0.00     0.275 C 
BRANCH  15  16
HETATM   16  C4  UNL     1      -4.629  -8.157 -19.244  1.00  0.00     0.042 C 
BRANCH  16  17
HETATM   17  C3  UNL     1      -3.285  -7.860 -18.713  1.00  0.00     0.002 C 
BRANCH  17  18
HETATM   18  C2  UNL     1      -2.585  -6.648 -19.234  1.00  0.00    -0.004 C 
HETATM   19  C1  UNL     1      -2.215  -6.903 -20.724  1.00  0.00     0.005 C 
ENDBRANCH  17  18
ENDBRANCH  16  17
ENDBRANCH  15  16
BRANCH  15  20
HETATM   20  N1  UNL     1      -5.263  -8.367 -16.942  1.00  0.00    -0.067 N 
ATOM     21  H13 UNL     1      -4.581  -7.666 -16.654  1.00  0.00     0.275 HD
ATOM     22  H12 UNL     1      -5.962  -8.190 -16.220  1.00  0.00     0.275 HD
ATOM     23  H11 UNL     1      -4.890  -9.316 -16.899  1.00  0.00     0.275 HD
ENDBRANCH  15  20
ENDBRANCH  10  15
ENDBRANCH   5   8
ENDBRANCH   3   4
ENDBRANCH   2   3
ENDBRANCH   1   2
BRANCH   1  24
HETATM   24  N4  UNL     1      -4.032  -1.799 -15.043  1.00  0.00    -0.404 N 
ATOM     25  H4  UNL     1      -3.825  -1.398 -15.957  1.00  0.00     0.154 HD
BRANCH  24  26
HETATM   26  C15 UNL     1      -4.207  -0.971 -13.889  1.00  0.00     0.170 C 
BRANCH  26  27
HETATM   27  C16 UNL     1      -2.964  -0.225 -13.494  1.00  0.00     0.034 C 
BRANCH  27  28
HETATM   28  C17 UNL     1      -2.979   0.329 -12.102  1.00  0.00     0.002 C 
BRANCH  28  29
HETATM   29  C18 UNL     1      -1.849   1.362 -12.043  1.00  0.00    -0.004 C 
HETATM   30  C19 UNL     1      -1.168   1.389 -10.715  1.00  0.00     0.005 C 
ENDBRANCH  28  29
ENDBRANCH  27  28
ENDBRANCH  26  27
BRANCH  26  31
HETATM   31  C20 UNL     1      -5.344  -0.038 -14.128  1.00  0.00     0.242 C 
HETATM   32  O3  UNL     1      -5.376   0.488 -15.294  1.00  0.00    -0.271 OA
HETATM   33  N5  UNL     1      -6.354   0.318 -13.245  1.00  0.00    -0.347 N 
HETATM   34  C21 UNL     1      -7.347   1.311 -13.697  1.00  0.00     0.146 C 
HETATM   35  C26 UNL     1      -6.603  -0.187 -11.913  1.00  0.00     0.146 C 
HETATM   36  C22 UNL     1      -7.668   2.299 -12.597  1.00  0.00     0.148 C 
HETATM   37  N6  UNL     1      -6.830   2.190 -11.450  1.00  0.00    -0.325 N 
HETATM   38  C23 UNL     1      -6.286   3.355 -10.859  1.00  0.00     0.362 C 
HETATM   39  C25 UNL     1      -6.499   0.903 -10.846  1.00  0.00     0.148 C 
HETATM   40  O4  UNL     1      -6.521   4.508 -11.316  1.00  0.00    -0.238 OA
BRANCH  38  41
HETATM   41  O5  UNL     1      -5.457   3.301  -9.733  1.00  0.00    -0.309 OA
HETATM   42  C24 UNL     1      -4.092   3.629  -9.741  1.00  0.00     0.215 C 
ENDBRANCH  38  41
ENDBRANCH  26  31
ENDBRANCH  24  26
ENDBRANCH   1  24
BRANCH   1  43
HETATM   43  C27 UNL     1      -3.203  -4.034 -15.670  1.00  0.00    -0.031 C 
HETATM   44  C28 UNL     1      -1.840  -3.994 -14.964  1.00  0.00     0.016 C 
HETATM   45  C29 UNL     1      -3.637  -5.480 -15.654  1.00  0.00     0.016 C 
HETATM   46  C30 UNL     1      -2.948  -3.580 -17.061  1.00  0.00     0.016 C 
ENDBRANCH   1  43
TORSDOF 17
ENDMDL
