MODEL 1
REMARK VINA RESULT: -8.138216968      0.000      0.000
REMARK  17 active torsions:
REMARK  status: ('A' for Active; 'I' for Inactive)
REMARK    1  A    between atoms: C2_2  and  O1_3 
REMARK    2  A    between atoms: O1_3  and  N1_4 
REMARK    3  A    between atoms: N1_4  and  C3_5 
REMARK    4  A    between atoms: N1_4  and  C4_7 
REMARK    5  A    between atoms: C4_7  and  C5_8 
REMARK    6  A    between atoms: C4_7  and  C9_16 
REMARK    7  A    between atoms: C5_8  and  C6_9 
REMARK    8  A    between atoms: C6_9  and  C7_10 
REMARK    9  A    between atoms: C7_10  and  N2_11 
REMARK   10  A    between atoms: C17_24  and  C18_25 
REMARK   11  A    between atoms: C18_25  and  C19_26 
REMARK   12  A    between atoms: C20_27  and  C21_28 
REMARK   13  A    between atoms: C21_28  and  O3_29 
REMARK   14  A    between atoms: O3_29  and  C22_30 
REMARK   15  A    between atoms: C22_30  and  C23_31 
REMARK   16  A    between atoms: C23_31  and  N5_32 
REMARK   17  A    between atoms: C30_42  and  O5_43 
ROOT
HETATM    1  C9  UNL     1      -5.713   0.316 -13.189  1.00  0.00    -0.004 C 
HETATM    2  C10 UNL     1      -6.823  -0.380 -13.864  1.00  0.00     0.041 C 
HETATM    3  C11 UNL     1      -7.251  -1.709 -13.389  1.00  0.00     0.004 C 
HETATM    4  C12 UNL     1      -7.915  -2.592 -14.379  1.00  0.00     0.000 C 
HETATM    5  C13 UNL     1      -7.484  -2.557 -15.795  1.00  0.00     0.000 C 
HETATM    6  C14 UNL     1      -6.283  -3.443 -16.116  1.00  0.00     0.004 C 
HETATM    7  C15 UNL     1      -5.162  -2.627 -16.695  1.00  0.00     0.027 C 
HETATM    8  C16 UNL     1      -3.916  -3.278 -17.025  1.00  0.00    -0.024 C 
HETATM    9  C17 UNL     1      -2.847  -3.548 -16.047  1.00  0.00    -0.079 C 
HETATM   10  C28 UNL     1      -2.444  -2.491 -15.111  1.00  0.00     0.053 C 
HETATM   11  C29 UNL     1      -3.312  -2.214 -13.921  1.00  0.00     0.126 C 
HETATM   12  N6  UNL     1      -3.381  -0.811 -13.577  1.00  0.00    -0.370 N 
ATOM     13  H6  UNL     1      -2.549  -0.460 -13.103  1.00  0.00     0.161 HD
HETATM   14  C30 UNL     1      -4.359   0.146 -13.769  1.00  0.00     0.140 C 
ENDROOT
BRANCH   1  15
HETATM   15  C4  UNL     1      -5.753   0.371 -11.683  1.00  0.00     0.150 C 
BRANCH  15  16
HETATM   16  N1  UNL     1      -4.624   1.199 -11.226  1.00  0.00    -0.224 N 
BRANCH  16  17
HETATM   17  O1  UNL     1      -3.555   0.580 -10.708  1.00  0.00    -0.276 OA
BRANCH  17  18
HETATM   18  C2  UNL     1      -2.335   1.144 -10.939  1.00  0.00     0.197 C 
HETATM   19  C1  UNL     1      -1.502   1.229  -9.663  1.00  0.00     0.036 C 
ENDBRANCH  17  18
ENDBRANCH  16  17
BRANCH  16  20
HETATM   20  C3  UNL     1      -4.644   2.613 -11.280  1.00  0.00     0.377 C 
HETATM   21  O2  UNL     1      -4.629   3.336 -10.247  1.00  0.00    -0.281 OA
ENDBRANCH  16  20
ENDBRANCH  15  16
BRANCH  15  22
HETATM   22  C5  UNL     1      -7.011   1.118 -11.245  1.00  0.00     0.034 C 
BRANCH  22  23
HETATM   23  C6  UNL     1      -7.580   0.669  -9.950  1.00  0.00     0.022 C 
BRANCH  23  24
HETATM   24  C7  UNL     1      -7.416   1.751  -8.878  1.00  0.00     0.122 C 
BRANCH  24  25
HETATM   25  N2  UNL     1      -7.144   1.137  -7.609  1.00  0.00    -0.367 N 
HETATM   26  C8  UNL     1      -7.300   1.746  -6.488  1.00  0.00     0.196 C 
HETATM   27  N3  UNL     1      -7.005   1.057  -5.291  1.00  0.00    -0.067 NA
HETATM   28  N4  UNL     1      -7.755   3.084  -6.419  1.00  0.00    -0.067 NA
ATOM     29  H2  UNL     1      -6.813   0.172  -7.597  1.00  0.00     0.161 HD
ENDBRANCH  24  25
ENDBRANCH  23  24
ENDBRANCH  22  23
ENDBRANCH  15  22
ENDBRANCH   1  15
BRANCH  14  30
HETATM   30  O5  UNL     1      -3.993   1.067 -14.634  1.00  0.00    -0.346 OA
ATOM     31  H5  UNL     1      -4.361   0.979 -15.506  1.00  0.00     0.219 HD
ENDBRANCH  14  30
BRANCH   9  32
HETATM   32  C18 UNL     1      -3.028  -4.937 -15.511  1.00  0.00     0.060 C 
BRANCH  32  33
HETATM   33  C19 UNL     1      -2.434  -6.018 -16.336  1.00  0.00    -0.024 C 
HETATM   34  C20 UNL     1      -3.141  -6.883 -17.060  1.00  0.00    -0.005 C 
BRANCH  34  35
HETATM   35  C21 UNL     1      -4.601  -6.937 -17.181  1.00  0.00     0.194 C 
BRANCH  35  36
HETATM   36  O3  UNL     1      -5.074  -6.268 -18.334  1.00  0.00    -0.386 OA
BRANCH  36  37
HETATM   37  C22 UNL     1      -6.411  -6.394 -18.549  1.00  0.00     0.198 C 
BRANCH  37  38
HETATM   38  C23 UNL     1      -6.996  -7.634 -17.973  1.00  0.00     0.298 C 
BRANCH  38  39
HETATM   39  N5  UNL     1      -8.193  -7.493 -17.254  1.00  0.00     0.094 N 
HETATM   40  C24 UNL     1      -9.381  -8.141 -17.635  1.00  0.00     0.298 C 
HETATM   41  C25 UNL     1     -10.154  -7.470 -18.758  1.00  0.00     0.198 C 
HETATM   42  O4  UNL     1      -9.900  -6.121 -18.852  1.00  0.00    -0.388 OA
HETATM   43  C26 UNL     1      -9.723  -5.607 -17.572  1.00  0.00     0.198 C 
HETATM   44  C27 UNL     1      -8.435  -6.094 -16.933  1.00  0.00     0.298 C 
ENDBRANCH  38  39
ENDBRANCH  37  38
ENDBRANCH  36  37
ENDBRANCH  35  36
ENDBRANCH  34  35
ENDBRANCH  32  33
ENDBRANCH   9  32
TORSDOF 17
ENDMDL
MODEL 2
REMARK VINA RESULT: -8.081702287      2.999     10.412
REMARK  17 active torsions:
REMARK  status: ('A' for Active; 'I' for Inactive)
REMARK    1  A    between atoms: C2_2  and  O1_3 
REMARK    2  A    between atoms: O1_3  and  N1_4 
REMARK    3  A    between atoms: N1_4  and  C3_5 
REMARK    4  A    between atoms: N1_4  and  C4_7 
REMARK    5  A    between atoms: C4_7  and  C5_8 
REMARK    6  A    between atoms: C4_7  and  C9_16 
REMARK    7  A    between atoms: C5_8  and  C6_9 
REMARK    8  A    between atoms: C6_9  and  C7_10 
REMARK    9  A    between atoms: C7_10  and  N2_11 
REMARK   10  A    between atoms: C17_24  and  C18_25 
REMARK   11  A    between atoms: C18_25  and  C19_26 
REMARK   12  A    between atoms: C20_27  and  C21_28 
REMARK   13  A    between atoms: C21_28  and  O3_29 
REMARK   14  A    between atoms: O3_29  and  C22_30 
REMARK   15  A    between atoms: C22_30  and  C23_31 
REMARK   16  A    between atoms: C23_31  and  N5_32 
REMARK   17  A    between atoms: C30_42  and  O5_43 
ROOT
HETATM    1  C9  UNL     1      -7.251  -7.638 -18.110  1.00  0.00    -0.004 C 
HETATM    2  C10 UNL     1      -6.151  -8.614 -18.223  1.00  0.00     0.041 C 
HETATM    3  C11 UNL     1      -5.522  -9.151 -17.003  1.00  0.00     0.004 C 
HETATM    4  C12 UNL     1      -4.123  -9.632 -17.127  1.00  0.00     0.000 C 
HETATM    5  C13 UNL     1      -3.190  -8.938 -18.043  1.00  0.00     0.000 C 
HETATM    6  C14 UNL     1      -2.500  -7.717 -17.441  1.00  0.00     0.004 C 
HETATM    7  C15 UNL     1      -2.788  -6.489 -18.259  1.00  0.00     0.027 C 
HETATM    8  C16 UNL     1      -2.259  -5.216 -17.828  1.00  0.00    -0.024 C 
HETATM    9  C17 UNL     1      -2.905  -4.359 -16.817  1.00  0.00    -0.079 C 
HETATM   10  C28 UNL     1      -4.351  -4.120 -16.894  1.00  0.00     0.053 C 
HETATM   11  C29 UNL     1      -5.284  -5.194 -16.420  1.00  0.00     0.126 C 
HETATM   12  N6  UNL     1      -6.487  -5.299 -17.215  1.00  0.00    -0.370 N 
ATOM     13  H6  UNL     1      -7.171  -4.566 -17.028  1.00  0.00     0.161 HD
HETATM   14  C30 UNL     1      -6.888  -6.202 -18.180  1.00  0.00     0.140 C 
ENDROOT
BRANCH   1  15
HETATM   15  C4  UNL     1      -8.359  -7.964 -17.142  1.00  0.00     0.150 C 
BRANCH  15  16
HETATM   16  N1  UNL     1      -9.196  -6.761 -16.985  1.00  0.00    -0.224 N 
BRANCH  16  17
HETATM   17  O1  UNL     1      -8.990  -5.984 -15.914  1.00  0.00    -0.276 OA
BRANCH  17  18
HETATM   18  C2  UNL     1      -9.854  -4.947 -15.721  1.00  0.00     0.197 C 
HETATM   19  C1  UNL     1      -9.125  -3.608 -15.662  1.00  0.00     0.036 C 
ENDBRANCH  17  18
ENDBRANCH  16  17
BRANCH  16  20
HETATM   20  C3  UNL     1     -10.224  -6.423 -17.896  1.00  0.00     0.377 C 
HETATM   21  O2  UNL     1     -10.059  -5.599 -18.837  1.00  0.00    -0.281 OA
ENDBRANCH  16  20
ENDBRANCH  15  16
BRANCH  15  22
HETATM   22  C5  UNL     1      -9.272  -9.018 -17.765  1.00  0.00     0.034 C 
BRANCH  22  23
HETATM   23  C6  UNL     1      -9.039 -10.403 -17.286  1.00  0.00     0.022 C 
BRANCH  23  24
HETATM   24  C7  UNL     1      -8.834 -11.359 -18.465  1.00  0.00     0.122 C 
BRANCH  24  25
HETATM   25  N2  UNL     1     -10.073 -11.525 -19.172  1.00  0.00    -0.367 N 
HETATM   26  C8  UNL     1     -10.160 -11.477 -20.453  1.00  0.00     0.196 C 
HETATM   27  N3  UNL     1     -11.425 -11.652 -21.058  1.00  0.00    -0.067 NA
HETATM   28  N4  UNL     1      -9.030 -11.253 -21.273  1.00  0.00    -0.067 NA
ATOM     29  H2  UNL     1     -10.923 -11.690 -18.632  1.00  0.00     0.161 HD
ENDBRANCH  24  25
ENDBRANCH  23  24
ENDBRANCH  22  23
ENDBRANCH  15  22
ENDBRANCH   1  15
BRANCH  14  30
HETATM   30  O5  UNL     1      -6.950  -5.659 -19.377  1.00  0.00    -0.346 OA
ATOM     31  H5  UNL     1      -7.217  -4.748 -19.400  1.00  0.00     0.219 HD
ENDBRANCH  14  30
BRANCH   9  32
HETATM   32  C18 UNL     1      -2.308  -4.668 -15.476  1.00  0.00     0.060 C 
BRANCH  32  33
HETATM   33  C19 UNL     1      -1.873  -3.488 -14.689  1.00  0.00    -0.024 C 
HETATM   34  C20 UNL     1      -2.647  -2.841 -13.820  1.00  0.00    -0.005 C 
BRANCH  34  35
HETATM   35  C21 UNL     1      -4.037  -3.156 -13.480  1.00  0.00     0.194 C 
BRANCH  35  36
HETATM   36  O3  UNL     1      -4.463  -2.516 -12.293  1.00  0.00    -0.386 OA
BRANCH  36  37
HETATM   37  C22 UNL     1      -3.975  -1.257 -12.125  1.00  0.00     0.198 C 
BRANCH  37  38
HETATM   38  C23 UNL     1      -5.021  -0.248 -11.804  1.00  0.00     0.298 C 
BRANCH  38  39
HETATM   39  N5  UNL     1      -5.376   0.642 -12.829  1.00  0.00     0.094 N 
HETATM   40  C24 UNL     1      -6.702   0.797 -13.266  1.00  0.00     0.298 C 
HETATM   41  C25 UNL     1      -7.197  -0.269 -14.230  1.00  0.00     0.198 C 
HETATM   42  O4  UNL     1      -6.178  -0.873 -14.929  1.00  0.00    -0.388 OA
HETATM   43  C26 UNL     1      -5.200   0.076 -15.206  1.00  0.00     0.198 C 
HETATM   44  C27 UNL     1      -4.461   0.517 -13.955  1.00  0.00     0.298 C 
ENDBRANCH  38  39
ENDBRANCH  37  38
ENDBRANCH  36  37
ENDBRANCH  35  36
ENDBRANCH  34  35
ENDBRANCH  32  33
ENDBRANCH   9  32
TORSDOF 17
ENDMDL
MODEL 3
REMARK VINA RESULT: -8.045248286      1.401      1.977
REMARK  17 active torsions:
REMARK  status: ('A' for Active; 'I' for Inactive)
REMARK    1  A    between atoms: C2_2  and  O1_3 
REMARK    2  A    between atoms: O1_3  and  N1_4 
REMARK    3  A    between atoms: N1_4  and  C3_5 
REMARK    4  A    between atoms: N1_4  and  C4_7 
REMARK    5  A    between atoms: C4_7  and  C5_8 
REMARK    6  A    between atoms: C4_7  and  C9_16 
REMARK    7  A    between atoms: C5_8  and  C6_9 
REMARK    8  A    between atoms: C6_9  and  C7_10 
REMARK    9  A    between atoms: C7_10  and  N2_11 
REMARK   10  A    between atoms: C17_24  and  C18_25 
REMARK   11  A    between atoms: C18_25  and  C19_26 
REMARK   12  A    between atoms: C20_27  and  C21_28 
REMARK   13  A    between atoms: C21_28  and  O3_29 
REMARK   14  A    between atoms: O3_29  and  C22_30 
REMARK   15  A    between atoms: C22_30  and  C23_31 
REMARK   16  A    between atoms: C23_31  and  N5_32 
REMARK   17  A    between atoms: C30_42  and  O5_43 
ROOT
HETATM    1  C9  UNL     1      -5.720   0.326 -13.225  1.00  0.00    -0.004 C 
HETATM    2  C10 UNL     1      -6.834  -0.380 -13.883  1.00  0.00     0.041 C 
HETATM    3  C11 UNL     1      -7.254  -1.705 -13.391  1.00  0.00     0.004 C 
HETATM    4  C12 UNL     1      -7.923  -2.601 -14.366  1.00  0.00     0.000 C 
HETATM    5  C13 UNL     1      -7.504  -2.580 -15.786  1.00  0.00     0.000 C 
HETATM    6  C14 UNL     1      -6.303  -3.466 -16.107  1.00  0.00     0.004 C 
HETATM    7  C15 UNL     1      -5.189  -2.653 -16.704  1.00  0.00     0.027 C 
HETATM    8  C16 UNL     1      -3.944  -3.303 -17.038  1.00  0.00    -0.024 C 
HETATM    9  C17 UNL     1      -2.866  -3.560 -16.065  1.00  0.00    -0.079 C 
HETATM   10  C28 UNL     1      -2.458  -2.492 -15.144  1.00  0.00     0.053 C 
HETATM   11  C29 UNL     1      -3.318  -2.205 -13.949  1.00  0.00     0.126 C 
HETATM   12  N6  UNL     1      -3.388  -0.799 -13.620  1.00  0.00    -0.370 N 
ATOM     13  H6  UNL     1      -2.553  -0.441 -13.157  1.00  0.00     0.161 HD
HETATM   14  C30 UNL     1      -4.370   0.153 -13.814  1.00  0.00     0.140 C 
ENDROOT
BRANCH   1  15
HETATM   15  C4  UNL     1      -5.748   0.396 -11.720  1.00  0.00     0.150 C 
BRANCH  15  16
HETATM   16  N1  UNL     1      -4.725   1.365 -11.289  1.00  0.00    -0.224 N 
BRANCH  16  17
HETATM   17  O1  UNL     1      -4.885   2.649 -11.636  1.00  0.00    -0.276 OA
BRANCH  17  18
HETATM   18  C2  UNL     1      -3.791   3.460 -11.545  1.00  0.00     0.197 C 
HETATM   19  C1  UNL     1      -3.965   4.521 -10.462  1.00  0.00     0.036 C 
ENDBRANCH  17  18
ENDBRANCH  16  17
BRANCH  16  20
HETATM   20  C3  UNL     1      -3.572   0.985 -10.563  1.00  0.00     0.377 C 
HETATM   21  O2  UNL     1      -2.955  -0.095 -10.776  1.00  0.00    -0.281 OA
ENDBRANCH  16  20
ENDBRANCH  15  16
BRANCH  15  22
HETATM   22  C5  UNL     1      -7.084   0.988 -11.273  1.00  0.00     0.034 C 
BRANCH  22  23
HETATM   23  C6  UNL     1      -7.260   1.079  -9.802  1.00  0.00     0.022 C 
BRANCH  23  24
HETATM   24  C7  UNL     1      -7.727   2.481  -9.396  1.00  0.00     0.122 C 
BRANCH  24  25
HETATM   25  N2  UNL     1      -7.576   3.380 -10.505  1.00  0.00    -0.367 N 
HETATM   26  C8  UNL     1      -7.514   4.657 -10.368  1.00  0.00     0.196 C 
HETATM   27  N3  UNL     1      -7.365   5.459 -11.521  1.00  0.00    -0.067 NA
HETATM   28  N4  UNL     1      -7.592   5.279  -9.101  1.00  0.00    -0.067 NA
ATOM     29  H2  UNL     1      -7.514   2.988 -11.445  1.00  0.00     0.161 HD
ENDBRANCH  24  25
ENDBRANCH  23  24
ENDBRANCH  22  23
ENDBRANCH  15  22
ENDBRANCH   1  15
BRANCH  14  30
HETATM   30  O5  UNL     1      -4.014   1.066 -14.692  1.00  0.00    -0.346 OA
ATOM     31  H5  UNL     1      -3.179   1.489 -14.528  1.00  0.00     0.219 HD
ENDBRANCH  14  30
BRANCH   9  32
HETATM   32  C18 UNL     1      -3.039  -4.944 -15.513  1.00  0.00     0.060 C 
BRANCH  32  33
HETATM   33  C19 UNL     1      -2.432  -6.030 -16.322  1.00  0.00    -0.024 C 
HETATM   34  C20 UNL     1      -3.128  -6.912 -17.036  1.00  0.00    -0.005 C 
BRANCH  34  35
HETATM   35  C21 UNL     1      -4.587  -6.981 -17.161  1.00  0.00     0.194 C 
BRANCH  35  36
HETATM   36  O3  UNL     1      -5.067  -6.283 -18.293  1.00  0.00    -0.386 OA
BRANCH  36  37
HETATM   37  C22 UNL     1      -6.402  -6.422 -18.516  1.00  0.00     0.198 C 
BRANCH  37  38
HETATM   38  C23 UNL     1      -6.982  -7.660 -17.928  1.00  0.00     0.298 C 
BRANCH  38  39
HETATM   39  N5  UNL     1      -8.188  -7.520 -17.224  1.00  0.00     0.094 N 
HETATM   40  C24 UNL     1      -9.378  -8.142 -17.640  1.00  0.00     0.298 C 
HETATM   41  C25 UNL     1     -10.125  -7.435 -18.758  1.00  0.00     0.198 C 
HETATM   42  O4  UNL     1      -9.852  -6.088 -18.816  1.00  0.00    -0.388 OA
HETATM   43  C26 UNL     1      -9.689  -5.607 -17.521  1.00  0.00     0.198 C 
HETATM   44  C27 UNL     1      -8.417  -6.125 -16.874  1.00  0.00     0.298 C 
ENDBRANCH  38  39
ENDBRANCH  37  38
ENDBRANCH  36  37
ENDBRANCH  35  36
ENDBRANCH  34  35
ENDBRANCH  32  33
ENDBRANCH   9  32
TORSDOF 17
ENDMDL
MODEL 4
REMARK VINA RESULT: -7.998609845      0.744      1.363
REMARK  17 active torsions:
REMARK  status: ('A' for Active; 'I' for Inactive)
REMARK    1  A    between atoms: C2_2  and  O1_3 
REMARK    2  A    between atoms: O1_3  and  N1_4 
REMARK    3  A    between atoms: N1_4  and  C3_5 
REMARK    4  A    between atoms: N1_4  and  C4_7 
REMARK    5  A    between atoms: C4_7  and  C5_8 
REMARK    6  A    between atoms: C4_7  and  C9_16 
REMARK    7  A    between atoms: C5_8  and  C6_9 
REMARK    8  A    between atoms: C6_9  and  C7_10 
REMARK    9  A    between atoms: C7_10  and  N2_11 
REMARK   10  A    between atoms: C17_24  and  C18_25 
REMARK   11  A    between atoms: C18_25  and  C19_26 
REMARK   12  A    between atoms: C20_27  and  C21_28 
REMARK   13  A    between atoms: C21_28  and  O3_29 
REMARK   14  A    between atoms: O3_29  and  C22_30 
REMARK   15  A    between atoms: C22_30  and  C23_31 
REMARK   16  A    between atoms: C23_31  and  N5_32 
REMARK   17  A    between atoms: C30_42  and  O5_43 
ROOT
HETATM    1  C9  UNL     1      -5.844   0.347 -13.386  1.00  0.00    -0.004 C 
HETATM    2  C10 UNL     1      -6.949  -0.399 -14.014  1.00  0.00     0.041 C 
HETATM    3  C11 UNL     1      -7.348  -1.710 -13.471  1.00  0.00     0.004 C 
HETATM    4  C12 UNL     1      -8.008  -2.651 -14.410  1.00  0.00     0.000 C 
HETATM    5  C13 UNL     1      -7.594  -2.677 -15.832  1.00  0.00     0.000 C 
HETATM    6  C14 UNL     1      -6.381  -3.556 -16.124  1.00  0.00     0.004 C 
HETATM    7  C15 UNL     1      -5.281  -2.750 -16.755  1.00  0.00     0.027 C 
HETATM    8  C16 UNL     1      -4.028  -3.394 -17.069  1.00  0.00    -0.024 C 
HETATM    9  C17 UNL     1      -2.943  -3.599 -16.092  1.00  0.00    -0.079 C 
HETATM   10  C28 UNL     1      -2.548  -2.492 -15.213  1.00  0.00     0.053 C 
HETATM   11  C29 UNL     1      -3.407  -2.173 -14.026  1.00  0.00     0.126 C 
HETATM   12  N6  UNL     1      -3.497  -0.757 -13.749  1.00  0.00    -0.370 N 
ATOM     13  H6  UNL     1      -2.666  -0.370 -13.302  1.00  0.00     0.161 HD
HETATM   14  C30 UNL     1      -4.494   0.173 -13.974  1.00  0.00     0.140 C 
ENDROOT
BRANCH   1  15
HETATM   15  C4  UNL     1      -5.868   0.474 -11.885  1.00  0.00     0.150 C 
BRANCH  15  16
HETATM   16  N1  UNL     1      -4.857   1.472 -11.494  1.00  0.00    -0.224 N 
BRANCH  16  17
HETATM   17  O1  UNL     1      -5.043   2.742 -11.876  1.00  0.00    -0.276 OA
BRANCH  17  18
HETATM   18  C2  UNL     1      -4.318   3.700 -11.230  1.00  0.00     0.197 C 
HETATM   19  C1  UNL     1      -5.121   4.984 -11.042  1.00  0.00     0.036 C 
ENDBRANCH  17  18
ENDBRANCH  16  17
BRANCH  16  20
HETATM   20  C3  UNL     1      -3.690   1.132 -10.770  1.00  0.00     0.377 C 
HETATM   21  O2  UNL     1      -3.127   0.008 -10.870  1.00  0.00    -0.281 OA
ENDBRANCH  16  20
ENDBRANCH  15  16
BRANCH  15  22
HETATM   22  C5  UNL     1      -7.210   1.063 -11.455  1.00  0.00     0.034 C 
BRANCH  22  23
HETATM   23  C6  UNL     1      -7.652   0.672 -10.093  1.00  0.00     0.022 C 
BRANCH  23  24
HETATM   24  C7  UNL     1      -7.319   1.769  -9.077  1.00  0.00     0.122 C 
BRANCH  24  25
HETATM   25  N2  UNL     1      -7.081   1.179  -7.790  1.00  0.00    -0.367 N 
HETATM   26  C8  UNL     1      -7.334   1.784  -6.685  1.00  0.00     0.196 C 
HETATM   27  N3  UNL     1      -7.066   1.120  -5.467  1.00  0.00    -0.067 NA
HETATM   28  N4  UNL     1      -7.870   3.093  -6.652  1.00  0.00    -0.067 NA
ATOM     29  H2  UNL     1      -6.695   0.236  -7.751  1.00  0.00     0.161 HD
ENDBRANCH  24  25
ENDBRANCH  23  24
ENDBRANCH  22  23
ENDBRANCH  15  22
ENDBRANCH   1  15
BRANCH  14  30
HETATM   30  O5  UNL     1      -4.154   1.057 -14.887  1.00  0.00    -0.346 OA
ATOM     31  H5  UNL     1      -4.507   0.906 -15.755  1.00  0.00     0.219 HD
ENDBRANCH  14  30
BRANCH   9  32
HETATM   32  C18 UNL     1      -3.094  -4.964 -15.488  1.00  0.00     0.060 C 
BRANCH  32  33
HETATM   33  C19 UNL     1      -2.506  -6.075 -16.277  1.00  0.00    -0.024 C 
HETATM   34  C20 UNL     1      -3.216  -6.933 -17.007  1.00  0.00    -0.005 C 
BRANCH  34  35
HETATM   35  C21 UNL     1      -4.672  -6.950 -17.170  1.00  0.00     0.194 C 
BRANCH  35  36
HETATM   36  O3  UNL     1      -5.141  -8.162 -17.728  1.00  0.00    -0.386 OA
BRANCH  36  37
HETATM   37  C22 UNL     1      -6.491  -8.231 -17.871  1.00  0.00     0.198 C 
BRANCH  37  38
HETATM   38  C23 UNL     1      -7.214  -7.057 -17.311  1.00  0.00     0.298 C 
BRANCH  38  39
HETATM   39  N5  UNL     1      -8.549  -7.261 -16.928  1.00  0.00     0.094 N 
HETATM   40  C24 UNL     1      -9.420  -8.094 -17.650  1.00  0.00     0.298 C 
HETATM   41  C25 UNL     1     -10.032  -7.473 -18.894  1.00  0.00     0.198 C 
HETATM   42  O4  UNL     1     -10.088  -6.099 -18.834  1.00  0.00    -0.388 OA
HETATM   43  C26 UNL     1     -10.356  -5.718 -17.524  1.00  0.00     0.198 C 
HETATM   44  C27 UNL     1      -9.185  -5.993 -16.597  1.00  0.00     0.298 C 
ENDBRANCH  38  39
ENDBRANCH  37  38
ENDBRANCH  36  37
ENDBRANCH  35  36
ENDBRANCH  34  35
ENDBRANCH  32  33
ENDBRANCH   9  32
TORSDOF 17
ENDMDL
MODEL 5
REMARK VINA RESULT: -7.952740761      2.709     10.731
REMARK  17 active torsions:
REMARK  status: ('A' for Active; 'I' for Inactive)
REMARK    1  A    between atoms: C2_2  and  O1_3 
REMARK    2  A    between atoms: O1_3  and  N1_4 
REMARK    3  A    between atoms: N1_4  and  C3_5 
REMARK    4  A    between atoms: N1_4  and  C4_7 
REMARK    5  A    between atoms: C4_7  and  C5_8 
REMARK    6  A    between atoms: C4_7  and  C9_16 
REMARK    7  A    between atoms: C5_8  and  C6_9 
REMARK    8  A    between atoms: C6_9  and  C7_10 
REMARK    9  A    between atoms: C7_10  and  N2_11 
REMARK   10  A    between atoms: C17_24  and  C18_25 
REMARK   11  A    between atoms: C18_25  and  C19_26 
REMARK   12  A    between atoms: C20_27  and  C21_28 
REMARK   13  A    between atoms: C21_28  and  O3_29 
REMARK   14  A    between atoms: O3_29  and  C22_30 
REMARK   15  A    between atoms: C22_30  and  C23_31 
REMARK   16  A    between atoms: C23_31  and  N5_32 
REMARK   17  A    between atoms: C30_42  and  O5_43 
ROOT
HETATM    1  C9  UNL     1      -5.362  -3.418 -16.392  1.00  0.00    -0.004 C 
HETATM    2  C10 UNL     1      -4.103  -2.924 -15.807  1.00  0.00     0.041 C 
HETATM    3  C11 UNL     1      -3.705  -3.358 -14.455  1.00  0.00     0.004 C 
HETATM    4  C12 UNL     1      -2.808  -2.450 -13.698  1.00  0.00     0.000 C 
HETATM    5  C13 UNL     1      -2.949  -0.985 -13.854  1.00  0.00     0.000 C 
HETATM    6  C14 UNL     1      -4.010  -0.350 -12.960  1.00  0.00     0.004 C 
HETATM    7  C15 UNL     1      -5.037   0.372 -13.786  1.00  0.00     0.027 C 
HETATM    8  C16 UNL     1      -6.154   1.005 -13.125  1.00  0.00    -0.024 C 
HETATM    9  C17 UNL     1      -7.380   0.293 -12.722  1.00  0.00    -0.079 C 
HETATM   10  C28 UNL     1      -8.020  -0.630 -13.667  1.00  0.00     0.053 C 
HETATM   11  C29 UNL     1      -7.424  -1.992 -13.859  1.00  0.00     0.126 C 
HETATM   12  N6  UNL     1      -7.503  -2.465 -15.223  1.00  0.00    -0.370 N 
ATOM     13  H6  UNL     1      -8.431  -2.788 -15.494  1.00  0.00     0.161 HD
HETATM   14  C30 UNL     1      -6.562  -2.561 -16.229  1.00  0.00     0.140 C 
ENDROOT
BRANCH   1  15
HETATM   15  C4  UNL     1      -5.626  -4.899 -16.302  1.00  0.00     0.150 C 
BRANCH  15  16
HETATM   16  N1  UNL     1      -6.827  -5.198 -17.101  1.00  0.00    -0.224 N 
BRANCH  16  17
HETATM   17  O1  UNL     1      -8.025  -5.072 -16.514  1.00  0.00    -0.276 OA
BRANCH  17  18
HETATM   18  C2  UNL     1      -8.557  -6.188 -15.939  1.00  0.00     0.197 C 
HETATM   19  C1  UNL     1      -8.812  -5.987 -14.447  1.00  0.00     0.036 C 
ENDBRANCH  17  18
ENDBRANCH  16  17
BRANCH  16  20
HETATM   20  C3  UNL     1      -6.760  -5.646 -18.441  1.00  0.00     0.377 C 
HETATM   21  O2  UNL     1      -7.740  -6.174 -19.035  1.00  0.00    -0.281 OA
ENDBRANCH  16  20
ENDBRANCH  15  16
BRANCH  15  22
HETATM   22  C5  UNL     1      -4.485  -5.652 -16.983  1.00  0.00     0.034 C 
BRANCH  22  23
HETATM   23  C6  UNL     1      -3.852  -6.704 -16.150  1.00  0.00     0.022 C 
BRANCH  23  24
HETATM   24  C7  UNL     1      -3.893  -8.060 -16.863  1.00  0.00     0.122 C 
BRANCH  24  25
HETATM   25  N2  UNL     1      -5.233  -8.574 -16.846  1.00  0.00    -0.367 N 
HETATM   26  C8  UNL     1      -5.807  -9.069 -17.884  1.00  0.00     0.196 C 
HETATM   27  N3  UNL     1      -7.130  -9.550 -17.768  1.00  0.00    -0.067 NA
HETATM   28  N4  UNL     1      -5.153  -9.145 -19.136  1.00  0.00    -0.067 NA
ATOM     29  H2  UNL     1      -5.755  -8.545 -15.969  1.00  0.00     0.161 HD
ENDBRANCH  24  25
ENDBRANCH  23  24
ENDBRANCH  22  23
ENDBRANCH  15  22
ENDBRANCH   1  15
BRANCH  14  30
HETATM   30  O5  UNL     1      -6.799  -1.724 -17.216  1.00  0.00    -0.346 OA
ATOM     31  H5  UNL     1      -6.248  -0.950 -17.238  1.00  0.00     0.219 HD
ENDBRANCH  14  30
BRANCH   9  32
HETATM   32  C18 UNL     1      -7.232  -0.144 -11.295  1.00  0.00     0.060 C 
BRANCH  32  33
HETATM   33  C19 UNL     1      -7.987   0.660 -10.303  1.00  0.00    -0.024 C 
HETATM   34  C20 UNL     1      -7.487   1.710  -9.653  1.00  0.00    -0.005 C 
BRANCH  34  35
HETATM   35  C21 UNL     1      -6.135   2.260  -9.786  1.00  0.00     0.194 C 
BRANCH  35  36
HETATM   36  O3  UNL     1      -6.089   3.379 -10.650  1.00  0.00    -0.386 OA
BRANCH  36  37
HETATM   37  C22 UNL     1      -4.890   4.021 -10.676  1.00  0.00     0.198 C 
BRANCH  37  38
HETATM   38  C23 UNL     1      -3.811   3.249 -11.349  1.00  0.00     0.298 C 
BRANCH  38  39
HETATM   39  N5  UNL     1      -2.490   3.585 -11.015  1.00  0.00     0.094 N 
HETATM   40  C24 UNL     1      -1.383   2.884 -11.523  1.00  0.00     0.298 C 
HETATM   41  C25 UNL     1      -1.066   1.574 -10.821  1.00  0.00     0.198 C 
HETATM   42  O4  UNL     1      -1.523   1.538  -9.524  1.00  0.00    -0.388 OA
HETATM   43  C26 UNL     1      -1.395   2.806  -8.967  1.00  0.00     0.198 C 
HETATM   44  C27 UNL     1      -2.365   3.800  -9.580  1.00  0.00     0.298 C 
ENDBRANCH  38  39
ENDBRANCH  37  38
ENDBRANCH  36  37
ENDBRANCH  35  36
ENDBRANCH  34  35
ENDBRANCH  32  33
ENDBRANCH   9  32
TORSDOF 17
ENDMDL
