MODEL 1
REMARK VINA RESULT: -8.303426449      0.000      0.000
REMARK  18 active torsions:
REMARK  status: ('A' for Active; 'I' for Inactive)
REMARK    1  A    between atoms: C2_2  and  C3_3 
REMARK    2  A    between atoms: C3_3  and  C5_5 
REMARK    3  A    between atoms: C5_5  and  N1_6 
REMARK    4  A    between atoms: C5_5  and  C11_15 
REMARK       I    between atoms: N1_6  and  C6_8 
REMARK    5  A    between atoms: C6_8  and  O2_10 
REMARK    6  A    between atoms: O2_10  and  C7_11 
REMARK       I    between atoms: C11_15  and  N2_17 
REMARK    7  A    between atoms: N2_17  and  C12_19 
REMARK    8  A    between atoms: C12_19  and  C13_20 
REMARK    9  A    between atoms: C12_19  and  C26_42 
REMARK   10  A    between atoms: C13_20  and  O4_21 
REMARK   11  A    between atoms: C13_20  and  N3_23 
REMARK   12  A    between atoms: C17_27  and  C18_28 
REMARK       I    between atoms: C18_28  and  N4_30 
REMARK   13  A    between atoms: N4_30  and  C19_32 
REMARK   14  A    between atoms: C19_32  and  S1_33 
REMARK   15  A    between atoms: C19_32  and  C23_39 
REMARK   16  A    between atoms: S1_33  and  C20_34 
REMARK   17  A    between atoms: C20_34  and  C21_35 
REMARK   18  A    between atoms: C21_35  and  O7_37 
ROOT
HETATM    1  C12 UNL     1      21.544  32.184  15.994  1.00  0.00     0.162 C 
ENDROOT
BRANCH   1   2
HETATM    2  N2  UNL     1      20.969  33.520  16.239  1.00  0.00    -0.347 N 
HETATM    3  C11 UNL     1      21.200  34.389  17.271  1.00  0.00     0.241 C 
HETATM    4  O3  UNL     1      22.012  34.108  18.222  1.00  0.00    -0.271 OA
ATOM      5  H2  UNL     1      20.303  33.843  15.537  1.00  0.00     0.163 HD
BRANCH   3   6
HETATM    6  C5  UNL     1      20.553  35.764  17.442  1.00  0.00     0.182 C 
BRANCH   6   7
HETATM    7  C3  UNL     1      21.282  36.743  16.633  1.00  0.00     0.013 C 
HETATM    8  C4  UNL     1      22.658  36.925  17.350  1.00  0.00     0.012 C 
BRANCH   7   9
HETATM    9  C2  UNL     1      20.689  38.155  16.739  1.00  0.00     0.002 C 
HETATM   10  C1  UNL     1      21.351  38.964  15.646  1.00  0.00     0.005 C 
ENDBRANCH   7   9
ENDBRANCH   6   7
BRANCH   6  11
HETATM   11  N1  UNL     1      19.171  35.497  17.081  1.00  0.00    -0.323 N 
HETATM   12  C6  UNL     1      18.197  35.061  17.976  1.00  0.00     0.362 C 
HETATM   13  O1  UNL     1      18.484  34.866  19.179  1.00  0.00    -0.238 OA
ATOM     14  H1  UNL     1      18.896  35.637  16.109  1.00  0.00     0.165 HD
BRANCH  12  15
HETATM   15  O2  UNL     1      16.907  34.833  17.574  1.00  0.00    -0.294 OA
BRANCH  15  16
HETATM   16  C7  UNL     1      16.098  35.694  16.856  1.00  0.00     0.061 C 
HETATM   17  C8  UNL     1      14.644  35.655  17.313  1.00  0.00     0.046 C 
HETATM   18  C9  UNL     1      16.123  35.288  15.400  1.00  0.00     0.046 C 
HETATM   19  C10 UNL     1      16.527  37.142  16.923  1.00  0.00     0.046 C 
ENDBRANCH  15  16
ENDBRANCH  12  15
ENDBRANCH   6  11
ENDBRANCH   3   6
ENDBRANCH   1   2
BRANCH   1  20
HETATM   20  C13 UNL     1      20.484  31.186  16.055  1.00  0.00     0.138 C 
BRANCH  20  21
HETATM   21  O4  UNL     1      20.606  30.286  17.009  1.00  0.00    -0.348 OA
ATOM     22  H4  UNL     1      20.335  29.406  16.779  1.00  0.00     0.219 HD
ENDBRANCH  20  21
BRANCH  20  23
HETATM   23  N3  UNL     1      19.341  30.998  15.271  1.00  0.00    -0.350 N 
HETATM   24  C14 UNL     1      17.962  30.976  15.666  1.00  0.00     0.126 C 
HETATM   25  C15 UNL     1      17.241  31.662  14.528  1.00  0.00     0.022 C 
HETATM   26  C16 UNL     1      18.191  31.695  13.363  1.00  0.00     0.037 C 
HETATM   27  C17 UNL     1      19.315  30.790  13.813  1.00  0.00     0.178 C 
BRANCH  27  28
HETATM   28  C18 UNL     1      19.145  29.383  13.425  1.00  0.00     0.241 C 
HETATM   29  O5  UNL     1      19.394  28.477  14.288  1.00  0.00    -0.271 OA
HETATM   30  N4  UNL     1      18.715  29.018  12.142  1.00  0.00    -0.346 N 
ATOM     31  H4  UNL     1      18.532  29.773  11.480  1.00  0.00     0.163 HD
BRANCH  30  32
HETATM   32  C19 UNL     1      18.508  27.660  11.673  1.00  0.00     0.150 C 
BRANCH  32  33
HETATM   33  S1  UNL     1      19.863  27.037  10.686  1.00  0.00    -0.134 SA
BRANCH  33  34
HETATM   34  C20 UNL     1      21.326  26.799  11.718  1.00  0.00     0.187 C 
BRANCH  34  35
HETATM   35  C21 UNL     1      22.227  27.982  11.693  1.00  0.00     0.267 C 
HETATM   36  O6  UNL     1      21.865  29.113  11.248  1.00  0.00    -0.264 OA
BRANCH  35  37
HETATM   37  O7  UNL     1      23.535  27.915  12.160  1.00  0.00    -0.326 OA
HETATM   38  C22 UNL     1      24.562  27.272  11.432  1.00  0.00     0.213 C 
ENDBRANCH  35  37
ENDBRANCH  34  35
ENDBRANCH  33  34
ENDBRANCH  32  33
BRANCH  32  39
HETATM   39  C23 UNL     1      17.209  27.551  10.887  1.00  0.00     0.010 C 
HETATM   40  C24 UNL     1      16.558  28.889  10.698  1.00  0.00     0.012 C 
HETATM   41  C25 UNL     1      17.412  26.821   9.573  1.00  0.00     0.012 C 
ENDBRANCH  32  39
ENDBRANCH  30  32
ENDBRANCH  27  28
ENDBRANCH  20  23
ENDBRANCH   1  20
BRANCH   1  42
HETATM   42  C26 UNL     1      22.330  32.273  14.718  1.00  0.00     0.008 C 
HETATM   43  C27 UNL     1      22.784  30.910  14.171  1.00  0.00     0.012 C 
HETATM   44  C28 UNL     1      23.581  33.112  14.932  1.00  0.00     0.012 C 
ENDBRANCH   1  42
TORSDOF 18
ENDMDL
MODEL 2
REMARK VINA RESULT: -8.252933246      2.850     10.126
REMARK  18 active torsions:
REMARK  status: ('A' for Active; 'I' for Inactive)
REMARK    1  A    between atoms: C2_2  and  C3_3 
REMARK    2  A    between atoms: C3_3  and  C5_5 
REMARK    3  A    between atoms: C5_5  and  N1_6 
REMARK    4  A    between atoms: C5_5  and  C11_15 
REMARK       I    between atoms: N1_6  and  C6_8 
REMARK    5  A    between atoms: C6_8  and  O2_10 
REMARK    6  A    between atoms: O2_10  and  C7_11 
REMARK       I    between atoms: C11_15  and  N2_17 
REMARK    7  A    between atoms: N2_17  and  C12_19 
REMARK    8  A    between atoms: C12_19  and  C13_20 
REMARK    9  A    between atoms: C12_19  and  C26_42 
REMARK   10  A    between atoms: C13_20  and  O4_21 
REMARK   11  A    between atoms: C13_20  and  N3_23 
REMARK   12  A    between atoms: C17_27  and  C18_28 
REMARK       I    between atoms: C18_28  and  N4_30 
REMARK   13  A    between atoms: N4_30  and  C19_32 
REMARK   14  A    between atoms: C19_32  and  S1_33 
REMARK   15  A    between atoms: C19_32  and  C23_39 
REMARK   16  A    between atoms: S1_33  and  C20_34 
REMARK   17  A    between atoms: C20_34  and  C21_35 
REMARK   18  A    between atoms: C21_35  and  O7_37 
ROOT
HETATM    1  C12 UNL     1      18.164  28.028  12.417  1.00  0.00     0.162 C 
ENDROOT
BRANCH   1   2
HETATM    2  N2  UNL     1      18.917  27.281  11.392  1.00  0.00    -0.347 N 
HETATM    3  C11 UNL     1      18.731  26.003  10.938  1.00  0.00     0.241 C 
HETATM    4  O3  UNL     1      17.801  25.251  11.399  1.00  0.00    -0.271 OA
ATOM      5  H2  UNL     1      19.687  27.791  10.959  1.00  0.00     0.163 HD
BRANCH   3   6
HETATM    6  C5  UNL     1      19.567  25.308   9.862  1.00  0.00     0.182 C 
BRANCH   6   7
HETATM    7  C3  UNL     1      18.928  25.497   8.559  1.00  0.00     0.013 C 
HETATM    8  C4  UNL     1      20.043  25.196   7.507  1.00  0.00     0.012 C 
BRANCH   7   9
HETATM    9  C2  UNL     1      18.614  26.970   8.263  1.00  0.00     0.002 C 
HETATM   10  C1  UNL     1      18.259  27.030   6.794  1.00  0.00     0.005 C 
ENDBRANCH   7   9
ENDBRANCH   6   7
BRANCH   6  11
HETATM   11  N1  UNL     1      20.875  25.910  10.058  1.00  0.00    -0.323 N 
HETATM   12  C6  UNL     1      21.884  25.357  10.841  1.00  0.00     0.362 C 
HETATM   13  O1  UNL     1      21.698  24.274  11.442  1.00  0.00    -0.238 OA
ATOM     14  H1  UNL     1      21.067  26.797   9.591  1.00  0.00     0.165 HD
BRANCH  12  15
HETATM   15  O2  UNL     1      23.101  25.971  10.980  1.00  0.00    -0.294 OA
BRANCH  15  16
HETATM   16  C7  UNL     1      24.003  26.261   9.973  1.00  0.00     0.061 C 
HETATM   17  C8  UNL     1      25.442  25.946  10.365  1.00  0.00     0.046 C 
HETATM   18  C9  UNL     1      23.933  27.739   9.664  1.00  0.00     0.046 C 
HETATM   19  C10 UNL     1      23.741  25.522   8.681  1.00  0.00     0.046 C 
ENDBRANCH  15  16
ENDBRANCH  12  15
ENDBRANCH   6  11
ENDBRANCH   3   6
ENDBRANCH   1   2
BRANCH   1  20
HETATM   20  C13 UNL     1      19.016  28.236  13.582  1.00  0.00     0.138 C 
BRANCH  20  21
HETATM   21  O4  UNL     1      18.571  27.719  14.709  1.00  0.00    -0.348 OA
ATOM     22  H4  UNL     1      18.408  26.784  14.694  1.00  0.00     0.219 HD
ENDBRANCH  20  21
BRANCH  20  23
HETATM   23  N3  UNL     1      20.238  28.900  13.730  1.00  0.00    -0.350 N 
HETATM   24  C14 UNL     1      21.538  28.358  14.003  1.00  0.00     0.126 C 
HETATM   25  C15 UNL     1      22.474  29.211  13.178  1.00  0.00     0.022 C 
HETATM   26  C16 UNL     1      21.709  30.442  12.779  1.00  0.00     0.037 C 
HETATM   27  C17 UNL     1      20.455  30.351  13.618  1.00  0.00     0.178 C 
BRANCH  27  28
HETATM   28  C18 UNL     1      20.552  31.032  14.917  1.00  0.00     0.241 C 
HETATM   29  O5  UNL     1      20.112  30.434  15.955  1.00  0.00    -0.271 OA
HETATM   30  N4  UNL     1      21.117  32.309  15.040  1.00  0.00    -0.346 N 
ATOM     31  H4  UNL     1      21.452  32.755  14.186  1.00  0.00     0.163 HD
BRANCH  30  32
HETATM   32  C19 UNL     1      21.266  33.052  16.279  1.00  0.00     0.150 C 
BRANCH  32  33
HETATM   33  S1  UNL     1      19.981  34.270  16.533  1.00  0.00    -0.134 SA
BRANCH  33  34
HETATM   34  C20 UNL     1      18.376  33.458  16.689  1.00  0.00     0.187 C 
BRANCH  34  35
HETATM   35  C21 UNL     1      17.639  33.421  15.398  1.00  0.00     0.267 C 
HETATM   36  O6  UNL     1      18.217  33.518  14.273  1.00  0.00    -0.264 OA
BRANCH  35  37
HETATM   37  O7  UNL     1      16.257  33.277  15.348  1.00  0.00    -0.326 OA
HETATM   38  C22 UNL     1      15.600  32.135  15.863  1.00  0.00     0.213 C 
ENDBRANCH  35  37
ENDBRANCH  34  35
ENDBRANCH  33  34
ENDBRANCH  32  33
BRANCH  32  39
HETATM   39  C23 UNL     1      22.630  33.724  16.346  1.00  0.00     0.010 C 
HETATM   40  C24 UNL     1      23.518  33.296  15.215  1.00  0.00     0.012 C 
HETATM   41  C25 UNL     1      22.504  35.233  16.436  1.00  0.00     0.012 C 
ENDBRANCH  32  39
ENDBRANCH  30  32
ENDBRANCH  27  28
ENDBRANCH  20  23
ENDBRANCH   1  20
BRANCH   1  42
HETATM   42  C26 UNL     1      17.607  29.251  11.748  1.00  0.00     0.008 C 
HETATM   43  C27 UNL     1      17.157  30.346  12.729  1.00  0.00     0.012 C 
HETATM   44  C28 UNL     1      16.399  28.879  10.901  1.00  0.00     0.012 C 
ENDBRANCH   1  42
TORSDOF 18
ENDMDL
MODEL 3
REMARK VINA RESULT: -8.237040065      2.727      9.910
REMARK  18 active torsions:
REMARK  status: ('A' for Active; 'I' for Inactive)
REMARK    1  A    between atoms: C2_2  and  C3_3 
REMARK    2  A    between atoms: C3_3  and  C5_5 
REMARK    3  A    between atoms: C5_5  and  N1_6 
REMARK    4  A    between atoms: C5_5  and  C11_15 
REMARK       I    between atoms: N1_6  and  C6_8 
REMARK    5  A    between atoms: C6_8  and  O2_10 
REMARK    6  A    between atoms: O2_10  and  C7_11 
REMARK       I    between atoms: C11_15  and  N2_17 
REMARK    7  A    between atoms: N2_17  and  C12_19 
REMARK    8  A    between atoms: C12_19  and  C13_20 
REMARK    9  A    between atoms: C12_19  and  C26_42 
REMARK   10  A    between atoms: C13_20  and  O4_21 
REMARK   11  A    between atoms: C13_20  and  N3_23 
REMARK   12  A    between atoms: C17_27  and  C18_28 
REMARK       I    between atoms: C18_28  and  N4_30 
REMARK   13  A    between atoms: N4_30  and  C19_32 
REMARK   14  A    between atoms: C19_32  and  S1_33 
REMARK   15  A    between atoms: C19_32  and  C23_39 
REMARK   16  A    between atoms: S1_33  and  C20_34 
REMARK   17  A    between atoms: C20_34  and  C21_35 
REMARK   18  A    between atoms: C21_35  and  O7_37 
ROOT
HETATM    1  C12 UNL     1      20.226  31.372  14.795  1.00  0.00     0.162 C 
ENDROOT
BRANCH   1   2
HETATM    2  N2  UNL     1      20.054  30.005  14.267  1.00  0.00    -0.347 N 
HETATM    3  C11 UNL     1      19.615  29.599  13.035  1.00  0.00     0.241 C 
HETATM    4  O3  UNL     1      19.272  30.439  12.130  1.00  0.00    -0.271 OA
ATOM      5  H2  UNL     1      20.298  29.254  14.912  1.00  0.00     0.163 HD
BRANCH   3   6
HETATM    6  C5  UNL     1      19.469  28.149  12.573  1.00  0.00     0.182 C 
BRANCH   6   7
HETATM    7  C3  UNL     1      18.110  27.938  12.071  1.00  0.00     0.013 C 
HETATM    8  C4  UNL     1      17.351  27.220  13.232  1.00  0.00     0.012 C 
BRANCH   7   9
HETATM    9  C2  UNL     1      18.050  26.879  10.961  1.00  0.00     0.002 C 
HETATM   10  C1  UNL     1      17.894  25.550  11.666  1.00  0.00     0.005 C 
ENDBRANCH   7   9
ENDBRANCH   6   7
BRANCH   6  11
HETATM   11  N1  UNL     1      20.561  28.022  11.622  1.00  0.00    -0.323 N 
HETATM   12  C6  UNL     1      21.908  28.004  11.971  1.00  0.00     0.362 C 
HETATM   13  O1  UNL     1      22.253  28.108  13.170  1.00  0.00    -0.238 OA
ATOM     14  H1  UNL     1      20.324  27.941  10.633  1.00  0.00     0.165 HD
BRANCH  12  15
HETATM   15  O2  UNL     1      22.891  27.874  11.025  1.00  0.00    -0.294 OA
BRANCH  15  16
HETATM   16  C7  UNL     1      23.663  26.754  10.782  1.00  0.00     0.061 C 
HETATM   17  C8  UNL     1      24.958  26.746  11.587  1.00  0.00     0.046 C 
HETATM   18  C9  UNL     1      24.043  26.730   9.319  1.00  0.00     0.046 C 
HETATM   19  C10 UNL     1      22.966  25.447  11.084  1.00  0.00     0.046 C 
ENDBRANCH  15  16
ENDBRANCH  12  15
ENDBRANCH   6  11
ENDBRANCH   3   6
ENDBRANCH   1   2
BRANCH   1  20
HETATM   20  C13 UNL     1      19.126  31.679  15.701  1.00  0.00     0.138 C 
BRANCH  20  21
HETATM   21  O4  UNL     1      18.910  30.792  16.651  1.00  0.00    -0.348 OA
ATOM     22  H4  UNL     1      18.007  30.707  16.933  1.00  0.00     0.219 HD
ENDBRANCH  20  21
BRANCH  20  23
HETATM   23  N3  UNL     1      18.238  32.758  15.748  1.00  0.00    -0.350 N 
HETATM   24  C14 UNL     1      17.969  33.756  14.754  1.00  0.00     0.126 C 
HETATM   25  C15 UNL     1      16.481  33.998  14.866  1.00  0.00     0.022 C 
HETATM   26  C16 UNL     1      16.039  33.413  16.178  1.00  0.00     0.037 C 
HETATM   27  C17 UNL     1      17.346  33.099  16.869  1.00  0.00     0.178 C 
BRANCH  27  28
HETATM   28  C18 UNL     1      17.856  34.188  17.713  1.00  0.00     0.241 C 
HETATM   29  O5  UNL     1      17.038  34.808  18.471  1.00  0.00    -0.271 OA
HETATM   30  N4  UNL     1      19.209  34.555  17.707  1.00  0.00    -0.346 N 
ATOM     31  H4  UNL     1      19.830  34.038  17.083  1.00  0.00     0.163 HD
BRANCH  30  32
HETATM   32  C19 UNL     1      19.804  35.607  18.511  1.00  0.00     0.150 C 
BRANCH  32  33
HETATM   33  S1  UNL     1      19.739  37.216  17.735  1.00  0.00    -0.134 SA
BRANCH  33  34
HETATM   34  C20 UNL     1      18.188  38.043  18.148  1.00  0.00     0.187 C 
BRANCH  34  35
HETATM   35  C21 UNL     1      17.335  38.265  16.950  1.00  0.00     0.267 C 
HETATM   36  O6  UNL     1      16.713  37.326  16.365  1.00  0.00    -0.264 OA
BRANCH  35  37
HETATM   37  O7  UNL     1      17.167  39.529  16.394  1.00  0.00    -0.326 OA
HETATM   38  C22 UNL     1      16.269  40.476  16.938  1.00  0.00     0.213 C 
ENDBRANCH  35  37
ENDBRANCH  34  35
ENDBRANCH  33  34
ENDBRANCH  32  33
BRANCH  32  39
HETATM   39  C23 UNL     1      21.245  35.266  18.866  1.00  0.00     0.010 C 
HETATM   40  C24 UNL     1      22.218  36.191  18.195  1.00  0.00     0.012 C 
HETATM   41  C25 UNL     1      21.451  35.209  20.368  1.00  0.00     0.012 C 
ENDBRANCH  32  39
ENDBRANCH  30  32
ENDBRANCH  27  28
ENDBRANCH  20  23
ENDBRANCH   1  20
BRANCH   1  42
HETATM   42  C26 UNL     1      21.617  31.454  15.352  1.00  0.00     0.008 C 
HETATM   43  C27 UNL     1      21.865  32.694  16.227  1.00  0.00     0.012 C 
HETATM   44  C28 UNL     1      22.633  31.491  14.219  1.00  0.00     0.012 C 
ENDBRANCH   1  42
TORSDOF 18
ENDMDL
MODEL 4
REMARK VINA RESULT: -8.219845253      3.012      9.425
REMARK  18 active torsions:
REMARK  status: ('A' for Active; 'I' for Inactive)
REMARK    1  A    between atoms: C2_2  and  C3_3 
REMARK    2  A    between atoms: C3_3  and  C5_5 
REMARK    3  A    between atoms: C5_5  and  N1_6 
REMARK    4  A    between atoms: C5_5  and  C11_15 
REMARK       I    between atoms: N1_6  and  C6_8 
REMARK    5  A    between atoms: C6_8  and  O2_10 
REMARK    6  A    between atoms: O2_10  and  C7_11 
REMARK       I    between atoms: C11_15  and  N2_17 
REMARK    7  A    between atoms: N2_17  and  C12_19 
REMARK    8  A    between atoms: C12_19  and  C13_20 
REMARK    9  A    between atoms: C12_19  and  C26_42 
REMARK   10  A    between atoms: C13_20  and  O4_21 
REMARK   11  A    between atoms: C13_20  and  N3_23 
REMARK   12  A    between atoms: C17_27  and  C18_28 
REMARK       I    between atoms: C18_28  and  N4_30 
REMARK   13  A    between atoms: N4_30  and  C19_32 
REMARK   14  A    between atoms: C19_32  and  S1_33 
REMARK   15  A    between atoms: C19_32  and  C23_39 
REMARK   16  A    between atoms: S1_33  and  C20_34 
REMARK   17  A    between atoms: C20_34  and  C21_35 
REMARK   18  A    between atoms: C21_35  and  O7_37 
ROOT
HETATM    1  C12 UNL     1      21.169  34.119  15.849  1.00  0.00     0.162 C 
ENDROOT
BRANCH   1   2
HETATM    2  N2  UNL     1      20.473  32.838  15.624  1.00  0.00    -0.347 N 
HETATM    3  C11 UNL     1      20.257  32.161  14.453  1.00  0.00     0.241 C 
HETATM    4  O3  UNL     1      20.671  32.611  13.327  1.00  0.00    -0.271 OA
ATOM      5  H2  UNL     1      20.098  32.392  16.461  1.00  0.00     0.163 HD
BRANCH   3   6
HETATM    6  C5  UNL     1      19.520  30.829  14.316  1.00  0.00     0.182 C 
BRANCH   6   7
HETATM    7  C3  UNL     1      18.227  31.058  13.668  1.00  0.00     0.013 C 
HETATM    8  C4  UNL     1      17.336  31.734  14.758  1.00  0.00     0.012 C 
BRANCH   7   9
HETATM    9  C2  UNL     1      17.460  29.755  13.405  1.00  0.00     0.002 C 
HETATM   10  C1  UNL     1      17.443  29.581  11.903  1.00  0.00     0.005 C 
ENDBRANCH   7   9
ENDBRANCH   6   7
BRANCH   6  11
HETATM   11  N1  UNL     1      20.491  30.017  13.601  1.00  0.00    -0.323 N 
HETATM   12  C6  UNL     1      20.914  28.757  14.013  1.00  0.00     0.362 C 
HETATM   13  O1  UNL     1      20.463  28.249  15.065  1.00  0.00    -0.238 OA
ATOM     14  H1  UNL     1      20.889  30.396  12.742  1.00  0.00     0.165 HD
BRANCH  12  15
HETATM   15  O2  UNL     1      21.829  28.037  13.290  1.00  0.00    -0.294 OA
BRANCH  15  16
HETATM   16  C7  UNL     1      21.731  27.671  11.960  1.00  0.00     0.061 C 
HETATM   17  C8  UNL     1      20.341  27.167  11.589  1.00  0.00     0.046 C 
HETATM   18  C9  UNL     1      22.704  26.547  11.689  1.00  0.00     0.046 C 
HETATM   19  C10 UNL     1      22.054  28.784  10.990  1.00  0.00     0.046 C 
ENDBRANCH  15  16
ENDBRANCH  12  15
ENDBRANCH   6  11
ENDBRANCH   3   6
ENDBRANCH   1   2
BRANCH   1  20
HETATM   20  C13 UNL     1      20.369  34.950  16.741  1.00  0.00     0.138 C 
BRANCH  20  21
HETATM   21  O4  UNL     1      19.095  35.057  16.425  1.00  0.00    -0.348 OA
ATOM     22  H4  UNL     1      18.482  34.866  17.125  1.00  0.00     0.219 HD
ENDBRANCH  20  21
BRANCH  20  23
HETATM   23  N3  UNL     1      20.711  35.673  17.888  1.00  0.00    -0.350 N 
HETATM   24  C14 UNL     1      20.648  35.275  19.265  1.00  0.00     0.126 C 
HETATM   25  C15 UNL     1      21.874  35.904  19.887  1.00  0.00     0.022 C 
HETATM   26  C16 UNL     1      22.366  36.950  18.927  1.00  0.00     0.037 C 
HETATM   27  C17 UNL     1      21.241  37.046  17.921  1.00  0.00     0.178 C 
BRANCH  27  28
HETATM   28  C18 UNL     1      20.227  38.058  18.250  1.00  0.00     0.241 C 
HETATM   29  O5  UNL     1      20.544  39.005  19.044  1.00  0.00    -0.271 OA
HETATM   30  N4  UNL     1      18.934  38.008  17.711  1.00  0.00    -0.346 N 
ATOM     31  H4  UNL     1      18.719  37.232  17.085  1.00  0.00     0.163 HD
BRANCH  30  32
HETATM   32  C19 UNL     1      17.873  38.966  17.968  1.00  0.00     0.150 C 
BRANCH  32  33
HETATM   33  S1  UNL     1      16.422  38.234  18.713  1.00  0.00    -0.134 SA
BRANCH  33  34
HETATM   34  C20 UNL     1      15.839  36.851  17.710  1.00  0.00     0.187 C 
BRANCH  34  35
HETATM   35  C21 UNL     1      16.235  35.536  18.284  1.00  0.00     0.267 C 
HETATM   36  O6  UNL     1      17.397  35.307  18.737  1.00  0.00    -0.264 OA
BRANCH  35  37
HETATM   37  O7  UNL     1      15.344  34.471  18.356  1.00  0.00    -0.326 OA
HETATM   38  C22 UNL     1      15.191  33.546  17.297  1.00  0.00     0.213 C 
ENDBRANCH  35  37
ENDBRANCH  34  35
ENDBRANCH  33  34
ENDBRANCH  32  33
BRANCH  32  39
HETATM   39  C23 UNL     1      17.481  39.694  16.690  1.00  0.00     0.010 C 
HETATM   40  C24 UNL     1      16.245  40.523  16.877  1.00  0.00     0.012 C 
HETATM   41  C25 UNL     1      18.637  40.506  16.134  1.00  0.00     0.012 C 
ENDBRANCH  32  39
ENDBRANCH  30  32
ENDBRANCH  27  28
ENDBRANCH  20  23
ENDBRANCH   1  20
BRANCH   1  42
HETATM   42  C26 UNL     1      22.565  33.787  16.290  1.00  0.00     0.008 C 
HETATM   43  C27 UNL     1      23.533  33.504  15.129  1.00  0.00     0.012 C 
HETATM   44  C28 UNL     1      22.553  32.553  17.179  1.00  0.00     0.012 C 
ENDBRANCH   1  42
TORSDOF 18
ENDMDL
MODEL 5
REMARK VINA RESULT: -8.177877258      2.833      9.990
REMARK  18 active torsions:
REMARK  status: ('A' for Active; 'I' for Inactive)
REMARK    1  A    between atoms: C2_2  and  C3_3 
REMARK    2  A    between atoms: C3_3  and  C5_5 
REMARK    3  A    between atoms: C5_5  and  N1_6 
REMARK    4  A    between atoms: C5_5  and  C11_15 
REMARK       I    between atoms: N1_6  and  C6_8 
REMARK    5  A    between atoms: C6_8  and  O2_10 
REMARK    6  A    between atoms: O2_10  and  C7_11 
REMARK       I    between atoms: C11_15  and  N2_17 
REMARK    7  A    between atoms: N2_17  and  C12_19 
REMARK    8  A    between atoms: C12_19  and  C13_20 
REMARK    9  A    between atoms: C12_19  and  C26_42 
REMARK   10  A    between atoms: C13_20  and  O4_21 
REMARK   11  A    between atoms: C13_20  and  N3_23 
REMARK   12  A    between atoms: C17_27  and  C18_28 
REMARK       I    between atoms: C18_28  and  N4_30 
REMARK   13  A    between atoms: N4_30  and  C19_32 
REMARK   14  A    between atoms: C19_32  and  S1_33 
REMARK   15  A    between atoms: C19_32  and  C23_39 
REMARK   16  A    between atoms: S1_33  and  C20_34 
REMARK   17  A    between atoms: C20_34  and  C21_35 
REMARK   18  A    between atoms: C21_35  and  O7_37 
ROOT
HETATM    1  C12 UNL     1      19.775  29.972  13.047  1.00  0.00     0.162 C 
ENDROOT
BRANCH   1   2
HETATM    2  N2  UNL     1      20.384  29.008  12.113  1.00  0.00    -0.347 N 
HETATM    3  C11 UNL     1      21.443  28.162  12.306  1.00  0.00     0.241 C 
HETATM    4  O3  UNL     1      22.078  28.117  13.419  1.00  0.00    -0.271 OA
ATOM      5  H2  UNL     1      19.954  28.964  11.188  1.00  0.00     0.163 HD
BRANCH   3   6
HETATM    6  C5  UNL     1      22.009  27.188  11.271  1.00  0.00     0.182 C 
BRANCH   6   7
HETATM    7  C3  UNL     1      23.469  27.168  11.376  1.00  0.00     0.013 C 
HETATM    8  C4  UNL     1      23.986  27.770  10.031  1.00  0.00     0.012 C 
BRANCH   7   9
HETATM    9  C2  UNL     1      24.044  25.746  11.320  1.00  0.00     0.002 C 
HETATM   10  C1  UNL     1      25.381  25.870  10.622  1.00  0.00     0.005 C 
ENDBRANCH   7   9
ENDBRANCH   6   7
BRANCH   6  11
HETATM   11  N1  UNL     1      21.299  25.961  11.589  1.00  0.00    -0.323 N 
HETATM   12  C6  UNL     1      20.585  25.205  10.663  1.00  0.00     0.362 C 
HETATM   13  O1  UNL     1      20.515  25.569   9.467  1.00  0.00    -0.238 OA
ATOM     14  H1  UNL     1      21.324  25.631  12.554  1.00  0.00     0.165 HD
BRANCH  12  15
HETATM   15  O2  UNL     1      19.942  24.050  11.025  1.00  0.00    -0.294 OA
BRANCH  15  16
HETATM   16  C7  UNL     1      18.581  23.881  11.201  1.00  0.00     0.061 C 
HETATM   17  C8  UNL     1      17.862  25.186  11.525  1.00  0.00     0.046 C 
HETATM   18  C9  UNL     1      18.351  22.941  12.362  1.00  0.00     0.046 C 
HETATM   19  C10 UNL     1      17.873  23.292  10.003  1.00  0.00     0.046 C 
ENDBRANCH  15  16
ENDBRANCH  12  15
ENDBRANCH   6  11
ENDBRANCH   3   6
ENDBRANCH   1   2
BRANCH   1  20
HETATM   20  C13 UNL     1      20.516  31.226  12.994  1.00  0.00     0.138 C 
BRANCH  20  21
HETATM   21  O4  UNL     1      20.326  31.953  11.912  1.00  0.00    -0.348 OA
ATOM     22  H4  UNL     1      19.419  32.107  11.677  1.00  0.00     0.219 HD
ENDBRANCH  20  21
BRANCH  20  23
HETATM   23  N3  UNL     1      21.414  31.810  13.894  1.00  0.00    -0.350 N 
HETATM   24  C14 UNL     1      22.521  31.216  14.586  1.00  0.00     0.126 C 
HETATM   25  C15 UNL     1      23.575  32.301  14.597  1.00  0.00     0.022 C 
HETATM   26  C16 UNL     1      22.880  33.590  14.256  1.00  0.00     0.037 C 
HETATM   27  C17 UNL     1      21.417  33.218  14.325  1.00  0.00     0.178 C 
BRANCH  27  28
HETATM   28  C18 UNL     1      20.806  33.428  15.645  1.00  0.00     0.241 C 
HETATM   29  O5  UNL     1      20.077  32.504  16.135  1.00  0.00    -0.271 OA
HETATM   30  N4  UNL     1      21.010  34.610  16.372  1.00  0.00    -0.346 N 
ATOM     31  H4  UNL     1      21.595  35.326  15.943  1.00  0.00     0.163 HD
BRANCH  30  32
HETATM   32  C19 UNL     1      20.459  34.901  17.684  1.00  0.00     0.150 C 
BRANCH  32  33
HETATM   33  S1  UNL     1      18.781  35.517  17.627  1.00  0.00    -0.134 SA
BRANCH  33  34
HETATM   34  C20 UNL     1      17.612  34.144  17.705  1.00  0.00     0.187 C 
BRANCH  34  35
HETATM   35  C21 UNL     1      16.204  34.598  17.552  1.00  0.00     0.267 C 
HETATM   36  O6  UNL     1      15.352  34.526  18.489  1.00  0.00    -0.264 OA
BRANCH  35  37
HETATM   37  O7  UNL     1      15.733  35.134  16.358  1.00  0.00    -0.326 OA
HETATM   38  C22 UNL     1      16.146  34.641  15.098  1.00  0.00     0.213 C 
ENDBRANCH  35  37
ENDBRANCH  34  35
ENDBRANCH  33  34
ENDBRANCH  32  33
BRANCH  32  39
HETATM   39  C23 UNL     1      21.343  35.888  18.434  1.00  0.00     0.010 C 
HETATM   40  C24 UNL     1      21.860  35.309  19.718  1.00  0.00     0.012 C 
HETATM   41  C25 UNL     1      22.459  36.417  17.553  1.00  0.00     0.012 C 
ENDBRANCH  32  39
ENDBRANCH  30  32
ENDBRANCH  27  28
ENDBRANCH  20  23
ENDBRANCH   1  20
BRANCH   1  42
HETATM   42  C26 UNL     1      18.310  30.028  12.725  1.00  0.00     0.008 C 
HETATM   43  C27 UNL     1      17.502  30.945  13.658  1.00  0.00     0.012 C 
HETATM   44  C28 UNL     1      17.700  28.637  12.820  1.00  0.00     0.012 C 
ENDBRANCH   1  42
TORSDOF 18
ENDMDL
