MODEL 1
REMARK VINA RESULT: -6.784641494      0.000      0.000
REMARK  6 active torsions:
REMARK  status: ('A' for Active; 'I' for Inactive)
REMARK    1  A    between atoms: C3_3  and  N1_4 
REMARK    2  A    between atoms: N1_4  and  C4_5 
REMARK    3  A    between atoms: C4_5  and  O1_6 
REMARK    4  A    between atoms: C4_5  and  N2_8 
REMARK       I    between atoms: N2_8  and  C5_10 
REMARK    5  A    between atoms: C5_10  and  C6_12 
REMARK       I    between atoms: N3_15  and  C9_16 
REMARK    6  A    between atoms: C9_16  and  C10_18 
ROOT
HETATM    1  C1  UNL     1      28.341   9.869  20.257  1.00  0.00     0.019 C 
HETATM    2  C2  UNL     1      27.287  10.323  19.899  1.00  0.00    -0.058 C 
HETATM    3  C3  UNL     1      26.010  10.894  19.426  1.00  0.00     0.250 C 
ENDROOT
BRANCH   3   4
HETATM    4  N1  UNL     1      24.881  10.536  20.110  1.00  0.00    -0.369 NA
BRANCH   4   5
HETATM    5  C4  UNL     1      23.779  10.187  20.780  1.00  0.00     0.300 C 
BRANCH   5   6
HETATM    6  O1  UNL     1      23.847   9.186  21.685  1.00  0.00    -0.321 OA
ATOM      7  H1  UNL     1      23.103   8.603  21.788  1.00  0.00     0.222 HD
ENDBRANCH   5   6
BRANCH   5   8
HETATM    8  N2  UNL     1      22.476  10.719  20.699  1.00  0.00    -0.281 N 
HETATM    9  C5  UNL     1      21.553  10.957  21.699  1.00  0.00     0.229 C 
HETATM   10  O2  UNL     1      21.638  10.769  22.922  1.00  0.00    -0.273 OA
ATOM     11  H2  UNL     1      22.168  10.966  19.759  1.00  0.00     0.173 HD
BRANCH   9  12
HETATM   12  C6  UNL     1      20.219  11.540  21.223  1.00  0.00     0.081 C 
HETATM   13  C7  UNL     1      19.311  11.655  22.369  1.00  0.00     0.034 C 
HETATM   14  C8  UNL     1      17.840  11.657  21.998  1.00  0.00     0.127 C 
HETATM   15  N3  UNL     1      17.571  10.588  21.035  1.00  0.00    -0.341 N 
HETATM   16  C9  UNL     1      16.640   9.557  21.309  1.00  0.00     0.298 C 
HETATM   17  C13 UNL     1      18.315  10.686  19.810  1.00  0.00     0.127 C 
HETATM   18  O3  UNL     1      16.471   8.660  20.452  1.00  0.00    -0.258 OA
HETATM   19  C14 UNL     1      19.770  10.686  20.088  1.00  0.00     0.034 C 
BRANCH  16  20
HETATM   20  C10 UNL     1      15.924   9.574  22.550  1.00  0.00    -0.006 C 
HETATM   21  C11 UNL     1      15.330   9.574  23.610  1.00  0.00    -0.101 C 
HETATM   22  C12 UNL     1      14.632   9.561  24.909  1.00  0.00     0.112 C 
ENDBRANCH  16  20
ENDBRANCH   9  12
ENDBRANCH   5   8
ENDBRANCH   4   5
ENDBRANCH   3   4
TORSDOF 6
ENDMDL
MODEL 2
REMARK VINA RESULT: -6.651072102      3.433      5.060
REMARK  6 active torsions:
REMARK  status: ('A' for Active; 'I' for Inactive)
REMARK    1  A    between atoms: C3_3  and  N1_4 
REMARK    2  A    between atoms: N1_4  and  C4_5 
REMARK    3  A    between atoms: C4_5  and  O1_6 
REMARK    4  A    between atoms: C4_5  and  N2_8 
REMARK       I    between atoms: N2_8  and  C5_10 
REMARK    5  A    between atoms: C5_10  and  C6_12 
REMARK       I    between atoms: N3_15  and  C9_16 
REMARK    6  A    between atoms: C9_16  and  C10_18 
ROOT
HETATM    1  C1  UNL     1      20.728  12.642  29.415  1.00  0.00     0.019 C 
HETATM    2  C2  UNL     1      21.439  13.058  28.540  1.00  0.00    -0.058 C 
HETATM    3  C3  UNL     1      22.328  13.595  27.490  1.00  0.00     0.250 C 
ENDROOT
BRANCH   3   4
HETATM    4  N1  UNL     1      22.408  12.884  26.324  1.00  0.00    -0.369 NA
BRANCH   4   5
HETATM    5  C4  UNL     1      22.485  12.191  25.185  1.00  0.00     0.300 C 
BRANCH   5   6
HETATM    6  O1  UNL     1      23.451  11.256  25.046  1.00  0.00    -0.321 OA
ATOM      7  H1  UNL     1      23.525  10.784  24.224  1.00  0.00     0.222 HD
ENDBRANCH   5   6
BRANCH   5   8
HETATM    8  N2  UNL     1      21.679  12.272  24.031  1.00  0.00    -0.281 N 
HETATM    9  C5  UNL     1      21.577  11.406  22.959  1.00  0.00     0.229 C 
HETATM   10  O2  UNL     1      22.163  10.334  22.742  1.00  0.00    -0.273 OA
ATOM     11  H2  UNL     1      21.079  13.095  23.979  1.00  0.00     0.173 HD
BRANCH   9  12
HETATM   12  C6  UNL     1      20.590  11.838  21.870  1.00  0.00     0.081 C 
HETATM   13  C7  UNL     1      19.228  11.503  22.299  1.00  0.00     0.034 C 
HETATM   14  C8  UNL     1      18.243  11.331  21.158  1.00  0.00     0.127 C 
HETATM   15  N3  UNL     1      18.839  10.501  20.110  1.00  0.00    -0.341 N 
HETATM   16  C9  UNL     1      18.245   9.284  19.697  1.00  0.00     0.298 C 
HETATM   17  C13 UNL     1      20.049  11.030  19.546  1.00  0.00     0.127 C 
HETATM   18  O3  UNL     1      18.816   8.610  18.809  1.00  0.00    -0.258 OA
HETATM   19  C14 UNL     1      21.071  11.223  20.602  1.00  0.00     0.034 C 
BRANCH  16  20
HETATM   20  C10 UNL     1      17.015   8.866  20.302  1.00  0.00    -0.006 C 
HETATM   21  C11 UNL     1      15.980   8.518  20.834  1.00  0.00    -0.101 C 
HETATM   22  C12 UNL     1      14.729   8.114  21.501  1.00  0.00     0.112 C 
ENDBRANCH  16  20
ENDBRANCH   9  12
ENDBRANCH   5   8
ENDBRANCH   4   5
ENDBRANCH   3   4
TORSDOF 6
ENDMDL
MODEL 3
REMARK VINA RESULT: -6.644672417      2.543      8.376
REMARK  6 active torsions:
REMARK  status: ('A' for Active; 'I' for Inactive)
REMARK    1  A    between atoms: C3_3  and  N1_4 
REMARK    2  A    between atoms: N1_4  and  C4_5 
REMARK    3  A    between atoms: C4_5  and  O1_6 
REMARK    4  A    between atoms: C4_5  and  N2_8 
REMARK       I    between atoms: N2_8  and  C5_10 
REMARK    5  A    between atoms: C5_10  and  C6_12 
REMARK       I    between atoms: N3_15  and  C9_16 
REMARK    6  A    between atoms: C9_16  and  C10_18 
ROOT
HETATM    1  C1  UNL     1      17.841   6.867  18.834  1.00  0.00     0.019 C 
HETATM    2  C2  UNL     1      17.610   7.889  19.424  1.00  0.00    -0.058 C 
HETATM    3  C3  UNL     1      17.291   9.129  20.160  1.00  0.00     0.250 C 
ENDROOT
BRANCH   3   4
HETATM    4  N1  UNL     1      18.311  10.024  20.335  1.00  0.00    -0.369 NA
BRANCH   4   5
HETATM    5  C4  UNL     1      19.308  10.897  20.506  1.00  0.00     0.300 C 
BRANCH   5   6
HETATM    6  O1  UNL     1      19.199  11.841  21.466  1.00  0.00    -0.321 OA
ATOM      7  H1  UNL     1      19.294  12.757  21.229  1.00  0.00     0.222 HD
ENDBRANCH   5   6
BRANCH   5   8
HETATM    8  N2  UNL     1      20.531  11.007  19.813  1.00  0.00    -0.281 N 
HETATM    9  C5  UNL     1      21.610  11.837  20.049  1.00  0.00     0.229 C 
HETATM   10  O2  UNL     1      21.781  12.690  20.932  1.00  0.00    -0.273 OA
ATOM     11  H2  UNL     1      20.635  10.378  19.017  1.00  0.00     0.173 HD
BRANCH   9  12
HETATM   12  C6  UNL     1      22.774  11.679  19.064  1.00  0.00     0.081 C 
HETATM   13  C7  UNL     1      23.602  10.542  19.481  1.00  0.00     0.034 C 
HETATM   14  C8  UNL     1      25.035  10.606  18.991  1.00  0.00     0.127 C 
HETATM   15  N3  UNL     1      25.576  11.948  19.218  1.00  0.00    -0.341 N 
HETATM   16  C9  UNL     1      26.723  12.161  20.020  1.00  0.00     0.298 C 
HETATM   17  C13 UNL     1      24.858  13.001  18.557  1.00  0.00     0.127 C 
HETATM   18  O3  UNL     1      27.123  13.335  20.191  1.00  0.00    -0.258 OA
HETATM   19  C14 UNL     1      23.440  13.008  18.987  1.00  0.00     0.034 C 
BRANCH  16  20
HETATM   20  C10 UNL     1      27.387  11.035  20.605  1.00  0.00    -0.006 C 
HETATM   21  C11 UNL     1      27.941  10.083  21.120  1.00  0.00    -0.101 C 
HETATM   22  C12 UNL     1      28.596   8.932  21.766  1.00  0.00     0.112 C 
ENDBRANCH  16  20
ENDBRANCH   9  12
ENDBRANCH   5   8
ENDBRANCH   4   5
ENDBRANCH   3   4
TORSDOF 6
ENDMDL
MODEL 4
REMARK VINA RESULT: -6.572704817      3.957      6.083
REMARK  6 active torsions:
REMARK  status: ('A' for Active; 'I' for Inactive)
REMARK    1  A    between atoms: C3_3  and  N1_4 
REMARK    2  A    between atoms: N1_4  and  C4_5 
REMARK    3  A    between atoms: C4_5  and  O1_6 
REMARK    4  A    between atoms: C4_5  and  N2_8 
REMARK       I    between atoms: N2_8  and  C5_10 
REMARK    5  A    between atoms: C5_10  and  C6_12 
REMARK       I    between atoms: N3_15  and  C9_16 
REMARK    6  A    between atoms: C9_16  and  C10_18 
ROOT
HETATM    1  C1  UNL     1      20.950  12.164  21.282  1.00  0.00     0.019 C 
HETATM    2  C2  UNL     1      20.388  11.526  20.432  1.00  0.00    -0.058 C 
HETATM    3  C3  UNL     1      19.728  10.748  19.365  1.00  0.00     0.250 C 
ENDROOT
BRANCH   3   4
HETATM    4  N1  UNL     1      18.613  10.037  19.715  1.00  0.00    -0.369 NA
BRANCH   4   5
HETATM    5  C4  UNL     1      17.525   9.344  20.059  1.00  0.00     0.300 C 
BRANCH   5   6
HETATM    6  O1  UNL     1      17.134   8.305  19.289  1.00  0.00    -0.321 OA
ATOM      7  H1  UNL     1      16.308   7.874  19.475  1.00  0.00     0.222 HD
ENDBRANCH   5   6
BRANCH   5   8
HETATM    8  N2  UNL     1      16.660   9.521  21.159  1.00  0.00    -0.281 N 
HETATM    9  C5  UNL     1      15.454   8.911  21.444  1.00  0.00     0.229 C 
HETATM   10  O2  UNL     1      14.827   8.049  20.809  1.00  0.00    -0.273 OA
ATOM     11  H2  UNL     1      16.974  10.203  21.850  1.00  0.00     0.173 HD
BRANCH   9  12
HETATM   12  C6  UNL     1      14.786   9.374  22.743  1.00  0.00     0.081 C 
HETATM   13  C7  UNL     1      14.502  10.811  22.649  1.00  0.00     0.034 C 
HETATM   14  C8  UNL     1      14.391  11.510  23.990  1.00  0.00     0.127 C 
HETATM   15  N3  UNL     1      15.499  11.100  24.855  1.00  0.00    -0.341 N 
HETATM   16  C9  UNL     1      16.416  12.040  25.385  1.00  0.00     0.298 C 
HETATM   17  C13 UNL     1      15.560   9.690  25.119  1.00  0.00     0.127 C 
HETATM   18  O3  UNL     1      17.353  11.623  26.102  1.00  0.00    -0.258 OA
HETATM   19  C14 UNL     1      15.675   8.931  23.852  1.00  0.00     0.034 C 
BRANCH  16  20
HETATM   20  C10 UNL     1      16.241  13.430  25.088  1.00  0.00    -0.006 C 
HETATM   21  C11 UNL     1      16.095  14.615  24.856  1.00  0.00    -0.101 C 
HETATM   22  C12 UNL     1      15.929  16.057  24.601  1.00  0.00     0.112 C 
ENDBRANCH  16  20
ENDBRANCH   9  12
ENDBRANCH   5   8
ENDBRANCH   4   5
ENDBRANCH   3   4
TORSDOF 6
ENDMDL
MODEL 5
REMARK VINA RESULT: -6.507436869      1.517      8.039
REMARK  6 active torsions:
REMARK  status: ('A' for Active; 'I' for Inactive)
REMARK    1  A    between atoms: C3_3  and  N1_4 
REMARK    2  A    between atoms: N1_4  and  C4_5 
REMARK    3  A    between atoms: C4_5  and  O1_6 
REMARK    4  A    between atoms: C4_5  and  N2_8 
REMARK       I    between atoms: N2_8  and  C5_10 
REMARK    5  A    between atoms: C5_10  and  C6_12 
REMARK       I    between atoms: N3_15  and  C9_16 
REMARK    6  A    between atoms: C9_16  and  C10_18 
ROOT
HETATM    1  C1  UNL     1      15.510   9.186  25.052  1.00  0.00     0.019 C 
HETATM    2  C2  UNL     1      15.263   8.836  23.929  1.00  0.00    -0.058 C 
HETATM    3  C3  UNL     1      14.923   8.397  22.561  1.00  0.00     0.250 C 
ENDROOT
BRANCH   3   4
HETATM    4  N1  UNL     1      15.801   8.734  21.567  1.00  0.00    -0.369 NA
BRANCH   4   5
HETATM    5  C4  UNL     1      16.658   9.063  20.597  1.00  0.00     0.300 C 
BRANCH   5   6
HETATM    6  O1  UNL     1      16.638   8.373  19.436  1.00  0.00    -0.321 OA
ATOM      7  H1  UNL     1      16.763   8.838  18.617  1.00  0.00     0.222 HD
ENDBRANCH   5   6
BRANCH   5   8
HETATM    8  N2  UNL     1      17.641  10.074  20.576  1.00  0.00    -0.281 N 
HETATM    9  C5  UNL     1      18.813  10.155  19.848  1.00  0.00     0.229 C 
HETATM   10  O2  UNL     1      19.295   9.363  19.024  1.00  0.00    -0.273 OA
ATOM     11  H2  UNL     1      17.460  10.866  21.192  1.00  0.00     0.173 HD
BRANCH   9  12
HETATM   12  C6  UNL     1      19.646  11.416  20.101  1.00  0.00     0.081 C 
HETATM   13  C7  UNL     1      20.896  11.324  19.339  1.00  0.00     0.034 C 
HETATM   14  C8  UNL     1      22.029  12.159  19.903  1.00  0.00     0.127 C 
HETATM   15  N3  UNL     1      22.111  11.969  21.352  1.00  0.00    -0.341 N 
HETATM   16  C9  UNL     1      23.285  11.475  21.972  1.00  0.00     0.298 C 
HETATM   17  C13 UNL     1      20.922  12.332  22.071  1.00  0.00     0.127 C 
HETATM   18  O3  UNL     1      23.284  11.315  23.213  1.00  0.00    -0.258 OA
HETATM   19  C14 UNL     1      19.762  11.551  21.579  1.00  0.00     0.034 C 
BRANCH  16  20
HETATM   20  C10 UNL     1      24.429  11.178  21.163  1.00  0.00    -0.006 C 
HETATM   21  C11 UNL     1      25.396  10.943  20.466  1.00  0.00    -0.101 C 
HETATM   22  C12 UNL     1      26.569  10.684  19.610  1.00  0.00     0.112 C 
ENDBRANCH  16  20
ENDBRANCH   9  12
ENDBRANCH   5   8
ENDBRANCH   4   5
ENDBRANCH   3   4
TORSDOF 6
ENDMDL
