MODEL 1
REMARK VINA RESULT: -6.459076086      0.000      0.000
REMARK  3 active torsions:
REMARK  status: ('A' for Active; 'I' for Inactive)
REMARK    1  A    between atoms: C3_3  and  N1_4 
REMARK       I    between atoms: N1_4  and  C5_6 
REMARK       I    between atoms: C5_6  and  N2_8 
REMARK    2  A    between atoms: N2_8  and  C6_10 
REMARK    3  A    between atoms: C14_19  and  O2_20 
ROOT
HETATM    1  C1  UNL     1      22.459  12.191  19.880  1.00  0.00     0.014 C 
HETATM    2  C2  UNL     1      21.377  11.683  19.711  1.00  0.00    -0.098 C 
HETATM    3  C3  UNL     1      20.073  11.053  19.498  1.00  0.00     0.220 C 
ENDROOT
BRANCH   3   4
HETATM    4  N1  UNL     1      19.611  10.592  20.791  1.00  0.00    -0.328 N 
HETATM    5  C4  UNL     1      20.556   9.943  21.710  1.00  0.00     0.155 C 
HETATM    6  C5  UNL     1      18.266  10.758  21.173  1.00  0.00     0.319 C 
HETATM    7  O1  UNL     1      17.467  11.309  20.388  1.00  0.00    -0.247 OA
HETATM    8  N2  UNL     1      17.812  10.310  22.430  1.00  0.00    -0.336 N 
ATOM      9  H2  UNL     1      18.483   9.863  23.054  1.00  0.00     0.164 HD
BRANCH   8  10
HETATM   10  C6  UNL     1      16.442  10.452  22.882  1.00  0.00     0.117 C 
HETATM   11  C7  UNL     1      15.758   9.114  23.009  1.00  0.00     0.034 C 
HETATM   12  C8  UNL     1      14.913   9.336  24.272  1.00  0.00     0.020 C 
HETATM   13  C9  UNL     1      15.992   9.995  25.145  1.00  0.00     0.043 C 
HETATM   14  C14 UNL     1      13.872  10.347  23.924  1.00  0.00     0.148 C 
HETATM   15  C10 UNL     1      16.430  11.110  24.216  1.00  0.00     0.212 C 
HETATM   16  N3  UNL     1      15.468  12.174  24.342  1.00  0.00    -0.066 N 
HETATM   17  C11 UNL     1      15.598  13.168  23.289  1.00  0.00     0.272 C 
HETATM   18  C12 UNL     1      15.820  12.908  25.568  1.00  0.00     0.272 C 
HETATM   19  C13 UNL     1      14.127  11.713  24.500  1.00  0.00     0.269 C 
BRANCH  14  20
HETATM   20  O2  UNL     1      12.633   9.916  24.412  1.00  0.00    -0.394 OA
ATOM     21  H2  UNL     1      12.232   9.338  23.775  1.00  0.00     0.210 HD
ENDBRANCH  14  20
ENDBRANCH   8  10
ENDBRANCH   3   4
TORSDOF 3
ENDMDL
MODEL 2
REMARK VINA RESULT: -6.259126902      2.211      6.667
REMARK  3 active torsions:
REMARK  status: ('A' for Active; 'I' for Inactive)
REMARK    1  A    between atoms: C3_3  and  N1_4 
REMARK       I    between atoms: N1_4  and  C5_6 
REMARK       I    between atoms: C5_6  and  N2_8 
REMARK    2  A    between atoms: N2_8  and  C6_10 
REMARK    3  A    between atoms: C14_19  and  O2_20 
ROOT
HETATM    1  C1  UNL     1      13.909   9.958  24.955  1.00  0.00     0.014 C 
HETATM    2  C2  UNL     1      14.187  10.265  23.821  1.00  0.00    -0.098 C 
HETATM    3  C3  UNL     1      14.510  10.651  22.447  1.00  0.00     0.220 C 
ENDROOT
BRANCH   3   4
HETATM    4  N1  UNL     1      15.730  11.431  22.502  1.00  0.00    -0.328 N 
HETATM    5  C4  UNL     1      15.679  12.824  22.963  1.00  0.00     0.155 C 
HETATM    6  C5  UNL     1      16.961  10.865  22.117  1.00  0.00     0.319 C 
HETATM    7  O1  UNL     1      16.998   9.681  21.726  1.00  0.00    -0.247 OA
HETATM    8  N2  UNL     1      18.150  11.620  22.169  1.00  0.00    -0.336 N 
ATOM      9  H2  UNL     1      18.095  12.586  22.493  1.00  0.00     0.164 HD
BRANCH   8  10
HETATM   10  C6  UNL     1      19.446  11.097  21.789  1.00  0.00     0.117 C 
HETATM   11  C7  UNL     1      19.736  11.340  20.328  1.00  0.00     0.034 C 
HETATM   12  C8  UNL     1      21.237  11.661  20.378  1.00  0.00     0.020 C 
HETATM   13  C9  UNL     1      21.216  12.632  21.569  1.00  0.00     0.043 C 
HETATM   14  C14 UNL     1      21.936  10.404  20.776  1.00  0.00     0.148 C 
HETATM   15  C10 UNL     1      20.503  11.769  22.592  1.00  0.00     0.212 C 
HETATM   16  N3  UNL     1      21.482  10.872  23.150  1.00  0.00    -0.066 N 
HETATM   17  C11 UNL     1      20.875   9.794  23.913  1.00  0.00     0.272 C 
HETATM   18  C12 UNL     1      22.225  11.645  24.157  1.00  0.00     0.272 C 
HETATM   19  C13 UNL     1      22.433  10.402  22.196  1.00  0.00     0.269 C 
BRANCH  14  20
HETATM   20  O2  UNL     1      23.047  10.214  19.948  1.00  0.00    -0.394 OA
ATOM     21  H2  UNL     1      23.247  11.029  19.503  1.00  0.00     0.210 HD
ENDBRANCH  14  20
ENDBRANCH   8  10
ENDBRANCH   3   4
TORSDOF 3
ENDMDL
MODEL 3
REMARK VINA RESULT: -6.225578009      3.370      8.445
REMARK  3 active torsions:
REMARK  status: ('A' for Active; 'I' for Inactive)
REMARK    1  A    between atoms: C3_3  and  N1_4 
REMARK       I    between atoms: N1_4  and  C5_6 
REMARK       I    between atoms: C5_6  and  N2_8 
REMARK    2  A    between atoms: N2_8  and  C6_10 
REMARK    3  A    between atoms: C14_19  and  O2_20 
ROOT
HETATM    1  C1  UNL     1      16.350  12.138  22.062  1.00  0.00     0.014 C 
HETATM    2  C2  UNL     1      17.260  11.346  22.119  1.00  0.00    -0.098 C 
HETATM    3  C3  UNL     1      18.351  10.373  22.182  1.00  0.00     0.220 C 
ENDROOT
BRANCH   3   4
HETATM    4  N1  UNL     1      19.176  10.586  21.010  1.00  0.00    -0.328 N 
HETATM    5  C4  UNL     1      18.543  10.700  19.690  1.00  0.00     0.155 C 
HETATM    6  C5  UNL     1      20.576  10.683  21.127  1.00  0.00     0.319 C 
HETATM    7  O1  UNL     1      21.107  10.585  22.252  1.00  0.00    -0.247 OA
HETATM    8  N2  UNL     1      21.382  10.890  19.989  1.00  0.00    -0.336 N 
ATOM      9  H2  UNL     1      20.925  10.967  19.081  1.00  0.00     0.164 HD
BRANCH   8  10
HETATM   10  C6  UNL     1      22.826  10.999  20.042  1.00  0.00     0.117 C 
HETATM   11  C7  UNL     1      23.488  10.099  19.029  1.00  0.00     0.034 C 
HETATM   12  C8  UNL     1      24.657  10.985  18.572  1.00  0.00     0.020 C 
HETATM   13  C9  UNL     1      23.879  12.297  18.387  1.00  0.00     0.043 C 
HETATM   14  C14 UNL     1      25.582  11.116  19.735  1.00  0.00     0.148 C 
HETATM   15  C10 UNL     1      23.224  12.402  19.750  1.00  0.00     0.212 C 
HETATM   16  N3  UNL     1      24.207  12.938  20.656  1.00  0.00    -0.066 N 
HETATM   17  C11 UNL     1      23.811  12.804  22.049  1.00  0.00     0.272 C 
HETATM   18  C12 UNL     1      24.227  14.393  20.432  1.00  0.00     0.272 C 
HETATM   19  C13 UNL     1      25.528  12.458  20.413  1.00  0.00     0.269 C 
BRANCH  14  20
HETATM   20  O2  UNL     1      26.897  10.924  19.299  1.00  0.00    -0.394 OA
ATOM     21  H2  UNL     1      27.485  11.426  19.851  1.00  0.00     0.210 HD
ENDBRANCH  14  20
ENDBRANCH   8  10
ENDBRANCH   3   4
TORSDOF 3
ENDMDL
MODEL 4
REMARK VINA RESULT: -6.056206310      1.619      2.391
REMARK  3 active torsions:
REMARK  status: ('A' for Active; 'I' for Inactive)
REMARK    1  A    between atoms: C3_3  and  N1_4 
REMARK       I    between atoms: N1_4  and  C5_6 
REMARK       I    between atoms: C5_6  and  N2_8 
REMARK    2  A    between atoms: N2_8  and  C6_10 
REMARK    3  A    between atoms: C14_19  and  O2_20 
ROOT
HETATM    1  C1  UNL     1      22.681  12.180  19.096  1.00  0.00     0.014 C 
HETATM    2  C2  UNL     1      22.218  11.457  19.946  1.00  0.00    -0.098 C 
HETATM    3  C3  UNL     1      21.659  10.594  20.987  1.00  0.00     0.220 C 
ENDROOT
BRANCH   3   4
HETATM    4  N1  UNL     1      20.227  10.551  20.778  1.00  0.00    -0.328 N 
HETATM    5  C4  UNL     1      19.691   9.938  19.556  1.00  0.00     0.155 C 
HETATM    6  C5  UNL     1      19.346  11.093  21.734  1.00  0.00     0.319 C 
HETATM    7  O1  UNL     1      19.807  11.614  22.770  1.00  0.00    -0.247 OA
HETATM    8  N2  UNL     1      17.951  11.054  21.534  1.00  0.00    -0.336 N 
ATOM      9  H2  UNL     1      17.598  10.624  20.679  1.00  0.00     0.164 HD
BRANCH   8  10
HETATM   10  C6  UNL     1      16.993  11.592  22.478  1.00  0.00     0.117 C 
HETATM   11  C7  UNL     1      15.946  12.432  21.789  1.00  0.00     0.034 C 
HETATM   12  C8  UNL     1      14.694  12.058  22.595  1.00  0.00     0.020 C 
HETATM   13  C9  UNL     1      14.897  10.535  22.622  1.00  0.00     0.043 C 
HETATM   14  C14 UNL     1      14.883  12.607  23.970  1.00  0.00     0.148 C 
HETATM   15  C10 UNL     1      16.307  10.472  23.176  1.00  0.00     0.212 C 
HETATM   16  N3  UNL     1      16.212  10.634  24.604  1.00  0.00    -0.066 N 
HETATM   17  C11 UNL     1      17.503  10.898  25.219  1.00  0.00     0.272 C 
HETATM   18  C12 UNL     1      15.824   9.321  25.144  1.00  0.00     0.272 C 
HETATM   19  C13 UNL     1      15.211  11.567  25.006  1.00  0.00     0.269 C 
BRANCH  14  20
HETATM   20  O2  UNL     1      13.705  13.241  24.377  1.00  0.00    -0.394 OA
ATOM     21  H2  UNL     1      13.534  13.979  23.804  1.00  0.00     0.210 HD
ENDBRANCH  14  20
ENDBRANCH   8  10
ENDBRANCH   3   4
TORSDOF 3
ENDMDL
MODEL 5
REMARK VINA RESULT: -6.042772714      8.127     10.642
REMARK  3 active torsions:
REMARK  status: ('A' for Active; 'I' for Inactive)
REMARK    1  A    between atoms: C3_3  and  N1_4 
REMARK       I    between atoms: N1_4  and  C5_6 
REMARK       I    between atoms: C5_6  and  N2_8 
REMARK    2  A    between atoms: N2_8  and  C6_10 
REMARK    3  A    between atoms: C14_19  and  O2_20 
ROOT
HETATM    1  C1  UNL     1      26.441  19.311  17.756  1.00  0.00     0.014 C 
HETATM    2  C2  UNL     1      27.189  18.373  17.615  1.00  0.00    -0.098 C 
HETATM    3  C3  UNL     1      28.096  17.235  17.464  1.00  0.00     0.220 C 
ENDROOT
BRANCH   3   4
HETATM    4  N1  UNL     1      27.286  16.095  17.089  1.00  0.00    -0.328 N 
HETATM    5  C4  UNL     1      27.105  15.770  15.668  1.00  0.00     0.155 C 
HETATM    6  C5  UNL     1      26.670  15.298  18.073  1.00  0.00     0.319 C 
HETATM    7  O1  UNL     1      26.827  15.579  19.279  1.00  0.00    -0.247 OA
HETATM    8  N2  UNL     1      25.880  14.187  17.712  1.00  0.00    -0.336 N 
ATOM      9  H2  UNL     1      25.767  13.977  16.720  1.00  0.00     0.164 HD
BRANCH   8  10
HETATM   10  C6  UNL     1      25.222  13.328  18.675  1.00  0.00     0.117 C 
HETATM   11  C7  UNL     1      23.778  13.089  18.310  1.00  0.00     0.034 C 
HETATM   12  C8  UNL     1      23.615  11.615  18.712  1.00  0.00     0.020 C 
HETATM   13  C9  UNL     1      24.909  11.072  18.085  1.00  0.00     0.043 C 
HETATM   14  C14 UNL     1      23.722  11.557  20.199  1.00  0.00     0.148 C 
HETATM   15  C10 UNL     1      25.916  12.013  18.717  1.00  0.00     0.212 C 
HETATM   16  N3  UNL     1      26.179  11.526  20.047  1.00  0.00    -0.066 N 
HETATM   17  C11 UNL     1      26.887  12.498  20.865  1.00  0.00     0.272 C 
HETATM   18  C12 UNL     1      27.140  10.420  19.900  1.00  0.00     0.272 C 
HETATM   19  C13 UNL     1      25.026  10.996  20.698  1.00  0.00     0.269 C 
BRANCH  14  20
HETATM   20  O2  UNL     1      22.701  10.744  20.701  1.00  0.00    -0.394 OA
ATOM     21  H2  UNL     1      22.788  10.682  21.645  1.00  0.00     0.210 HD
ENDBRANCH  14  20
ENDBRANCH   8  10
ENDBRANCH   3   4
TORSDOF 3
ENDMDL
