MODEL 1
REMARK VINA RESULT: -7.046393895      0.000      0.000
REMARK  2 active torsions:
REMARK  status: ('A' for Active; 'I' for Inactive)
REMARK       I    between atoms: C1_2  and  N2_4 
REMARK    1  A    between atoms: N2_4  and  C2_5 
REMARK       I    between atoms: N3_8  and  C5_9 
REMARK    2  A    between atoms: C5_9  and  C6_11 
REMARK       I    between atoms: C6_11  and  N4_13 
ROOT
HETATM    1  C2  UNL     1      19.701   9.731  20.335  1.00  0.00     0.171 C 
HETATM    2  C3  UNL     1      19.231  10.232  21.701  1.00  0.00     0.059 C 
HETATM    3  C4  UNL     1      19.848  11.554  22.044  1.00  0.00     0.129 C 
HETATM    4  N3  UNL     1      20.929  11.927  21.185  1.00  0.00    -0.344 N 
HETATM    5  C5  UNL     1      22.113  12.474  21.775  1.00  0.00     0.311 C 
HETATM    6  O2  UNL     1      22.122  12.573  23.053  1.00  0.00    -0.262 OA
HETATM    7  C11 UNL     1      20.907  11.770  19.747  1.00  0.00     0.129 C 
HETATM    8  C12 UNL     1      19.628  10.976  19.431  1.00  0.00     0.059 C 
ENDROOT
BRANCH   5   9
HETATM    9  C6  UNL     1      23.248  12.902  21.042  1.00  0.00     0.311 C 
HETATM   10  O3  UNL     1      23.488  14.146  20.885  1.00  0.00    -0.262 OA
HETATM   11  N4  UNL     1      24.180  12.029  20.441  1.00  0.00    -0.344 N 
HETATM   12  C7  UNL     1      24.142  10.592  20.408  1.00  0.00     0.126 C 
HETATM   13  C10 UNL     1      25.418  12.482  19.741  1.00  0.00     0.126 C 
HETATM   14  C8  UNL     1      24.914  10.269  19.118  1.00  0.00     0.021 C 
HETATM   15  C9  UNL     1      26.045  11.259  19.184  1.00  0.00     0.021 C 
ENDBRANCH   5   9
BRANCH   1  16
HETATM   16  N2  UNL     1      18.838   8.754  19.897  1.00  0.00    -0.394 NA
HETATM   17  C1  UNL     1      17.983   7.785  19.463  1.00  0.00     0.401 C 
HETATM   18  N1  UNL     1      16.565   8.138  19.293  1.00  0.00    -0.025 NA
HETATM   19  O1  UNL     1      18.204   6.595  19.172  1.00  0.00    -0.234 OA
ENDBRANCH   1  16
TORSDOF 2
ENDMDL
MODEL 2
REMARK VINA RESULT: -6.596043809      1.666      2.330
REMARK  2 active torsions:
REMARK  status: ('A' for Active; 'I' for Inactive)
REMARK       I    between atoms: C1_2  and  N2_4 
REMARK    1  A    between atoms: N2_4  and  C2_5 
REMARK       I    between atoms: N3_8  and  C5_9 
REMARK    2  A    between atoms: C5_9  and  C6_11 
REMARK       I    between atoms: C6_11  and  N4_13 
ROOT
HETATM    1  C2  UNL     1      19.706   9.949  20.494  1.00  0.00     0.171 C 
HETATM    2  C3  UNL     1      19.139  10.680  21.712  1.00  0.00     0.059 C 
HETATM    3  C4  UNL     1      19.934  11.910  22.034  1.00  0.00     0.129 C 
HETATM    4  N3  UNL     1      21.180  11.991  21.337  1.00  0.00    -0.344 N 
HETATM    5  C5  UNL     1      22.344  12.396  22.065  1.00  0.00     0.311 C 
HETATM    6  O2  UNL     1      22.182  12.642  23.313  1.00  0.00    -0.262 OA
HETATM    7  C11 UNL     1      21.342  11.671  19.936  1.00  0.00     0.129 C 
HETATM    8  C12 UNL     1      20.000  11.073  19.483  1.00  0.00     0.059 C 
ENDROOT
BRANCH   5   9
HETATM    9  C6  UNL     1      23.635  12.536  21.497  1.00  0.00     0.311 C 
HETATM   10  O3  UNL     1      24.370  11.513  21.295  1.00  0.00    -0.262 OA
HETATM   11  N4  UNL     1      24.206  13.771  21.118  1.00  0.00    -0.344 N 
HETATM   12  C7  UNL     1      23.640  15.083  21.272  1.00  0.00     0.126 C 
HETATM   13  C10 UNL     1      25.532  13.906  20.445  1.00  0.00     0.126 C 
HETATM   14  C8  UNL     1      24.890  15.975  21.367  1.00  0.00     0.021 C 
HETATM   15  C9  UNL     1      25.781  15.362  20.321  1.00  0.00     0.021 C 
ENDBRANCH   5   9
BRANCH   1  16
HETATM   16  N2  UNL     1      18.752   9.087  20.008  1.00  0.00    -0.394 NA
HETATM   17  C1  UNL     1      17.805   8.233  19.524  1.00  0.00     0.401 C 
HETATM   18  N1  UNL     1      18.211   6.854  19.213  1.00  0.00    -0.025 NA
HETATM   19  O1  UNL     1      16.598   8.428  19.288  1.00  0.00    -0.234 OA
ENDBRANCH   1  16
TORSDOF 2
ENDMDL
MODEL 3
REMARK VINA RESULT: -6.583643179      1.660      2.109
REMARK  2 active torsions:
REMARK  status: ('A' for Active; 'I' for Inactive)
REMARK       I    between atoms: C1_2  and  N2_4 
REMARK    1  A    between atoms: N2_4  and  C2_5 
REMARK       I    between atoms: N3_8  and  C5_9 
REMARK    2  A    between atoms: C5_9  and  C6_11 
REMARK       I    between atoms: C6_11  and  N4_13 
ROOT
HETATM    1  C2  UNL     1      19.760  10.201  20.597  1.00  0.00     0.171 C 
HETATM    2  C3  UNL     1      19.508  11.137  21.780  1.00  0.00     0.059 C 
HETATM    3  C4  UNL     1      20.540  12.222  21.852  1.00  0.00     0.129 C 
HETATM    4  N3  UNL     1      21.668  12.004  21.000  1.00  0.00    -0.344 N 
HETATM    5  C5  UNL     1      22.977  12.252  21.524  1.00  0.00     0.311 C 
HETATM    6  O2  UNL     1      23.041  12.640  22.744  1.00  0.00    -0.262 OA
HETATM    7  C11 UNL     1      21.570  11.528  19.638  1.00  0.00     0.129 C 
HETATM    8  C12 UNL     1      20.093  11.150  19.430  1.00  0.00     0.059 C 
ENDROOT
BRANCH   5   9
HETATM    9  C6  UNL     1      24.177  12.095  20.787  1.00  0.00     0.311 C 
HETATM   10  O3  UNL     1      24.830  10.999  20.835  1.00  0.00    -0.262 OA
HETATM   11  N4  UNL     1      24.741  13.095  19.966  1.00  0.00    -0.344 N 
HETATM   12  C7  UNL     1      24.262  14.435  19.760  1.00  0.00     0.126 C 
HETATM   13  C10 UNL     1      25.961  12.898  19.128  1.00  0.00     0.126 C 
HETATM   14  C8  UNL     1      25.550  15.199  19.411  1.00  0.00     0.021 C 
HETATM   15  C9  UNL     1      26.253  14.216  18.515  1.00  0.00     0.021 C 
ENDBRANCH   5   9
BRANCH   1  16
HETATM   16  N2  UNL     1      18.612   9.490  20.338  1.00  0.00    -0.394 NA
HETATM   17  C1  UNL     1      17.472   8.786  20.082  1.00  0.00     0.401 C 
HETATM   18  N1  UNL     1      17.509   7.777  19.012  1.00  0.00    -0.025 NA
HETATM   19  O1  UNL     1      16.353   8.852  20.622  1.00  0.00    -0.234 OA
ENDBRANCH   1  16
TORSDOF 2
ENDMDL
MODEL 4
REMARK VINA RESULT: -6.509659569      2.972      6.764
REMARK  2 active torsions:
REMARK  status: ('A' for Active; 'I' for Inactive)
REMARK       I    between atoms: C1_2  and  N2_4 
REMARK    1  A    between atoms: N2_4  and  C2_5 
REMARK       I    between atoms: N3_8  and  C5_9 
REMARK    2  A    between atoms: C5_9  and  C6_11 
REMARK       I    between atoms: C6_11  and  N4_13 
ROOT
HETATM    1  C2  UNL     1      21.665  11.897  20.397  1.00  0.00     0.171 C 
HETATM    2  C3  UNL     1      22.213  10.839  21.356  1.00  0.00     0.059 C 
HETATM    3  C4  UNL     1      21.113  10.189  22.142  1.00  0.00     0.129 C 
HETATM    4  N3  UNL     1      19.856  10.862  22.042  1.00  0.00    -0.344 N 
HETATM    5  C5  UNL     1      19.087  11.052  23.235  1.00  0.00     0.311 C 
HETATM    6  O2  UNL     1      19.602  10.613  24.324  1.00  0.00    -0.262 OA
HETATM    7  C11 UNL     1      19.316  11.382  20.805  1.00  0.00     0.129 C 
HETATM    8  C12 UNL     1      20.433  11.227  19.760  1.00  0.00     0.059 C 
ENDROOT
BRANCH   5   9
HETATM    9  C6  UNL     1      17.820  11.685  23.278  1.00  0.00     0.311 C 
HETATM   10  O3  UNL     1      17.702  12.873  23.727  1.00  0.00    -0.262 OA
HETATM   11  N4  UNL     1      16.618  11.084  22.845  1.00  0.00    -0.344 N 
HETATM   12  C7  UNL     1      16.435   9.749  22.344  1.00  0.00     0.126 C 
HETATM   13  C10 UNL     1      15.298  11.782  22.816  1.00  0.00     0.126 C 
HETATM   14  C8  UNL     1      14.972   9.453  22.713  1.00  0.00     0.021 C 
HETATM   15  C9  UNL     1      14.306  10.764  22.394  1.00  0.00     0.021 C 
ENDBRANCH   5   9
BRANCH   1  16
HETATM   16  N2  UNL     1      22.620  12.173  19.446  1.00  0.00    -0.394 NA
HETATM   17  C1  UNL     1      23.568  12.448  18.505  1.00  0.00     0.401 C 
HETATM   18  N1  UNL     1      24.450  11.354  18.071  1.00  0.00    -0.025 NA
HETATM   19  O1  UNL     1      23.828  13.516  17.920  1.00  0.00    -0.234 OA
ENDBRANCH   1  16
TORSDOF 2
ENDMDL
MODEL 5
REMARK VINA RESULT: -6.509105827      1.654      1.973
REMARK  2 active torsions:
REMARK  status: ('A' for Active; 'I' for Inactive)
REMARK       I    between atoms: C1_2  and  N2_4 
REMARK    1  A    between atoms: N2_4  and  C2_5 
REMARK       I    between atoms: N3_8  and  C5_9 
REMARK    2  A    between atoms: C5_9  and  C6_11 
REMARK       I    between atoms: C6_11  and  N4_13 
ROOT
HETATM    1  C2  UNL     1      18.656   9.733  20.827  1.00  0.00     0.171 C 
HETATM    2  C3  UNL     1      18.533  10.940  21.759  1.00  0.00     0.059 C 
HETATM    3  C4  UNL     1      19.751  11.812  21.692  1.00  0.00     0.129 C 
HETATM    4  N3  UNL     1      20.855  11.210  21.011  1.00  0.00    -0.344 N 
HETATM    5  C5  UNL     1      22.160  11.332  21.586  1.00  0.00     0.311 C 
HETATM    6  O2  UNL     1      22.239  11.967  22.697  1.00  0.00    -0.262 OA
HETATM    7  C11 UNL     1      20.732  10.467  19.777  1.00  0.00     0.129 C 
HETATM    8  C12 UNL     1      19.222  10.321  19.522  1.00  0.00     0.059 C 
ENDROOT
BRANCH   5   9
HETATM    9  C6  UNL     1      23.341  10.802  21.010  1.00  0.00     0.311 C 
HETATM   10  O3  UNL     1      23.841   9.710  21.441  1.00  0.00    -0.262 OA
HETATM   11  N4  UNL     1      24.048  11.409  19.949  1.00  0.00    -0.344 N 
HETATM   12  C7  UNL     1      23.756  12.658  19.301  1.00  0.00     0.126 C 
HETATM   13  C10 UNL     1      25.245  10.807  19.291  1.00  0.00     0.126 C 
HETATM   14  C8  UNL     1      25.140  13.108  18.805  1.00  0.00     0.021 C 
HETATM   15  C9  UNL     1      25.722  11.811  18.310  1.00  0.00     0.021 C 
ENDBRANCH   5   9
BRANCH   1  16
HETATM   16  N2  UNL     1      17.405   9.199  20.623  1.00  0.00    -0.394 NA
HETATM   17  C1  UNL     1      16.166   8.667  20.420  1.00  0.00     0.401 C 
HETATM   18  N1  UNL     1      15.172   8.798  21.497  1.00  0.00    -0.025 NA
HETATM   19  O1  UNL     1      15.707   8.061  19.435  1.00  0.00    -0.234 OA
ENDBRANCH   1  16
TORSDOF 2
ENDMDL
