MODEL 1
REMARK VINA RESULT: -6.252092051      0.000      0.000
REMARK  4 active torsions:
REMARK  status: ('A' for Active; 'I' for Inactive)
REMARK    1  A    between atoms: C1_2  and  C2_3 
REMARK       I    between atoms: C1_2  and  N4_16 
REMARK    2  A    between atoms: C2_3  and  N1_4 
REMARK    3  A    between atoms: N1_4  and  C3_6 
REMARK    4  A    between atoms: C3_6  and  N2_8 
ROOT
HETATM    1  N1  UNL     1      17.385  10.083  21.338  1.00  0.00    -0.358 N 
ATOM      2  H1  UNL     1      17.874  10.246  22.218  1.00  0.00     0.162 HD
ENDROOT
BRANCH   1   3
HETATM    3  C2  UNL     1      17.847  10.761  20.165  1.00  0.00     0.225 C 
BRANCH   3   4
HETATM    4  C1  UNL     1      19.234  10.360  19.825  1.00  0.00     0.237 C 
HETATM    5  O1  UNL     1      19.353   9.463  18.921  1.00  0.00    -0.272 OA
HETATM    6  N4  UNL     1      20.370  10.923  20.449  1.00  0.00    -0.346 N 
HETATM    7  C8  UNL     1      20.396  11.944  21.485  1.00  0.00     0.127 C 
HETATM    8  C12 UNL     1      21.728  10.639  20.226  1.00  0.00     0.091 A 
HETATM    9  C9  UNL     1      21.814  12.556  21.363  1.00  0.00     0.026 C 
HETATM   10  C10 UNL     1      22.095  12.159  19.956  1.00  0.00     0.012 A 
HETATM   11  C11 UNL     1      22.721  11.072  19.336  1.00  0.00     0.032 A 
ENDBRANCH   3   4
ENDBRANCH   1   3
BRANCH   1  12
HETATM   12  C3  UNL     1      16.286   9.199  21.331  1.00  0.00     0.170 C 
HETATM   13  S1  UNL     1      16.154   8.163  20.063  1.00  0.00    -0.041 SA
BRANCH  12  14
HETATM   14  N2  UNL     1      15.309   9.162  22.345  1.00  0.00    -0.355 N 
HETATM   15  C4  UNL     1      14.263  10.185  22.408  1.00  0.00     0.152 C 
HETATM   16  C5  UNL     1      14.113  10.700  23.827  1.00  0.00     0.252 C 
HETATM   17  N3  UNL     1      14.082   9.661  24.808  1.00  0.00    -0.072 N 
HETATM   18  C6  UNL     1      15.337   8.900  24.705  1.00  0.00     0.252 C 
ATOM     19  H32 UNL     1      13.909  10.013  25.750  1.00  0.00     0.277 HD
ATOM     20  H31 UNL     1      13.255   9.069  24.730  1.00  0.00     0.277 HD
HETATM   21  C7  UNL     1      15.243   8.155  23.378  1.00  0.00     0.152 C 
ENDBRANCH  12  14
ENDBRANCH   1  12
TORSDOF 4
ENDMDL
MODEL 2
REMARK VINA RESULT: -6.230324686      5.148      8.484
REMARK  4 active torsions:
REMARK  status: ('A' for Active; 'I' for Inactive)
REMARK    1  A    between atoms: C1_2  and  C2_3 
REMARK       I    between atoms: C1_2  and  N4_16 
REMARK    2  A    between atoms: C2_3  and  N1_4 
REMARK    3  A    between atoms: N1_4  and  C3_6 
REMARK    4  A    between atoms: C3_6  and  N2_8 
ROOT
HETATM    1  N1  UNL     1      25.127  10.676  21.320  1.00  0.00    -0.358 N 
ATOM      2  H1  UNL     1      25.224  11.191  22.195  1.00  0.00     0.162 HD
ENDROOT
BRANCH   1   3
HETATM    3  C2  UNL     1      24.127   9.656  21.235  1.00  0.00     0.225 C 
BRANCH   3   4
HETATM    4  C1  UNL     1      22.904  10.040  21.984  1.00  0.00     0.237 C 
HETATM    5  O1  UNL     1      23.028  10.125  23.253  1.00  0.00    -0.272 OA
HETATM    6  N4  UNL     1      21.668  10.302  21.351  1.00  0.00    -0.346 N 
HETATM    7  C8  UNL     1      21.373  10.248  19.928  1.00  0.00     0.127 C 
HETATM    8  C12 UNL     1      20.443  10.671  21.932  1.00  0.00     0.091 A 
HETATM    9  C9  UNL     1      20.120  11.147  19.778  1.00  0.00     0.026 C 
HETATM   10  C10 UNL     1      20.292  11.958  21.015  1.00  0.00     0.012 A 
HETATM   11  C11 UNL     1      19.832  11.867  22.333  1.00  0.00     0.032 A 
ENDBRANCH   3   4
ENDBRANCH   1   3
BRANCH   1  12
HETATM   12  C3  UNL     1      25.984  11.002  20.249  1.00  0.00     0.170 C 
HETATM   13  S1  UNL     1      27.482  10.326  20.244  1.00  0.00    -0.041 SA
BRANCH  12  14
HETATM   14  N2  UNL     1      25.624  11.866  19.195  1.00  0.00    -0.355 N 
HETATM   15  C4  UNL     1      26.245  13.187  19.073  1.00  0.00     0.152 C 
HETATM   16  C5  UNL     1      25.189  14.245  18.815  1.00  0.00     0.252 C 
HETATM   17  N3  UNL     1      24.237  13.866  17.818  1.00  0.00    -0.072 N 
HETATM   18  C6  UNL     1      23.577  12.629  18.265  1.00  0.00     0.252 C 
ATOM     19  H32 UNL     1      23.575  14.611  17.601  1.00  0.00     0.277 HD
ATOM     20  H31 UNL     1      24.652  13.778  16.890  1.00  0.00     0.277 HD
HETATM   21  C7  UNL     1      24.651  11.550  18.177  1.00  0.00     0.152 C 
ENDBRANCH  12  14
ENDBRANCH   1  12
TORSDOF 4
ENDMDL
MODEL 3
REMARK VINA RESULT: -6.074961091      5.246      9.495
REMARK  4 active torsions:
REMARK  status: ('A' for Active; 'I' for Inactive)
REMARK    1  A    between atoms: C1_2  and  C2_3 
REMARK       I    between atoms: C1_2  and  N4_16 
REMARK    2  A    between atoms: C2_3  and  N1_4 
REMARK    3  A    between atoms: N1_4  and  C3_6 
REMARK    4  A    between atoms: C3_6  and  N2_8 
ROOT
HETATM    1  N1  UNL     1      25.131  10.464  21.111  1.00  0.00    -0.358 N 
ATOM      2  H1  UNL     1      25.287  10.450  22.119  1.00  0.00     0.162 HD
ENDROOT
BRANCH   1   3
HETATM    3  C2  UNL     1      23.882   9.982  20.606  1.00  0.00     0.225 C 
BRANCH   3   4
HETATM    4  C1  UNL     1      22.804  10.126  21.615  1.00  0.00     0.237 C 
HETATM    5  O1  UNL     1      23.170  10.067  22.839  1.00  0.00    -0.272 OA
HETATM    6  N4  UNL     1      21.448  10.320  21.267  1.00  0.00    -0.346 N 
HETATM    7  C8  UNL     1      20.882  10.409  19.930  1.00  0.00     0.127 C 
HETATM    8  C12 UNL     1      20.336  10.471  22.112  1.00  0.00     0.091 A 
HETATM    9  C9  UNL     1      19.549  11.170  20.145  1.00  0.00     0.026 C 
HETATM   10  C10 UNL     1      19.891  11.835  21.433  1.00  0.00     0.012 A 
HETATM   11  C11 UNL     1      19.712  11.530  22.786  1.00  0.00     0.032 A 
ENDBRANCH   3   4
ENDBRANCH   1   3
BRANCH   1  12
HETATM   12  C3  UNL     1      26.157  10.957  20.278  1.00  0.00     0.170 C 
HETATM   13  S1  UNL     1      25.728  11.496  18.786  1.00  0.00    -0.041 SA
BRANCH  12  14
HETATM   14  N2  UNL     1      27.513  11.009  20.657  1.00  0.00    -0.355 N 
HETATM   15  C4  UNL     1      28.291   9.777  20.807  1.00  0.00     0.152 C 
HETATM   16  C5  UNL     1      29.083   9.807  22.100  1.00  0.00     0.252 C 
HETATM   17  N3  UNL     1      29.758  11.048  22.324  1.00  0.00    -0.072 N 
HETATM   18  C6  UNL     1      28.747  12.117  22.357  1.00  0.00     0.252 C 
ATOM     19  H32 UNL     1      30.345  11.033  23.159  1.00  0.00     0.277 HD
ATOM     20  H31 UNL     1      30.496  11.224  21.642  1.00  0.00     0.277 HD
HETATM   21  C7  UNL     1      28.239  12.228  20.923  1.00  0.00     0.152 C 
ENDBRANCH  12  14
ENDBRANCH   1  12
TORSDOF 4
ENDMDL
MODEL 4
REMARK VINA RESULT: -6.047356012      1.143      1.583
REMARK  4 active torsions:
REMARK  status: ('A' for Active; 'I' for Inactive)
REMARK    1  A    between atoms: C1_2  and  C2_3 
REMARK       I    between atoms: C1_2  and  N4_16 
REMARK    2  A    between atoms: C2_3  and  N1_4 
REMARK    3  A    between atoms: N1_4  and  C3_6 
REMARK    4  A    between atoms: C3_6  and  N2_8 
ROOT
HETATM    1  N1  UNL     1      17.089   9.329  20.665  1.00  0.00    -0.358 N 
ATOM      2  H1  UNL     1      17.333   8.450  20.210  1.00  0.00     0.162 HD
ENDROOT
BRANCH   1   3
HETATM    3  C2  UNL     1      17.753  10.524  20.244  1.00  0.00     0.225 C 
BRANCH   3   4
HETATM    4  C1  UNL     1      19.163  10.250  19.869  1.00  0.00     0.237 C 
HETATM    5  O1  UNL     1      19.337   9.437  18.898  1.00  0.00    -0.272 OA
HETATM    6  N4  UNL     1      20.262  10.842  20.532  1.00  0.00    -0.346 N 
HETATM    7  C8  UNL     1      20.224  11.778  21.645  1.00  0.00     0.127 C 
HETATM    8  C12 UNL     1      21.634  10.673  20.284  1.00  0.00     0.091 A 
HETATM    9  C9  UNL     1      21.595  12.497  21.566  1.00  0.00     0.026 C 
HETATM   10  C10 UNL     1      21.891  12.232  20.131  1.00  0.00     0.012 A 
HETATM   11  C11 UNL     1      22.586  11.243  19.427  1.00  0.00     0.032 A 
ENDBRANCH   3   4
ENDBRANCH   1   3
BRANCH   1  12
HETATM   12  C3  UNL     1      16.112   9.312  21.682  1.00  0.00     0.170 C 
HETATM   13  S1  UNL     1      14.942   8.162  21.591  1.00  0.00    -0.041 SA
BRANCH  12  14
HETATM   14  N2  UNL     1      16.090  10.221  22.759  1.00  0.00    -0.355 N 
HETATM   15  C4  UNL     1      17.114  10.161  23.804  1.00  0.00     0.152 C 
HETATM   16  C5  UNL     1      16.473  10.242  25.176  1.00  0.00     0.252 C 
HETATM   17  N3  UNL     1      15.481  11.267  25.280  1.00  0.00    -0.072 N 
HETATM   18  C6  UNL     1      14.437  10.993  24.279  1.00  0.00     0.252 C 
ATOM     19  H32 UNL     1      15.108  11.361  26.225  1.00  0.00     0.277 HD
ATOM     20  H31 UNL     1      15.873  12.205  25.194  1.00  0.00     0.277 HD
HETATM   21  C7  UNL     1      15.099  11.258  22.931  1.00  0.00     0.152 C 
ENDBRANCH  12  14
ENDBRANCH   1  12
TORSDOF 4
ENDMDL
MODEL 5
REMARK VINA RESULT: -6.041822807      1.291      1.291
REMARK  4 active torsions:
REMARK  status: ('A' for Active; 'I' for Inactive)
REMARK    1  A    between atoms: C1_2  and  C2_3 
REMARK       I    between atoms: C1_2  and  N4_16 
REMARK    2  A    between atoms: C2_3  and  N1_4 
REMARK    3  A    between atoms: N1_4  and  C3_6 
REMARK    4  A    between atoms: C3_6  and  N2_8 
ROOT
HETATM    1  N1  UNL     1      17.354  10.042  21.157  1.00  0.00    -0.358 N 
ATOM      2  H1  UNL     1      17.072   9.197  20.660  1.00  0.00     0.162 HD
ENDROOT
BRANCH   1   3
HETATM    3  C2  UNL     1      18.069  11.051  20.437  1.00  0.00     0.225 C 
BRANCH   3   4
HETATM    4  C1  UNL     1      19.391  10.551  19.984  1.00  0.00     0.237 C 
HETATM    5  O1  UNL     1      19.368   9.612  19.117  1.00  0.00    -0.272 OA
HETATM    6  N4  UNL     1      20.613  11.069  20.469  1.00  0.00    -0.346 N 
HETATM    7  C8  UNL     1      20.800  12.128  21.449  1.00  0.00     0.127 C 
HETATM    8  C12 UNL     1      21.924  10.692  20.130  1.00  0.00     0.091 A 
HETATM    9  C9  UNL     1      22.232  12.645  21.161  1.00  0.00     0.026 C 
HETATM   10  C10 UNL     1      22.349  12.175  19.754  1.00  0.00     0.012 A 
HETATM   11  C11 UNL     1      22.847  11.026  19.129  1.00  0.00     0.032 A 
ENDBRANCH   3   4
ENDBRANCH   1   3
BRANCH   1  12
HETATM   12  C3  UNL     1      17.021  10.163  22.522  1.00  0.00     0.170 C 
HETATM   13  S1  UNL     1      18.167  10.771  23.530  1.00  0.00    -0.041 SA
BRANCH  12  14
HETATM   14  N2  UNL     1      15.771   9.793  23.057  1.00  0.00    -0.355 N 
HETATM   15  C4  UNL     1      14.561  10.537  22.700  1.00  0.00     0.152 C 
HETATM   16  C5  UNL     1      13.748  10.848  23.943  1.00  0.00     0.252 C 
HETATM   17  N3  UNL     1      13.603   9.730  24.821  1.00  0.00    -0.072 N 
HETATM   18  C6  UNL     1      14.948   9.291  25.227  1.00  0.00     0.252 C 
ATOM     19  H32 UNL     1      12.996   9.929  25.617  1.00  0.00     0.277 HD
ATOM     20  H31 UNL     1      13.049   8.976  24.413  1.00  0.00     0.277 HD
HETATM   21  C7  UNL     1      15.567   8.692  23.968  1.00  0.00     0.152 C 
ENDBRANCH  12  14
ENDBRANCH   1  12
TORSDOF 4
ENDMDL
