MODEL 1
REMARK VINA RESULT: -7.213571447      0.000      0.000
REMARK  3 active torsions:
REMARK  status: ('A' for Active; 'I' for Inactive)
REMARK    1  A    between atoms: N1_1  and  N2_4 
REMARK    2  A    between atoms: C2_7  and  C3_8 
REMARK       I    between atoms: C3_8  and  N3_10 
REMARK    3  A    between atoms: N3_10  and  C4_12 
ROOT
HETATM    1  N2  UNL     1      24.423  10.494  21.396  1.00  0.00    -0.314 N 
ATOM      2  H2  UNL     1      25.399  10.210  21.472  1.00  0.00     0.185 HD
HETATM    3  C1  UNL     1      24.195  11.614  20.843  1.00  0.00     0.025 C 
HETATM    4  C2  UNL     1      22.897  12.269  20.603  1.00  0.00     0.126 C 
HETATM    5  C9  UNL     1      22.697  12.215  19.083  1.00  0.00     0.027 C 
HETATM    6  C10 UNL     1      23.988  12.593  18.384  1.00  0.00     0.019 C 
HETATM    7  C11 UNL     1      24.821  11.311  18.239  1.00  0.00     0.040 C 
HETATM    8  C12 UNL     1      25.997  11.767  19.090  1.00  0.00     0.134 C 
HETATM    9  O2  UNL     1      26.180  13.072  18.635  1.00  0.00    -0.379 OA
HETATM   10  C13 UNL     1      24.946  13.352  19.273  1.00  0.00     0.138 C 
HETATM   11  C14 UNL     1      25.378  12.381  20.324  1.00  0.00     0.092 C 
ENDROOT
BRANCH   4  12
HETATM   12  C3  UNL     1      21.723  11.678  21.239  1.00  0.00     0.227 C 
HETATM   13  O1  UNL     1      21.623  11.622  22.513  1.00  0.00    -0.273 OA
HETATM   14  N3  UNL     1      20.618  11.127  20.528  1.00  0.00    -0.356 N 
ATOM     15  H3  UNL     1      20.652  11.150  19.509  1.00  0.00     0.162 HD
BRANCH  14  16
HETATM   16  C4  UNL     1      19.467  10.548  21.139  1.00  0.00     0.084 C 
HETATM   17  C5  UNL     1      18.472  11.575  21.634  1.00  0.00     0.025 C 
HETATM   18  C6  UNL     1      17.111  10.901  21.522  1.00  0.00     0.002 C 
HETATM   19  C7  UNL     1      17.345   9.581  20.837  1.00  0.00     0.002 C 
HETATM   20  C8  UNL     1      18.634   9.800  20.108  1.00  0.00     0.025 C 
ENDBRANCH  14  16
ENDBRANCH   4  12
BRANCH   1  21
HETATM   21  N1  UNL     1      23.474   9.616  21.908  1.00  0.00    -0.345 N 
ATOM     22  H12 UNL     1      22.966   9.947  22.729  1.00  0.00     0.176 HD
ATOM     23  H11 UNL     1      23.245   8.690  21.546  1.00  0.00     0.176 HD
ENDBRANCH   1  21
TORSDOF 3
ENDMDL
MODEL 2
REMARK VINA RESULT: -7.207933401      0.975      1.181
REMARK  3 active torsions:
REMARK  status: ('A' for Active; 'I' for Inactive)
REMARK    1  A    between atoms: N1_1  and  N2_4 
REMARK    2  A    between atoms: C2_7  and  C3_8 
REMARK       I    between atoms: C3_8  and  N3_10 
REMARK    3  A    between atoms: N3_10  and  C4_12 
ROOT
HETATM    1  N2  UNL     1      24.081  10.410  21.706  1.00  0.00    -0.314 N 
ATOM      2  H2  UNL     1      24.952   9.881  21.751  1.00  0.00     0.185 HD
HETATM    3  C1  UNL     1      24.071  11.430  20.951  1.00  0.00     0.025 C 
HETATM    4  C2  UNL     1      22.965  12.371  20.698  1.00  0.00     0.126 C 
HETATM    5  C9  UNL     1      22.538  12.104  19.249  1.00  0.00     0.027 C 
HETATM    6  C10 UNL     1      23.767  11.973  18.370  1.00  0.00     0.019 C 
HETATM    7  C11 UNL     1      24.211  10.503  18.425  1.00  0.00     0.040 C 
HETATM    8  C12 UNL     1      25.576  10.754  19.049  1.00  0.00     0.134 C 
HETATM    9  O2  UNL     1      26.020  11.852  18.313  1.00  0.00    -0.379 OA
HETATM   10  C13 UNL     1      25.007  12.577  18.986  1.00  0.00     0.138 C 
HETATM   11  C14 UNL     1      25.323  11.728  20.176  1.00  0.00     0.092 C 
ENDROOT
BRANCH   4  12
HETATM   12  C3  UNL     1      21.784  12.258  21.549  1.00  0.00     0.227 C 
HETATM   13  O1  UNL     1      21.833  12.576  22.788  1.00  0.00    -0.273 OA
HETATM   14  N3  UNL     1      20.512  11.800  21.099  1.00  0.00    -0.356 N 
ATOM     15  H3  UNL     1      20.423  11.536  20.118  1.00  0.00     0.162 HD
BRANCH  14  16
HETATM   16  C4  UNL     1      19.353  11.686  21.923  1.00  0.00     0.084 C 
HETATM   17  C5  UNL     1      18.084  11.436  21.137  1.00  0.00     0.025 C 
HETATM   18  C6  UNL     1      17.193  10.619  22.063  1.00  0.00     0.002 C 
HETATM   19  C7  UNL     1      18.023  10.300  23.278  1.00  0.00     0.002 C 
HETATM   20  C8  UNL     1      19.427  10.427  22.775  1.00  0.00     0.025 C 
ENDBRANCH  14  16
ENDBRANCH   4  12
BRANCH   1  21
HETATM   21  N1  UNL     1      23.024   9.941  22.477  1.00  0.00    -0.345 N 
ATOM     22  H12 UNL     1      22.915  10.383  23.390  1.00  0.00     0.176 HD
ATOM     23  H11 UNL     1      22.361   9.210  22.219  1.00  0.00     0.176 HD
ENDBRANCH   1  21
TORSDOF 3
ENDMDL
MODEL 3
REMARK VINA RESULT: -7.170937212      3.021      7.711
REMARK  3 active torsions:
REMARK  status: ('A' for Active; 'I' for Inactive)
REMARK    1  A    between atoms: N1_1  and  N2_4 
REMARK    2  A    between atoms: C2_7  and  C3_8 
REMARK       I    between atoms: C3_8  and  N3_10 
REMARK    3  A    between atoms: N3_10  and  C4_12 
ROOT
HETATM    1  N2  UNL     1      17.639  10.003  24.287  1.00  0.00    -0.314 N 
ATOM      2  H2  UNL     1      17.166   9.784  25.164  1.00  0.00     0.185 HD
HETATM    3  C1  UNL     1      16.904  10.151  23.264  1.00  0.00     0.025 C 
HETATM    4  C2  UNL     1      17.311  10.465  21.882  1.00  0.00     0.126 C 
HETATM    5  C9  UNL     1      16.820  11.897  21.637  1.00  0.00     0.027 C 
HETATM    6  C10 UNL     1      15.408  12.052  22.168  1.00  0.00     0.019 C 
HETATM    7  C11 UNL     1      15.519  12.430  23.653  1.00  0.00     0.040 C 
HETATM    8  C12 UNL     1      14.815  11.198  24.202  1.00  0.00     0.134 C 
HETATM    9  O2  UNL     1      13.732  11.086  23.331  1.00  0.00    -0.379 OA
HETATM   10  C13 UNL     1      14.694  10.733  22.353  1.00  0.00     0.138 C 
HETATM   11  C14 UNL     1      15.419  10.031  23.456  1.00  0.00     0.092 C 
ENDROOT
BRANCH   4  12
HETATM   12  C3  UNL     1      18.738  10.414  21.579  1.00  0.00     0.227 C 
HETATM   13  O1  UNL     1      19.356   9.296  21.505  1.00  0.00    -0.273 OA
HETATM   14  N3  UNL     1      19.550  11.562  21.344  1.00  0.00    -0.356 N 
ATOM     15  H3  UNL     1      19.102  12.476  21.391  1.00  0.00     0.162 HD
BRANCH  14  16
HETATM   16  C4  UNL     1      20.944  11.522  21.047  1.00  0.00     0.084 C 
HETATM   17  C5  UNL     1      21.243  11.633  19.568  1.00  0.00     0.025 C 
HETATM   18  C6  UNL     1      22.599  12.322  19.484  1.00  0.00     0.002 C 
HETATM   19  C7  UNL     1      22.965  12.714  20.891  1.00  0.00     0.002 C 
HETATM   20  C8  UNL     1      21.640  12.765  21.585  1.00  0.00     0.025 C 
ENDBRANCH  14  16
ENDBRANCH   4  12
BRANCH   1  21
HETATM   21  N1  UNL     1      19.025  10.108  24.334  1.00  0.00    -0.345 N 
ATOM     22  H12 UNL     1      19.480  10.323  23.447  1.00  0.00     0.176 HD
ATOM     23  H11 UNL     1      19.615   9.991  25.158  1.00  0.00     0.176 HD
ENDBRANCH   1  21
TORSDOF 3
ENDMDL
MODEL 4
REMARK VINA RESULT: -7.117601197      4.231      5.436
REMARK  3 active torsions:
REMARK  status: ('A' for Active; 'I' for Inactive)
REMARK    1  A    between atoms: N1_1  and  N2_4 
REMARK    2  A    between atoms: C2_7  and  C3_8 
REMARK       I    between atoms: C3_8  and  N3_10 
REMARK    3  A    between atoms: N3_10  and  C4_12 
ROOT
HETATM    1  N2  UNL     1      22.815   9.742  23.194  1.00  0.00    -0.314 N 
ATOM      2  H2  UNL     1      22.986   8.955  22.568  1.00  0.00     0.185 HD
HETATM    3  C1  UNL     1      22.613  10.871  22.651  1.00  0.00     0.025 C 
HETATM    4  C2  UNL     1      22.347  12.166  23.303  1.00  0.00     0.126 C 
HETATM    5  C9  UNL     1      20.881  12.480  22.981  1.00  0.00     0.027 C 
HETATM    6  C10 UNL     1      20.603  12.185  21.519  1.00  0.00     0.019 C 
HETATM    7  C11 UNL     1      20.223  10.700  21.419  1.00  0.00     0.040 C 
HETATM    8  C12 UNL     1      21.386  10.279  20.533  1.00  0.00     0.134 C 
HETATM    9  O2  UNL     1      21.414  11.316  19.601  1.00  0.00    -0.379 OA
HETATM   10  C13 UNL     1      21.855  12.126  20.676  1.00  0.00     0.138 C 
HETATM   11  C14 UNL     1      22.606  10.923  21.150  1.00  0.00     0.092 C 
ENDROOT
BRANCH   4  12
HETATM   12  C3  UNL     1      22.521  12.233  24.750  1.00  0.00     0.227 C 
HETATM   13  O1  UNL     1      23.676  12.093  25.282  1.00  0.00    -0.273 OA
HETATM   14  N3  UNL     1      21.460  12.452  25.676  1.00  0.00    -0.356 N 
ATOM     15  H3  UNL     1      20.520  12.570  25.300  1.00  0.00     0.162 HD
BRANCH  14  16
HETATM   16  C4  UNL     1      21.619  12.519  27.092  1.00  0.00     0.084 C 
HETATM   17  C5  UNL     1      21.668  13.935  27.621  1.00  0.00     0.025 C 
HETATM   18  C6  UNL     1      21.082  13.860  29.025  1.00  0.00     0.002 C 
HETATM   19  C7  UNL     1      20.583  12.450  29.201  1.00  0.00     0.002 C 
HETATM   20  C8  UNL     1      20.380  11.982  27.794  1.00  0.00     0.025 C 
ENDBRANCH  14  16
ENDBRANCH   4  12
BRANCH   1  21
HETATM   21  N1  UNL     1      22.827   9.470  24.558  1.00  0.00    -0.345 N 
ATOM     22  H12 UNL     1      23.108  10.244  25.159  1.00  0.00     0.176 HD
ATOM     23  H11 UNL     1      22.586   8.584  25.002  1.00  0.00     0.176 HD
ENDBRANCH   1  21
TORSDOF 3
ENDMDL
MODEL 5
REMARK VINA RESULT: -7.078351011      2.226      2.916
REMARK  3 active torsions:
REMARK  status: ('A' for Active; 'I' for Inactive)
REMARK    1  A    between atoms: N1_1  and  N2_4 
REMARK    2  A    between atoms: C2_7  and  C3_8 
REMARK       I    between atoms: C3_8  and  N3_10 
REMARK    3  A    between atoms: N3_10  and  C4_12 
ROOT
HETATM    1  N2  UNL     1      21.754  10.101  23.053  1.00  0.00    -0.314 N 
ATOM      2  H2  UNL     1      22.687   9.726  23.224  1.00  0.00     0.185 HD
HETATM    3  C1  UNL     1      21.682  11.152  22.345  1.00  0.00     0.025 C 
HETATM    4  C2  UNL     1      20.480  11.905  21.944  1.00  0.00     0.126 C 
HETATM    5  C9  UNL     1      20.344  11.665  20.435  1.00  0.00     0.027 C 
HETATM    6  C10 UNL     1      21.701  11.802  19.771  1.00  0.00     0.019 C 
HETATM    7  C11 UNL     1      22.386  10.428  19.846  1.00  0.00     0.040 C 
HETATM    8  C12 UNL     1      23.567  10.866  20.699  1.00  0.00     0.134 C 
HETATM    9  O2  UNL     1      23.919  12.070  20.088  1.00  0.00    -0.379 OA
HETATM   10  C13 UNL     1      22.699  12.566  20.608  1.00  0.00     0.138 C 
HETATM   11  C14 UNL     1      22.968  11.707  21.802  1.00  0.00     0.092 C 
ENDROOT
BRANCH   4  12
HETATM   12  C3  UNL     1      19.219  11.538  22.580  1.00  0.00     0.227 C 
HETATM   13  O1  UNL     1      19.055  11.670  23.842  1.00  0.00    -0.273 OA
HETATM   14  N3  UNL     1      18.091  11.016  21.882  1.00  0.00    -0.356 N 
ATOM     15  H3  UNL     1      18.174  10.893  20.874  1.00  0.00     0.162 HD
BRANCH  14  16
HETATM   16  C4  UNL     1      16.855  10.654  22.495  1.00  0.00     0.084 C 
HETATM   17  C5  UNL     1      15.815  11.751  22.433  1.00  0.00     0.025 C 
HETATM   18  C6  UNL     1      14.474  11.030  22.385  1.00  0.00     0.002 C 
HETATM   19  C7  UNL     1      14.785   9.561  22.270  1.00  0.00     0.002 C 
HETATM   20  C8  UNL     1      16.170   9.550  21.701  1.00  0.00     0.025 C 
ENDBRANCH  14  16
ENDBRANCH   4  12
BRANCH   1  21
HETATM   21  N1  UNL     1      20.688   9.410  23.618  1.00  0.00    -0.345 N 
ATOM     22  H12 UNL     1      20.931   8.543  24.099  1.00  0.00     0.176 HD
ATOM     23  H11 UNL     1      19.706   9.684  23.597  1.00  0.00     0.176 HD
ENDBRANCH   1  21
TORSDOF 3
ENDMDL
