MODEL 1
REMARK VINA RESULT: -8.106257702      0.000      0.000
REMARK  4 active torsions:
REMARK  status: ('A' for Active; 'I' for Inactive)
REMARK    1  A    between atoms: C8_11  and  C9_12 
REMARK       I    between atoms: C9_12  and  N2_14 
REMARK    2  A    between atoms: N2_14  and  C10_16 
REMARK    3  A    between atoms: N3_22  and  C16_23 
REMARK    4  A    between atoms: C16_23  and  C17_24 
REMARK       I    between atoms: C17_24  and  N4_26 
ROOT
HETATM    1  N1  UNL     1      24.000  13.462  17.883  1.00  0.00    -0.389 N 
ATOM      2  H11 UNL     1      23.475  14.208  18.338  1.00  0.00     0.157 HD
ATOM      3  H12 UNL     1      24.219  13.311  16.898  1.00  0.00     0.157 HD
HETATM    4  C1  UNL     1      24.459  12.564  18.715  1.00  0.00     0.078 C 
HETATM    5  C2  UNL     1      25.225  11.477  18.053  1.00  0.00     0.053 C 
HETATM    6  C3  UNL     1      26.392  11.081  18.935  1.00  0.00     0.013 C 
HETATM    7  C4  UNL     1      25.998  10.378  20.186  1.00  0.00     0.008 C 
HETATM    8  C5  UNL     1      24.533  10.453  20.532  1.00  0.00     0.018 C 
HETATM    9  C6  UNL     1      23.654  10.095  19.374  1.00  0.00     0.008 C 
HETATM   10  C7  UNL     1      24.311  10.251  18.022  1.00  0.00     0.013 C 
HETATM   11  C8  UNL     1      24.155  11.796  21.143  1.00  0.00     0.182 C 
HETATM   12  N3  UNL     1      24.154  12.775  20.088  1.00  0.00    -0.348 N 
ENDROOT
BRANCH  11  13
HETATM   13  C9  UNL     1      22.856  11.711  21.851  1.00  0.00     0.241 C 
HETATM   14  O1  UNL     1      22.781  11.572  23.080  1.00  0.00    -0.271 OA
HETATM   15  N2  UNL     1      21.667  11.792  21.083  1.00  0.00    -0.355 N 
ATOM     16  H2  UNL     1      21.717  11.906  20.071  1.00  0.00     0.162 HD
BRANCH  15  17
HETATM   17  C10 UNL     1      20.386  11.711  21.744  1.00  0.00     0.084 C 
HETATM   18  C11 UNL     1      19.451  10.813  20.960  1.00  0.00     0.025 C 
HETATM   19  C12 UNL     1      18.461  11.672  20.178  1.00  0.00     0.002 C 
HETATM   20  C13 UNL     1      17.552  12.427  21.129  1.00  0.00     0.000 C 
HETATM   21  C14 UNL     1      18.330  12.912  22.326  1.00  0.00     0.002 C 
HETATM   22  C15 UNL     1      19.778  13.093  21.928  1.00  0.00     0.025 C 
ENDBRANCH  15  17
ENDBRANCH  11  13
BRANCH  12  23
HETATM   23  C16 UNL     1      23.799  14.152  20.444  1.00  0.00     0.228 C 
BRANCH  23  24
HETATM   24  C17 UNL     1      24.812  14.758  21.368  1.00  0.00     0.237 C 
HETATM   25  O2  UNL     1      25.984  14.841  20.929  1.00  0.00    -0.272 OA
HETATM   26  N4  UNL     1      24.448  15.207  22.661  1.00  0.00    -0.351 N 
HETATM   27  C18 UNL     1      23.141  15.161  23.272  1.00  0.00     0.126 C 
HETATM   28  C21 UNL     1      25.393  15.807  23.592  1.00  0.00     0.126 C 
HETATM   29  C19 UNL     1      23.344  15.603  24.694  1.00  0.00     0.021 C 
HETATM   30  C20 UNL     1      24.827  15.276  24.915  1.00  0.00     0.021 C 
ENDBRANCH  23  24
ENDBRANCH  12  23
TORSDOF 4
ENDMDL
MODEL 2
REMARK VINA RESULT: -7.955184839      2.362      3.838
REMARK  4 active torsions:
REMARK  status: ('A' for Active; 'I' for Inactive)
REMARK    1  A    between atoms: C8_11  and  C9_12 
REMARK       I    between atoms: C9_12  and  N2_14 
REMARK    2  A    between atoms: N2_14  and  C10_16 
REMARK    3  A    between atoms: N3_22  and  C16_23 
REMARK    4  A    between atoms: C16_23  and  C17_24 
REMARK       I    between atoms: C17_24  and  N4_26 
ROOT
HETATM    1  N1  UNL     1      23.793  13.431  19.522  1.00  0.00    -0.389 N 
ATOM      2  H11 UNL     1      23.016  14.062  19.719  1.00  0.00     0.157 HD
ATOM      3  H12 UNL     1      24.685  13.605  19.057  1.00  0.00     0.157 HD
HETATM    4  C1  UNL     1      23.593  12.209  19.938  1.00  0.00     0.078 C 
HETATM    5  C2  UNL     1      24.725  11.291  19.650  1.00  0.00     0.053 C 
HETATM    6  C3  UNL     1      24.894  10.329  20.809  1.00  0.00     0.013 C 
HETATM    7  C4  UNL     1      23.796   9.333  20.939  1.00  0.00     0.008 C 
HETATM    8  C5  UNL     1      22.562   9.627  20.125  1.00  0.00     0.018 C 
HETATM    9  C6  UNL     1      22.882   9.943  18.696  1.00  0.00     0.008 C 
HETATM   10  C7  UNL     1      24.297  10.422  18.466  1.00  0.00     0.013 C 
HETATM   11  C8  UNL     1      21.693  10.700  20.767  1.00  0.00     0.182 C 
HETATM   12  N3  UNL     1      22.350  11.967  20.584  1.00  0.00    -0.348 N 
ENDROOT
BRANCH  11  13
HETATM   13  C9  UNL     1      20.321  10.676  20.207  1.00  0.00     0.241 C 
HETATM   14  O1  UNL     1      19.973  11.419  19.278  1.00  0.00    -0.271 OA
HETATM   15  N2  UNL     1      19.385   9.768  20.764  1.00  0.00    -0.355 N 
ATOM     16  H2  UNL     1      19.660   9.153  21.529  1.00  0.00     0.162 HD
BRANCH  15  17
HETATM   17  C10 UNL     1      18.040   9.722  20.240  1.00  0.00     0.084 C 
HETATM   18  C11 UNL     1      17.088  10.423  21.189  1.00  0.00     0.025 C 
HETATM   19  C12 UNL     1      16.306   9.380  21.984  1.00  0.00     0.002 C 
HETATM   20  C13 UNL     1      15.404   8.581  21.062  1.00  0.00     0.000 C 
HETATM   21  C14 UNL     1      16.104   8.299  19.756  1.00  0.00     0.002 C 
HETATM   22  C15 UNL     1      17.598   8.288  19.994  1.00  0.00     0.025 C 
ENDBRANCH  15  17
ENDBRANCH  11  13
BRANCH  12  23
HETATM   23  C16 UNL     1      21.679  13.158  21.113  1.00  0.00     0.228 C 
BRANCH  23  24
HETATM   24  C17 UNL     1      21.542  13.093  22.604  1.00  0.00     0.237 C 
HETATM   25  O2  UNL     1      22.608  12.985  23.256  1.00  0.00    -0.272 OA
HETATM   26  N4  UNL     1      20.269  13.152  23.225  1.00  0.00    -0.351 N 
HETATM   27  C18 UNL     1      18.983  13.271  22.583  1.00  0.00     0.126 C 
HETATM   28  C21 UNL     1      20.084  13.098  24.668  1.00  0.00     0.126 C 
HETATM   29  C19 UNL     1      17.967  13.118  23.680  1.00  0.00     0.021 C 
HETATM   30  C20 UNL     1      18.759  12.327  24.731  1.00  0.00     0.021 C 
ENDBRANCH  23  24
ENDBRANCH  12  23
TORSDOF 4
ENDMDL
MODEL 3
REMARK VINA RESULT: -7.950284631      1.438      2.153
REMARK  4 active torsions:
REMARK  status: ('A' for Active; 'I' for Inactive)
REMARK    1  A    between atoms: C8_11  and  C9_12 
REMARK       I    between atoms: C9_12  and  N2_14 
REMARK    2  A    between atoms: N2_14  and  C10_16 
REMARK    3  A    between atoms: N3_22  and  C16_23 
REMARK    4  A    between atoms: C16_23  and  C17_24 
REMARK       I    between atoms: C17_24  and  N4_26 
ROOT
HETATM    1  N1  UNL     1      23.853  13.304  17.808  1.00  0.00    -0.389 N 
ATOM      2  H11 UNL     1      23.324  14.069  18.227  1.00  0.00     0.157 HD
ATOM      3  H12 UNL     1      24.061  13.100  16.830  1.00  0.00     0.157 HD
HETATM    4  C1  UNL     1      24.334  12.462  18.684  1.00  0.00     0.078 C 
HETATM    5  C2  UNL     1      25.106  11.348  18.074  1.00  0.00     0.053 C 
HETATM    6  C3  UNL     1      26.289  11.018  18.961  1.00  0.00     0.013 C 
HETATM    7  C4  UNL     1      25.921  10.383  20.256  1.00  0.00     0.008 C 
HETATM    8  C5  UNL     1      24.460  10.459  20.617  1.00  0.00     0.018 C 
HETATM    9  C6  UNL     1      23.570  10.024  19.493  1.00  0.00     0.008 C 
HETATM   10  C7  UNL     1      24.208  10.110  18.125  1.00  0.00     0.013 C 
HETATM   11  C8  UNL     1      24.072  11.830  21.155  1.00  0.00     0.182 C 
HETATM   12  N3  UNL     1      24.045  12.746  20.046  1.00  0.00    -0.348 N 
ENDROOT
BRANCH  11  13
HETATM   13  C9  UNL     1      22.784  11.769  21.885  1.00  0.00     0.241 C 
HETATM   14  O1  UNL     1      22.727  11.707  23.121  1.00  0.00    -0.271 OA
HETATM   15  N2  UNL     1      21.584  11.782  21.129  1.00  0.00    -0.355 N 
ATOM     16  H2  UNL     1      21.619  11.833  20.111  1.00  0.00     0.162 HD
BRANCH  15  17
HETATM   17  C10 UNL     1      20.313  11.723  21.811  1.00  0.00     0.084 C 
HETATM   18  C11 UNL     1      19.358  10.821  21.056  1.00  0.00     0.025 C 
HETATM   19  C12 UNL     1      18.363  11.677  20.276  1.00  0.00     0.002 C 
HETATM   20  C13 UNL     1      17.476  12.455  21.229  1.00  0.00     0.000 C 
HETATM   21  C14 UNL     1      18.277  12.951  22.407  1.00  0.00     0.002 C 
HETATM   22  C15 UNL     1      19.720  13.113  21.983  1.00  0.00     0.025 C 
ENDBRANCH  15  17
ENDBRANCH  11  13
BRANCH  12  23
HETATM   23  C16 UNL     1      23.676  14.137  20.329  1.00  0.00     0.228 C 
BRANCH  23  24
HETATM   24  C17 UNL     1      24.743  14.839  21.112  1.00  0.00     0.237 C 
HETATM   25  O2  UNL     1      24.676  14.735  22.360  1.00  0.00    -0.272 OA
HETATM   26  N4  UNL     1      25.766  15.574  20.461  1.00  0.00    -0.351 N 
HETATM   27  C18 UNL     1      25.943  15.764  19.042  1.00  0.00     0.126 C 
HETATM   28  C21 UNL     1      26.827  16.268  21.177  1.00  0.00     0.126 C 
HETATM   29  C19 UNL     1      27.066  16.753  18.904  1.00  0.00     0.021 C 
HETATM   30  C20 UNL     1      27.011  17.480  20.255  1.00  0.00     0.021 C 
ENDBRANCH  23  24
ENDBRANCH  12  23
TORSDOF 4
ENDMDL
MODEL 4
REMARK VINA RESULT: -7.806936206      2.654      5.878
REMARK  4 active torsions:
REMARK  status: ('A' for Active; 'I' for Inactive)
REMARK    1  A    between atoms: C8_11  and  C9_12 
REMARK       I    between atoms: C9_12  and  N2_14 
REMARK    2  A    between atoms: N2_14  and  C10_16 
REMARK    3  A    between atoms: N3_22  and  C16_23 
REMARK    4  A    between atoms: C16_23  and  C17_24 
REMARK       I    between atoms: C17_24  and  N4_26 
ROOT
HETATM    1  N1  UNL     1      21.027   9.394  22.924  1.00  0.00    -0.389 N 
ATOM      2  H11 UNL     1      22.010   9.433  23.195  1.00  0.00     0.157 HD
ATOM      3  H12 UNL     1      20.406   8.594  22.799  1.00  0.00     0.157 HD
HETATM    4  C1  UNL     1      20.499  10.569  22.705  1.00  0.00     0.078 C 
HETATM    5  C2  UNL     1      19.069  10.513  22.310  1.00  0.00     0.053 C 
HETATM    6  C3  UNL     1      18.332  11.681  22.936  1.00  0.00     0.013 C 
HETATM    7  C4  UNL     1      18.694  13.005  22.363  1.00  0.00     0.008 C 
HETATM    8  C5  UNL     1      19.932  13.018  21.503  1.00  0.00     0.018 C 
HETATM    9  C6  UNL     1      19.922  11.933  20.472  1.00  0.00     0.008 C 
HETATM   10  C7  UNL     1      19.017  10.768  20.803  1.00  0.00     0.013 C 
HETATM   11  C8  UNL     1      21.208  13.006  22.334  1.00  0.00     0.182 C 
HETATM   12  N3  UNL     1      21.365  11.683  22.879  1.00  0.00    -0.348 N 
ENDROOT
BRANCH  11  13
HETATM   13  C9  UNL     1      22.372  13.438  21.526  1.00  0.00     0.241 C 
HETATM   14  O1  UNL     1      22.888  14.558  21.655  1.00  0.00    -0.271 OA
HETATM   15  N2  UNL     1      22.903  12.530  20.576  1.00  0.00    -0.355 N 
ATOM     16  H2  UNL     1      22.487  11.606  20.460  1.00  0.00     0.162 HD
BRANCH  15  17
HETATM   17  C10 UNL     1      24.037  12.923  19.772  1.00  0.00     0.084 C 
HETATM   18  C11 UNL     1      23.877  12.404  18.357  1.00  0.00     0.025 C 
HETATM   19  C12 UNL     1      24.767  11.178  18.164  1.00  0.00     0.002 C 
HETATM   20  C13 UNL     1      26.229  11.567  18.262  1.00  0.00     0.000 C 
HETATM   21  C14 UNL     1      26.429  12.593  19.349  1.00  0.00     0.002 C 
HETATM   22  C15 UNL     1      25.338  12.427  20.384  1.00  0.00     0.025 C 
ENDBRANCH  15  17
ENDBRANCH  11  13
BRANCH  12  23
HETATM   23  C16 UNL     1      22.548  11.431  23.708  1.00  0.00     0.228 C 
BRANCH  23  24
HETATM   24  C17 UNL     1      22.588  12.344  24.897  1.00  0.00     0.237 C 
HETATM   25  O2  UNL     1      23.420  13.281  24.850  1.00  0.00    -0.272 OA
HETATM   26  N4  UNL     1      21.725  12.144  26.003  1.00  0.00    -0.351 N 
HETATM   27  C18 UNL     1      20.736  11.106  26.170  1.00  0.00     0.126 C 
HETATM   28  C21 UNL     1      21.723  13.005  27.177  1.00  0.00     0.126 C 
HETATM   29  C19 UNL     1      20.231  11.253  27.577  1.00  0.00     0.021 C 
HETATM   30  C20 UNL     1      21.406  11.965  28.260  1.00  0.00     0.021 C 
ENDBRANCH  23  24
ENDBRANCH  12  23
TORSDOF 4
ENDMDL
MODEL 5
REMARK VINA RESULT: -7.645625501      2.488      6.418
REMARK  4 active torsions:
REMARK  status: ('A' for Active; 'I' for Inactive)
REMARK    1  A    between atoms: C8_11  and  C9_12 
REMARK       I    between atoms: C9_12  and  N2_14 
REMARK    2  A    between atoms: N2_14  and  C10_16 
REMARK    3  A    between atoms: N3_22  and  C16_23 
REMARK    4  A    between atoms: C16_23  and  C17_24 
REMARK       I    between atoms: C17_24  and  N4_26 
ROOT
HETATM    1  N1  UNL     1      17.437   9.694  24.498  1.00  0.00    -0.389 N 
ATOM      2  H11 UNL     1      18.300   9.549  25.021  1.00  0.00     0.157 HD
ATOM      3  H12 UNL     1      16.505   9.301  24.637  1.00  0.00     0.157 HD
HETATM    4  C1  UNL     1      17.568  10.516  23.491  1.00  0.00     0.078 C 
HETATM    5  C2  UNL     1      16.310  10.727  22.729  1.00  0.00     0.053 C 
HETATM    6  C3  UNL     1      16.230  12.175  22.289  1.00  0.00     0.013 C 
HETATM    7  C4  UNL     1      17.218  12.548  21.241  1.00  0.00     0.008 C 
HETATM    8  C5  UNL     1      18.326  11.550  21.018  1.00  0.00     0.018 C 
HETATM    9  C6  UNL     1      17.811  10.154  20.847  1.00  0.00     0.008 C 
HETATM   10  C7  UNL     1      16.439   9.921  21.435  1.00  0.00     0.013 C 
HETATM   11  C8  UNL     1      19.402  11.636  22.092  1.00  0.00     0.182 C 
HETATM   12  N3  UNL     1      18.866  11.062  23.298  1.00  0.00    -0.348 N 
ENDROOT
BRANCH  11  13
HETATM   13  C9  UNL     1      20.652  10.977  21.646  1.00  0.00     0.241 C 
HETATM   14  O1  UNL     1      20.946   9.821  21.982  1.00  0.00    -0.271 OA
HETATM   15  N2  UNL     1      21.531  11.706  20.806  1.00  0.00    -0.355 N 
ATOM     16  H2  UNL     1      21.300  12.658  20.523  1.00  0.00     0.162 HD
BRANCH  15  17
HETATM   17  C10 UNL     1      22.757  11.090  20.355  1.00  0.00     0.084 C 
HETATM   18  C11 UNL     1      23.757  12.156  19.952  1.00  0.00     0.025 C 
HETATM   19  C12 UNL     1      23.804  12.256  18.430  1.00  0.00     0.002 C 
HETATM   20  C13 UNL     1      24.354  10.975  17.833  1.00  0.00     0.000 C 
HETATM   21  C14 UNL     1      23.831   9.777  18.586  1.00  0.00     0.002 C 
HETATM   22  C15 UNL     1      22.496  10.133  19.203  1.00  0.00     0.025 C 
ENDBRANCH  15  17
ENDBRANCH  11  13
BRANCH  12  23
HETATM   23  C16 UNL     1      19.741  11.021  24.473  1.00  0.00     0.228 C 
BRANCH  23  24
HETATM   24  C17 UNL     1      20.141  12.400  24.907  1.00  0.00     0.237 C 
HETATM   25  O2  UNL     1      19.212  13.155  25.283  1.00  0.00    -0.272 OA
HETATM   26  N4  UNL     1      21.497  12.809  24.889  1.00  0.00    -0.351 N 
HETATM   27  C18 UNL     1      22.643  12.034  24.477  1.00  0.00     0.126 C 
HETATM   28  C21 UNL     1      21.936  14.133  25.305  1.00  0.00     0.126 C 
HETATM   29  C19 UNL     1      23.803  12.989  24.492  1.00  0.00     0.021 C 
HETATM   30  C20 UNL     1      23.097  14.342  24.325  1.00  0.00     0.021 C 
ENDBRANCH  23  24
ENDBRANCH  12  23
TORSDOF 4
ENDMDL
