MODEL 1
REMARK VINA RESULT: -8.208826921      0.000      0.000
REMARK  4 active torsions:
REMARK  status: ('A' for Active; 'I' for Inactive)
REMARK       I    between atoms: N1_2  and  C2_4 
REMARK       I    between atoms: C2_4  and  N2_6 
REMARK    1  A    between atoms: C5_9  and  C6_10 
REMARK       I    between atoms: C6_10  and  N3_12 
REMARK    2  A    between atoms: N3_12  and  C7_14 
REMARK       I    between atoms: N4_17  and  C10_18 
REMARK    3  A    between atoms: C10_18  and  C11_20 
REMARK    4  A    between atoms: C11_20  and  C12_21 
ROOT
HETATM    1  C7  UNL     1      22.967  11.074  19.581  1.00  0.00     0.087 C 
HETATM    2  C8  UNL     1      22.366   9.787  20.087  1.00  0.00     0.045 C 
HETATM    3  C9  UNL     1      20.893   9.819  19.881  1.00  0.00     0.127 C 
HETATM    4  N4  UNL     1      20.257  11.057  20.186  1.00  0.00    -0.352 N 
HETATM    5  C10 UNL     1      18.853  11.071  20.407  1.00  0.00     0.220 C 
HETATM    6  O3  UNL     1      18.238   9.975  20.321  1.00  0.00    -0.273 OA
HETATM    7  C18 UNL     1      20.942  12.329  20.291  1.00  0.00     0.127 C 
HETATM    8  C19 UNL     1      22.425  12.191  20.449  1.00  0.00     0.045 C 
ENDROOT
BRANCH   1   9
HETATM    9  N3  UNL     1      24.384  11.017  19.715  1.00  0.00    -0.356 N 
HETATM   10  C6  UNL     1      25.216  11.849  18.932  1.00  0.00     0.223 C 
HETATM   11  O2  UNL     1      24.686  12.641  18.116  1.00  0.00    -0.273 OA
ATOM     12  H3  UNL     1      24.804  10.370  20.383  1.00  0.00     0.162 HD
BRANCH  10  13
HETATM   13  C5  UNL     1      26.701  11.817  19.044  1.00  0.00     0.097 C 
HETATM   14  C4  UNL     1      27.174  13.140  19.652  1.00  0.00     0.035 C 
HETATM   15  C3  UNL     1      27.058  12.834  21.136  1.00  0.00     0.128 C 
HETATM   16  N2  UNL     1      27.607  11.507  21.207  1.00  0.00    -0.333 N 
HETATM   17  C2  UNL     1      28.471  11.009  22.215  1.00  0.00     0.317 C 
HETATM   18  C20 UNL     1      27.119  10.781  20.065  1.00  0.00     0.141 C 
HETATM   19  N1  UNL     1      28.969   9.684  22.212  1.00  0.00    -0.347 N 
HETATM   20  O1  UNL     1      28.839  11.757  23.187  1.00  0.00    -0.247 OA
HETATM   21  C1  UNL     1      29.833   9.224  23.241  1.00  0.00     0.151 C 
ATOM     22  H1  UNL     1      28.704   9.049  21.459  1.00  0.00     0.163 HD
ENDBRANCH  10  13
ENDBRANCH   1   9
BRANCH   5  23
HETATM   23  C11 UNL     1      18.114  12.319  20.730  1.00  0.00     0.107 C 
BRANCH  23  24
HETATM   24  C12 UNL     1      17.658  12.196  22.194  1.00  0.00    -0.006 C 
HETATM   25  C13 UNL     1      18.388  13.123  23.083  1.00  0.00     0.005 C 
HETATM   26  C14 UNL     1      17.611  14.122  23.854  1.00  0.00     0.000 C 
HETATM   27  C15 UNL     1      16.140  13.896  23.953  1.00  0.00     0.000 C 
HETATM   28  C16 UNL     1      15.621  13.587  22.555  1.00  0.00     0.000 C 
HETATM   29  C17 UNL     1      16.176  12.226  22.216  1.00  0.00     0.005 C 
ENDBRANCH  23  24
ENDBRANCH   5  23
TORSDOF 4
ENDMDL
MODEL 2
REMARK VINA RESULT: -8.077889032      2.010      2.803
REMARK  4 active torsions:
REMARK  status: ('A' for Active; 'I' for Inactive)
REMARK       I    between atoms: N1_2  and  C2_4 
REMARK       I    between atoms: C2_4  and  N2_6 
REMARK    1  A    between atoms: C5_9  and  C6_10 
REMARK       I    between atoms: C6_10  and  N3_12 
REMARK    2  A    between atoms: N3_12  and  C7_14 
REMARK       I    between atoms: N4_17  and  C10_18 
REMARK    3  A    between atoms: C10_18  and  C11_20 
REMARK    4  A    between atoms: C11_20  and  C12_21 
ROOT
HETATM    1  C7  UNL     1      23.358  10.267  21.225  1.00  0.00     0.087 C 
HETATM    2  C8  UNL     1      23.145  11.759  21.265  1.00  0.00     0.045 C 
HETATM    3  C9  UNL     1      21.704  12.043  21.501  1.00  0.00     0.127 C 
HETATM    4  N4  UNL     1      20.791  11.224  20.778  1.00  0.00    -0.352 N 
HETATM    5  C10 UNL     1      19.448  11.667  20.623  1.00  0.00     0.220 C 
HETATM    6  O3  UNL     1      19.135  12.771  21.139  1.00  0.00    -0.273 OA
HETATM    7  C18 UNL     1      21.127   9.952  20.175  1.00  0.00     0.127 C 
HETATM    8  C19 UNL     1      22.602   9.741  20.023  1.00  0.00     0.045 C 
ENDROOT
BRANCH   1   9
HETATM    9  N3  UNL     1      24.747   9.992  21.067  1.00  0.00    -0.356 N 
HETATM   10  C6  UNL     1      25.461  10.503  19.960  1.00  0.00     0.223 C 
HETATM   11  O2  UNL     1      24.853  11.205  19.117  1.00  0.00    -0.273 OA
ATOM     12  H3  UNL     1      25.231   9.420  21.760  1.00  0.00     0.162 HD
BRANCH  10  13
HETATM   13  C5  UNL     1      26.914  10.236  19.762  1.00  0.00     0.097 C 
HETATM   14  C4  UNL     1      27.676  11.557  19.895  1.00  0.00     0.035 C 
HETATM   15  C3  UNL     1      27.894  11.615  21.398  1.00  0.00     0.128 C 
HETATM   16  N2  UNL     1      28.282  10.262  21.692  1.00  0.00    -0.333 N 
HETATM   17  C2  UNL     1      29.302   9.858  22.590  1.00  0.00     0.317 C 
HETATM   18  C20 UNL     1      27.444   9.397  20.905  1.00  0.00     0.141 C 
HETATM   19  N1  UNL     1      29.623   8.499  22.824  1.00  0.00    -0.347 N 
HETATM   20  O1  UNL     1      29.985  10.727  23.236  1.00  0.00    -0.247 OA
HETATM   21  C1  UNL     1      30.653   8.136  23.732  1.00  0.00     0.151 C 
ATOM     22  H1  UNL     1      29.107   7.769  22.333  1.00  0.00     0.163 HD
ENDBRANCH  10  13
ENDBRANCH   1   9
BRANCH   5  23
HETATM   23  C11 UNL     1      18.433  10.872  19.883  1.00  0.00     0.107 C 
BRANCH  23  24
HETATM   24  C12 UNL     1      17.888   9.825  20.869  1.00  0.00    -0.006 C 
HETATM   25  C13 UNL     1      16.862  10.392  21.770  1.00  0.00     0.005 C 
HETATM   26  C14 UNL     1      15.507   9.792  21.763  1.00  0.00     0.000 C 
HETATM   27  C15 UNL     1      15.369   8.453  21.121  1.00  0.00     0.000 C 
HETATM   28  C16 UNL     1      16.078   8.507  19.773  1.00  0.00     0.000 C 
HETATM   29  C17 UNL     1      17.547   8.605  20.100  1.00  0.00     0.005 C 
ENDBRANCH  23  24
ENDBRANCH   5  23
TORSDOF 4
ENDMDL
MODEL 3
REMARK VINA RESULT: -8.037884834      3.118     10.036
REMARK  4 active torsions:
REMARK  status: ('A' for Active; 'I' for Inactive)
REMARK       I    between atoms: N1_2  and  C2_4 
REMARK       I    between atoms: C2_4  and  N2_6 
REMARK    1  A    between atoms: C5_9  and  C6_10 
REMARK       I    between atoms: C6_10  and  N3_12 
REMARK    2  A    between atoms: N3_12  and  C7_14 
REMARK       I    between atoms: N4_17  and  C10_18 
REMARK    3  A    between atoms: C10_18  and  C11_20 
REMARK    4  A    between atoms: C11_20  and  C12_21 
ROOT
HETATM    1  C7  UNL     1      19.127  10.370  20.640  1.00  0.00     0.087 C 
HETATM    2  C8  UNL     1      19.368  11.752  20.088  1.00  0.00     0.045 C 
HETATM    3  C9  UNL     1      20.704  11.794  19.435  1.00  0.00     0.127 C 
HETATM    4  N4  UNL     1      21.749  11.127  20.136  1.00  0.00    -0.352 N 
HETATM    5  C10 UNL     1      23.099  11.444  19.817  1.00  0.00     0.220 C 
HETATM    6  O3  UNL     1      23.300  12.307  18.923  1.00  0.00    -0.273 OA
HETATM    7  C18 UNL     1      21.543  10.132  21.167  1.00  0.00     0.127 C 
HETATM    8  C19 UNL     1      20.155  10.139  21.728  1.00  0.00     0.045 C 
ENDROOT
BRANCH   1   9
HETATM    9  N3  UNL     1      17.820  10.309  21.205  1.00  0.00    -0.356 N 
HETATM   10  C6  UNL     1      16.847   9.431  20.677  1.00  0.00     0.223 C 
HETATM   11  O2  UNL     1      17.152   8.703  19.702  1.00  0.00    -0.273 OA
ATOM     12  H3  UNL     1      17.584  10.905  21.999  1.00  0.00     0.162 HD
BRANCH  10  13
HETATM   13  C5  UNL     1      15.471   9.340  21.241  1.00  0.00     0.097 C 
HETATM   14  C4  UNL     1      15.371   8.064  22.081  1.00  0.00     0.035 C 
HETATM   15  C3  UNL     1      15.885   8.559  23.422  1.00  0.00     0.128 C 
HETATM   16  N2  UNL     1      15.220   9.829  23.542  1.00  0.00    -0.333 N 
HETATM   17  C2  UNL     1      14.642  10.366  24.720  1.00  0.00     0.317 C 
HETATM   18  C20 UNL     1      15.251  10.452  22.246  1.00  0.00     0.141 C 
HETATM   19  N1  UNL     1      14.004  11.629  24.754  1.00  0.00    -0.347 N 
HETATM   20  O1  UNL     1      14.677   9.712  25.820  1.00  0.00    -0.247 OA
HETATM   21  C1  UNL     1      13.436  12.130  25.955  1.00  0.00     0.151 C 
ATOM     22  H1  UNL     1      13.951  12.188  23.903  1.00  0.00     0.163 HD
ENDBRANCH  10  13
ENDBRANCH   1   9
BRANCH   5  23
HETATM   23  C11 UNL     1      24.247  10.794  20.501  1.00  0.00     0.107 C 
BRANCH  23  24
HETATM   24  C12 UNL     1      25.518  11.501  19.999  1.00  0.00    -0.006 C 
HETATM   25  C13 UNL     1      26.155  12.314  21.056  1.00  0.00     0.005 C 
HETATM   26  C14 UNL     1      27.551  12.002  21.441  1.00  0.00     0.000 C 
HETATM   27  C15 UNL     1      28.328  11.137  20.506  1.00  0.00     0.000 C 
HETATM   28  C16 UNL     1      27.457   9.941  20.145  1.00  0.00     0.000 C 
HETATM   29  C17 UNL     1      26.349  10.501  19.288  1.00  0.00     0.005 C 
ENDBRANCH  23  24
ENDBRANCH   5  23
TORSDOF 4
ENDMDL
MODEL 4
REMARK VINA RESULT: -7.967462329      1.264      1.544
REMARK  4 active torsions:
REMARK  status: ('A' for Active; 'I' for Inactive)
REMARK       I    between atoms: N1_2  and  C2_4 
REMARK       I    between atoms: C2_4  and  N2_6 
REMARK    1  A    between atoms: C5_9  and  C6_10 
REMARK       I    between atoms: C6_10  and  N3_12 
REMARK    2  A    between atoms: N3_12  and  C7_14 
REMARK       I    between atoms: N4_17  and  C10_18 
REMARK    3  A    between atoms: C10_18  and  C11_20 
REMARK    4  A    between atoms: C11_20  and  C12_21 
ROOT
HETATM    1  C7  UNL     1      22.862  12.539  20.157  1.00  0.00     0.087 C 
HETATM    2  C8  UNL     1      22.191  11.356  19.506  1.00  0.00     0.045 C 
HETATM    3  C9  UNL     1      20.730  11.618  19.400  1.00  0.00     0.127 C 
HETATM    4  N4  UNL     1      20.131  12.223  20.542  1.00  0.00    -0.352 N 
HETATM    5  C10 UNL     1      18.720  12.144  20.699  1.00  0.00     0.220 C 
HETATM    6  O3  UNL     1      18.067  11.536  19.809  1.00  0.00    -0.273 OA
HETATM    7  C18 UNL     1      20.859  12.926  21.577  1.00  0.00     0.127 C 
HETATM    8  C19 UNL     1      22.328  12.632  21.571  1.00  0.00     0.045 C 
ENDROOT
BRANCH   1   9
HETATM    9  N3  UNL     1      24.270  12.319  20.198  1.00  0.00    -0.356 N 
HETATM   10  C6  UNL     1      25.120  12.922  19.245  1.00  0.00     0.223 C 
HETATM   11  O2  UNL     1      24.617  13.656  18.361  1.00  0.00    -0.273 OA
ATOM     12  H3  UNL     1      24.667  11.721  20.922  1.00  0.00     0.162 HD
BRANCH  10  13
HETATM   13  C5  UNL     1      26.596  12.715  19.256  1.00  0.00     0.097 C 
HETATM   14  C4  UNL     1      27.256  13.942  19.890  1.00  0.00     0.035 C 
HETATM   15  C3  UNL     1      27.197  13.573  21.363  1.00  0.00     0.128 C 
HETATM   16  N2  UNL     1      27.590  12.190  21.337  1.00  0.00    -0.333 N 
HETATM   17  C2  UNL     1      28.450  11.544  22.261  1.00  0.00     0.317 C 
HETATM   18  C20 UNL     1      26.951  11.585  20.199  1.00  0.00     0.141 C 
HETATM   19  N1  UNL     1      28.788  10.173  22.165  1.00  0.00    -0.347 N 
HETATM   20  O1  UNL     1      28.961  12.193  23.239  1.00  0.00    -0.247 OA
HETATM   21  C1  UNL     1      29.654   9.564  23.112  1.00  0.00     0.151 C 
ATOM     22  H1  UNL     1      28.405   9.614  21.403  1.00  0.00     0.163 HD
ENDBRANCH  10  13
ENDBRANCH   1   9
BRANCH   5  23
HETATM   23  C11 UNL     1      18.017  12.748  21.860  1.00  0.00     0.107 C 
BRANCH  23  24
HETATM   24  C12 UNL     1      16.920  11.753  22.278  1.00  0.00    -0.006 C 
HETATM   25  C13 UNL     1      17.466  10.617  23.048  1.00  0.00     0.005 C 
HETATM   26  C14 UNL     1      16.959  10.386  24.422  1.00  0.00     0.000 C 
HETATM   27  C15 UNL     1      15.697  11.086  24.798  1.00  0.00     0.000 C 
HETATM   28  C16 UNL     1      15.830  12.544  24.377  1.00  0.00     0.000 C 
HETATM   29  C17 UNL     1      15.801  12.527  22.868  1.00  0.00     0.005 C 
ENDBRANCH  23  24
ENDBRANCH   5  23
TORSDOF 4
ENDMDL
MODEL 5
REMARK VINA RESULT: -7.942973609      1.018      1.146
REMARK  4 active torsions:
REMARK  status: ('A' for Active; 'I' for Inactive)
REMARK       I    between atoms: N1_2  and  C2_4 
REMARK       I    between atoms: C2_4  and  N2_6 
REMARK    1  A    between atoms: C5_9  and  C6_10 
REMARK       I    between atoms: C6_10  and  N3_12 
REMARK    2  A    between atoms: N3_12  and  C7_14 
REMARK       I    between atoms: N4_17  and  C10_18 
REMARK    3  A    between atoms: C10_18  and  C11_20 
REMARK    4  A    between atoms: C11_20  and  C12_21 
ROOT
HETATM    1  C7  UNL     1      22.133  11.425  19.584  1.00  0.00     0.087 C 
HETATM    2  C8  UNL     1      21.460  10.105  19.862  1.00  0.00     0.045 C 
HETATM    3  C9  UNL     1      19.984  10.296  19.859  1.00  0.00     0.127 C 
HETATM    4  N4  UNL     1      19.517  11.472  20.511  1.00  0.00    -0.352 N 
HETATM    5  C10 UNL     1      18.153  11.540  20.908  1.00  0.00     0.220 C 
HETATM    6  O3  UNL     1      17.423  10.545  20.658  1.00  0.00    -0.273 OA
HETATM    7  C18 UNL     1      20.337  12.628  20.809  1.00  0.00     0.127 C 
HETATM    8  C19 UNL     1      21.806  12.345  20.741  1.00  0.00     0.045 C 
ENDROOT
BRANCH   1   9
HETATM    9  N3  UNL     1      23.543  11.231  19.519  1.00  0.00    -0.356 N 
HETATM   10  C6  UNL     1      24.336  11.997  18.635  1.00  0.00     0.223 C 
HETATM   11  O2  UNL     1      23.778  12.852  17.907  1.00  0.00    -0.273 OA
ATOM     12  H3  UNL     1      23.985  10.532  20.117  1.00  0.00     0.162 HD
BRANCH  10  13
HETATM   13  C5  UNL     1      25.812  11.821  18.540  1.00  0.00     0.097 C 
HETATM   14  C4  UNL     1      26.482  13.173  18.799  1.00  0.00     0.035 C 
HETATM   15  C3  UNL     1      26.582  13.161  20.315  1.00  0.00     0.128 C 
HETATM   16  N2  UNL     1      27.026  11.816  20.571  1.00  0.00    -0.333 N 
HETATM   17  C2  UNL     1      27.996  11.421  21.525  1.00  0.00     0.317 C 
HETATM   18  C20 UNL     1      26.303  10.951  19.678  1.00  0.00     0.141 C 
HETATM   19  N1  UNL     1      28.378  10.071  21.715  1.00  0.00    -0.347 N 
HETATM   20  O1  UNL     1      28.575  12.290  22.266  1.00  0.00    -0.247 OA
HETATM   21  C1  UNL     1      29.355   9.716  22.683  1.00  0.00     0.151 C 
ATOM     22  H1  UNL     1      27.945   9.342  21.149  1.00  0.00     0.163 HD
ENDBRANCH  10  13
ENDBRANCH   1   9
BRANCH   5  23
HETATM   23  C11 UNL     1      17.586  12.731  21.593  1.00  0.00     0.107 C 
BRANCH  23  24
HETATM   24  C12 UNL     1      16.646  12.202  22.691  1.00  0.00    -0.006 C 
HETATM   25  C13 UNL     1      17.387  11.766  23.892  1.00  0.00     0.005 C 
HETATM   26  C14 UNL     1      17.082  12.421  25.186  1.00  0.00     0.000 C 
HETATM   27  C15 UNL     1      15.820  13.213  25.257  1.00  0.00     0.000 C 
HETATM   28  C16 UNL     1      15.765  14.112  24.029  1.00  0.00     0.000 C 
HETATM   29  C17 UNL     1      15.546  13.180  22.863  1.00  0.00     0.005 C 
ENDBRANCH  23  24
ENDBRANCH   5  23
TORSDOF 4
ENDMDL
