MODEL 1
REMARK VINA RESULT: -8.727919975      0.000      0.000
REMARK  4 active torsions:
REMARK  status: ('A' for Active; 'I' for Inactive)
REMARK       I    between atoms: N1_2  and  C2_4 
REMARK    1  A    between atoms: C2_4  and  C3_6 
REMARK       I    between atoms: N2_10  and  C7_11 
REMARK    2  A    between atoms: C7_11  and  C8_13 
REMARK    3  A    between atoms: C11_16  and  C12_17 
REMARK       I    between atoms: C12_17  and  N3_19 
REMARK    4  A    between atoms: N3_19  and  C13_21 
ROOT
HETATM    1  C8  UNL     1      21.267  12.321  20.433  1.00  0.00     0.078 C 
HETATM    2  C9  UNL     1      20.563  12.761  21.703  1.00  0.00     0.015 C 
HETATM    3  C10 UNL     1      19.090  12.949  21.512  1.00  0.00     0.015 C 
HETATM    4  C11 UNL     1      18.406  11.938  20.665  1.00  0.00     0.078 C 
HETATM    5  C20 UNL     1      19.218  11.474  19.476  1.00  0.00     0.015 C 
HETATM    6  C21 UNL     1      20.556  11.044  19.996  1.00  0.00     0.015 C 
ENDROOT
BRANCH   1   7
HETATM    7  C7  UNL     1      22.654  11.925  20.799  1.00  0.00     0.224 C 
HETATM    8  N2  UNL     1      23.685  11.810  19.843  1.00  0.00    -0.338 N 
HETATM    9  C3  UNL     1      25.040  11.407  20.109  1.00  0.00     0.179 C 
HETATM   10  C6  UNL     1      23.584  12.091  18.438  1.00  0.00     0.127 C 
HETATM   11  C4  UNL     1      25.346  10.506  18.920  1.00  0.00     0.037 C 
HETATM   12  C5  UNL     1      24.368  10.914  17.845  1.00  0.00     0.022 C 
HETATM   13  O2  UNL     1      22.906  11.681  22.025  1.00  0.00    -0.273 OA
BRANCH   9  14
HETATM   14  C2  UNL     1      25.942  12.579  20.173  1.00  0.00     0.240 C 
HETATM   15  N1  UNL     1      25.673  13.628  21.085  1.00  0.00    -0.364 N 
HETATM   16  C1  UNL     1      26.514  14.807  21.201  1.00  0.00     0.149 C 
ATOM     17  H1  UNL     1      24.854  13.553  21.687  1.00  0.00     0.161 HD
HETATM   18  O1  UNL     1      26.965  12.708  19.446  1.00  0.00    -0.271 OA
ENDBRANCH   9  14
ENDBRANCH   1   7
BRANCH   4  19
HETATM   19  C12 UNL     1      17.910  10.784  21.467  1.00  0.00     0.222 C 
HETATM   20  O3  UNL     1      17.880   9.660  20.915  1.00  0.00    -0.273 OA
HETATM   21  N3  UNL     1      17.479  10.896  22.807  1.00  0.00    -0.356 N 
ATOM     22  H3  UNL     1      17.497  11.802  23.273  1.00  0.00     0.162 HD
BRANCH  21  23
HETATM   23  C13 UNL     1      17.018   9.744  23.507  1.00  0.00     0.088 C 
HETATM   24  C14 UNL     1      16.767   9.975  24.985  1.00  0.00     0.030 C 
HETATM   25  C15 UNL     1      15.485   9.258  25.316  1.00  0.00    -0.012 C 
HETATM   26  C16 UNL     1      14.353  10.139  24.848  1.00  0.00     0.005 C 
HETATM   27  C19 UNL     1      15.464   8.192  24.206  1.00  0.00     0.011 C 
HETATM   28  C17 UNL     1      14.601  10.163  23.332  1.00  0.00     0.007 C 
HETATM   29  C18 UNL     1      15.700   9.193  23.056  1.00  0.00     0.009 C 
ENDBRANCH  21  23
ENDBRANCH   4  19
TORSDOF 4
ENDMDL
MODEL 2
REMARK VINA RESULT: -8.710693070      2.924      8.865
REMARK  4 active torsions:
REMARK  status: ('A' for Active; 'I' for Inactive)
REMARK       I    between atoms: N1_2  and  C2_4 
REMARK    1  A    between atoms: C2_4  and  C3_6 
REMARK       I    between atoms: N2_10  and  C7_11 
REMARK    2  A    between atoms: C7_11  and  C8_13 
REMARK    3  A    between atoms: C11_16  and  C12_17 
REMARK       I    between atoms: C12_17  and  N3_19 
REMARK    4  A    between atoms: N3_19  and  C13_21 
ROOT
HETATM    1  C8  UNL     1      22.181  11.859  19.547  1.00  0.00     0.078 C 
HETATM    2  C9  UNL     1      22.991  10.677  20.045  1.00  0.00     0.015 C 
HETATM    3  C10 UNL     1      23.895  10.112  18.994  1.00  0.00     0.015 C 
HETATM    4  C11 UNL     1      24.588  11.101  18.127  1.00  0.00     0.078 C 
HETATM    5  C20 UNL     1      23.743  12.303  17.761  1.00  0.00     0.015 C 
HETATM    6  C21 UNL     1      23.204  12.869  19.039  1.00  0.00     0.015 C 
ENDROOT
BRANCH   1   7
HETATM    7  C7  UNL     1      21.523  12.484  20.726  1.00  0.00     0.224 C 
HETATM    8  N2  UNL     1      20.236  12.106  21.165  1.00  0.00    -0.338 N 
HETATM    9  C3  UNL     1      19.521  12.678  22.274  1.00  0.00     0.179 C 
HETATM   10  C6  UNL     1      19.413  11.071  20.605  1.00  0.00     0.127 C 
HETATM   11  C4  UNL     1      18.101  12.764  21.730  1.00  0.00     0.037 C 
HETATM   12  C5  UNL     1      18.039  11.754  20.610  1.00  0.00     0.022 C 
HETATM   13  O2  UNL     1      22.156  13.397  21.354  1.00  0.00    -0.273 OA
BRANCH   9  14
HETATM   14  C2  UNL     1      19.613  11.813  23.471  1.00  0.00     0.240 C 
HETATM   15  N1  UNL     1      20.877  11.535  24.046  1.00  0.00    -0.364 N 
HETATM   16  C1  UNL     1      21.041  10.694  25.220  1.00  0.00     0.149 C 
ATOM     17  H1  UNL     1      21.707  11.942  23.618  1.00  0.00     0.161 HD
HETATM   18  O1  UNL     1      18.610  11.292  24.030  1.00  0.00    -0.271 OA
ENDBRANCH   9  14
ENDBRANCH   1   7
BRANCH   4  19
HETATM   19  C12 UNL     1      25.902  11.515  18.694  1.00  0.00     0.222 C 
HETATM   20  O3  UNL     1      26.559  12.382  18.073  1.00  0.00    -0.273 OA
HETATM   21  N3  UNL     1      26.437  10.981  19.887  1.00  0.00    -0.356 N 
ATOM     22  H3  UNL     1      25.916  10.275  20.407  1.00  0.00     0.162 HD
BRANCH  21  23
HETATM   23  C13 UNL     1      27.703  11.429  20.365  1.00  0.00     0.088 C 
HETATM   24  C14 UNL     1      27.788  11.554  21.874  1.00  0.00     0.030 C 
HETATM   25  C15 UNL     1      29.133  11.008  22.271  1.00  0.00    -0.012 C 
HETATM   26  C16 UNL     1      29.017   9.504  22.268  1.00  0.00     0.005 C 
HETATM   27  C19 UNL     1      29.918  11.215  20.963  1.00  0.00     0.011 C 
HETATM   28  C17 UNL     1      28.722   9.231  20.785  1.00  0.00     0.007 C 
HETATM   29  C18 UNL     1      28.864  10.530  20.067  1.00  0.00     0.009 C 
ENDBRANCH  21  23
ENDBRANCH   4  19
TORSDOF 4
ENDMDL
MODEL 3
REMARK VINA RESULT: -8.462886025      2.355      9.038
REMARK  4 active torsions:
REMARK  status: ('A' for Active; 'I' for Inactive)
REMARK       I    between atoms: N1_2  and  C2_4 
REMARK    1  A    between atoms: C2_4  and  C3_6 
REMARK       I    between atoms: N2_10  and  C7_11 
REMARK    2  A    between atoms: C7_11  and  C8_13 
REMARK    3  A    between atoms: C11_16  and  C12_17 
REMARK       I    between atoms: C12_17  and  N3_19 
REMARK    4  A    between atoms: N3_19  and  C13_21 
ROOT
HETATM    1  C8  UNL     1      22.223  10.934  19.837  1.00  0.00     0.078 C 
HETATM    2  C9  UNL     1      23.265   9.872  19.541  1.00  0.00     0.015 C 
HETATM    3  C10 UNL     1      24.019  10.139  18.275  1.00  0.00     0.015 C 
HETATM    4  C11 UNL     1      24.392  11.555  18.022  1.00  0.00     0.078 C 
HETATM    5  C20 UNL     1      23.340  12.558  18.442  1.00  0.00     0.015 C 
HETATM    6  C21 UNL     1      22.985  12.255  19.866  1.00  0.00     0.015 C 
ENDROOT
BRANCH   1   7
HETATM    7  C7  UNL     1      21.726  10.706  21.222  1.00  0.00     0.224 C 
HETATM    8  N2  UNL     1      20.683  11.470  21.786  1.00  0.00    -0.338 N 
HETATM    9  C3  UNL     1      20.165  11.333  23.122  1.00  0.00     0.179 C 
HETATM   10  C6  UNL     1      19.932  12.506  21.134  1.00  0.00     0.127 C 
HETATM   11  C4  UNL     1      19.960  12.783  23.537  1.00  0.00     0.037 C 
HETATM   12  C5  UNL     1      19.857  13.560  22.246  1.00  0.00     0.022 C 
HETATM   13  O2  UNL     1      22.274   9.785  21.913  1.00  0.00    -0.273 OA
BRANCH   9  14
HETATM   14  C2  UNL     1      18.901  10.563  23.126  1.00  0.00     0.240 C 
HETATM   15  N1  UNL     1      18.179  10.396  24.332  1.00  0.00    -0.364 N 
HETATM   16  C1  UNL     1      16.933   9.653  24.410  1.00  0.00     0.149 C 
ATOM     17  H1  UNL     1      18.550  10.816  25.184  1.00  0.00     0.161 HD
HETATM   18  O1  UNL     1      18.409  10.030  22.094  1.00  0.00    -0.271 OA
ENDBRANCH   9  14
ENDBRANCH   1   7
BRANCH   4  19
HETATM   19  C12 UNL     1      25.723  11.891  18.601  1.00  0.00     0.222 C 
HETATM   20  O3  UNL     1      26.306  12.913  18.170  1.00  0.00    -0.273 OA
HETATM   21  N3  UNL     1      26.353  11.121  19.603  1.00  0.00    -0.356 N 
ATOM     22  H3  UNL     1      25.894  10.286  19.966  1.00  0.00     0.162 HD
BRANCH  21  23
HETATM   23  C13 UNL     1      27.629  11.508  20.106  1.00  0.00     0.088 C 
HETATM   24  C14 UNL     1      27.699  11.600  21.618  1.00  0.00     0.030 C 
HETATM   25  C15 UNL     1      29.016  10.993  22.020  1.00  0.00    -0.012 C 
HETATM   26  C16 UNL     1      28.842   9.495  21.984  1.00  0.00     0.005 C 
HETATM   27  C19 UNL     1      29.826  11.196  20.727  1.00  0.00     0.011 C 
HETATM   28  C17 UNL     1      28.557   9.265  20.492  1.00  0.00     0.007 C 
HETATM   29  C18 UNL     1      28.759  10.572  19.803  1.00  0.00     0.009 C 
ENDBRANCH  21  23
ENDBRANCH   4  19
TORSDOF 4
ENDMDL
MODEL 4
REMARK VINA RESULT: -8.293329376      2.629      9.094
REMARK  4 active torsions:
REMARK  status: ('A' for Active; 'I' for Inactive)
REMARK       I    between atoms: N1_2  and  C2_4 
REMARK    1  A    between atoms: C2_4  and  C3_6 
REMARK       I    between atoms: N2_10  and  C7_11 
REMARK    2  A    between atoms: C7_11  and  C8_13 
REMARK    3  A    between atoms: C11_16  and  C12_17 
REMARK       I    between atoms: C12_17  and  N3_19 
REMARK    4  A    between atoms: N3_19  and  C13_21 
ROOT
HETATM    1  C8  UNL     1      22.706  12.576  19.482  1.00  0.00     0.078 C 
HETATM    2  C9  UNL     1      23.801  12.083  18.555  1.00  0.00     0.015 C 
HETATM    3  C10 UNL     1      24.722  13.178  18.114  1.00  0.00     0.015 C 
HETATM    4  C11 UNL     1      25.099  14.173  19.152  1.00  0.00     0.078 C 
HETATM    5  C20 UNL     1      23.977  14.533  20.101  1.00  0.00     0.015 C 
HETATM    6  C21 UNL     1      23.429  13.248  20.644  1.00  0.00     0.015 C 
ENDROOT
BRANCH   1   7
HETATM    7  C7  UNL     1      22.022  11.381  20.047  1.00  0.00     0.224 C 
HETATM    8  N2  UNL     1      20.791  11.468  20.732  1.00  0.00    -0.338 N 
HETATM    9  C3  UNL     1      20.080  10.371  21.332  1.00  0.00     0.179 C 
HETATM   10  C6  UNL     1      20.011  12.656  20.941  1.00  0.00     0.127 C 
HETATM   11  C4  UNL     1      19.585  10.982  22.635  1.00  0.00     0.037 C 
HETATM   12  C5  UNL     1      19.584  12.474  22.404  1.00  0.00     0.022 C 
HETATM   13  O2  UNL     1      22.579  10.244  19.903  1.00  0.00    -0.273 OA
BRANCH   9  14
HETATM   14  C2  UNL     1      18.969   9.919  20.465  1.00  0.00     0.240 C 
HETATM   15  N1  UNL     1      17.733   9.536  21.040  1.00  0.00    -0.364 N 
HETATM   16  C1  UNL     1      16.602   9.083  20.250  1.00  0.00     0.149 C 
ATOM     17  H1  UNL     1      17.633   9.581  22.054  1.00  0.00     0.161 HD
HETATM   18  O1  UNL     1      19.053   9.850  19.208  1.00  0.00    -0.271 OA
ENDBRANCH   9  14
ENDBRANCH   1   7
BRANCH   4  19
HETATM   19  C12 UNL     1      26.327  13.767  19.892  1.00  0.00     0.222 C 
HETATM   20  O3  UNL     1      26.845  14.603  20.666  1.00  0.00    -0.273 OA
HETATM   21  N3  UNL     1      26.927  12.495  19.764  1.00  0.00    -0.356 N 
ATOM     22  H3  UNL     1      26.519  11.800  19.139  1.00  0.00     0.162 HD
BRANCH  21  23
HETATM   23  C13 UNL     1      28.103  12.182  20.506  1.00  0.00     0.088 C 
HETATM   24  C14 UNL     1      27.833  11.620  21.889  1.00  0.00     0.030 C 
HETATM   25  C15 UNL     1      28.810  10.492  22.087  1.00  0.00    -0.012 C 
HETATM   26  C16 UNL     1      28.261   9.298  21.347  1.00  0.00     0.005 C 
HETATM   27  C19 UNL     1      29.927  10.914  21.116  1.00  0.00     0.011 C 
HETATM   28  C17 UNL     1      28.288   9.808  19.898  1.00  0.00     0.007 C 
HETATM   29  C18 UNL     1      28.984  11.126  19.913  1.00  0.00     0.009 C 
ENDBRANCH  21  23
ENDBRANCH   4  19
TORSDOF 4
ENDMDL
MODEL 5
REMARK VINA RESULT: -8.282858521      1.762      9.209
REMARK  4 active torsions:
REMARK  status: ('A' for Active; 'I' for Inactive)
REMARK       I    between atoms: N1_2  and  C2_4 
REMARK    1  A    between atoms: C2_4  and  C3_6 
REMARK       I    between atoms: N2_10  and  C7_11 
REMARK    2  A    between atoms: C7_11  and  C8_13 
REMARK    3  A    between atoms: C11_16  and  C12_17 
REMARK       I    between atoms: C12_17  and  N3_19 
REMARK    4  A    between atoms: N3_19  and  C13_21 
ROOT
HETATM    1  C8  UNL     1      18.071  11.367  21.080  1.00  0.00     0.078 C 
HETATM    2  C9  UNL     1      18.530  10.800  19.750  1.00  0.00     0.015 C 
HETATM    3  C10 UNL     1      19.553  11.662  19.077  1.00  0.00     0.015 C 
HETATM    4  C11 UNL     1      20.587  12.261  19.960  1.00  0.00     0.078 C 
HETATM    5  C20 UNL     1      20.066  12.706  21.310  1.00  0.00     0.015 C 
HETATM    6  C21 UNL     1      19.339  11.541  21.908  1.00  0.00     0.015 C 
ENDROOT
BRANCH   1   7
HETATM    7  C7  UNL     1      17.263  10.319  21.762  1.00  0.00     0.224 C 
HETATM    8  N2  UNL     1      16.799  10.465  23.087  1.00  0.00    -0.338 N 
HETATM    9  C3  UNL     1      16.041   9.492  23.827  1.00  0.00     0.179 C 
HETATM   10  C6  UNL     1      16.977  11.612  23.933  1.00  0.00     0.127 C 
HETATM   11  C4  UNL     1      16.668   9.581  25.211  1.00  0.00     0.037 C 
HETATM   12  C5  UNL     1      17.322  10.940  25.269  1.00  0.00     0.022 C 
HETATM   13  O2  UNL     1      16.990   9.255  21.116  1.00  0.00    -0.273 OA
BRANCH   9  14
HETATM   14  C2  UNL     1      14.601   9.836  23.838  1.00  0.00     0.240 C 
HETATM   15  N1  UNL     1      13.860   9.736  25.041  1.00  0.00    -0.364 N 
HETATM   16  C1  UNL     1      12.446  10.057  25.124  1.00  0.00     0.149 C 
ATOM     17  H1  UNL     1      14.340   9.425  25.884  1.00  0.00     0.161 HD
HETATM   18  O1  UNL     1      13.972  10.225  22.817  1.00  0.00    -0.271 OA
ENDBRANCH   9  14
ENDBRANCH   1   7
BRANCH   4  19
HETATM   19  C12 UNL     1      21.778  11.376  20.104  1.00  0.00     0.222 C 
HETATM   20  O3  UNL     1      21.578  10.150  20.261  1.00  0.00    -0.273 OA
HETATM   21  N3  UNL     1      23.107  11.850  20.069  1.00  0.00    -0.356 N 
ATOM     22  H3  UNL     1      23.290  12.845  19.941  1.00  0.00     0.162 HD
BRANCH  21  23
HETATM   23  C13 UNL     1      24.194  10.939  20.214  1.00  0.00     0.088 C 
HETATM   24  C14 UNL     1      24.766  10.440  18.901  1.00  0.00     0.030 C 
HETATM   25  C15 UNL     1      26.262  10.441  19.062  1.00  0.00    -0.012 C 
HETATM   26  C16 UNL     1      26.725  11.865  18.877  1.00  0.00     0.005 C 
HETATM   27  C19 UNL     1      26.382  10.321  20.591  1.00  0.00     0.011 C 
HETATM   28  C17 UNL     1      26.039  12.557  20.064  1.00  0.00     0.007 C 
HETATM   29  C18 UNL     1      25.414  11.485  20.891  1.00  0.00     0.009 C 
ENDBRANCH  21  23
ENDBRANCH   4  19
TORSDOF 4
ENDMDL
