MODEL 1
REMARK VINA RESULT: -8.214999233      0.000      0.000
REMARK  4 active torsions:
REMARK  status: ('A' for Active; 'I' for Inactive)
REMARK       I    between atoms: C2_2  and  N1_4 
REMARK    1  A    between atoms: N1_4  and  C3_6 
REMARK    2  A    between atoms: C3_6  and  C4_7 
REMARK    3  A    between atoms: C3_6  and  C9_17 
REMARK       I    between atoms: C4_7  and  N2_9 
REMARK       I    between atoms: N4_20  and  C12_21 
REMARK    4  A    between atoms: C12_21  and  C13_23 
ROOT
HETATM    1  C3  UNL     1      26.331  12.610  19.197  1.00  0.00     0.105 C 
ENDROOT
BRANCH   1   2
HETATM    2  N1  UNL     1      26.911  13.668  18.473  1.00  0.00    -0.323 N 
HETATM    3  C2  UNL     1      26.695  15.041  18.343  1.00  0.00     0.218 C 
HETATM    4  C1  UNL     1      27.674  15.775  17.413  1.00  0.00     0.117 C 
HETATM    5  O1  UNL     1      25.854  15.792  18.848  1.00  0.00    -0.274 OA
ATOM      6  H1  UNL     1      27.690  13.351  17.896  1.00  0.00     0.169 HD
ENDBRANCH   1   2
BRANCH   1   7
HETATM    7  C4  UNL     1      26.962  12.500  20.574  1.00  0.00     0.270 C 
HETATM    8  O2  UNL     1      26.445  13.107  21.516  1.00  0.00    -0.266 OA
HETATM    9  N2  UNL     1      28.114  11.705  20.770  1.00  0.00    -0.344 N 
HETATM   10  C5  UNL     1      28.945  11.815  21.980  1.00  0.00     0.153 C 
HETATM   11  C8  UNL     1      28.511  10.574  19.925  1.00  0.00     0.153 C 
HETATM   12  C6  UNL     1      29.562  10.442  22.285  1.00  0.00     0.252 C 
HETATM   13  N3  UNL     1      28.647   9.353  22.068  1.00  0.00    -0.072 N 
HETATM   14  C7  UNL     1      28.276   9.242  20.657  1.00  0.00     0.252 C 
ATOM     15  H32 UNL     1      29.021   8.474  22.426  1.00  0.00     0.277 HD
ATOM     16  H31 UNL     1      27.825   9.430  22.666  1.00  0.00     0.277 HD
ENDBRANCH   1   7
BRANCH   1  17
HETATM   17  C9  UNL     1      24.996  12.061  19.064  1.00  0.00    -0.044 C 
HETATM   18  C10 UNL     1      24.931  10.540  19.268  1.00  0.00     0.056 C 
HETATM   19  C11 UNL     1      23.541  10.103  19.657  1.00  0.00     0.130 C 
HETATM   20  N4  UNL     1      22.513  11.068  19.532  1.00  0.00    -0.351 N 
HETATM   21  C12 UNL     1      21.259  10.716  20.168  1.00  0.00     0.224 C 
HETATM   22  C19 UNL     1      22.592  12.317  18.851  1.00  0.00     0.130 C 
HETATM   23  O3  UNL     1      21.164   9.609  20.723  1.00  0.00    -0.273 OA
HETATM   24  C20 UNL     1      23.951  12.406  18.109  1.00  0.00     0.056 C 
BRANCH  21  25
HETATM   25  C13 UNL     1      20.106  11.701  20.146  1.00  0.00     0.078 C 
HETATM   26  C14 UNL     1      20.225  12.528  21.391  1.00  0.00     0.014 C 
HETATM   27  C15 UNL     1      19.046  12.392  22.337  1.00  0.00     0.001 C 
HETATM   28  C16 UNL     1      17.796  12.692  21.473  1.00  0.00     0.000 C 
HETATM   29  C17 UNL     1      17.610  11.508  20.574  1.00  0.00     0.001 C 
HETATM   30  C18 UNL     1      18.848  10.932  19.973  1.00  0.00     0.014 C 
ENDBRANCH  21  25
ENDBRANCH   1  17
TORSDOF 4
ENDMDL
MODEL 2
REMARK VINA RESULT: -7.905645262      3.476      9.426
REMARK  4 active torsions:
REMARK  status: ('A' for Active; 'I' for Inactive)
REMARK       I    between atoms: C2_2  and  N1_4 
REMARK    1  A    between atoms: N1_4  and  C3_6 
REMARK    2  A    between atoms: C3_6  and  C4_7 
REMARK    3  A    between atoms: C3_6  and  C9_17 
REMARK       I    between atoms: C4_7  and  N2_9 
REMARK       I    between atoms: N4_20  and  C12_21 
REMARK    4  A    between atoms: C12_21  and  C13_23 
ROOT
HETATM    1  C3  UNL     1      17.441  11.024  21.477  1.00  0.00     0.105 C 
ENDROOT
BRANCH   1   2
HETATM    2  N1  UNL     1      16.621  10.047  20.883  1.00  0.00    -0.323 N 
HETATM    3  C2  UNL     1      16.810   8.928  20.070  1.00  0.00     0.218 C 
HETATM    4  C1  UNL     1      15.534   8.149  19.718  1.00  0.00     0.117 C 
HETATM    5  O1  UNL     1      17.829   8.434  19.575  1.00  0.00    -0.274 OA
ATOM      6  H1  UNL     1      15.636  10.193  21.104  1.00  0.00     0.169 HD
ENDBRANCH   1   2
BRANCH   1   7
HETATM    7  C4  UNL     1      17.257  11.026  22.985  1.00  0.00     0.270 C 
HETATM    8  O2  UNL     1      18.015  10.340  23.677  1.00  0.00    -0.266 OA
HETATM    9  N2  UNL     1      16.244  11.810  23.580  1.00  0.00    -0.344 N 
HETATM   10  C5  UNL     1      15.813  11.607  24.973  1.00  0.00     0.153 C 
HETATM   11  C8  UNL     1      15.646  13.009  22.984  1.00  0.00     0.153 C 
HETATM   12  C6  UNL     1      15.360  12.955  25.554  1.00  0.00     0.252 C 
HETATM   13  N3  UNL     1      16.200  14.052  25.153  1.00  0.00    -0.072 N 
HETATM   14  C7  UNL     1      16.133  14.275  23.708  1.00  0.00     0.252 C 
ATOM     15  H32 UNL     1      15.980  14.901  25.673  1.00  0.00     0.277 HD
ATOM     16  H31 UNL     1      17.162  13.920  25.466  1.00  0.00     0.277 HD
ENDBRANCH   1   7
BRANCH   1  17
HETATM   17  C9  UNL     1      18.699  11.553  20.990  1.00  0.00    -0.044 C 
HETATM   18  C10 UNL     1      19.139  12.847  21.693  1.00  0.00     0.056 C 
HETATM   19  C11 UNL     1      20.627  13.055  21.568  1.00  0.00     0.130 C 
HETATM   20  N4  UNL     1      21.312  12.213  20.659  1.00  0.00    -0.351 N 
HETATM   21  C12 UNL     1      22.758  12.242  20.763  1.00  0.00     0.224 C 
HETATM   22  C19 UNL     1      20.729  11.367  19.672  1.00  0.00     0.130 C 
HETATM   23  O3  UNL     1      23.278  13.012  21.588  1.00  0.00    -0.273 OA
HETATM   24  C20 UNL     1      19.200  11.623  19.623  1.00  0.00     0.056 C 
BRANCH  21  25
HETATM   25  C13 UNL     1      23.591  11.336  19.877  1.00  0.00     0.078 C 
HETATM   26  C14 UNL     1      24.444  10.509  20.791  1.00  0.00     0.014 C 
HETATM   27  C15 UNL     1      25.935  10.729  20.610  1.00  0.00     0.001 C 
HETATM   28  C16 UNL     1      26.196  10.509  19.099  1.00  0.00     0.000 C 
HETATM   29  C17 UNL     1      25.620  11.699  18.394  1.00  0.00     0.001 C 
HETATM   30  C18 UNL     1      24.300  12.187  18.889  1.00  0.00     0.014 C 
ENDBRANCH  21  25
ENDBRANCH   1  17
TORSDOF 4
ENDMDL
MODEL 3
REMARK VINA RESULT: -7.841430321      4.107      9.944
REMARK  4 active torsions:
REMARK  status: ('A' for Active; 'I' for Inactive)
REMARK       I    between atoms: C2_2  and  N1_4 
REMARK    1  A    between atoms: N1_4  and  C3_6 
REMARK    2  A    between atoms: C3_6  and  C4_7 
REMARK    3  A    between atoms: C3_6  and  C9_17 
REMARK       I    between atoms: C4_7  and  N2_9 
REMARK       I    between atoms: N4_20  and  C12_21 
REMARK    4  A    between atoms: C12_21  and  C13_23 
ROOT
HETATM    1  C3  UNL     1      16.679  11.155  22.395  1.00  0.00     0.105 C 
ENDROOT
BRANCH   1   2
HETATM    2  N1  UNL     1      16.108   9.881  22.225  1.00  0.00    -0.323 N 
HETATM    3  C2  UNL     1      15.987   8.959  21.183  1.00  0.00     0.218 C 
HETATM    4  C1  UNL     1      15.275   7.648  21.547  1.00  0.00     0.117 C 
HETATM    5  O1  UNL     1      16.357   8.996  20.005  1.00  0.00    -0.274 OA
ATOM      6  H1  UNL     1      15.670   9.544  23.082  1.00  0.00     0.169 HD
ENDBRANCH   1   2
BRANCH   1   7
HETATM    7  C4  UNL     1      16.500  11.631  23.826  1.00  0.00     0.270 C 
HETATM    8  O2  UNL     1      17.249  11.185  24.699  1.00  0.00    -0.266 OA
HETATM    9  N2  UNL     1      15.499  12.578  24.144  1.00  0.00    -0.344 N 
HETATM   10  C5  UNL     1      15.070  12.827  25.529  1.00  0.00     0.153 C 
HETATM   11  C8  UNL     1      14.918  13.538  23.201  1.00  0.00     0.153 C 
HETATM   12  C6  UNL     1      14.638  14.295  25.659  1.00  0.00     0.252 C 
HETATM   13  N3  UNL     1      15.494  15.199  24.937  1.00  0.00    -0.072 N 
HETATM   14  C7  UNL     1      15.426  14.960  23.495  1.00  0.00     0.252 C 
ATOM     15  H32 UNL     1      15.287  16.171  25.165  1.00  0.00     0.277 HD
ATOM     16  H31 UNL     1      16.454  15.157  25.278  1.00  0.00     0.277 HD
ENDBRANCH   1   7
BRANCH   1  17
HETATM   17  C9  UNL     1      17.781  11.748  21.662  1.00  0.00    -0.044 C 
HETATM   18  C10 UNL     1      18.449  12.921  22.393  1.00  0.00     0.056 C 
HETATM   19  C11 UNL     1      19.856  13.141  21.896  1.00  0.00     0.130 C 
HETATM   20  N4  UNL     1      20.233  12.441  20.724  1.00  0.00    -0.351 N 
HETATM   21  C12 UNL     1      21.653  12.450  20.433  1.00  0.00     0.224 C 
HETATM   22  C19 UNL     1      19.368  11.752  19.825  1.00  0.00     0.130 C 
HETATM   23  O3  UNL     1      22.410  13.088  21.184  1.00  0.00    -0.273 OA
HETATM   24  C20 UNL     1      17.896  12.017  20.234  1.00  0.00     0.056 C 
BRANCH  21  25
HETATM   25  C13 UNL     1      22.176  11.683  19.234  1.00  0.00     0.078 C 
HETATM   26  C14 UNL     1      22.353  10.262  19.677  1.00  0.00     0.014 C 
HETATM   27  C15 UNL     1      23.788   9.771  19.614  1.00  0.00     0.001 C 
HETATM   28  C16 UNL     1      24.252  10.063  18.165  1.00  0.00     0.000 C 
HETATM   29  C17 UNL     1      24.429  11.548  18.070  1.00  0.00     0.001 C 
HETATM   30  C18 UNL     1      23.385  12.383  18.733  1.00  0.00     0.014 C 
ENDBRANCH  21  25
ENDBRANCH   1  17
TORSDOF 4
ENDMDL
MODEL 4
REMARK VINA RESULT: -7.790482010      3.614      5.388
REMARK  4 active torsions:
REMARK  status: ('A' for Active; 'I' for Inactive)
REMARK       I    between atoms: C2_2  and  N1_4 
REMARK    1  A    between atoms: N1_4  and  C3_6 
REMARK    2  A    between atoms: C3_6  and  C4_7 
REMARK    3  A    between atoms: C3_6  and  C9_17 
REMARK       I    between atoms: C4_7  and  N2_9 
REMARK       I    between atoms: N4_20  and  C12_21 
REMARK    4  A    between atoms: C12_21  and  C13_23 
ROOT
HETATM    1  C3  UNL     1      22.139  11.760  20.853  1.00  0.00     0.105 C 
ENDROOT
BRANCH   1   2
HETATM    2  N1  UNL     1      22.965  11.281  19.819  1.00  0.00    -0.323 N 
HETATM    3  C2  UNL     1      23.509  11.795  18.641  1.00  0.00     0.218 C 
HETATM    4  C1  UNL     1      24.412  10.829  17.858  1.00  0.00     0.117 C 
HETATM    5  O1  UNL     1      23.406  12.902  18.102  1.00  0.00    -0.274 OA
ATOM      6  H1  UNL     1      23.236  10.309  19.970  1.00  0.00     0.169 HD
ENDBRANCH   1   2
BRANCH   1   7
HETATM    7  C4  UNL     1      22.822  12.895  21.595  1.00  0.00     0.270 C 
HETATM    8  O2  UNL     1      22.888  14.003  21.055  1.00  0.00    -0.266 OA
HETATM    9  N2  UNL     1      23.359  12.684  22.885  1.00  0.00    -0.344 N 
HETATM   10  C5  UNL     1      24.298  13.632  23.506  1.00  0.00     0.153 C 
HETATM   11  C8  UNL     1      22.922  11.643  23.820  1.00  0.00     0.153 C 
HETATM   12  C6  UNL     1      24.098  13.605  25.029  1.00  0.00     0.252 C 
HETATM   13  N3  UNL     1      22.713  13.519  25.412  1.00  0.00    -0.072 N 
HETATM   14  C7  UNL     1      22.116  12.257  24.977  1.00  0.00     0.252 C 
ATOM     15  H32 UNL     1      22.594  13.663  26.415  1.00  0.00     0.277 HD
ATOM     16  H31 UNL     1      22.182  14.321  25.073  1.00  0.00     0.277 HD
ENDBRANCH   1   7
BRANCH   1  17
HETATM   17  C9  UNL     1      20.692  11.731  20.928  1.00  0.00    -0.044 C 
HETATM   18  C10 UNL     1      20.022  11.095  19.700  1.00  0.00     0.056 C 
HETATM   19  C11 UNL     1      18.637  10.599  20.032  1.00  0.00     0.130 C 
HETATM   20  N4  UNL     1      18.100  11.000  21.279  1.00  0.00    -0.351 N 
HETATM   21  C12 UNL     1      16.904  10.293  21.690  1.00  0.00     0.224 C 
HETATM   22  C19 UNL     1      18.609  12.014  22.142  1.00  0.00     0.130 C 
HETATM   23  O3  UNL     1      16.425   9.441  20.923  1.00  0.00    -0.273 OA
HETATM   24  C20 UNL     1      19.777  12.747  21.431  1.00  0.00     0.056 C 
BRANCH  21  25
HETATM   25  C13 UNL     1      16.276  10.601  23.035  1.00  0.00     0.078 C 
HETATM   26  C14 UNL     1      16.907   9.670  24.026  1.00  0.00     0.014 C 
HETATM   27  C15 UNL     1      15.928   8.714  24.683  1.00  0.00     0.001 C 
HETATM   28  C16 UNL     1      14.807   9.615  25.258  1.00  0.00     0.000 C 
HETATM   29  C17 UNL     1      14.017  10.107  24.084  1.00  0.00     0.001 C 
HETATM   30  C18 UNL     1      14.802  10.517  22.884  1.00  0.00     0.014 C 
ENDBRANCH  21  25
ENDBRANCH   1  17
TORSDOF 4
ENDMDL
MODEL 5
REMARK VINA RESULT: -7.786180175      1.599      3.871
REMARK  4 active torsions:
REMARK  status: ('A' for Active; 'I' for Inactive)
REMARK       I    between atoms: C2_2  and  N1_4 
REMARK    1  A    between atoms: N1_4  and  C3_6 
REMARK    2  A    between atoms: C3_6  and  C4_7 
REMARK    3  A    between atoms: C3_6  and  C9_17 
REMARK       I    between atoms: C4_7  and  N2_9 
REMARK       I    between atoms: N4_20  and  C12_21 
REMARK    4  A    between atoms: C12_21  and  C13_23 
ROOT
HETATM    1  C3  UNL     1      25.603  11.396  19.880  1.00  0.00     0.105 C 
ENDROOT
BRANCH   1   2
HETATM    2  N1  UNL     1      26.507  10.440  20.380  1.00  0.00    -0.323 N 
HETATM    3  C2  UNL     1      27.708  10.462  21.092  1.00  0.00     0.218 C 
HETATM    4  C1  UNL     1      28.293   9.083  21.433  1.00  0.00     0.117 C 
HETATM    5  O1  UNL     1      28.397  11.396  21.514  1.00  0.00    -0.274 OA
ATOM      6  H1  UNL     1      26.210   9.488  20.167  1.00  0.00     0.169 HD
ENDBRANCH   1   2
BRANCH   1   7
HETATM    7  C4  UNL     1      26.311  12.355  18.939  1.00  0.00     0.270 C 
HETATM    8  O2  UNL     1      26.695  11.936  17.843  1.00  0.00    -0.266 OA
HETATM    9  N2  UNL     1      26.511  13.703  19.311  1.00  0.00    -0.344 N 
HETATM   10  C5  UNL     1      27.456  14.579  18.599  1.00  0.00     0.153 C 
HETATM   11  C8  UNL     1      25.699  14.438  20.285  1.00  0.00     0.153 C 
HETATM   12  C6  UNL     1      26.934  16.023  18.654  1.00  0.00     0.252 C 
HETATM   13  N3  UNL     1      25.508  16.112  18.479  1.00  0.00    -0.072 N 
HETATM   14  C7  UNL     1      24.794  15.459  19.576  1.00  0.00     0.252 C 
ATOM     15  H32 UNL     1      25.207  17.079  18.360  1.00  0.00     0.277 HD
ATOM     16  H31 UNL     1      25.220  15.744  17.573  1.00  0.00     0.277 HD
ENDBRANCH   1   7
BRANCH   1  17
HETATM   17  C9  UNL     1      24.172  11.262  19.694  1.00  0.00    -0.044 C 
HETATM   18  C10 UNL     1      23.691   9.805  19.628  1.00  0.00     0.056 C 
HETATM   19  C11 UNL     1      22.227   9.699  19.977  1.00  0.00     0.130 C 
HETATM   20  N4  UNL     1      21.504  10.914  20.056  1.00  0.00    -0.351 N 
HETATM   21  C12 UNL     1      20.190  10.808  20.659  1.00  0.00     0.224 C 
HETATM   22  C19 UNL     1      21.933  12.195  19.604  1.00  0.00     0.130 C 
HETATM   23  O3  UNL     1      19.786   9.687  21.012  1.00  0.00    -0.273 OA
HETATM   24  C20 UNL     1      23.278  12.042  18.848  1.00  0.00     0.056 C 
BRANCH  21  25
HETATM   25  C13 UNL     1      19.349  12.056  20.847  1.00  0.00     0.078 C 
HETATM   26  C14 UNL     1      19.760  12.656  22.158  1.00  0.00     0.014 C 
HETATM   27  C15 UNL     1      18.644  12.714  23.185  1.00  0.00     0.001 C 
HETATM   28  C16 UNL     1      17.476  13.442  22.474  1.00  0.00     0.000 C 
HETATM   29  C17 UNL     1      16.924  12.474  21.472  1.00  0.00     0.001 C 
HETATM   30  C18 UNL     1      17.922  11.675  20.704  1.00  0.00     0.014 C 
ENDBRANCH  21  25
ENDBRANCH   1  17
TORSDOF 4
ENDMDL
