MODEL 1
REMARK VINA RESULT: -7.810855610      0.000      0.000
REMARK  3 active torsions:
REMARK  status: ('A' for Active; 'I' for Inactive)
REMARK    1  A    between atoms: C3_3  and  N1_4 
REMARK       I    between atoms: N1_4  and  C4_6 
REMARK    2  A    between atoms: C4_6  and  C5_8 
REMARK    3  A    between atoms: C8_11  and  N2_12 
REMARK       I    between atoms: N2_12  and  C9_14 
REMARK       I    between atoms: C9_14  and  N3_16 
ROOT
HETATM    1  C1  UNL     1      26.915  12.921  19.336  1.00  0.00     0.014 C 
HETATM    2  C2  UNL     1      25.832  13.363  19.067  1.00  0.00    -0.098 C 
HETATM    3  C3  UNL     1      24.518  13.922  18.747  1.00  0.00     0.216 C 
ENDROOT
BRANCH   3   4
HETATM    4  N1  UNL     1      23.505  12.932  18.983  1.00  0.00    -0.350 N 
HETATM    5  C4  UNL     1      22.842  12.844  20.236  1.00  0.00     0.222 C 
HETATM    6  O1  UNL     1      23.170  13.660  21.132  1.00  0.00    -0.273 OA
ATOM      7  H1  UNL     1      23.258  12.281  18.238  1.00  0.00     0.163 HD
BRANCH   5   8
HETATM    8  C5  UNL     1      21.790  11.828  20.505  1.00  0.00     0.080 C 
HETATM    9  C6  UNL     1      22.341  10.438  20.614  1.00  0.00     0.016 C 
HETATM   10  C7  UNL     1      21.134   9.534  20.344  1.00  0.00     0.026 C 
HETATM   11  C8  UNL     1      20.085  10.419  19.721  1.00  0.00     0.087 C 
HETATM   12  C19 UNL     1      20.832  11.700  19.336  1.00  0.00     0.039 C 
BRANCH  11  13
HETATM   13  N2  UNL     1      19.058  10.808  20.676  1.00  0.00    -0.338 N 
HETATM   14  C9  UNL     1      17.770  10.225  20.685  1.00  0.00     0.318 C 
HETATM   15  O2  UNL     1      17.504   9.340  19.838  1.00  0.00    -0.247 OA
HETATM   16  N3  UNL     1      16.816  10.645  21.635  1.00  0.00    -0.332 N 
HETATM   17  C10 UNL     1      15.545   9.953  21.516  1.00  0.00     0.134 C 
HETATM   18  C18 UNL     1      17.274  11.672  22.538  1.00  0.00     0.163 C 
HETATM   19  C11 UNL     1      14.893   9.741  22.855  1.00  0.00     0.037 C 
HETATM   20  C12 UNL     1      15.630   8.656  23.607  1.00  0.00     0.010 C 
HETATM   21  C17 UNL     1      14.678  10.986  23.627  1.00  0.00     0.231 C 
HETATM   22  C13 UNL     1      15.771   9.075  25.037  1.00  0.00     0.031 C 
HETATM   23  C14 UNL     1      16.539  10.388  25.049  1.00  0.00     0.273 C 
HETATM   24  N4  UNL     1      15.763  11.389  24.464  1.00  0.00     0.100 N 
HETATM   25  C15 UNL     1      16.256  12.232  23.453  1.00  0.00     0.243 C 
HETATM   26  C16 UNL     1      14.879  12.248  22.825  1.00  0.00     0.073 C 
ATOM     27  H2  UNL     1      19.276  11.528  21.364  1.00  0.00     0.164 HD
ENDBRANCH  11  13
ENDBRANCH   5   8
ENDBRANCH   3   4
TORSDOF 3
ENDMDL
MODEL 2
REMARK VINA RESULT: -7.757264637      1.437      1.649
REMARK  3 active torsions:
REMARK  status: ('A' for Active; 'I' for Inactive)
REMARK    1  A    between atoms: C3_3  and  N1_4 
REMARK       I    between atoms: N1_4  and  C4_6 
REMARK    2  A    between atoms: C4_6  and  C5_8 
REMARK    3  A    between atoms: C8_11  and  N2_12 
REMARK       I    between atoms: N2_12  and  C9_14 
REMARK       I    between atoms: C9_14  and  N3_16 
ROOT
HETATM    1  C1  UNL     1      23.831  16.951  22.352  1.00  0.00     0.014 C 
HETATM    2  C2  UNL     1      24.029  15.949  21.723  1.00  0.00    -0.098 C 
HETATM    3  C3  UNL     1      24.279  14.739  20.939  1.00  0.00     0.216 C 
ENDROOT
BRANCH   3   4
HETATM    4  N1  UNL     1      23.257  13.768  21.215  1.00  0.00    -0.350 N 
HETATM    5  C4  UNL     1      22.831  12.848  20.220  1.00  0.00     0.222 C 
HETATM    6  O1  UNL     1      23.377  12.910  19.091  1.00  0.00    -0.273 OA
ATOM      7  H1  UNL     1      22.830  13.739  22.141  1.00  0.00     0.163 HD
BRANCH   5   8
HETATM    8  C5  UNL     1      21.776  11.834  20.481  1.00  0.00     0.080 C 
HETATM    9  C6  UNL     1      22.318  10.438  20.550  1.00  0.00     0.016 C 
HETATM   10  C7  UNL     1      21.101   9.549  20.277  1.00  0.00     0.026 C 
HETATM   11  C8  UNL     1      20.049  10.455  19.689  1.00  0.00     0.087 C 
HETATM   12  C19 UNL     1      20.800  11.739  19.323  1.00  0.00     0.039 C 
BRANCH  11  13
HETATM   13  N2  UNL     1      19.039  10.829  20.667  1.00  0.00    -0.338 N 
HETATM   14  C9  UNL     1      17.751  10.247  20.689  1.00  0.00     0.318 C 
HETATM   15  O2  UNL     1      17.471   9.375  19.833  1.00  0.00    -0.247 OA
HETATM   16  N3  UNL     1      16.813  10.652  21.661  1.00  0.00    -0.332 N 
HETATM   17  C10 UNL     1      15.540   9.962  21.553  1.00  0.00     0.134 C 
HETATM   18  C18 UNL     1      17.287  11.665  22.572  1.00  0.00     0.163 C 
HETATM   19  C11 UNL     1      14.911   9.730  22.899  1.00  0.00     0.037 C 
HETATM   20  C12 UNL     1      15.659   8.633  23.622  1.00  0.00     0.010 C 
HETATM   21  C17 UNL     1      14.709  10.962  23.694  1.00  0.00     0.231 C 
HETATM   22  C13 UNL     1      15.825   9.030  25.056  1.00  0.00     0.031 C 
HETATM   23  C14 UNL     1      16.593  10.342  25.075  1.00  0.00     0.273 C 
HETATM   24  N4  UNL     1      15.808  11.352  24.519  1.00  0.00     0.100 N 
HETATM   25  C15 UNL     1      16.285  12.211  23.513  1.00  0.00     0.243 C 
HETATM   26  C16 UNL     1      14.898  12.237  22.908  1.00  0.00     0.073 C 
ATOM     27  H2  UNL     1      19.269  11.538  21.363  1.00  0.00     0.164 HD
ENDBRANCH  11  13
ENDBRANCH   5   8
ENDBRANCH   3   4
TORSDOF 3
ENDMDL
MODEL 3
REMARK VINA RESULT: -7.674247617      2.772      9.044
REMARK  3 active torsions:
REMARK  status: ('A' for Active; 'I' for Inactive)
REMARK    1  A    between atoms: C3_3  and  N1_4 
REMARK       I    between atoms: N1_4  and  C4_6 
REMARK    2  A    between atoms: C4_6  and  C5_8 
REMARK    3  A    between atoms: C8_11  and  N2_12 
REMARK       I    between atoms: N2_12  and  C9_14 
REMARK       I    between atoms: C9_14  and  N3_16 
ROOT
HETATM    1  C1  UNL     1      15.147   7.961  21.269  1.00  0.00     0.014 C 
HETATM    2  C2  UNL     1      16.053   8.031  20.485  1.00  0.00    -0.098 C 
HETATM    3  C3  UNL     1      17.150   8.097  19.519  1.00  0.00     0.216 C 
ENDROOT
BRANCH   3   4
HETATM    4  N1  UNL     1      18.307   8.674  20.145  1.00  0.00    -0.350 N 
HETATM    5  C4  UNL     1      18.629  10.046  19.966  1.00  0.00     0.222 C 
HETATM    6  O1  UNL     1      17.870  10.739  19.244  1.00  0.00    -0.273 OA
ATOM      7  H1  UNL     1      18.907   8.090  20.726  1.00  0.00     0.163 HD
BRANCH   5   8
HETATM    8  C5  UNL     1      19.820  10.669  20.603  1.00  0.00     0.080 C 
HETATM    9  C6  UNL     1      20.129  10.085  21.949  1.00  0.00     0.016 C 
HETATM   10  C7  UNL     1      20.975  11.159  22.638  1.00  0.00     0.026 C 
HETATM   11  C8  UNL     1      20.776  12.421  21.837  1.00  0.00     0.087 C 
HETATM   12  C19 UNL     1      19.571  12.127  20.938  1.00  0.00     0.039 C 
BRANCH  11  13
HETATM   13  N2  UNL     1      21.899  12.691  20.952  1.00  0.00    -0.338 N 
HETATM   14  C9  UNL     1      23.105  13.267  21.411  1.00  0.00     0.318 C 
HETATM   15  O2  UNL     1      23.210  13.556  22.626  1.00  0.00    -0.247 OA
HETATM   16  N3  UNL     1      24.159  13.506  20.504  1.00  0.00    -0.332 N 
HETATM   17  C10 UNL     1      25.329  14.100  21.126  1.00  0.00     0.134 C 
HETATM   18  C18 UNL     1      23.882  13.122  19.142  1.00  0.00     0.163 C 
HETATM   19  C11 UNL     1      26.606  13.621  20.494  1.00  0.00     0.037 C 
HETATM   20  C12 UNL     1      26.872  12.194  20.915  1.00  0.00     0.010 C 
HETATM   21  C17 UNL     1      26.684  13.855  19.034  1.00  0.00     0.231 C 
HETATM   22  C13 UNL     1      27.349  11.423  19.723  1.00  0.00     0.031 C 
HETATM   23  C14 UNL     1      26.259  11.504  18.666  1.00  0.00     0.273 C 
HETATM   24  N4  UNL     1      26.145  12.818  18.212  1.00  0.00     0.100 N 
HETATM   25  C15 UNL     1      24.910  13.487  18.143  1.00  0.00     0.243 C 
HETATM   26  C16 UNL     1      25.614  14.778  18.503  1.00  0.00     0.073 C 
ATOM     27  H2  UNL     1      21.812  12.455  19.964  1.00  0.00     0.164 HD
ENDBRANCH  11  13
ENDBRANCH   5   8
ENDBRANCH   3   4
TORSDOF 3
ENDMDL
MODEL 4
REMARK VINA RESULT: -7.660285631      4.400      8.991
REMARK  3 active torsions:
REMARK  status: ('A' for Active; 'I' for Inactive)
REMARK    1  A    between atoms: C3_3  and  N1_4 
REMARK       I    between atoms: N1_4  and  C4_6 
REMARK    2  A    between atoms: C4_6  and  C5_8 
REMARK    3  A    between atoms: C8_11  and  N2_12 
REMARK       I    between atoms: N2_12  and  C9_14 
REMARK       I    between atoms: C9_14  and  N3_16 
ROOT
HETATM    1  C1  UNL     1      19.460  12.541  29.415  1.00  0.00     0.014 C 
HETATM    2  C2  UNL     1      20.592  12.518  29.014  1.00  0.00    -0.098 C 
HETATM    3  C3  UNL     1      21.974  12.512  28.536  1.00  0.00     0.216 C 
ENDROOT
BRANCH   3   4
HETATM    4  N1  UNL     1      22.029  11.909  27.233  1.00  0.00    -0.350 N 
HETATM    5  C4  UNL     1      22.009  12.704  26.056  1.00  0.00     0.222 C 
HETATM    6  O1  UNL     1      21.942  13.951  26.190  1.00  0.00    -0.273 OA
ATOM      7  H1  UNL     1      22.082  10.894  27.152  1.00  0.00     0.163 HD
BRANCH   5   8
HETATM    8  C5  UNL     1      22.064  12.105  24.696  1.00  0.00     0.080 C 
HETATM    9  C6  UNL     1      20.712  11.986  24.060  1.00  0.00     0.016 C 
HETATM   10  C7  UNL     1      20.896  10.909  22.986  1.00  0.00     0.026 C 
HETATM   11  C8  UNL     1      22.188  10.208  23.320  1.00  0.00     0.087 C 
HETATM   12  C19 UNL     1      22.521  10.659  24.745  1.00  0.00     0.039 C 
BRANCH  11  13
HETATM   13  N2  UNL     1      23.286  10.652  22.476  1.00  0.00    -0.338 N 
HETATM   14  C9  UNL     1      23.347  10.363  21.093  1.00  0.00     0.318 C 
HETATM   15  O2  UNL     1      22.418   9.699  20.577  1.00  0.00    -0.247 OA
HETATM   16  N3  UNL     1      24.439  10.821  20.327  1.00  0.00    -0.332 N 
HETATM   17  C10 UNL     1      24.355  10.446  18.927  1.00  0.00     0.134 C 
HETATM   18  C18 UNL     1      25.426  11.567  21.068  1.00  0.00     0.163 C 
HETATM   19  C11 UNL     1      24.934  11.502  18.026  1.00  0.00     0.037 C 
HETATM   20  C12 UNL     1      23.990  12.681  17.963  1.00  0.00     0.010 C 
HETATM   21  C17 UNL     1      26.338  11.856  18.332  1.00  0.00     0.231 C 
HETATM   22  C13 UNL     1      24.792  13.943  18.034  1.00  0.00     0.031 C 
HETATM   23  C14 UNL     1      25.567  13.912  19.342  1.00  0.00     0.273 C 
HETATM   24  N4  UNL     1      26.518  12.892  19.299  1.00  0.00     0.100 N 
HETATM   25  C15 UNL     1      26.650  11.940  20.325  1.00  0.00     0.243 C 
HETATM   26  C16 UNL     1      27.017  10.903  19.286  1.00  0.00     0.073 C 
ATOM     27  H2  UNL     1      24.042  11.192  22.898  1.00  0.00     0.164 HD
ENDBRANCH  11  13
ENDBRANCH   5   8
ENDBRANCH   3   4
TORSDOF 3
ENDMDL
MODEL 5
REMARK VINA RESULT: -7.650420868      3.286      4.002
REMARK  3 active torsions:
REMARK  status: ('A' for Active; 'I' for Inactive)
REMARK    1  A    between atoms: C3_3  and  N1_4 
REMARK       I    between atoms: N1_4  and  C4_6 
REMARK    2  A    between atoms: C4_6  and  C5_8 
REMARK    3  A    between atoms: C8_11  and  N2_12 
REMARK       I    between atoms: N2_12  and  C9_14 
REMARK       I    between atoms: C9_14  and  N3_16 
ROOT
HETATM    1  C1  UNL     1      28.377   9.513  20.830  1.00  0.00     0.014 C 
HETATM    2  C2  UNL     1      27.675  10.227  20.168  1.00  0.00    -0.098 C 
HETATM    3  C3  UNL     1      26.839  11.111  19.355  1.00  0.00     0.216 C 
ENDROOT
BRANCH   3   4
HETATM    4  N1  UNL     1      25.548  11.248  19.968  1.00  0.00    -0.350 N 
HETATM    5  C4  UNL     1      24.373  10.786  19.316  1.00  0.00     0.222 C 
HETATM    6  O1  UNL     1      24.500  10.254  18.185  1.00  0.00    -0.273 OA
ATOM      7  H1  UNL     1      25.472  11.684  20.887  1.00  0.00     0.163 HD
BRANCH   5   8
HETATM    8  C5  UNL     1      23.025  10.916  19.929  1.00  0.00     0.080 C 
HETATM    9  C6  UNL     1      22.147   9.731  19.655  1.00  0.00     0.016 C 
HETATM   10  C7  UNL     1      20.726  10.261  19.866  1.00  0.00     0.026 C 
HETATM   11  C8  UNL     1      20.838  11.764  19.857  1.00  0.00     0.087 C 
HETATM   12  C19 UNL     1      22.237  12.049  19.300  1.00  0.00     0.039 C 
BRANCH  11  13
HETATM   13  N2  UNL     1      20.804  12.325  21.199  1.00  0.00    -0.338 N 
HETATM   14  C9  UNL     1      19.601  12.484  21.925  1.00  0.00     0.318 C 
HETATM   15  O2  UNL     1      18.524  12.128  21.390  1.00  0.00    -0.247 OA
HETATM   16  N3  UNL     1      19.631  13.036  23.222  1.00  0.00    -0.332 N 
HETATM   17  C10 UNL     1      18.319  13.133  23.836  1.00  0.00     0.134 C 
HETATM   18  C18 UNL     1      20.945  13.397  23.694  1.00  0.00     0.163 C 
HETATM   19  C11 UNL     1      18.374  12.906  25.321  1.00  0.00     0.037 C 
HETATM   20  C12 UNL     1      18.604  11.438  25.598  1.00  0.00     0.010 C 
HETATM   21  C17 UNL     1      19.294  13.818  26.039  1.00  0.00     0.231 C 
HETATM   22  C13 UNL     1      19.601  11.309  26.708  1.00  0.00     0.031 C 
HETATM   23  C14 UNL     1      20.876  12.002  26.252  1.00  0.00     0.273 C 
HETATM   24  N4  UNL     1      20.649  13.374  26.141  1.00  0.00     0.100 N 
HETATM   25  C15 UNL     1      20.996  14.105  24.992  1.00  0.00     0.243 C 
HETATM   26  C16 UNL     1      19.780  14.979  25.206  1.00  0.00     0.073 C 
ATOM     27  H2  UNL     1      21.680  12.614  21.632  1.00  0.00     0.164 HD
ENDBRANCH  11  13
ENDBRANCH   5   8
ENDBRANCH   3   4
TORSDOF 3
ENDMDL
