MODEL 1
REMARK VINA RESULT: -7.240911424      0.000      0.000
REMARK  4 active torsions:
REMARK  status: ('A' for Active; 'I' for Inactive)
REMARK    1  A    between atoms: C2_2  and  N1_4 
REMARK       I    between atoms: N1_4  and  C4_6 
REMARK       I    between atoms: C4_6  and  N2_8 
REMARK    2  A    between atoms: C6_10  and  N3_11 
REMARK       I    between atoms: N3_11  and  C7_13 
REMARK    3  A    between atoms: C7_13  and  C8_15 
REMARK    4  A    between atoms: C12_19  and  C13_20 
REMARK       I    between atoms: C13_20  and  N4_22 
ROOT
HETATM    1  N1  UNL     1      21.614  12.783  25.892  1.00  0.00    -0.339 N 
ATOM      2  H1  UNL     1      20.597  12.862  25.884  1.00  0.00     0.164 HD
HETATM    3  C4  UNL     1      22.213  11.939  24.938  1.00  0.00     0.318 C 
HETATM    4  O1  UNL     1      23.485  11.837  24.945  1.00  0.00    -0.247 OA
HETATM    5  N2  UNL     1      21.448  11.223  23.996  1.00  0.00    -0.331 N 
HETATM    6  C5  UNL     1      20.008  11.279  23.903  1.00  0.00     0.153 C 
HETATM    7  C6  UNL     1      19.706  11.032  22.442  1.00  0.00     0.117 C 
HETATM    8  C12 UNL     1      20.943  10.500  21.819  1.00  0.00     0.120 C 
HETATM    9  C18 UNL     1      21.899  10.314  22.973  1.00  0.00     0.143 C 
ENDROOT
BRANCH   7  10
HETATM   10  N3  UNL     1      18.556  10.188  22.380  1.00  0.00    -0.353 N 
HETATM   11  C7  UNL     1      17.267  10.752  22.209  1.00  0.00     0.225 C 
HETATM   12  O2  UNL     1      17.123  12.004  22.108  1.00  0.00    -0.273 OA
ATOM     13  H3  UNL     1      18.662   9.177  22.460  1.00  0.00     0.163 HD
BRANCH  11  14
HETATM   14  C8  UNL     1      16.074   9.880  22.146  1.00  0.00     0.030 C 
HETATM   15  C9  UNL     1      15.940   9.053  23.432  1.00  0.00     0.024 C 
HETATM   16  C10 UNL     1      14.814  10.730  22.077  1.00  0.00     0.024 C 
HETATM   17  C11 UNL     1      16.068   8.948  20.979  1.00  0.00     0.024 C 
ENDBRANCH  11  14
ENDBRANCH   7  10
BRANCH   8  18
HETATM   18  C13 UNL     1      21.578  11.486  20.886  1.00  0.00     0.227 C 
HETATM   19  O3  UNL     1      21.067  12.633  20.863  1.00  0.00    -0.273 OA
HETATM   20  N4  UNL     1      22.693  11.123  20.083  1.00  0.00    -0.352 N 
HETATM   21  C14 UNL     1      23.381   9.864  19.999  1.00  0.00     0.126 C 
HETATM   22  C17 UNL     1      23.344  12.036  19.166  1.00  0.00     0.126 C 
HETATM   23  C15 UNL     1      23.747   9.769  18.535  1.00  0.00     0.021 C 
HETATM   24  C16 UNL     1      24.147  11.192  18.217  1.00  0.00     0.021 C 
ENDBRANCH   8  18
BRANCH   1  25
HETATM   25  C2  UNL     1      22.338  13.539  26.877  1.00  0.00     0.078 C 
HETATM   26  C1  UNL     1      21.836  14.960  26.842  1.00  0.00     0.032 C 
HETATM   27  C3  UNL     1      22.043  12.926  28.248  1.00  0.00     0.032 C 
ENDBRANCH   1  25
TORSDOF 4
ENDMDL
MODEL 2
REMARK VINA RESULT: -7.217549711      1.812      5.949
REMARK  4 active torsions:
REMARK  status: ('A' for Active; 'I' for Inactive)
REMARK    1  A    between atoms: C2_2  and  N1_4 
REMARK       I    between atoms: N1_4  and  C4_6 
REMARK       I    between atoms: C4_6  and  N2_8 
REMARK    2  A    between atoms: C6_10  and  N3_11 
REMARK       I    between atoms: N3_11  and  C7_13 
REMARK    3  A    between atoms: C7_13  and  C8_15 
REMARK    4  A    between atoms: C12_19  and  C13_20 
REMARK       I    between atoms: C13_20  and  N4_22 
ROOT
HETATM    1  N1  UNL     1      17.375   9.487  20.830  1.00  0.00    -0.339 N 
ATOM      2  H1  UNL     1      17.357   9.390  21.846  1.00  0.00     0.164 HD
HETATM    3  C4  UNL     1      18.319  10.369  20.273  1.00  0.00     0.318 C 
HETATM    4  O1  UNL     1      18.344  10.494  19.003  1.00  0.00    -0.247 OA
HETATM    5  N2  UNL     1      19.217  11.101  21.076  1.00  0.00    -0.331 N 
HETATM    6  C5  UNL     1      19.271  11.022  22.516  1.00  0.00     0.153 C 
HETATM    7  C6  UNL     1      20.715  11.308  22.865  1.00  0.00     0.117 C 
HETATM    8  C12 UNL     1      21.356  11.880  21.654  1.00  0.00     0.120 C 
HETATM    9  C18 UNL     1      20.224  12.048  20.669  1.00  0.00     0.143 C 
ENDROOT
BRANCH   7  10
HETATM   10  N3  UNL     1      20.719  12.134  24.029  1.00  0.00    -0.353 N 
HETATM   11  C7  UNL     1      20.981  11.568  25.302  1.00  0.00     0.225 C 
HETATM   12  O2  UNL     1      21.214  10.331  25.418  1.00  0.00    -0.273 OA
ATOM     13  H3  UNL     1      20.533  13.133  23.945  1.00  0.00     0.163 HD
BRANCH  11  14
HETATM   14  C8  UNL     1      20.984  12.421  26.510  1.00  0.00     0.030 C 
HETATM   15  C9  UNL     1      22.291  13.217  26.607  1.00  0.00     0.024 C 
HETATM   16  C10 UNL     1      19.880  13.464  26.411  1.00  0.00     0.024 C 
HETATM   17  C11 UNL     1      20.792  11.664  27.784  1.00  0.00     0.024 C 
ENDBRANCH  11  14
ENDBRANCH   7  10
BRANCH   8  18
HETATM   18  C13 UNL     1      22.336  10.933  21.030  1.00  0.00     0.227 C 
HETATM   19  O3  UNL     1      22.596   9.895  21.686  1.00  0.00    -0.273 OA
HETATM   20  N4  UNL     1      22.926  11.215  19.767  1.00  0.00    -0.352 N 
HETATM   21  C14 UNL     1      22.730  12.349  18.906  1.00  0.00     0.126 C 
HETATM   22  C17 UNL     1      23.877  10.335  19.119  1.00  0.00     0.126 C 
HETATM   23  C15 UNL     1      24.105  12.572  18.315  1.00  0.00     0.021 C 
HETATM   24  C16 UNL     1      24.577  11.156  18.073  1.00  0.00     0.021 C 
ENDBRANCH   8  18
BRANCH   1  25
HETATM   25  C2  UNL     1      16.434   8.714  20.067  1.00  0.00     0.078 C 
HETATM   26  C1  UNL     1      17.140   7.484  19.556  1.00  0.00     0.032 C 
HETATM   27  C3  UNL     1      15.298   8.300  21.004  1.00  0.00     0.032 C 
ENDBRANCH   1  25
TORSDOF 4
ENDMDL
MODEL 3
REMARK VINA RESULT: -7.160710542      2.273      5.993
REMARK  4 active torsions:
REMARK  status: ('A' for Active; 'I' for Inactive)
REMARK    1  A    between atoms: C2_2  and  N1_4 
REMARK       I    between atoms: N1_4  and  C4_6 
REMARK       I    between atoms: C4_6  and  N2_8 
REMARK    2  A    between atoms: C6_10  and  N3_11 
REMARK       I    between atoms: N3_11  and  C7_13 
REMARK    3  A    between atoms: C7_13  and  C8_15 
REMARK    4  A    between atoms: C12_19  and  C13_20 
REMARK       I    between atoms: C13_20  and  N4_22 
ROOT
HETATM    1  N1  UNL     1      16.856  10.106  23.133  1.00  0.00    -0.339 N 
ATOM      2  H1  UNL     1      17.299  10.596  23.911  1.00  0.00     0.164 HD
HETATM    3  C4  UNL     1      17.322  10.384  21.834  1.00  0.00     0.318 C 
HETATM    4  O1  UNL     1      16.771   9.774  20.858  1.00  0.00    -0.247 OA
HETATM    5  N2  UNL     1      18.364  11.304  21.600  1.00  0.00    -0.331 N 
HETATM    6  C5  UNL     1      19.054  12.036  22.636  1.00  0.00     0.153 C 
HETATM    7  C6  UNL     1      20.445  12.260  22.089  1.00  0.00     0.117 C 
HETATM    8  C12 UNL     1      20.401  11.963  20.635  1.00  0.00     0.120 C 
HETATM    9  C18 UNL     1      18.942  11.710  20.344  1.00  0.00     0.143 C 
ENDROOT
BRANCH   7  10
HETATM   10  N3  UNL     1      20.839  13.584  22.449  1.00  0.00    -0.353 N 
HETATM   11  C7  UNL     1      22.212  13.912  22.569  1.00  0.00     0.225 C 
HETATM   12  O2  UNL     1      23.100  13.037  22.356  1.00  0.00    -0.273 OA
ATOM     13  H3  UNL     1      20.129  14.297  22.622  1.00  0.00     0.163 HD
BRANCH  11  14
HETATM   14  C8  UNL     1      22.622  15.283  22.945  1.00  0.00     0.030 C 
HETATM   15  C9  UNL     1      23.625  15.249  24.104  1.00  0.00     0.024 C 
HETATM   16  C10 UNL     1      23.362  15.937  21.787  1.00  0.00     0.024 C 
HETATM   17  C11 UNL     1      21.482  16.170  23.326  1.00  0.00     0.024 C 
ENDBRANCH  11  14
ENDBRANCH   7  10
BRANCH   8  18
HETATM   18  C13 UNL     1      21.136  10.703  20.291  1.00  0.00     0.227 C 
HETATM   19  O3  UNL     1      20.635   9.635  20.722  1.00  0.00    -0.273 OA
HETATM   20  N4  UNL     1      22.330  10.737  19.521  1.00  0.00    -0.352 N 
HETATM   21  C14 UNL     1      23.019  11.868  18.964  1.00  0.00     0.126 C 
HETATM   22  C17 UNL     1      23.079   9.550  19.159  1.00  0.00     0.126 C 
HETATM   23  C15 UNL     1      24.476  11.485  19.102  1.00  0.00     0.021 C 
HETATM   24  C16 UNL     1      24.449  10.014  18.756  1.00  0.00     0.021 C 
ENDBRANCH   8  18
BRANCH   1  25
HETATM   25  C2  UNL     1      15.800   9.180  23.437  1.00  0.00     0.078 C 
HETATM   26  C1  UNL     1      15.917   8.793  24.889  1.00  0.00     0.032 C 
HETATM   27  C3  UNL     1      14.468   9.896  23.204  1.00  0.00     0.032 C 
ENDBRANCH   1  25
TORSDOF 4
ENDMDL
MODEL 4
REMARK VINA RESULT: -7.025429093      2.062      6.027
REMARK  4 active torsions:
REMARK  status: ('A' for Active; 'I' for Inactive)
REMARK    1  A    between atoms: C2_2  and  N1_4 
REMARK       I    between atoms: N1_4  and  C4_6 
REMARK       I    between atoms: C4_6  and  N2_8 
REMARK    2  A    between atoms: C6_10  and  N3_11 
REMARK       I    between atoms: N3_11  and  C7_13 
REMARK    3  A    between atoms: C7_13  and  C8_15 
REMARK    4  A    between atoms: C12_19  and  C13_20 
REMARK       I    between atoms: C13_20  and  N4_22 
ROOT
HETATM    1  N1  UNL     1      17.028  10.367  23.070  1.00  0.00    -0.339 N 
ATOM      2  H1  UNL     1      17.335  10.867  23.905  1.00  0.00     0.164 HD
HETATM    3  C4  UNL     1      17.675  10.660  21.855  1.00  0.00     0.318 C 
HETATM    4  O1  UNL     1      17.294  10.036  20.808  1.00  0.00    -0.247 OA
HETATM    5  N2  UNL     1      18.715  11.608  21.778  1.00  0.00    -0.331 N 
HETATM    6  C5  UNL     1      19.222  12.356  22.903  1.00  0.00     0.153 C 
HETATM    7  C6  UNL     1      20.673  12.619  22.571  1.00  0.00     0.117 C 
HETATM    8  C12 UNL     1      20.856  12.323  21.128  1.00  0.00     0.120 C 
HETATM    9  C18 UNL     1      19.464  12.031  20.621  1.00  0.00     0.143 C 
ENDROOT
BRANCH   7  10
HETATM   10  N3  UNL     1      20.972  13.953  22.983  1.00  0.00    -0.353 N 
HETATM   11  C7  UNL     1      22.285  14.295  23.392  1.00  0.00     0.225 C 
HETATM   12  O2  UNL     1      23.203  13.425  23.394  1.00  0.00    -0.273 OA
ATOM     13  H3  UNL     1      20.238  14.662  22.984  1.00  0.00     0.163 HD
BRANCH  11  14
HETATM   14  C8  UNL     1      22.596  15.676  23.822  1.00  0.00     0.030 C 
HETATM   15  C9  UNL     1      22.374  16.664  22.670  1.00  0.00     0.024 C 
HETATM   16  C10 UNL     1      21.632  16.107  24.917  1.00  0.00     0.024 C 
HETATM   17  C11 UNL     1      23.988  15.849  24.336  1.00  0.00     0.024 C 
ENDBRANCH  11  14
ENDBRANCH   7  10
BRANCH   8  18
HETATM   18  C13 UNL     1      21.667  11.084  20.901  1.00  0.00     0.227 C 
HETATM   19  O3  UNL     1      21.497  10.153  21.726  1.00  0.00    -0.273 OA
HETATM   20  N4  UNL     1      22.573  10.990  19.809  1.00  0.00    -0.352 N 
HETATM   21  C14 UNL     1      22.874  11.960  18.793  1.00  0.00     0.126 C 
HETATM   22  C17 UNL     1      23.380   9.816  19.543  1.00  0.00     0.126 C 
HETATM   23  C15 UNL     1      24.354  11.759  18.554  1.00  0.00     0.021 C 
HETATM   24  C16 UNL     1      24.482  10.254  18.620  1.00  0.00     0.021 C 
ENDBRANCH   8  18
BRANCH   1  25
HETATM   25  C2  UNL     1      15.963   9.412  23.215  1.00  0.00     0.078 C 
HETATM   26  C1  UNL     1      15.977   8.904  24.633  1.00  0.00     0.032 C 
HETATM   27  C3  UNL     1      14.644  10.137  22.943  1.00  0.00     0.032 C 
ENDBRANCH   1  25
TORSDOF 4
ENDMDL
MODEL 5
REMARK VINA RESULT: -6.973147784      2.306      6.519
REMARK  4 active torsions:
REMARK  status: ('A' for Active; 'I' for Inactive)
REMARK    1  A    between atoms: C2_2  and  N1_4 
REMARK       I    between atoms: N1_4  and  C4_6 
REMARK       I    between atoms: C4_6  and  N2_8 
REMARK    2  A    between atoms: C6_10  and  N3_11 
REMARK       I    between atoms: N3_11  and  C7_13 
REMARK    3  A    between atoms: C7_13  and  C8_15 
REMARK    4  A    between atoms: C12_19  and  C13_20 
REMARK       I    between atoms: C13_20  and  N4_22 
ROOT
HETATM    1  N1  UNL     1      17.062   9.829  22.047  1.00  0.00    -0.339 N 
ATOM      2  H1  UNL     1      17.398   9.707  21.091  1.00  0.00     0.164 HD
HETATM    3  C4  UNL     1      17.983  10.277  23.013  1.00  0.00     0.318 C 
HETATM    4  O1  UNL     1      17.567  10.431  24.210  1.00  0.00    -0.247 OA
HETATM    5  N2  UNL     1      19.327  10.552  22.687  1.00  0.00    -0.331 N 
HETATM    6  C5  UNL     1      19.888  10.417  21.364  1.00  0.00     0.153 C 
HETATM    7  C6  UNL     1      20.991  11.450  21.305  1.00  0.00     0.117 C 
HETATM    8  C12 UNL     1      21.253  11.895  22.697  1.00  0.00     0.120 C 
HETATM    9  C18 UNL     1      20.390  10.998  23.551  1.00  0.00     0.143 C 
ENDROOT
BRANCH   7  10
HETATM   10  N3  UNL     1      22.092  10.862  20.613  1.00  0.00    -0.353 N 
HETATM   11  C7  UNL     1      22.932  11.662  19.800  1.00  0.00     0.225 C 
HETATM   12  O2  UNL     1      22.716  12.903  19.680  1.00  0.00    -0.273 OA
ATOM     13  H3  UNL     1      22.275   9.862  20.704  1.00  0.00     0.163 HD
BRANCH  11  14
HETATM   14  C8  UNL     1      24.073  11.054  19.080  1.00  0.00     0.030 C 
HETATM   15  C9  UNL     1      25.278  10.895  20.015  1.00  0.00     0.024 C 
HETATM   16  C10 UNL     1      23.713   9.644  18.637  1.00  0.00     0.024 C 
HETATM   17  C11 UNL     1      24.504  11.822  17.874  1.00  0.00     0.024 C 
ENDBRANCH  11  14
ENDBRANCH   7  10
BRANCH   8  18
HETATM   18  C13 UNL     1      20.791  13.299  22.940  1.00  0.00     0.227 C 
HETATM   19  O3  UNL     1      19.558  13.453  23.115  1.00  0.00    -0.273 OA
HETATM   20  N4  UNL     1      21.714  14.381  22.967  1.00  0.00    -0.352 N 
HETATM   21  C14 UNL     1      23.139  14.363  22.785  1.00  0.00     0.126 C 
HETATM   22  C17 UNL     1      21.322  15.756  23.199  1.00  0.00     0.126 C 
HETATM   23  C15 UNL     1      23.406  15.651  22.040  1.00  0.00     0.021 C 
HETATM   24  C16 UNL     1      22.461  16.613  22.723  1.00  0.00     0.021 C 
ENDBRANCH   8  18
BRANCH   1  25
HETATM   25  C2  UNL     1      15.682   9.533  22.316  1.00  0.00     0.078 C 
HETATM   26  C1  UNL     1      14.865  10.755  21.984  1.00  0.00     0.032 C 
HETATM   27  C3  UNL     1      15.266   8.376  21.405  1.00  0.00     0.032 C 
ENDBRANCH   1  25
TORSDOF 4
ENDMDL
