MODEL 1
REMARK VINA RESULT: -7.819736198      0.000      0.000
REMARK  4 active torsions:
REMARK  status: ('A' for Active; 'I' for Inactive)
REMARK    1  A    between atoms: C3_3  and  N1_5 
REMARK       I    between atoms: N1_5  and  C5_7 
REMARK       I    between atoms: C5_7  and  N2_9 
REMARK       I    between atoms: N3_13  and  C9_14 
REMARK       I    between atoms: C9_14  and  N4_16 
REMARK    2  A    between atoms: N4_16  and  C10_18 
REMARK    3  A    between atoms: C10_18  and  C11_19 
REMARK    4  A    between atoms: C11_19  and  N5_20 
ROOT
HETATM    1  C1  UNL     1      17.055   7.297  19.093  1.00  0.00     0.014 C 
HETATM    2  C2  UNL     1      16.413   7.926  19.896  1.00  0.00    -0.092 C 
HETATM    3  C3  UNL     1      15.614   8.676  20.866  1.00  0.00     0.161 C 
HETATM    4  C4  UNL     1      15.162   7.735  21.961  1.00  0.00     0.046 C 
ENDROOT
BRANCH   3   5
HETATM    5  N1  UNL     1      16.409   9.772  21.447  1.00  0.00    -0.327 N 
HETATM    6  C5  UNL     1      15.798  10.867  22.049  1.00  0.00     0.338 C 
HETATM    7  O1  UNL     1      14.502  10.859  22.072  1.00  0.00    -0.245 OA
HETATM    8  N2  UNL     1      16.440  11.970  22.632  1.00  0.00    -0.229 N 
HETATM    9  C6  UNL     1      15.894  13.159  23.342  1.00  0.00     0.140 A 
HETATM   10  N3  UNL     1      17.672  12.531  22.861  1.00  0.00    -0.229 N 
HETATM   11  C7  UNL     1      16.046  13.054  24.796  1.00  0.00     0.059 A 
HETATM   12  C8  UNL     1      17.235  13.338  23.998  1.00  0.00     0.140 A 
HETATM   13  C9  UNL     1      18.979  12.468  22.253  1.00  0.00     0.341 C 
HETATM   14  O2  UNL     1      19.137  11.775  21.229  1.00  0.00    -0.245 OA
HETATM   15  N4  UNL     1      20.077  13.172  22.794  1.00  0.00    -0.317 N 
ATOM     16  H4  UNL     1      19.902  13.697  23.651  1.00  0.00     0.170 HD
ATOM     17  H1  UNL     1      17.426   9.727  21.406  1.00  0.00     0.165 HD
BRANCH  15  18
HETATM   18  C10 UNL     1      21.365  13.228  22.288  1.00  0.00     0.104 C 
BRANCH  18  19
HETATM   19  C11 UNL     1      22.522  12.485  22.759  1.00  0.00     0.076 C 
BRANCH  19  20
HETATM   20  N5  UNL     1      23.102  11.420  22.088  1.00  0.00    -0.291 NA
HETATM   21  C12 UNL     1      22.274  10.519  21.370  1.00  0.00     0.100 C 
HETATM   22  C13 UNL     1      22.597  10.672  19.898  1.00  0.00     0.004 C 
HETATM   23  C14 UNL     1      23.176   9.367  19.348  1.00  0.00     0.006 C 
HETATM   24  C17 UNL     1      23.746  11.635  19.821  1.00  0.00     0.004 C 
HETATM   25  C15 UNL     1      24.032   9.903  18.209  1.00  0.00     0.001 C 
HETATM   26  C16 UNL     1      24.799  11.007  18.922  1.00  0.00     0.006 C 
HETATM   27  C18 UNL     1      24.232  11.754  21.246  1.00  0.00     0.100 C 
ENDBRANCH  19  20
ENDBRANCH  18  19
ENDBRANCH  15  18
ENDBRANCH   3   5
TORSDOF 4
ENDMDL
MODEL 2
REMARK VINA RESULT: -7.631234578      4.552      9.683
REMARK  4 active torsions:
REMARK  status: ('A' for Active; 'I' for Inactive)
REMARK    1  A    between atoms: C3_3  and  N1_5 
REMARK       I    between atoms: N1_5  and  C5_7 
REMARK       I    between atoms: C5_7  and  N2_9 
REMARK       I    between atoms: N3_13  and  C9_14 
REMARK       I    between atoms: C9_14  and  N4_16 
REMARK    2  A    between atoms: N4_16  and  C10_18 
REMARK    3  A    between atoms: C10_18  and  C11_19 
REMARK    4  A    between atoms: C11_19  and  N5_20 
ROOT
HETATM    1  C1  UNL     1      26.319  17.225  23.506  1.00  0.00     0.014 C 
HETATM    2  C2  UNL     1      26.478  16.120  23.959  1.00  0.00    -0.092 C 
HETATM    3  C3  UNL     1      26.672  14.787  24.530  1.00  0.00     0.161 C 
HETATM    4  C4  UNL     1      25.499  14.463  25.428  1.00  0.00     0.046 C 
ENDROOT
BRANCH   3   5
HETATM    5  N1  UNL     1      26.774  13.779  23.460  1.00  0.00    -0.327 N 
HETATM    6  C5  UNL     1      27.985  13.166  23.158  1.00  0.00     0.338 C 
HETATM    7  O1  UNL     1      29.004  13.528  23.873  1.00  0.00    -0.245 OA
HETATM    8  N2  UNL     1      28.212  12.200  22.167  1.00  0.00    -0.229 N 
HETATM    9  C6  UNL     1      29.441  11.447  21.794  1.00  0.00     0.140 A 
HETATM   10  N3  UNL     1      27.606  11.505  21.148  1.00  0.00    -0.229 N 
HETATM   11  C7  UNL     1      29.419  10.070  22.295  1.00  0.00     0.059 A 
HETATM   12  C8  UNL     1      28.565  10.402  21.158  1.00  0.00     0.140 A 
HETATM   13  C9  UNL     1      26.470  11.700  20.280  1.00  0.00     0.341 C 
HETATM   14  O2  UNL     1      25.813  12.755  20.373  1.00  0.00    -0.245 OA
HETATM   15  N4  UNL     1      26.092  10.723  19.334  1.00  0.00    -0.317 N 
ATOM     16  H4  UNL     1      26.642   9.865  19.321  1.00  0.00     0.170 HD
ATOM     17  H1  UNL     1      25.940  13.527  22.930  1.00  0.00     0.165 HD
BRANCH  15  18
HETATM   18  C10 UNL     1      25.054  10.805  18.420  1.00  0.00     0.104 C 
BRANCH  18  19
HETATM   19  C11 UNL     1      23.675  10.391  18.624  1.00  0.00     0.076 C 
BRANCH  19  20
HETATM   20  N5  UNL     1      22.925  10.678  19.754  1.00  0.00    -0.291 NA
HETATM   21  C12 UNL     1      22.469  12.005  19.965  1.00  0.00     0.100 C 
HETATM   22  C13 UNL     1      20.958  11.992  19.862  1.00  0.00     0.004 C 
HETATM   23  C14 UNL     1      20.335  12.388  21.203  1.00  0.00     0.006 C 
HETATM   24  C17 UNL     1      20.563  10.553  19.693  1.00  0.00     0.004 C 
HETATM   25  C15 UNL     1      19.000  11.660  21.113  1.00  0.00     0.001 C 
HETATM   26  C16 UNL     1      19.460  10.269  20.699  1.00  0.00     0.006 C 
HETATM   27  C18 UNL     1      21.820   9.780  20.014  1.00  0.00     0.100 C 
ENDBRANCH  19  20
ENDBRANCH  18  19
ENDBRANCH  15  18
ENDBRANCH   3   5
TORSDOF 4
ENDMDL
MODEL 3
REMARK VINA RESULT: -7.594357201      2.419      4.436
REMARK  4 active torsions:
REMARK  status: ('A' for Active; 'I' for Inactive)
REMARK    1  A    between atoms: C3_3  and  N1_5 
REMARK       I    between atoms: N1_5  and  C5_7 
REMARK       I    between atoms: C5_7  and  N2_9 
REMARK       I    between atoms: N3_13  and  C9_14 
REMARK       I    between atoms: C9_14  and  N4_16 
REMARK    2  A    between atoms: N4_16  and  C10_18 
REMARK    3  A    between atoms: C10_18  and  C11_19 
REMARK    4  A    between atoms: C11_19  and  N5_20 
ROOT
HETATM    1  C1  UNL     1      20.475  11.246  27.691  1.00  0.00     0.014 C 
HETATM    2  C2  UNL     1      19.485  11.660  27.142  1.00  0.00    -0.092 C 
HETATM    3  C3  UNL     1      18.277  12.173  26.496  1.00  0.00     0.161 C 
HETATM    4  C4  UNL     1      18.323  13.685  26.500  1.00  0.00     0.046 C 
ENDROOT
BRANCH   3   5
HETATM    5  N1  UNL     1      18.187  11.681  25.110  1.00  0.00    -0.327 N 
HETATM    6  C5  UNL     1      17.187  10.797  24.720  1.00  0.00     0.338 C 
HETATM    7  O1  UNL     1      16.345  10.443  25.641  1.00  0.00    -0.245 OA
HETATM    8  N2  UNL     1      16.996  10.256  23.440  1.00  0.00    -0.229 N 
HETATM    9  C6  UNL     1      15.942   9.352  22.905  1.00  0.00     0.140 A 
HETATM   10  N3  UNL     1      17.529  10.212  22.175  1.00  0.00    -0.229 N 
HETATM   11  C7  UNL     1      14.952  10.073  22.099  1.00  0.00     0.059 A 
HETATM   12  C8  UNL     1      16.274   9.844  21.522  1.00  0.00     0.140 A 
HETATM   13  C9  UNL     1      18.830  10.395  21.580  1.00  0.00     0.341 C 
HETATM   14  O2  UNL     1      19.805  10.630  22.321  1.00  0.00    -0.245 OA
HETATM   15  N4  UNL     1      19.019  10.314  20.184  1.00  0.00    -0.317 N 
ATOM     16  H4  UNL     1      18.184  10.153  19.621  1.00  0.00     0.170 HD
ATOM     17  H1  UNL     1      18.872  11.994  24.423  1.00  0.00     0.165 HD
BRANCH  15  18
HETATM   18  C10 UNL     1      20.215  10.429  19.495  1.00  0.00     0.104 C 
BRANCH  18  19
HETATM   19  C11 UNL     1      21.006  11.636  19.312  1.00  0.00     0.076 C 
BRANCH  19  20
HETATM   20  N5  UNL     1      22.302  11.807  19.776  1.00  0.00    -0.291 NA
HETATM   21  C12 UNL     1      22.952  10.728  20.429  1.00  0.00     0.100 C 
HETATM   22  C13 UNL     1      24.106  10.289  19.551  1.00  0.00     0.004 C 
HETATM   23  C14 UNL     1      25.435  10.517  20.275  1.00  0.00     0.006 C 
HETATM   24  C17 UNL     1      24.151  11.258  18.404  1.00  0.00     0.004 C 
HETATM   25  C15 UNL     1      26.367  10.708  19.087  1.00  0.00     0.001 C 
HETATM   26  C16 UNL     1      25.589  11.732  18.273  1.00  0.00     0.006 C 
HETATM   27  C18 UNL     1      23.232  12.380  18.826  1.00  0.00     0.100 C 
ENDBRANCH  19  20
ENDBRANCH  18  19
ENDBRANCH  15  18
ENDBRANCH   3   5
TORSDOF 4
ENDMDL
MODEL 4
REMARK VINA RESULT: -7.549629233      0.907      1.394
REMARK  4 active torsions:
REMARK  status: ('A' for Active; 'I' for Inactive)
REMARK    1  A    between atoms: C3_3  and  N1_5 
REMARK       I    between atoms: N1_5  and  C5_7 
REMARK       I    between atoms: C5_7  and  N2_9 
REMARK       I    between atoms: N3_13  and  C9_14 
REMARK       I    between atoms: C9_14  and  N4_16 
REMARK    2  A    between atoms: N4_16  and  C10_18 
REMARK    3  A    between atoms: C10_18  and  C11_19 
REMARK    4  A    between atoms: C11_19  and  N5_20 
ROOT
HETATM    1  C1  UNL     1      16.198   7.937  19.343  1.00  0.00     0.014 C 
HETATM    2  C2  UNL     1      15.802   8.417  20.376  1.00  0.00    -0.092 C 
HETATM    3  C3  UNL     1      15.303   8.986  21.628  1.00  0.00     0.161 C 
HETATM    4  C4  UNL     1      15.191   7.883  22.657  1.00  0.00     0.046 C 
ENDROOT
BRANCH   3   5
HETATM    5  N1  UNL     1      16.217  10.033  22.117  1.00  0.00    -0.327 N 
HETATM    6  C5  UNL     1      15.747  11.287  22.490  1.00  0.00     0.338 C 
HETATM    7  O1  UNL     1      14.467  11.472  22.387  1.00  0.00    -0.245 OA
HETATM    8  N2  UNL     1      16.511  12.363  22.965  1.00  0.00    -0.229 N 
HETATM    9  C6  UNL     1      16.111  13.717  23.436  1.00  0.00     0.140 A 
HETATM   10  N3  UNL     1      17.797  12.767  23.228  1.00  0.00    -0.229 N 
HETATM   11  C7  UNL     1      16.137  13.824  24.898  1.00  0.00     0.059 A 
HETATM   12  C8  UNL     1      17.412  13.801  24.187  1.00  0.00     0.140 A 
HETATM   13  C9  UNL     1      19.119  12.418  22.766  1.00  0.00     0.341 C 
HETATM   14  O2  UNL     1      19.239  11.555  21.874  1.00  0.00    -0.245 OA
HETATM   15  N4  UNL     1      20.271  13.031  23.303  1.00  0.00    -0.317 N 
ATOM     16  H4  UNL     1      20.120  13.706  24.052  1.00  0.00     0.170 HD
ATOM     17  H1  UNL     1      17.215   9.834  22.182  1.00  0.00     0.165 HD
BRANCH  15  18
HETATM   18  C10 UNL     1      21.585  12.816  22.921  1.00  0.00     0.104 C 
BRANCH  18  19
HETATM   19  C11 UNL     1      22.286  13.439  21.810  1.00  0.00     0.076 C 
BRANCH  19  20
HETATM   20  N5  UNL     1      22.375  12.904  20.534  1.00  0.00    -0.291 NA
HETATM   21  C12 UNL     1      23.536  13.153  19.757  1.00  0.00     0.100 C 
HETATM   22  C13 UNL     1      24.253  11.833  19.568  1.00  0.00     0.004 C 
HETATM   23  C14 UNL     1      24.281  11.457  18.084  1.00  0.00     0.006 C 
HETATM   24  C17 UNL     1      23.373  10.786  20.187  1.00  0.00     0.004 C 
HETATM   25  C15 UNL     1      24.352   9.940  18.185  1.00  0.00     0.001 C 
HETATM   26  C16 UNL     1      23.225   9.665  19.171  1.00  0.00     0.006 C 
HETATM   27  C18 UNL     1      22.061  11.495  20.427  1.00  0.00     0.100 C 
ENDBRANCH  19  20
ENDBRANCH  18  19
ENDBRANCH  15  18
ENDBRANCH   3   5
TORSDOF 4
ENDMDL
MODEL 5
REMARK VINA RESULT: -7.537661162      3.971      7.036
REMARK  4 active torsions:
REMARK  status: ('A' for Active; 'I' for Inactive)
REMARK    1  A    between atoms: C3_3  and  N1_5 
REMARK       I    between atoms: N1_5  and  C5_7 
REMARK       I    between atoms: C5_7  and  N2_9 
REMARK       I    between atoms: N3_13  and  C9_14 
REMARK       I    between atoms: C9_14  and  N4_16 
REMARK    2  A    between atoms: N4_16  and  C10_18 
REMARK    3  A    between atoms: C10_18  and  C11_19 
REMARK    4  A    between atoms: C11_19  and  N5_20 
ROOT
HETATM    1  C1  UNL     1      26.622  13.975  24.687  1.00  0.00     0.014 C 
HETATM    2  C2  UNL     1      25.702  14.348  25.372  1.00  0.00    -0.092 C 
HETATM    3  C3  UNL     1      24.599  14.818  26.211  1.00  0.00     0.161 C 
HETATM    4  C4  UNL     1      24.221  16.219  25.784  1.00  0.00     0.046 C 
ENDROOT
BRANCH   3   5
HETATM    5  N1  UNL     1      23.436  13.925  26.077  1.00  0.00    -0.327 N 
HETATM    6  C5  UNL     1      22.830  13.354  27.191  1.00  0.00     0.338 C 
HETATM    7  O1  UNL     1      23.345  13.659  28.341  1.00  0.00    -0.245 OA
HETATM    8  N2  UNL     1      21.725  12.490  27.195  1.00  0.00    -0.229 N 
HETATM    9  C6  UNL     1      20.972  11.867  28.318  1.00  0.00     0.140 A 
HETATM   10  N3  UNL     1      20.850  11.820  26.376  1.00  0.00    -0.229 N 
HETATM   11  C7  UNL     1      19.695  12.541  28.569  1.00  0.00     0.059 A 
HETATM   12  C8  UNL     1      19.803  11.690  27.388  1.00  0.00     0.140 A 
HETATM   13  C9  UNL     1      20.854  11.327  25.020  1.00  0.00     0.341 C 
HETATM   14  O2  UNL     1      21.883  11.467  24.330  1.00  0.00    -0.245 OA
HETATM   15  N4  UNL     1      19.721  10.694  24.464  1.00  0.00    -0.317 N 
ATOM     16  H4  UNL     1      18.895  10.635  25.059  1.00  0.00     0.170 HD
ATOM     17  H1  UNL     1      23.067  13.721  25.148  1.00  0.00     0.165 HD
BRANCH  15  18
HETATM   18  C10 UNL     1      19.610  10.145  23.197  1.00  0.00     0.104 C 
BRANCH  18  19
HETATM   19  C11 UNL     1      19.051  10.780  22.015  1.00  0.00     0.076 C 
BRANCH  19  20
HETATM   20  N5  UNL     1      19.735  10.969  20.824  1.00  0.00    -0.291 NA
HETATM   21  C12 UNL     1      20.510  12.145  20.648  1.00  0.00     0.100 C 
HETATM   22  C13 UNL     1      21.964  11.728  20.567  1.00  0.00     0.004 C 
HETATM   23  C14 UNL     1      22.534  12.075  19.190  1.00  0.00     0.006 C 
HETATM   24  C17 UNL     1      21.970  10.227  20.591  1.00  0.00     0.004 C 
HETATM   25  C15 UNL     1      23.625  11.019  19.070  1.00  0.00     0.001 C 
HETATM   26  C16 UNL     1      22.851   9.763  19.442  1.00  0.00     0.006 C 
HETATM   27  C18 UNL     1      20.526   9.843  20.374  1.00  0.00     0.100 C 
ENDBRANCH  19  20
ENDBRANCH  18  19
ENDBRANCH  15  18
ENDBRANCH   3   5
TORSDOF 4
ENDMDL
