MODEL 1
REMARK VINA RESULT: -6.773962925      0.000      0.000
REMARK  5 active torsions:
REMARK  status: ('A' for Active; 'I' for Inactive)
REMARK    1  A    between atoms: C1_2  and  C2_3 
REMARK       I    between atoms: C1_2  and  N1_9 
REMARK    2  A    between atoms: C2_3  and  O2_4 
REMARK    3  A    between atoms: O2_4  and  C3_5 
REMARK    4  A    between atoms: C3_5  and  C4_7 
REMARK    5  A    between atoms: N1_9  and  C5_11 
ROOT
HETATM    1  C5  UNL     1      24.680  12.551  22.231  1.00  0.00     0.130 A 
HETATM    2  N2  UNL     1      23.908  13.339  22.998  1.00  0.00    -0.285 N 
ATOM      3  H2  UNL     1      24.259  14.024  23.668  1.00  0.00     0.188 HD
HETATM    4  N3  UNL     1      22.603  13.095  22.757  1.00  0.00    -0.303 N 
ATOM      5  H3  UNL     1      21.821  13.565  23.214  1.00  0.00     0.186 HD
HETATM    6  C6  UNL     1      22.492  12.138  21.823  1.00  0.00     0.036 A 
HETATM    7  C7  UNL     1      23.767  11.794  21.490  1.00  0.00     0.011 A 
HETATM    8  C8  UNL     1      24.204  10.793  20.527  1.00  0.00     0.044 C 
HETATM    9  C9  UNL     1      23.394   9.523  20.514  1.00  0.00     0.005 C 
HETATM   10  C10 UNL     1      22.077   9.857  19.836  1.00  0.00     0.001 C 
HETATM   11  C11 UNL     1      21.120  10.242  20.928  1.00  0.00     0.006 C 
HETATM   12  C12 UNL     1      21.202  11.662  21.352  1.00  0.00     0.059 C 
ENDROOT
BRANCH   1  13
HETATM   13  N1  UNL     1      25.958  12.440  22.137  1.00  0.00    -0.310 N 
HETATM   14  C1  UNL     1      26.935  13.179  22.782  1.00  0.00     0.247 C 
HETATM   15  O1  UNL     1      26.601  14.231  23.434  1.00  0.00    -0.271 OA
ATOM     16  H1  UNL     1      26.296  11.713  21.507  1.00  0.00     0.170 HD
BRANCH  14  17
HETATM   17  C2  UNL     1      28.358  12.807  22.759  1.00  0.00     0.281 C 
BRANCH  17  18
HETATM   18  O2  UNL     1      28.721  11.594  23.306  1.00  0.00    -0.311 OA
BRANCH  18  19
HETATM   19  C3  UNL     1      29.229  10.573  22.472  1.00  0.00     0.269 C 
HETATM   20  O3  UNL     1      30.468  10.521  22.360  1.00  0.00    -0.264 OA
BRANCH  19  21
HETATM   21  C4  UNL     1      28.318   9.623  21.788  1.00  0.00     0.196 C 
HETATM   22 BR1  UNL     1      27.947  10.101  19.967  1.00  0.00    -0.086 Br
ENDBRANCH  19  21
ENDBRANCH  18  19
ENDBRANCH  17  18
ENDBRANCH  14  17
ENDBRANCH   1  13
TORSDOF 5
ENDMDL
MODEL 2
REMARK VINA RESULT: -6.696201031      4.890      6.321
REMARK  5 active torsions:
REMARK  status: ('A' for Active; 'I' for Inactive)
REMARK    1  A    between atoms: C1_2  and  C2_3 
REMARK       I    between atoms: C1_2  and  N1_9 
REMARK    2  A    between atoms: C2_3  and  O2_4 
REMARK    3  A    between atoms: O2_4  and  C3_5 
REMARK    4  A    between atoms: C3_5  and  C4_7 
REMARK    5  A    between atoms: N1_9  and  C5_11 
ROOT
HETATM    1  C5  UNL     1      22.361  10.830  23.109  1.00  0.00     0.130 A 
HETATM    2  N2  UNL     1      23.070   9.689  23.147  1.00  0.00    -0.285 N 
ATOM      3  H2  UNL     1      23.188   9.104  23.973  1.00  0.00     0.188 HD
HETATM    4  N3  UNL     1      23.603   9.429  21.934  1.00  0.00    -0.303 N 
ATOM      5  H3  UNL     1      24.183   8.621  21.707  1.00  0.00     0.186 HD
HETATM    6  C6  UNL     1      23.253  10.398  21.074  1.00  0.00     0.036 A 
HETATM    7  C7  UNL     1      22.487  11.268  21.787  1.00  0.00     0.011 A 
HETATM    8  C8  UNL     1      21.861  12.500  21.325  1.00  0.00     0.044 C 
HETATM    9  C9  UNL     1      22.698  13.327  20.384  1.00  0.00     0.005 C 
HETATM   10  C10 UNL     1      22.683  12.608  19.047  1.00  0.00     0.001 C 
HETATM   11  C11 UNL     1      23.885  11.708  19.033  1.00  0.00     0.006 C 
HETATM   12  C12 UNL     1      23.678  10.390  19.684  1.00  0.00     0.059 C 
ENDROOT
BRANCH   1  13
HETATM   13  N1  UNL     1      21.701  11.454  24.020  1.00  0.00    -0.310 N 
HETATM   14  C1  UNL     1      22.190  12.148  25.114  1.00  0.00     0.247 C 
HETATM   15  O1  UNL     1      23.433  12.054  25.414  1.00  0.00    -0.271 OA
ATOM     16  H1  UNL     1      20.686  11.435  23.924  1.00  0.00     0.170 HD
BRANCH  14  17
HETATM   17  C2  UNL     1      21.341  13.003  25.956  1.00  0.00     0.281 C 
BRANCH  17  18
HETATM   18  O2  UNL     1      21.948  13.747  26.947  1.00  0.00    -0.311 OA
BRANCH  18  19
HETATM   19  C3  UNL     1      22.236  13.150  28.195  1.00  0.00     0.269 C 
HETATM   20  O3  UNL     1      23.263  13.554  28.771  1.00  0.00    -0.264 OA
BRANCH  19  21
HETATM   21  C4  UNL     1      21.345  12.112  28.769  1.00  0.00     0.196 C 
HETATM   22 BR1  UNL     1      20.097  12.804  30.051  1.00  0.00    -0.086 Br
ENDBRANCH  19  21
ENDBRANCH  18  19
ENDBRANCH  17  18
ENDBRANCH  14  17
ENDBRANCH   1  13
TORSDOF 5
ENDMDL
MODEL 3
REMARK VINA RESULT: -6.643108412      5.222      6.986
REMARK  5 active torsions:
REMARK  status: ('A' for Active; 'I' for Inactive)
REMARK    1  A    between atoms: C1_2  and  C2_3 
REMARK       I    between atoms: C1_2  and  N1_9 
REMARK    2  A    between atoms: C2_3  and  O2_4 
REMARK    3  A    between atoms: O2_4  and  C3_5 
REMARK    4  A    between atoms: C3_5  and  C4_7 
REMARK    5  A    between atoms: N1_9  and  C5_11 
ROOT
HETATM    1  C5  UNL     1      21.263  10.851  21.534  1.00  0.00     0.130 A 
HETATM    2  N2  UNL     1      21.277   9.508  21.497  1.00  0.00    -0.285 N 
ATOM      3  H2  UNL     1      20.765   8.903  22.139  1.00  0.00     0.188 HD
HETATM    4  N3  UNL     1      22.064   9.075  20.490  1.00  0.00    -0.303 N 
ATOM      5  H3  UNL     1      22.237   8.097  20.257  1.00  0.00     0.186 HD
HETATM    6  C6  UNL     1      22.585  10.130  19.844  1.00  0.00     0.036 A 
HETATM    7  C7  UNL     1      22.098  11.231  20.478  1.00  0.00     0.011 A 
HETATM    8  C8  UNL     1      22.363  12.632  20.176  1.00  0.00     0.044 C 
HETATM    9  C9  UNL     1      23.786  12.944  19.793  1.00  0.00     0.005 C 
HETATM   10  C10 UNL     1      23.979  12.419  18.382  1.00  0.00     0.001 C 
HETATM   11  C11 UNL     1      24.513  11.021  18.515  1.00  0.00     0.006 C 
HETATM   12  C12 UNL     1      23.476   9.977  18.705  1.00  0.00     0.059 C 
ENDROOT
BRANCH   1  13
HETATM   13  N1  UNL     1      20.666  11.677  22.319  1.00  0.00    -0.310 N 
HETATM   14  C1  UNL     1      19.966  11.404  23.482  1.00  0.00     0.247 C 
HETATM   15  O1  UNL     1      19.691  10.188  23.781  1.00  0.00    -0.271 OA
ATOM     16  H1  UNL     1      20.715  12.660  22.051  1.00  0.00     0.170 HD
BRANCH  14  17
HETATM   17  C2  UNL     1      19.520  12.457  24.406  1.00  0.00     0.281 C 
BRANCH  17  18
HETATM   18  O2  UNL     1      18.918  13.578  23.873  1.00  0.00    -0.311 OA
BRANCH  18  19
HETATM   19  C3  UNL     1      19.341  14.863  24.282  1.00  0.00     0.269 C 
HETATM   20  O3  UNL     1      18.448  15.722  24.399  1.00  0.00    -0.264 OA
BRANCH  19  21
HETATM   21  C4  UNL     1      20.770  15.143  24.561  1.00  0.00     0.196 C 
HETATM   22 BR1  UNL     1      21.835  15.321  22.975  1.00  0.00    -0.086 Br
ENDBRANCH  19  21
ENDBRANCH  18  19
ENDBRANCH  17  18
ENDBRANCH  14  17
ENDBRANCH   1  13
TORSDOF 5
ENDMDL
MODEL 4
REMARK VINA RESULT: -6.638021038      5.759      8.035
REMARK  5 active torsions:
REMARK  status: ('A' for Active; 'I' for Inactive)
REMARK    1  A    between atoms: C1_2  and  C2_3 
REMARK       I    between atoms: C1_2  and  N1_9 
REMARK    2  A    between atoms: C2_3  and  O2_4 
REMARK    3  A    between atoms: O2_4  and  C3_5 
REMARK    4  A    between atoms: C3_5  and  C4_7 
REMARK    5  A    between atoms: N1_9  and  C5_11 
ROOT
HETATM    1  C5  UNL     1      21.103  10.215  24.714  1.00  0.00     0.130 A 
HETATM    2  N2  UNL     1      22.108   9.370  24.997  1.00  0.00    -0.285 N 
ATOM      3  H2  UNL     1      22.183   8.820  25.853  1.00  0.00     0.188 HD
HETATM    4  N3  UNL     1      23.004   9.352  23.988  1.00  0.00    -0.303 N 
ATOM      5  H3  UNL     1      23.854   8.789  23.965  1.00  0.00     0.186 HD
HETATM    6  C6  UNL     1      22.602  10.188  23.018  1.00  0.00     0.036 A 
HETATM    7  C7  UNL     1      21.430  10.727  23.454  1.00  0.00     0.011 A 
HETATM    8  C8  UNL     1      20.585  11.704  22.780  1.00  0.00     0.044 C 
HETATM    9  C9  UNL     1      21.327  12.800  22.061  1.00  0.00     0.005 C 
HETATM   10  C10 UNL     1      21.911  12.175  20.806  1.00  0.00     0.001 C 
HETATM   11  C11 UNL     1      23.297  11.720  21.161  1.00  0.00     0.006 C 
HETATM   12  C12 UNL     1      23.366  10.381  21.796  1.00  0.00     0.059 C 
ENDROOT
BRANCH   1  13
HETATM   13  N1  UNL     1      20.054  10.547  25.381  1.00  0.00    -0.310 N 
HETATM   14  C1  UNL     1      19.972  11.330  26.520  1.00  0.00     0.247 C 
HETATM   15  O1  UNL     1      21.047  11.654  27.139  1.00  0.00    -0.271 OA
ATOM     16  H1  UNL     1      19.169  10.188  25.025  1.00  0.00     0.170 HD
BRANCH  14  17
HETATM   17  C2  UNL     1      18.694  11.818  27.058  1.00  0.00     0.281 C 
BRANCH  17  18
HETATM   18  O2  UNL     1      17.529  11.382  26.464  1.00  0.00    -0.311 OA
BRANCH  18  19
HETATM   19  C3  UNL     1      16.762  12.276  25.683  1.00  0.00     0.269 C 
HETATM   20  O3  UNL     1      15.727  12.718  26.214  1.00  0.00    -0.264 OA
BRANCH  19  21
HETATM   21  C4  UNL     1      17.192  12.658  24.316  1.00  0.00     0.196 C 
HETATM   22 BR1  UNL     1      18.133  14.329  24.253  1.00  0.00    -0.086 Br
ENDBRANCH  19  21
ENDBRANCH  18  19
ENDBRANCH  17  18
ENDBRANCH  14  17
ENDBRANCH   1  13
TORSDOF 5
ENDMDL
MODEL 5
REMARK VINA RESULT: -6.609338835      5.173      6.693
REMARK  5 active torsions:
REMARK  status: ('A' for Active; 'I' for Inactive)
REMARK    1  A    between atoms: C1_2  and  C2_3 
REMARK       I    between atoms: C1_2  and  N1_9 
REMARK    2  A    between atoms: C2_3  and  O2_4 
REMARK    3  A    between atoms: O2_4  and  C3_5 
REMARK    4  A    between atoms: C3_5  and  C4_7 
REMARK    5  A    between atoms: N1_9  and  C5_11 
ROOT
HETATM    1  C5  UNL     1      22.386  10.740  23.148  1.00  0.00     0.130 A 
HETATM    2  N2  UNL     1      23.147   9.638  23.255  1.00  0.00    -0.285 N 
ATOM      3  H2  UNL     1      23.271   9.098  24.111  1.00  0.00     0.188 HD
HETATM    4  N3  UNL     1      23.724   9.349  22.070  1.00  0.00    -0.303 N 
ATOM      5  H3  UNL     1      24.347   8.561  21.894  1.00  0.00     0.186 HD
HETATM    6  C6  UNL     1      23.351  10.260  21.157  1.00  0.00     0.036 A 
HETATM    7  C7  UNL     1      22.526  11.123  21.810  1.00  0.00     0.011 A 
HETATM    8  C8  UNL     1      21.854  12.301  21.276  1.00  0.00     0.044 C 
HETATM    9  C9  UNL     1      22.676  13.124  20.318  1.00  0.00     0.005 C 
HETATM   10  C10 UNL     1      22.730  12.345  19.016  1.00  0.00     0.001 C 
HETATM   11  C11 UNL     1      23.973  11.504  19.073  1.00  0.00     0.006 C 
HETATM   12  C12 UNL     1      23.812  10.209  19.780  1.00  0.00     0.059 C 
ENDROOT
BRANCH   1  13
HETATM   13  N1  UNL     1      21.674  11.373  24.012  1.00  0.00    -0.310 N 
HETATM   14  C1  UNL     1      22.093  12.028  25.158  1.00  0.00     0.247 C 
HETATM   15  O1  UNL     1      23.301  11.882  25.560  1.00  0.00    -0.271 OA
ATOM     16  H1  UNL     1      20.671  11.394  23.831  1.00  0.00     0.170 HD
BRANCH  14  17
HETATM   17  C2  UNL     1      21.207  12.900  25.943  1.00  0.00     0.281 C 
BRANCH  17  18
HETATM   18  O2  UNL     1      20.208  12.309  26.688  1.00  0.00    -0.311 OA
BRANCH  18  19
HETATM   19  C3  UNL     1      20.536  11.605  27.869  1.00  0.00     0.269 C 
HETATM   20  O3  UNL     1      20.281  10.387  27.869  1.00  0.00    -0.264 OA
BRANCH  19  21
HETATM   21  C4  UNL     1      21.158  12.298  29.023  1.00  0.00     0.196 C 
HETATM   22 BR1  UNL     1      19.893  12.830  30.364  1.00  0.00    -0.086 Br
ENDBRANCH  19  21
ENDBRANCH  18  19
ENDBRANCH  17  18
ENDBRANCH  14  17
ENDBRANCH   1  13
TORSDOF 5
ENDMDL
